MODEL 1
REMARK VINA RESULT:    -4.650      0.000      0.000
REMARK INTER + INTRA:          -5.681
REMARK INTER:                  -5.465
REMARK INTRA:                  -0.216
REMARK UNBOUND:                -0.216
REMARK SMILES O=C([O-])C=Cc1ccc(O)c(O)c1
REMARK SMILES IDX 6 1 13 2 7 3 11 4 8 5 9 6 5 7 4 8 2 9 1 10 3 11 12 12 10 14
REMARK H PARENT 12 13 10 15
REMARK Flexibility Score: inf
ROOT
ATOM      1  C   UNL     1     -59.445  18.003 -18.186  1.00  0.00    -0.022 A 
ATOM      2  C   UNL     1     -60.556  17.510 -17.481  1.00  0.00     0.058 A 
ATOM      3  C   UNL     1     -59.222  17.574 -19.501  1.00  0.00     0.012 A 
ATOM      4  C   UNL     1     -61.463  16.639 -18.103  1.00  0.00     0.157 A 
ATOM      5  C   UNL     1     -60.124  16.708 -20.124  1.00  0.00     0.051 A 
ATOM      6  C   UNL     1     -61.247  16.240 -19.433  1.00  0.00     0.157 A 
ENDROOT
BRANCH   1   7
ATOM      7  C   UNL     1     -58.450  18.879 -17.532  1.00  0.00     0.010 C 
ATOM      8  C   UNL     1     -57.286  18.473 -17.002  1.00  0.00     0.025 C 
BRANCH   8   9
ATOM      9  C   UNL     1     -56.866  17.071 -16.814  1.00  0.00     0.064 C 
ATOM     10  O   UNL     1     -57.466  16.306 -16.015  1.00  0.00    -0.545 OA
ATOM     11  O   UNL     1     -55.741  16.607 -17.481  1.00  0.00    -0.545 OA
ENDBRANCH   8   9
ENDBRANCH   1   7
BRANCH   4  12
ATOM     12  O   UNL     1     -62.573  16.167 -17.404  1.00  0.00    -0.504 OA
ATOM     13  H   UNL     1     -63.276  16.798 -17.036  1.00  0.00     0.293 HD
ENDBRANCH   4  12
BRANCH   6  14
ATOM     14  O   UNL     1     -62.133  15.380 -20.081  1.00  0.00    -0.504 OA
ATOM     15  H   UNL     1     -62.841  14.859 -19.579  1.00  0.00     0.293 HD
ENDBRANCH   6  14
TORSDOF 4
ENDMDL
MODEL 2
REMARK VINA RESULT:    -4.503     10.237     11.345
REMARK INTER + INTRA:          -5.508
REMARK INTER:                  -5.217
REMARK INTRA:                  -0.291
REMARK UNBOUND:                -0.216
REMARK SMILES O=C([O-])C=Cc1ccc(O)c(O)c1
REMARK SMILES IDX 6 1 13 2 7 3 11 4 8 5 9 6 5 7 4 8 2 9 1 10 3 11 12 12 10 14
REMARK H PARENT 12 13 10 15
REMARK Flexibility Score: inf
ROOT
ATOM      1  C   UNL     1     -59.033  26.449 -14.655  1.00  0.00    -0.022 A 
ATOM      2  C   UNL     1     -59.247  27.310 -15.745  1.00  0.00     0.058 A 
ATOM      3  C   UNL     1     -57.826  25.743 -14.564  1.00  0.00     0.012 A 
ATOM      4  C   UNL     1     -58.243  27.502 -16.706  1.00  0.00     0.157 A 
ATOM      5  C   UNL     1     -56.824  25.934 -15.518  1.00  0.00     0.051 A 
ATOM      6  C   UNL     1     -57.023  26.813 -16.588  1.00  0.00     0.157 A 
ENDROOT
BRANCH   1   7
ATOM      7  C   UNL     1     -60.098  26.193 -13.662  1.00  0.00     0.010 C 
ATOM      8  C   UNL     1     -60.286  26.886 -12.527  1.00  0.00     0.025 C 
BRANCH   8   9
ATOM      9  C   UNL     1     -59.370  27.903 -11.976  1.00  0.00     0.064 C 
ATOM     10  O   UNL     1     -59.504  29.125 -12.245  1.00  0.00    -0.545 OA
ATOM     11  O   UNL     1     -58.296  27.495 -11.197  1.00  0.00    -0.545 OA
ENDBRANCH   8   9
ENDBRANCH   1   7
BRANCH   4  12
ATOM     12  O   UNL     1     -58.454  28.370 -17.775  1.00  0.00    -0.504 OA
ATOM     13  H   UNL     1     -59.142  28.172 -18.492  1.00  0.00     0.293 HD
ENDBRANCH   4  12
BRANCH   6  14
ATOM     14  O   UNL     1     -56.004  26.986 -17.524  1.00  0.00    -0.504 OA
ATOM     15  H   UNL     1     -55.662  26.222 -18.095  1.00  0.00     0.293 HD
ENDBRANCH   6  14
TORSDOF 4
ENDMDL
MODEL 3
REMARK VINA RESULT:    -4.466     16.307     17.832
REMARK INTER + INTRA:          -5.466
REMARK INTER:                  -5.204
REMARK INTRA:                  -0.262
REMARK UNBOUND:                -0.216
REMARK SMILES O=C([O-])C=Cc1ccc(O)c(O)c1
REMARK SMILES IDX 6 1 13 2 7 3 11 4 8 5 9 6 5 7 4 8 2 9 1 10 3 11 12 12 10 14
REMARK H PARENT 12 13 10 15
REMARK Flexibility Score: inf
ROOT
ATOM      1  C   UNL     1     -52.404  12.824  -2.186  1.00  0.00    -0.022 A 
ATOM      2  C   UNL     1     -53.463  12.181  -2.848  1.00  0.00     0.058 A 
ATOM      3  C   UNL     1     -52.476  13.013  -0.799  1.00  0.00     0.012 A 
ATOM      4  C   UNL     1     -54.558  11.685  -2.125  1.00  0.00     0.157 A 
ATOM      5  C   UNL     1     -53.563  12.518  -0.075  1.00  0.00     0.051 A 
ATOM      6  C   UNL     1     -54.605  11.851  -0.729  1.00  0.00     0.157 A 
ENDROOT
BRANCH   1   7
ATOM      7  C   UNL     1     -51.268  13.400  -2.936  1.00  0.00     0.010 C 
ATOM      8  C   UNL     1     -51.185  14.668  -3.369  1.00  0.00     0.025 C 
BRANCH   8   9
ATOM      9  C   UNL     1     -52.273  15.664  -3.337  1.00  0.00     0.064 C 
ATOM     10  O   UNL     1     -52.909  15.979  -4.376  1.00  0.00    -0.545 OA
ATOM     11  O   UNL     1     -52.557  16.317  -2.145  1.00  0.00    -0.545 OA
ENDBRANCH   8   9
ENDBRANCH   1   7
BRANCH   4  12
ATOM     12  O   UNL     1     -55.597  11.033  -2.786  1.00  0.00    -0.504 OA
ATOM     13  H   UNL     1     -55.456  10.142  -3.247  1.00  0.00     0.293 HD
ENDBRANCH   4  12
BRANCH   6  14
ATOM     14  O   UNL     1     -55.676  11.366   0.019  1.00  0.00    -0.504 OA
ATOM     15  H   UNL     1     -56.284  11.978   0.550  1.00  0.00     0.293 HD
ENDBRANCH   6  14
TORSDOF 4
ENDMDL
MODEL 4
REMARK VINA RESULT:    -4.334     10.084     10.857
REMARK INTER + INTRA:          -5.310
REMARK INTER:                  -5.020
REMARK INTRA:                  -0.290
REMARK UNBOUND:                -0.216
REMARK SMILES O=C([O-])C=Cc1ccc(O)c(O)c1
REMARK SMILES IDX 6 1 13 2 7 3 11 4 8 5 9 6 5 7 4 8 2 9 1 10 3 11 12 12 10 14
REMARK H PARENT 12 13 10 15
REMARK Flexibility Score: inf
ROOT
ATOM      1  C   UNL     1     -58.077  25.765 -14.572  1.00  0.00    -0.022 A 
ATOM      2  C   UNL     1     -57.022  25.922 -15.487  1.00  0.00     0.058 A 
ATOM      3  C   UNL     1     -59.235  26.541 -14.722  1.00  0.00     0.012 A 
ATOM      4  C   UNL     1     -57.144  26.806 -16.569  1.00  0.00     0.157 A 
ATOM      5  C   UNL     1     -59.361  27.421 -15.800  1.00  0.00     0.051 A 
ATOM      6  C   UNL     1     -58.323  27.556 -16.728  1.00  0.00     0.157 A 
ENDROOT
BRANCH   1   7
ATOM      7  C   UNL     1     -57.947  24.879 -13.397  1.00  0.00     0.010 C 
ATOM      8  C   UNL     1     -57.519  25.257 -12.182  1.00  0.00     0.025 C 
BRANCH   8   9
ATOM      9  C   UNL     1     -56.935  26.569 -11.842  1.00  0.00     0.064 C 
ATOM     10  O   UNL     1     -57.642  27.508 -11.393  1.00  0.00    -0.545 OA
ATOM     11  O   UNL     1     -55.587  26.793 -12.088  1.00  0.00    -0.545 OA
ENDBRANCH   8   9
ENDBRANCH   1   7
BRANCH   4  12
ATOM     12  O   UNL     1     -56.101  26.944 -17.482  1.00  0.00    -0.504 OA
ATOM     13  H   UNL     1     -55.133  26.834 -17.203  1.00  0.00     0.293 HD
ENDBRANCH   4  12
BRANCH   6  14
ATOM     14  O   UNL     1     -58.478  28.439 -17.796  1.00  0.00    -0.504 OA
ATOM     15  H   UNL     1     -57.887  28.399 -18.618  1.00  0.00     0.293 HD
ENDBRANCH   6  14
TORSDOF 4
ENDMDL
MODEL 5
REMARK VINA RESULT:    -4.254      1.142      2.232
REMARK INTER + INTRA:          -5.216
REMARK INTER:                  -4.928
REMARK INTRA:                  -0.288
REMARK UNBOUND:                -0.216
REMARK SMILES O=C([O-])C=Cc1ccc(O)c(O)c1
REMARK SMILES IDX 6 1 13 2 7 3 11 4 8 5 9 6 5 7 4 8 2 9 1 10 3 11 12 12 10 14
REMARK H PARENT 12 13 10 15
REMARK Flexibility Score: inf
ROOT
ATOM      1  C   UNL     1     -58.684  18.083 -18.526  1.00  0.00    -0.022 A 
ATOM      2  C   UNL     1     -59.299  17.130 -19.355  1.00  0.00     0.058 A 
ATOM      3  C   UNL     1     -59.312  18.460 -17.331  1.00  0.00     0.012 A 
ATOM      4  C   UNL     1     -60.504  16.524 -18.969  1.00  0.00     0.157 A 
ATOM      5  C   UNL     1     -60.511  17.857 -16.943  1.00  0.00     0.051 A 
ATOM      6  C   UNL     1     -61.110  16.887 -17.753  1.00  0.00     0.157 A 
ENDROOT
BRANCH   1   7
ATOM      7  C   UNL     1     -57.443  18.771 -18.939  1.00  0.00     0.010 C 
ATOM      8  C   UNL     1     -56.196  18.331 -18.708  1.00  0.00     0.025 C 
BRANCH   8   9
ATOM      9  C   UNL     1     -55.829  17.187 -17.852  1.00  0.00     0.064 C 
ATOM     10  O   UNL     1     -55.507  16.074 -18.342  1.00  0.00    -0.545 OA
ATOM     11  O   UNL     1     -55.908  17.322 -16.472  1.00  0.00    -0.545 OA
ENDBRANCH   8   9
ENDBRANCH   1   7
BRANCH   4  12
ATOM     12  O   UNL     1     -61.101  15.568 -19.788  1.00  0.00    -0.504 OA
ATOM     13  H   UNL     1     -62.098  15.572 -19.969  1.00  0.00     0.293 HD
ENDBRANCH   4  12
BRANCH   6  14
ATOM     14  O   UNL     1     -62.305  16.300 -17.339  1.00  0.00    -0.504 OA
ATOM     15  H   UNL     1     -63.122  16.263 -17.937  1.00  0.00     0.293 HD
ENDBRANCH   6  14
TORSDOF 4
ENDMDL
MODEL 6
REMARK VINA RESULT:    -4.041     10.583     11.990
REMARK INTER + INTRA:          -4.966
REMARK INTER:                  -4.799
REMARK INTRA:                  -0.167
REMARK UNBOUND:                -0.216
REMARK SMILES O=C([O-])C=Cc1ccc(O)c(O)c1
REMARK SMILES IDX 6 1 13 2 7 3 11 4 8 5 9 6 5 7 4 8 2 9 1 10 3 11 12 12 10 14
REMARK H PARENT 12 13 10 15
REMARK Flexibility Score: inf
ROOT
ATOM      1  C   UNL     1     -58.422  28.446 -14.202  1.00  0.00    -0.022 A 
ATOM      2  C   UNL     1     -58.846  28.690 -15.519  1.00  0.00     0.058 A 
ATOM      3  C   UNL     1     -57.393  27.521 -13.974  1.00  0.00     0.012 A 
ATOM      4  C   UNL     1     -58.214  28.057 -16.599  1.00  0.00     0.157 A 
ATOM      5  C   UNL     1     -56.760  26.890 -15.047  1.00  0.00     0.051 A 
ATOM      6  C   UNL     1     -57.161  27.156 -16.361  1.00  0.00     0.157 A 
ENDROOT
BRANCH   1   7
ATOM      7  C   UNL     1     -59.110  29.062 -13.049  1.00  0.00     0.010 C 
ATOM      8  C   UNL     1     -60.325  28.718 -12.594  1.00  0.00     0.025 C 
BRANCH   8   9
ATOM      9  C   UNL     1     -61.267  27.797 -13.259  1.00  0.00     0.064 C 
ATOM     10  O   UNL     1     -61.141  26.548 -13.169  1.00  0.00    -0.545 OA
ATOM     11  O   UNL     1     -62.274  28.321 -14.058  1.00  0.00    -0.545 OA
ENDBRANCH   8   9
ENDBRANCH   1   7
BRANCH   4  12
ATOM     12  O   UNL     1     -58.628  28.317 -17.904  1.00  0.00    -0.504 OA
ATOM     13  H   UNL     1     -58.122  28.959 -18.504  1.00  0.00     0.293 HD
ENDBRANCH   4  12
BRANCH   6  14
ATOM     14  O   UNL     1     -56.509  26.514 -17.413  1.00  0.00    -0.504 OA
ATOM     15  H   UNL     1     -55.501  26.538 -17.516  1.00  0.00     0.293 HD
ENDBRANCH   6  14
TORSDOF 4
ENDMDL
MODEL 7
REMARK VINA RESULT:    -3.994     10.027     11.136
REMARK INTER + INTRA:          -4.910
REMARK INTER:                  -4.640
REMARK INTRA:                  -0.269
REMARK UNBOUND:                -0.216
REMARK SMILES O=C([O-])C=Cc1ccc(O)c(O)c1
REMARK SMILES IDX 6 1 13 2 7 3 11 4 8 5 9 6 5 7 4 8 2 9 1 10 3 11 12 12 10 14
REMARK H PARENT 12 13 10 15
REMARK Flexibility Score: inf
ROOT
ATOM      1  C   UNL     1     -57.556  27.462 -13.912  1.00  0.00    -0.022 A 
ATOM      2  C   UNL     1     -56.699  27.092 -14.962  1.00  0.00     0.058 A 
ATOM      3  C   UNL     1     -58.747  28.142 -14.206  1.00  0.00     0.012 A 
ATOM      4  C   UNL     1     -57.053  27.353 -16.294  1.00  0.00     0.157 A 
ATOM      5  C   UNL     1     -59.103  28.402 -15.531  1.00  0.00     0.051 A 
ATOM      6  C   UNL     1     -58.264  28.007 -16.579  1.00  0.00     0.157 A 
ENDROOT
BRANCH   1   7
ATOM      7  C   UNL     1     -57.177  27.243 -12.500  1.00  0.00     0.010 C 
ATOM      8  C   UNL     1     -57.520  26.179 -11.759  1.00  0.00     0.025 C 
BRANCH   8   9
ATOM      9  C   UNL     1     -58.478  25.126 -12.151  1.00  0.00     0.064 C 
ATOM     10  O   UNL     1     -59.664  25.124 -11.730  1.00  0.00    -0.545 OA
ATOM     11  O   UNL     1     -58.041  24.078 -12.949  1.00  0.00    -0.545 OA
ENDBRANCH   8   9
ENDBRANCH   1   7
BRANCH   4  12
ATOM     12  O   UNL     1     -56.205  26.969 -17.332  1.00  0.00    -0.504 OA
ATOM     13  H   UNL     1     -55.201  27.090 -17.270  1.00  0.00     0.293 HD
ENDBRANCH   4  12
BRANCH   6  14
ATOM     14  O   UNL     1     -58.646  28.277 -17.893  1.00  0.00    -0.504 OA
ATOM     15  H   UNL     1     -58.816  29.220 -18.222  1.00  0.00     0.293 HD
ENDBRANCH   6  14
TORSDOF 4
ENDMDL
MODEL 8
REMARK VINA RESULT:    -3.975     10.297     11.721
REMARK INTER + INTRA:          -4.888
REMARK INTER:                  -4.624
REMARK INTRA:                  -0.264
REMARK UNBOUND:                -0.216
REMARK SMILES O=C([O-])C=Cc1ccc(O)c(O)c1
REMARK SMILES IDX 6 1 13 2 7 3 11 4 8 5 9 6 5 7 4 8 2 9 1 10 3 11 12 12 10 14
REMARK H PARENT 12 13 10 15
REMARK Flexibility Score: inf
ROOT
ATOM      1  C   UNL     1     -58.562  27.502 -13.866  1.00  0.00    -0.022 A 
ATOM      2  C   UNL     1     -58.417  26.476 -14.815  1.00  0.00     0.058 A 
ATOM      3  C   UNL     1     -58.673  28.830 -14.303  1.00  0.00     0.012 A 
ATOM      4  C   UNL     1     -58.436  26.768 -16.187  1.00  0.00     0.157 A 
ATOM      5  C   UNL     1     -58.695  29.124 -15.668  1.00  0.00     0.051 A 
ATOM      6  C   UNL     1     -58.581  28.100 -16.614  1.00  0.00     0.157 A 
ENDROOT
BRANCH   1   7
ATOM      7  C   UNL     1     -58.491  27.221 -12.417  1.00  0.00     0.010 C 
ATOM      8  C   UNL     1     -59.547  27.047 -11.606  1.00  0.00     0.025 C 
BRANCH   8   9
ATOM      9  C   UNL     1     -60.959  27.279 -11.966  1.00  0.00     0.064 C 
ATOM     10  O   UNL     1     -61.716  26.332 -12.303  1.00  0.00    -0.545 OA
ATOM     11  O   UNL     1     -61.443  28.579 -11.999  1.00  0.00    -0.545 OA
ENDBRANCH   8   9
ENDBRANCH   1   7
BRANCH   4  12
ATOM     12  O   UNL     1     -58.309  25.744 -17.123  1.00  0.00    -0.504 OA
ATOM     13  H   UNL     1     -59.040  25.548 -17.797  1.00  0.00     0.293 HD
ENDBRANCH   4  12
BRANCH   6  14
ATOM     14  O   UNL     1     -58.609  28.423 -17.970  1.00  0.00    -0.504 OA
ATOM     15  H   UNL     1     -58.272  27.785 -18.683  1.00  0.00     0.293 HD
ENDBRANCH   6  14
TORSDOF 4
ENDMDL
MODEL 9
REMARK VINA RESULT:    -3.921      7.928      9.607
REMARK INTER + INTRA:          -4.824
REMARK INTER:                  -4.549
REMARK INTRA:                  -0.276
REMARK UNBOUND:                -0.216
REMARK SMILES O=C([O-])C=Cc1ccc(O)c(O)c1
REMARK SMILES IDX 6 1 13 2 7 3 11 4 8 5 9 6 5 7 4 8 2 9 1 10 3 11 12 12 10 14
REMARK H PARENT 12 13 10 15
REMARK Flexibility Score: inf
ROOT
ATOM      1  C   UNL     1     -56.869  25.600 -14.183  1.00  0.00    -0.022 A 
ATOM      2  C   UNL     1     -56.119  25.989 -15.305  1.00  0.00     0.058 A 
ATOM      3  C   UNL     1     -58.249  25.845 -14.162  1.00  0.00     0.012 A 
ATOM      4  C   UNL     1     -56.750  26.569 -16.416  1.00  0.00     0.157 A 
ATOM      5  C   UNL     1     -58.881  26.421 -15.267  1.00  0.00     0.051 A 
ATOM      6  C   UNL     1     -58.139  26.781 -16.397  1.00  0.00     0.157 A 
ENDROOT
BRANCH   1   7
ATOM      7  C   UNL     1     -56.216  25.036 -12.983  1.00  0.00     0.010 C 
ATOM      8  C   UNL     1     -56.011  23.731 -12.750  1.00  0.00     0.025 C 
BRANCH   8   9
ATOM      9  C   UNL     1     -56.552  22.616 -13.551  1.00  0.00     0.064 C 
ATOM     10  O   UNL     1     -57.558  21.960 -13.173  1.00  0.00    -0.545 OA
ATOM     11  O   UNL     1     -55.896  22.239 -14.715  1.00  0.00    -0.545 OA
ENDBRANCH   8   9
ENDBRANCH   1   7
BRANCH   4  12
ATOM     12  O   UNL     1     -56.002  26.936 -17.533  1.00  0.00    -0.504 OA
ATOM     13  H   UNL     1     -55.145  26.456 -17.780  1.00  0.00     0.293 HD
ENDBRANCH   4  12
BRANCH   6  14
ATOM     14  O   UNL     1     -58.797  27.351 -17.487  1.00  0.00    -0.504 OA
ATOM     15  H   UNL     1     -58.504  27.179 -18.442  1.00  0.00     0.293 HD
ENDBRANCH   6  14
TORSDOF 4
ENDMDL
