MODEL 1
REMARK VINA RESULT:    -1.419      0.000      0.000
REMARK INTER + INTRA:          -6.864
REMARK INTER:                  -3.078
REMARK INTRA:                  -3.786
REMARK UNBOUND:                -3.786
REMARK SMILES CCCCCCCCCCCCCCCCCCCCCC(=O)[O-]
REMARK SMILES IDX 12 1 11 2 10 3 9 4 8 5 7 6 6 7 5 8 4 9 3 10 2 11 1 12 13 13
REMARK SMILES IDX 14 14 15 15 16 16 17 17 18 18 19 19 20 20 21 21 22 22 23 23
REMARK SMILES IDX 24 24
REMARK H PARENT
REMARK Flexibility Score: inf
ROOT
ATOM      1  C   UNL     1     175.639 179.080 196.880  1.00  0.00     0.000 C 
ENDROOT
BRANCH   1   2
ATOM      2  C   UNL     1     175.152 177.646 196.643  1.00  0.00     0.000 C 
BRANCH   2   3
ATOM      3  C   UNL     1     174.336 177.550 195.345  1.00  0.00     0.000 C 
BRANCH   3   4
ATOM      4  C   UNL     1     172.855 177.233 195.595  1.00  0.00    -0.000 C 
BRANCH   4   5
ATOM      5  C   UNL     1     172.095 176.876 194.308  1.00  0.00    -0.000 C 
BRANCH   5   6
ATOM      6  C   UNL     1     173.041 176.875 193.099  1.00  0.00    -0.000 C 
BRANCH   6   7
ATOM      7  C   UNL     1     172.415 177.518 191.850  1.00  0.00    -0.000 C 
BRANCH   7   8
ATOM      8  C   UNL     1     171.438 178.652 192.197  1.00  0.00    -0.000 C 
BRANCH   8   9
ATOM      9  C   UNL     1     171.660 179.911 191.343  1.00  0.00    -0.000 C 
BRANCH   9  10
ATOM     10  C   UNL     1     172.180 181.103 192.166  1.00  0.00    -0.000 C 
BRANCH  10  11
ATOM     11  C   UNL     1     172.205 180.809 193.675  1.00  0.00    -0.003 C 
ATOM     12  C   UNL     1     173.617 180.850 194.260  1.00  0.00     0.004 C 
ENDBRANCH  10  11
ENDBRANCH   9  10
ENDBRANCH   8   9
ENDBRANCH   7   8
ENDBRANCH   6   7
ENDBRANCH   5   6
ENDBRANCH   4   5
ENDBRANCH   3   4
ENDBRANCH   2   3
ENDBRANCH   1   2
BRANCH   1  13
ATOM     13  C   UNL     1     176.211 179.242 198.298  1.00  0.00     0.000 C 
BRANCH  13  14
ATOM     14  C   UNL     1     176.312 177.906 199.051  1.00  0.00     0.000 C 
BRANCH  14  15
ATOM     15  C   UNL     1     176.046 178.063 200.555  1.00  0.00     0.000 C 
BRANCH  15  16
ATOM     16  C   UNL     1     174.543 178.164 200.846  1.00  0.00     0.000 C 
BRANCH  16  17
ATOM     17  C   UNL     1     173.724 177.060 200.153  1.00  0.00     0.000 C 
BRANCH  17  18
ATOM     18  C   UNL     1     172.614 177.604 199.229  1.00  0.00     0.000 C 
BRANCH  18  19
ATOM     19  C   UNL     1     172.223 179.051 199.583  1.00  0.00     0.000 C 
BRANCH  19  20
ATOM     20  C   UNL     1     172.456 180.035 198.421  1.00  0.00     0.006 C 
BRANCH  20  21
ATOM     21  C   UNL     1     173.279 181.274 198.817  1.00  0.00     0.053 C 
BRANCH  21  22
ATOM     22  C   UNL     1     173.431 182.249 197.690  1.00  0.00     0.041 C 
ATOM     23  O   UNL     1     174.549 182.775 197.451  1.00  0.00    -0.550 OA
ATOM     24  O   UNL     1     172.337 182.569 196.895  1.00  0.00    -0.550 OA
ENDBRANCH  21  22
ENDBRANCH  20  21
ENDBRANCH  19  20
ENDBRANCH  18  19
ENDBRANCH  17  18
ENDBRANCH  16  17
ENDBRANCH  15  16
ENDBRANCH  14  15
ENDBRANCH  13  14
ENDBRANCH   1  13
TORSDOF 20
ENDMDL
MODEL 2
REMARK VINA RESULT:    -1.374      1.703      6.096
REMARK INTER + INTRA:          -6.766
REMARK INTER:                  -3.177
REMARK INTRA:                  -3.589
REMARK UNBOUND:                -3.786
REMARK SMILES CCCCCCCCCCCCCCCCCCCCCC(=O)[O-]
REMARK SMILES IDX 12 1 11 2 10 3 9 4 8 5 7 6 6 7 5 8 4 9 3 10 2 11 1 12 13 13
REMARK SMILES IDX 14 14 15 15 16 16 17 17 18 18 19 19 20 20 21 21 22 22 23 23
REMARK SMILES IDX 24 24
REMARK H PARENT
REMARK Flexibility Score: inf
ROOT
ATOM      1  C   UNL     1     173.126 178.244 196.359  1.00  0.00     0.000 C 
ENDROOT
BRANCH   1   2
ATOM      2  C   UNL     1     173.012 177.019 197.273  1.00  0.00     0.000 C 
BRANCH   2   3
ATOM      3  C   UNL     1     174.199 176.946 198.246  1.00  0.00     0.000 C 
BRANCH   3   4
ATOM      4  C   UNL     1     173.942 177.707 199.555  1.00  0.00    -0.000 C 
BRANCH   4   5
ATOM      5  C   UNL     1     172.597 177.345 200.203  1.00  0.00    -0.000 C 
BRANCH   5   6
ATOM      6  C   UNL     1     171.716 178.593 200.364  1.00  0.00    -0.000 C 
BRANCH   6   7
ATOM      7  C   UNL     1     172.518 179.903 200.292  1.00  0.00    -0.000 C 
BRANCH   7   8
ATOM      8  C   UNL     1     171.957 180.881 199.248  1.00  0.00    -0.000 C 
BRANCH   8   9
ATOM      9  C   UNL     1     173.018 181.345 198.237  1.00  0.00    -0.000 C 
BRANCH   9  10
ATOM     10  C   UNL     1     174.307 181.842 198.915  1.00  0.00    -0.000 C 
BRANCH  10  11
ATOM     11  C   UNL     1     175.537 181.723 198.001  1.00  0.00    -0.003 C 
ATOM     12  C   UNL     1     175.853 180.275 197.624  1.00  0.00     0.004 C 
ENDBRANCH  10  11
ENDBRANCH   9  10
ENDBRANCH   8   9
ENDBRANCH   7   8
ENDBRANCH   6   7
ENDBRANCH   5   6
ENDBRANCH   4   5
ENDBRANCH   3   4
ENDBRANCH   2   3
ENDBRANCH   1   2
BRANCH   1  13
ATOM     13  C   UNL     1     173.595 177.840 194.951  1.00  0.00     0.000 C 
BRANCH  13  14
ATOM     14  C   UNL     1     172.620 176.875 194.257  1.00  0.00     0.000 C 
BRANCH  14  15
ATOM     15  C   UNL     1     172.009 177.480 192.985  1.00  0.00     0.000 C 
BRANCH  15  16
ATOM     16  C   UNL     1     173.097 178.013 192.043  1.00  0.00     0.000 C 
BRANCH  16  17
ATOM     17  C   UNL     1     172.911 179.501 191.696  1.00  0.00     0.000 C 
BRANCH  17  18
ATOM     18  C   UNL     1     171.651 180.128 192.329  1.00  0.00     0.000 C 
BRANCH  18  19
ATOM     19  C   UNL     1     171.951 181.482 192.999  1.00  0.00     0.000 C 
BRANCH  19  20
ATOM     20  C   UNL     1     172.444 181.336 194.451  1.00  0.00     0.006 C 
BRANCH  20  21
ATOM     21  C   UNL     1     173.962 181.542 194.612  1.00  0.00     0.053 C 
BRANCH  21  22
ATOM     22  C   UNL     1     174.468 182.721 193.841  1.00  0.00     0.041 C 
ATOM     23  O   UNL     1     175.229 182.555 192.852  1.00  0.00    -0.550 OA
ATOM     24  O   UNL     1     174.090 184.008 194.208  1.00  0.00    -0.550 OA
ENDBRANCH  21  22
ENDBRANCH  20  21
ENDBRANCH  19  20
ENDBRANCH  18  19
ENDBRANCH  17  18
ENDBRANCH  16  17
ENDBRANCH  15  16
ENDBRANCH  14  15
ENDBRANCH  13  14
ENDBRANCH   1  13
TORSDOF 20
ENDMDL
MODEL 3
REMARK VINA RESULT:    -1.334      2.057      5.412
REMARK INTER + INTRA:          -6.681
REMARK INTER:                  -2.510
REMARK INTRA:                  -4.170
REMARK UNBOUND:                -3.786
REMARK SMILES CCCCCCCCCCCCCCCCCCCCCC(=O)[O-]
REMARK SMILES IDX 12 1 11 2 10 3 9 4 8 5 7 6 6 7 5 8 4 9 3 10 2 11 1 12 13 13
REMARK SMILES IDX 14 14 15 15 16 16 17 17 18 18 19 19 20 20 21 21 22 22 23 23
REMARK SMILES IDX 24 24
REMARK H PARENT
REMARK Flexibility Score: inf
ROOT
ATOM      1  C   UNL     1     173.100 178.256 196.907  1.00  0.00     0.000 C 
ENDROOT
BRANCH   1   2
ATOM      2  C   UNL     1     173.298 177.258 198.054  1.00  0.00     0.000 C 
BRANCH   2   3
ATOM      3  C   UNL     1     172.388 177.601 199.243  1.00  0.00     0.000 C 
BRANCH   3   4
ATOM      4  C   UNL     1     173.158 178.201 200.429  1.00  0.00    -0.000 C 
BRANCH   4   5
ATOM      5  C   UNL     1     172.520 179.493 200.963  1.00  0.00    -0.000 C 
BRANCH   5   6
ATOM      6  C   UNL     1     171.482 180.038 199.971  1.00  0.00    -0.000 C 
BRANCH   6   7
ATOM      7  C   UNL     1     171.813 181.458 199.482  1.00  0.00    -0.000 C 
BRANCH   7   8
ATOM      8  C   UNL     1     172.678 181.457 198.211  1.00  0.00    -0.000 C 
BRANCH   8   9
ATOM      9  C   UNL     1     172.945 182.872 197.672  1.00  0.00    -0.000 C 
BRANCH   9  10
ATOM     10  C   UNL     1     172.082 183.211 196.443  1.00  0.00    -0.000 C 
BRANCH  10  11
ATOM     11  C   UNL     1     172.722 184.291 195.556  1.00  0.00    -0.003 C 
ATOM     12  C   UNL     1     174.237 184.381 195.736  1.00  0.00     0.004 C 
ENDBRANCH  10  11
ENDBRANCH   9  10
ENDBRANCH   8   9
ENDBRANCH   7   8
ENDBRANCH   6   7
ENDBRANCH   5   6
ENDBRANCH   4   5
ENDBRANCH   3   4
ENDBRANCH   2   3
ENDBRANCH   1   2
BRANCH   1  13
ATOM     13  C   UNL     1     173.117 177.541 195.545  1.00  0.00     0.000 C 
BRANCH  13  14
ATOM     14  C   UNL     1     173.231 178.520 194.365  1.00  0.00     0.000 C 
BRANCH  14  15
ATOM     15  C   UNL     1     172.950 179.971 194.782  1.00  0.00     0.000 C 
BRANCH  15  16
ATOM     16  C   UNL     1     174.084 180.906 194.339  1.00  0.00     0.000 C 
BRANCH  16  17
ATOM     17  C   UNL     1     175.467 180.442 194.830  1.00  0.00     0.000 C 
BRANCH  17  18
ATOM     18  C   UNL     1     175.813 180.935 196.250  1.00  0.00     0.000 C 
BRANCH  18  19
ATOM     19  C   UNL     1     176.454 179.829 197.109  1.00  0.00     0.000 C 
BRANCH  19  20
ATOM     20  C   UNL     1     175.935 179.821 198.559  1.00  0.00     0.006 C 
BRANCH  20  21
ATOM     21  C   UNL     1     176.726 180.745 199.503  1.00  0.00     0.053 C 
BRANCH  21  22
ATOM     22  C   UNL     1     175.965 181.983 199.867  1.00  0.00     0.041 C 
ATOM     23  O   UNL     1     176.117 183.042 199.202  1.00  0.00    -0.550 OA
ATOM     24  O   UNL     1     175.078 181.966 200.937  1.00  0.00    -0.550 OA
ENDBRANCH  21  22
ENDBRANCH  20  21
ENDBRANCH  19  20
ENDBRANCH  18  19
ENDBRANCH  17  18
ENDBRANCH  16  17
ENDBRANCH  15  16
ENDBRANCH  14  15
ENDBRANCH  13  14
ENDBRANCH   1  13
TORSDOF 20
ENDMDL
MODEL 4
REMARK VINA RESULT:    -1.324      2.194      6.403
REMARK INTER + INTRA:          -6.659
REMARK INTER:                  -2.848
REMARK INTRA:                  -3.811
REMARK UNBOUND:                -3.786
REMARK SMILES CCCCCCCCCCCCCCCCCCCCCC(=O)[O-]
REMARK SMILES IDX 12 1 11 2 10 3 9 4 8 5 7 6 6 7 5 8 4 9 3 10 2 11 1 12 13 13
REMARK SMILES IDX 14 14 15 15 16 16 17 17 18 18 19 19 20 20 21 21 22 22 23 23
REMARK SMILES IDX 24 24
REMARK H PARENT
REMARK Flexibility Score: inf
ROOT
ATOM      1  C   UNL     1     174.023 180.809 196.481  1.00  0.00     0.000 C 
ENDROOT
BRANCH   1   2
ATOM      2  C   UNL     1     173.122 179.681 196.999  1.00  0.00     0.000 C 
BRANCH   2   3
ATOM      3  C   UNL     1     173.961 178.526 197.568  1.00  0.00     0.000 C 
BRANCH   3   4
ATOM      4  C   UNL     1     173.099 177.391 198.141  1.00  0.00    -0.000 C 
BRANCH   4   5
ATOM      5  C   UNL     1     173.074 177.379 199.678  1.00  0.00    -0.000 C 
BRANCH   5   6
ATOM      6  C   UNL     1     171.631 177.439 200.200  1.00  0.00    -0.000 C 
BRANCH   6   7
ATOM      7  C   UNL     1     171.328 178.736 200.968  1.00  0.00    -0.000 C 
BRANCH   7   8
ATOM      8  C   UNL     1     170.916 179.890 200.039  1.00  0.00    -0.000 C 
BRANCH   8   9
ATOM      9  C   UNL     1     171.804 181.134 200.206  1.00  0.00    -0.000 C 
BRANCH   9  10
ATOM     10  C   UNL     1     173.019 180.877 201.114  1.00  0.00    -0.000 C 
BRANCH  10  11
ATOM     11  C   UNL     1     174.342 180.840 200.331  1.00  0.00    -0.003 C 
ATOM     12  C   UNL     1     174.833 182.233 199.936  1.00  0.00     0.004 C 
ENDBRANCH  10  11
ENDBRANCH   9  10
ENDBRANCH   8   9
ENDBRANCH   7   8
ENDBRANCH   6   7
ENDBRANCH   5   6
ENDBRANCH   4   5
ENDBRANCH   3   4
ENDBRANCH   2   3
ENDBRANCH   1   2
BRANCH   1  13
ATOM     13  C   UNL     1     173.383 181.514 195.273  1.00  0.00     0.000 C 
BRANCH  13  14
ATOM     14  C   UNL     1     173.639 180.773 193.951  1.00  0.00     0.000 C 
BRANCH  14  15
ATOM     15  C   UNL     1     172.337 180.315 193.279  1.00  0.00     0.000 C 
BRANCH  15  16
ATOM     16  C   UNL     1     172.467 178.888 192.729  1.00  0.00     0.000 C 
BRANCH  16  17
ATOM     17  C   UNL     1     172.695 177.840 193.833  1.00  0.00     0.000 C 
BRANCH  17  18
ATOM     18  C   UNL     1     173.862 176.875 193.536  1.00  0.00     0.000 C 
BRANCH  18  19
ATOM     19  C   UNL     1     174.945 176.920 194.629  1.00  0.00     0.000 C 
BRANCH  19  20
ATOM     20  C   UNL     1     175.943 178.078 194.437  1.00  0.00     0.006 C 
BRANCH  20  21
ATOM     21  C   UNL     1     177.024 178.151 195.531  1.00  0.00     0.053 C 
BRANCH  21  22
ATOM     22  C   UNL     1     177.775 179.447 195.512  1.00  0.00     0.041 C 
ATOM     23  O   UNL     1     178.940 179.513 195.986  1.00  0.00    -0.550 OA
ATOM     24  O   UNL     1     177.192 180.582 194.962  1.00  0.00    -0.550 OA
ENDBRANCH  21  22
ENDBRANCH  20  21
ENDBRANCH  19  20
ENDBRANCH  18  19
ENDBRANCH  17  18
ENDBRANCH  16  17
ENDBRANCH  15  16
ENDBRANCH  14  15
ENDBRANCH  13  14
ENDBRANCH   1  13
TORSDOF 20
ENDMDL
MODEL 5
REMARK VINA RESULT:    -1.315      1.711      3.591
REMARK INTER + INTRA:          -6.638
REMARK INTER:                  -3.068
REMARK INTRA:                  -3.570
REMARK UNBOUND:                -3.786
REMARK SMILES CCCCCCCCCCCCCCCCCCCCCC(=O)[O-]
REMARK SMILES IDX 12 1 11 2 10 3 9 4 8 5 7 6 6 7 5 8 4 9 3 10 2 11 1 12 13 13
REMARK SMILES IDX 14 14 15 15 16 16 17 17 18 18 19 19 20 20 21 21 22 22 23 23
REMARK SMILES IDX 24 24
REMARK H PARENT
REMARK Flexibility Score: inf
ROOT
ATOM      1  C   UNL     1     174.918 181.580 195.440  1.00  0.00     0.000 C 
ENDROOT
BRANCH   1   2
ATOM      2  C   UNL     1     173.682 182.470 195.267  1.00  0.00     0.000 C 
BRANCH   2   3
ATOM      3  C   UNL     1     173.596 183.019 193.835  1.00  0.00     0.000 C 
BRANCH   3   4
ATOM      4  C   UNL     1     173.627 181.912 192.771  1.00  0.00    -0.000 C 
BRANCH   4   5
ATOM      5  C   UNL     1     172.261 181.686 192.104  1.00  0.00    -0.000 C 
BRANCH   5   6
ATOM      6  C   UNL     1     171.688 180.314 192.489  1.00  0.00    -0.000 C 
BRANCH   6   7
ATOM      7  C   UNL     1     171.284 179.472 191.268  1.00  0.00    -0.000 C 
BRANCH   7   8
ATOM      8  C   UNL     1     171.876 178.053 191.308  1.00  0.00    -0.000 C 
BRANCH   8   9
ATOM      9  C   UNL     1     172.423 177.676 192.694  1.00  0.00    -0.000 C 
BRANCH   9  10
ATOM     10  C   UNL     1     173.895 177.233 192.651  1.00  0.00    -0.000 C 
BRANCH  10  11
ATOM     11  C   UNL     1     174.849 178.391 192.315  1.00  0.00    -0.003 C 
ATOM     12  C   UNL     1     175.932 178.590 193.376  1.00  0.00     0.004 C 
ENDBRANCH  10  11
ENDBRANCH   9  10
ENDBRANCH   8   9
ENDBRANCH   7   8
ENDBRANCH   6   7
ENDBRANCH   5   6
ENDBRANCH   4   5
ENDBRANCH   3   4
ENDBRANCH   2   3
ENDBRANCH   1   2
BRANCH   1  13
ATOM     13  C   UNL     1     174.577 180.312 196.242  1.00  0.00     0.000 C 
BRANCH  13  14
ATOM     14  C   UNL     1     173.257 179.665 195.792  1.00  0.00     0.000 C 
BRANCH  14  15
ATOM     15  C   UNL     1     173.136 178.206 196.254  1.00  0.00     0.000 C 
BRANCH  15  16
ATOM     16  C   UNL     1     174.369 177.773 197.059  1.00  0.00     0.000 C 
BRANCH  16  17
ATOM     17  C   UNL     1     174.023 177.333 198.493  1.00  0.00     0.000 C 
BRANCH  17  18
ATOM     18  C   UNL     1     172.553 177.599 198.881  1.00  0.00     0.000 C 
BRANCH  18  19
ATOM     19  C   UNL     1     172.434 178.356 200.216  1.00  0.00     0.000 C 
BRANCH  19  20
ATOM     20  C   UNL     1     171.646 179.674 200.089  1.00  0.00     0.006 C 
BRANCH  20  21
ATOM     21  C   UNL     1     172.349 180.734 199.223  1.00  0.00     0.053 C 
BRANCH  21  22
ATOM     22  C   UNL     1     171.626 182.045 199.218  1.00  0.00     0.041 C 
ATOM     23  O   UNL     1     171.687 182.802 198.213  1.00  0.00    -0.550 OA
ATOM     24  O   UNL     1     170.875 182.431 200.322  1.00  0.00    -0.550 OA
ENDBRANCH  21  22
ENDBRANCH  20  21
ENDBRANCH  19  20
ENDBRANCH  18  19
ENDBRANCH  17  18
ENDBRANCH  16  17
ENDBRANCH  15  16
ENDBRANCH  14  15
ENDBRANCH  13  14
ENDBRANCH   1  13
TORSDOF 20
ENDMDL
MODEL 6
REMARK VINA RESULT:    -1.303      1.954      4.475
REMARK INTER + INTRA:          -6.612
REMARK INTER:                  -1.965
REMARK INTRA:                  -4.646
REMARK UNBOUND:                -3.786
REMARK SMILES CCCCCCCCCCCCCCCCCCCCCC(=O)[O-]
REMARK SMILES IDX 12 1 11 2 10 3 9 4 8 5 7 6 6 7 5 8 4 9 3 10 2 11 1 12 13 13
REMARK SMILES IDX 14 14 15 15 16 16 17 17 18 18 19 19 20 20 21 21 22 22 23 23
REMARK SMILES IDX 24 24
REMARK H PARENT
REMARK Flexibility Score: inf
ROOT
ATOM      1  C   UNL     1     176.296 181.074 195.484  1.00  0.00     0.000 C 
ENDROOT
BRANCH   1   2
ATOM      2  C   UNL     1     175.094 182.010 195.651  1.00  0.00     0.000 C 
BRANCH   2   3
ATOM      3  C   UNL     1     173.778 181.272 195.359  1.00  0.00     0.000 C 
BRANCH   3   4
ATOM      4  C   UNL     1     172.839 181.226 196.573  1.00  0.00    -0.000 C 
BRANCH   4   5
ATOM      5  C   UNL     1     173.504 180.620 197.819  1.00  0.00    -0.000 C 
BRANCH   5   6
ATOM      6  C   UNL     1     172.522 179.709 198.572  1.00  0.00    -0.000 C 
BRANCH   6   7
ATOM      7  C   UNL     1     173.181 178.419 199.089  1.00  0.00    -0.000 C 
BRANCH   7   8
ATOM      8  C   UNL     1     173.105 177.269 198.072  1.00  0.00    -0.000 C 
BRANCH   8   9
ATOM      9  C   UNL     1     174.414 177.082 197.288  1.00  0.00    -0.000 C 
BRANCH   9  10
ATOM     10  C   UNL     1     174.304 177.555 195.828  1.00  0.00    -0.000 C 
BRANCH  10  11
ATOM     11  C   UNL     1     172.849 177.602 195.333  1.00  0.00    -0.003 C 
ATOM     12  C   UNL     1     172.740 178.008 193.863  1.00  0.00     0.004 C 
ENDBRANCH  10  11
ENDBRANCH   9  10
ENDBRANCH   8   9
ENDBRANCH   7   8
ENDBRANCH   6   7
ENDBRANCH   5   6
ENDBRANCH   4   5
ENDBRANCH   3   4
ENDBRANCH   2   3
ENDBRANCH   1   2
BRANCH   1  13
ATOM     13  C   UNL     1     177.087 180.952 196.797  1.00  0.00     0.000 C 
BRANCH  13  14
ATOM     14  C   UNL     1     177.199 179.499 197.288  1.00  0.00     0.000 C 
BRANCH  14  15
ATOM     15  C   UNL     1     176.902 179.366 198.788  1.00  0.00     0.000 C 
BRANCH  15  16
ATOM     16  C   UNL     1     176.869 180.739 199.473  1.00  0.00     0.000 C 
BRANCH  16  17
ATOM     17  C   UNL     1     175.822 180.822 200.598  1.00  0.00     0.000 C 
BRANCH  17  18
ATOM     18  C   UNL     1     175.114 182.190 200.681  1.00  0.00     0.000 C 
BRANCH  18  19
ATOM     19  C   UNL     1     175.642 183.182 199.627  1.00  0.00     0.000 C 
BRANCH  19  20
ATOM     20  C   UNL     1     174.515 183.940 198.901  1.00  0.00     0.006 C 
BRANCH  20  21
ATOM     21  C   UNL     1     173.190 183.974 199.683  1.00  0.00     0.053 C 
BRANCH  21  22
ATOM     22  C   UNL     1     171.991 183.892 198.789  1.00  0.00     0.041 C 
ATOM     23  O   UNL     1     171.974 184.508 197.690  1.00  0.00    -0.550 OA
ATOM     24  O   UNL     1     170.894 183.126 199.164  1.00  0.00    -0.550 OA
ENDBRANCH  21  22
ENDBRANCH  20  21
ENDBRANCH  19  20
ENDBRANCH  18  19
ENDBRANCH  17  18
ENDBRANCH  16  17
ENDBRANCH  15  16
ENDBRANCH  14  15
ENDBRANCH  13  14
ENDBRANCH   1  13
TORSDOF 20
ENDMDL
MODEL 7
REMARK VINA RESULT:    -1.293      2.175      4.679
REMARK INTER + INTRA:          -6.591
REMARK INTER:                  -2.337
REMARK INTRA:                  -4.253
REMARK UNBOUND:                -3.786
REMARK SMILES CCCCCCCCCCCCCCCCCCCCCC(=O)[O-]
REMARK SMILES IDX 12 1 11 2 10 3 9 4 8 5 7 6 6 7 5 8 4 9 3 10 2 11 1 12 13 13
REMARK SMILES IDX 14 14 15 15 16 16 17 17 18 18 19 19 20 20 21 21 22 22 23 23
REMARK SMILES IDX 24 24
REMARK H PARENT
REMARK Flexibility Score: inf
ROOT
ATOM      1  C   UNL     1     176.209 179.555 195.970  1.00  0.00     0.000 C 
ENDROOT
BRANCH   1   2
ATOM      2  C   UNL     1     176.484 180.930 196.590  1.00  0.00     0.000 C 
BRANCH   2   3
ATOM      3  C   UNL     1     176.691 181.993 195.500  1.00  0.00     0.000 C 
BRANCH   3   4
ATOM      4  C   UNL     1     176.915 183.399 196.074  1.00  0.00    -0.000 C 
BRANCH   4   5
ATOM      5  C   UNL     1     175.601 184.131 196.390  1.00  0.00    -0.000 C 
BRANCH   5   6
ATOM      6  C   UNL     1     174.512 183.758 195.374  1.00  0.00    -0.000 C 
BRANCH   6   7
ATOM      7  C   UNL     1     173.128 183.578 196.021  1.00  0.00    -0.000 C 
BRANCH   7   8
ATOM      8  C   UNL     1     172.375 182.355 195.473  1.00  0.00    -0.000 C 
BRANCH   8   9
ATOM      9  C   UNL     1     173.258 181.463 194.584  1.00  0.00    -0.000 C 
BRANCH   9  10
ATOM     10  C   UNL     1     172.440 180.625 193.586  1.00  0.00    -0.000 C 
BRANCH  10  11
ATOM     11  C   UNL     1     173.010 180.688 192.159  1.00  0.00    -0.003 C 
ATOM     12  C   UNL     1     174.180 181.664 192.035  1.00  0.00     0.004 C 
ENDBRANCH  10  11
ENDBRANCH   9  10
ENDBRANCH   8   9
ENDBRANCH   7   8
ENDBRANCH   6   7
ENDBRANCH   5   6
ENDBRANCH   4   5
ENDBRANCH   3   4
ENDBRANCH   2   3
ENDBRANCH   1   2
BRANCH   1  13
ATOM     13  C   UNL     1     176.531 179.553 194.466  1.00  0.00     0.000 C 
BRANCH  13  14
ATOM     14  C   UNL     1     175.612 178.617 193.665  1.00  0.00     0.000 C 
BRANCH  14  15
ATOM     15  C   UNL     1     175.073 177.460 194.519  1.00  0.00     0.000 C 
BRANCH  15  16
ATOM     16  C   UNL     1     173.593 177.190 194.217  1.00  0.00     0.000 C 
BRANCH  16  17
ATOM     17  C   UNL     1     172.736 177.072 195.491  1.00  0.00     0.000 C 
BRANCH  17  18
ATOM     18  C   UNL     1     173.567 176.887 196.778  1.00  0.00     0.000 C 
BRANCH  18  19
ATOM     19  C   UNL     1     173.099 177.820 197.910  1.00  0.00     0.000 C 
BRANCH  19  20
ATOM     20  C   UNL     1     173.006 179.294 197.471  1.00  0.00     0.006 C 
BRANCH  20  21
ATOM     21  C   UNL     1     173.349 180.294 198.590  1.00  0.00     0.053 C 
BRANCH  21  22
ATOM     22  C   UNL     1     172.131 180.820 199.285  1.00  0.00     0.041 C 
ATOM     23  O   UNL     1     171.587 180.155 200.205  1.00  0.00    -0.550 OA
ATOM     24  O   UNL     1     171.601 182.053 198.923  1.00  0.00    -0.550 OA
ENDBRANCH  21  22
ENDBRANCH  20  21
ENDBRANCH  19  20
ENDBRANCH  18  19
ENDBRANCH  17  18
ENDBRANCH  16  17
ENDBRANCH  15  16
ENDBRANCH  14  15
ENDBRANCH  13  14
ENDBRANCH   1  13
TORSDOF 20
ENDMDL
MODEL 8
REMARK VINA RESULT:    -1.272      2.252      5.629
REMARK INTER + INTRA:          -6.544
REMARK INTER:                  -2.370
REMARK INTRA:                  -4.174
REMARK UNBOUND:                -3.786
REMARK SMILES CCCCCCCCCCCCCCCCCCCCCC(=O)[O-]
REMARK SMILES IDX 12 1 11 2 10 3 9 4 8 5 7 6 6 7 5 8 4 9 3 10 2 11 1 12 13 13
REMARK SMILES IDX 14 14 15 15 16 16 17 17 18 18 19 19 20 20 21 21 22 22 23 23
REMARK SMILES IDX 24 24
REMARK H PARENT
REMARK Flexibility Score: inf
ROOT
ATOM      1  C   UNL     1     176.237 180.035 197.915  1.00  0.00     0.000 C 
ENDROOT
BRANCH   1   2
ATOM      2  C   UNL     1     177.190 180.169 199.108  1.00  0.00     0.000 C 
BRANCH   2   3
ATOM      3  C   UNL     1     176.534 179.649 200.396  1.00  0.00     0.000 C 
BRANCH   3   4
ATOM      4  C   UNL     1     177.127 178.313 200.869  1.00  0.00    -0.000 C 
BRANCH   4   5
ATOM      5  C   UNL     1     176.303 177.099 200.415  1.00  0.00    -0.000 C 
BRANCH   5   6
ATOM      6  C   UNL     1     174.799 177.382 200.546  1.00  0.00    -0.000 C 
BRANCH   6   7
ATOM      7  C   UNL     1     173.996 176.929 199.314  1.00  0.00    -0.000 C 
BRANCH   7   8
ATOM      8  C   UNL     1     172.633 177.631 199.208  1.00  0.00    -0.000 C 
BRANCH   8   9
ATOM      9  C   UNL     1     172.531 178.872 200.110  1.00  0.00    -0.000 C 
BRANCH   9  10
ATOM     10  C   UNL     1     171.931 180.088 199.382  1.00  0.00    -0.000 C 
BRANCH  10  11
ATOM     11  C   UNL     1     172.973 181.185 199.111  1.00  0.00    -0.003 C 
ATOM     12  C   UNL     1     172.410 182.343 198.287  1.00  0.00     0.004 C 
ENDBRANCH  10  11
ENDBRANCH   9  10
ENDBRANCH   8   9
ENDBRANCH   7   8
ENDBRANCH   6   7
ENDBRANCH   5   6
ENDBRANCH   4   5
ENDBRANCH   3   4
ENDBRANCH   2   3
ENDBRANCH   1   2
BRANCH   1  13
ATOM     13  C   UNL     1     176.911 179.289 196.751  1.00  0.00     0.000 C 
BRANCH  13  14
ATOM     14  C   UNL     1     176.519 177.804 196.695  1.00  0.00     0.000 C 
BRANCH  14  15
ATOM     15  C   UNL     1     176.675 177.213 195.287  1.00  0.00     0.000 C 
BRANCH  15  16
ATOM     16  C   UNL     1     175.310 176.875 194.671  1.00  0.00     0.000 C 
BRANCH  16  17
ATOM     17  C   UNL     1     174.167 176.903 195.701  1.00  0.00     0.000 C 
BRANCH  17  18
ATOM     18  C   UNL     1     173.018 177.860 195.320  1.00  0.00     0.000 C 
BRANCH  18  19
ATOM     19  C   UNL     1     173.138 179.222 196.030  1.00  0.00     0.000 C 
BRANCH  19  20
ATOM     20  C   UNL     1     173.127 180.411 195.050  1.00  0.00     0.006 C 
BRANCH  20  21
ATOM     21  C   UNL     1     174.454 180.600 194.293  1.00  0.00     0.053 C 
BRANCH  21  22
ATOM     22  C   UNL     1     174.281 180.546 192.806  1.00  0.00     0.041 C 
ATOM     23  O   UNL     1     174.425 179.459 192.187  1.00  0.00    -0.550 OA
ATOM     24  O   UNL     1     173.950 181.698 192.101  1.00  0.00    -0.550 OA
ENDBRANCH  21  22
ENDBRANCH  20  21
ENDBRANCH  19  20
ENDBRANCH  18  19
ENDBRANCH  17  18
ENDBRANCH  16  17
ENDBRANCH  15  16
ENDBRANCH  14  15
ENDBRANCH  13  14
ENDBRANCH   1  13
TORSDOF 20
ENDMDL
MODEL 9
REMARK VINA RESULT:    -1.248      3.047      6.660
REMARK INTER + INTRA:          -6.493
REMARK INTER:                  -1.878
REMARK INTRA:                  -4.615
REMARK UNBOUND:                -3.786
REMARK SMILES CCCCCCCCCCCCCCCCCCCCCC(=O)[O-]
REMARK SMILES IDX 12 1 11 2 10 3 9 4 8 5 7 6 6 7 5 8 4 9 3 10 2 11 1 12 13 13
REMARK SMILES IDX 14 14 15 15 16 16 17 17 18 18 19 19 20 20 21 21 22 22 23 23
REMARK SMILES IDX 24 24
REMARK H PARENT
REMARK Flexibility Score: inf
ROOT
ATOM      1  C   UNL     1     174.489 178.093 197.061  1.00  0.00     0.000 C 
ENDROOT
BRANCH   1   2
ATOM      2  C   UNL     1     174.198 177.463 198.428  1.00  0.00     0.000 C 
BRANCH   2   3
ATOM      3  C   UNL     1     172.735 177.693 198.838  1.00  0.00     0.000 C 
BRANCH   3   4
ATOM      4  C   UNL     1     172.590 178.717 199.973  1.00  0.00    -0.000 C 
BRANCH   4   5
ATOM      5  C   UNL     1     171.670 179.891 199.603  1.00  0.00    -0.000 C 
BRANCH   5   6
ATOM      6  C   UNL     1     172.476 181.191 199.461  1.00  0.00    -0.000 C 
BRANCH   6   7
ATOM      7  C   UNL     1     173.876 181.098 200.091  1.00  0.00    -0.000 C 
BRANCH   7   8
ATOM      8  C   UNL     1     174.756 182.313 199.756  1.00  0.00    -0.000 C 
BRANCH   8   9
ATOM      9  C   UNL     1     176.185 181.918 199.348  1.00  0.00    -0.000 C 
BRANCH   9  10
ATOM     10  C   UNL     1     176.417 180.398 199.397  1.00  0.00    -0.000 C 
BRANCH  10  11
ATOM     11  C   UNL     1     177.444 179.926 198.354  1.00  0.00    -0.003 C 
ATOM     12  C   UNL     1     177.882 178.478 198.572  1.00  0.00     0.004 C 
ENDBRANCH  10  11
ENDBRANCH   9  10
ENDBRANCH   8   9
ENDBRANCH   7   8
ENDBRANCH   6   7
ENDBRANCH   5   6
ENDBRANCH   4   5
ENDBRANCH   3   4
ENDBRANCH   2   3
ENDBRANCH   1   2
BRANCH   1  13
ATOM     13  C   UNL     1     173.184 178.442 196.325  1.00  0.00     0.000 C 
BRANCH  13  14
ATOM     14  C   UNL     1     173.193 179.866 195.748  1.00  0.00     0.000 C 
BRANCH  14  15
ATOM     15  C   UNL     1     174.263 180.753 196.401  1.00  0.00     0.000 C 
BRANCH  15  16
ATOM     16  C   UNL     1     174.078 182.226 196.012  1.00  0.00     0.000 C 
BRANCH  16  17
ATOM     17  C   UNL     1     175.385 182.886 195.535  1.00  0.00     0.000 C 
BRANCH  17  18
ATOM     18  C   UNL     1     176.572 181.906 195.442  1.00  0.00     0.000 C 
BRANCH  18  19
ATOM     19  C   UNL     1     177.001 181.650 193.985  1.00  0.00     0.000 C 
BRANCH  19  20
ATOM     20  C   UNL     1     176.402 180.356 193.403  1.00  0.00     0.006 C 
BRANCH  20  21
ATOM     21  C   UNL     1     176.716 179.101 194.237  1.00  0.00     0.053 C 
BRANCH  21  22
ATOM     22  C   UNL     1     176.254 177.839 193.575  1.00  0.00     0.041 C 
ATOM     23  O   UNL     1     175.024 177.599 193.450  1.00  0.00    -0.550 OA
ATOM     24  O   UNL     1     177.184 176.930 193.085  1.00  0.00    -0.550 OA
ENDBRANCH  21  22
ENDBRANCH  20  21
ENDBRANCH  19  20
ENDBRANCH  18  19
ENDBRANCH  17  18
ENDBRANCH  16  17
ENDBRANCH  15  16
ENDBRANCH  14  15
ENDBRANCH  13  14
ENDBRANCH   1  13
TORSDOF 20
ENDMDL
