MODEL 1
REMARK VINA RESULT:    -6.133      0.000      0.000
REMARK INTER + INTRA:          -7.508
REMARK INTER:                  -7.208
REMARK INTRA:                  -0.299
REMARK UNBOUND:                -0.299
REMARK SMILES O=c1cc(-c2ccc(O)c(O)c2)oc2cc(O)cc(O)c12
REMARK SMILES IDX 4 1 3 2 2 3 1 4 21 5 19 6 18 7 16 8 15 9 14 10 13 11 5 12
REMARK SMILES IDX 6 13 7 14 8 15 12 16 10 17 9 18 11 20 20 22 17 24
REMARK H PARENT 9 19 11 21 20 23 17 25
REMARK Flexibility Score: inf
ROOT
ATOM      1  C   UNL     1      22.782  -5.792 102.371  1.00  0.00     0.138 A 
ATOM      2  C   UNL     1      24.124  -6.190 102.413  1.00  0.00     0.100 A 
ATOM      3  C   UNL     1      24.737  -6.426 103.645  1.00  0.00     0.197 A 
ATOM      4  O   UNL     1      25.925  -6.842 103.648  1.00  0.00    -0.289 OA
ATOM      5  C   UNL     1      24.008  -6.232 104.842  1.00  0.00     0.107 A 
ATOM      6  C   UNL     1      24.540  -6.403 106.155  1.00  0.00     0.134 A 
ATOM      7  C   UNL     1      23.690  -6.295 107.263  1.00  0.00     0.093 A 
ATOM      8  C   UNL     1      22.342  -5.965 107.109  1.00  0.00     0.123 A 
ATOM      9  C   UNL     1      21.825  -5.744 105.834  1.00  0.00     0.094 A 
ATOM     10  C   UNL     1      22.638  -5.876 104.706  1.00  0.00     0.146 A 
ATOM     11  O   UNL     1      22.103  -5.670 103.508  1.00  0.00    -0.456 OA
ENDROOT
BRANCH   1  12
ATOM     12  C   UNL     1      22.082  -5.527 101.089  1.00  0.00     0.021 A 
ATOM     13  C   UNL     1      22.357  -6.333  99.971  1.00  0.00     0.016 A 
ATOM     14  C   UNL     1      21.708  -6.108  98.756  1.00  0.00     0.051 A 
ATOM     15  C   UNL     1      20.765  -5.083  98.636  1.00  0.00     0.157 A 
ATOM     16  C   UNL     1      21.122  -4.503 100.968  1.00  0.00     0.062 A 
ATOM     17  C   UNL     1      20.467  -4.278  99.748  1.00  0.00     0.158 A 
BRANCH  15  18
ATOM     18  O   UNL     1      20.133  -4.882  97.410  1.00  0.00    -0.504 OA
ATOM     19  H   UNL     1      19.263  -5.343  97.171  1.00  0.00     0.293 HD
ENDBRANCH  15  18
BRANCH  17  20
ATOM     20  O   UNL     1      19.519  -3.262  99.639  1.00  0.00    -0.504 OA
ATOM     21  H   UNL     1      18.838  -3.249  98.888  1.00  0.00     0.293 HD
ENDBRANCH  17  20
ENDBRANCH   1  12
BRANCH   6  22
ATOM     22  O   UNL     1      25.889  -6.651 106.424  1.00  0.00    -0.507 OA
ATOM     23  H   UNL     1      26.598  -6.804 105.724  1.00  0.00     0.293 HD
ENDBRANCH   6  22
BRANCH   8  24
ATOM     24  O   UNL     1      21.507  -5.845 108.217  1.00  0.00    -0.508 OA
ATOM     25  H   UNL     1      20.513  -6.034 108.155  1.00  0.00     0.293 HD
ENDBRANCH   8  24
TORSDOF 5
ENDMDL
MODEL 2
REMARK VINA RESULT:    -6.121      8.782      9.697
REMARK INTER + INTRA:          -7.494
REMARK INTER:                  -7.232
REMARK INTRA:                  -0.263
REMARK UNBOUND:                -0.299
REMARK SMILES O=c1cc(-c2ccc(O)c(O)c2)oc2cc(O)cc(O)c12
REMARK SMILES IDX 4 1 3 2 2 3 1 4 21 5 19 6 18 7 16 8 15 9 14 10 13 11 5 12
REMARK SMILES IDX 6 13 7 14 8 15 12 16 10 17 9 18 11 20 20 22 17 24
REMARK H PARENT 9 19 11 21 20 23 17 25
REMARK Flexibility Score: inf
ROOT
ATOM      1  C   UNL     1      24.622   3.282 103.088  1.00  0.00     0.138 A 
ATOM      2  C   UNL     1      25.858   3.845 103.433  1.00  0.00     0.100 A 
ATOM      3  C   UNL     1      26.998   3.040 103.470  1.00  0.00     0.197 A 
ATOM      4  O   UNL     1      28.103   3.587 103.723  1.00  0.00    -0.289 OA
ATOM      5  C   UNL     1      26.892   1.658 103.189  1.00  0.00     0.107 A 
ATOM      6  C   UNL     1      27.978   0.733 103.235  1.00  0.00     0.134 A 
ATOM      7  C   UNL     1      27.775  -0.590 102.823  1.00  0.00     0.093 A 
ATOM      8  C   UNL     1      26.513  -1.036 102.424  1.00  0.00     0.123 A 
ATOM      9  C   UNL     1      25.435  -0.155 102.427  1.00  0.00     0.094 A 
ATOM     10  C   UNL     1      25.611   1.180 102.800  1.00  0.00     0.146 A 
ATOM     11  O   UNL     1      24.559   1.992 102.775  1.00  0.00    -0.456 OA
ENDROOT
BRANCH   1  12
ATOM     12  C   UNL     1      23.379   4.092 103.035  1.00  0.00     0.021 A 
ATOM     13  C   UNL     1      22.503   4.086 104.134  1.00  0.00     0.016 A 
ATOM     14  C   UNL     1      21.330   4.845 104.112  1.00  0.00     0.051 A 
ATOM     15  C   UNL     1      21.016   5.630 102.999  1.00  0.00     0.157 A 
ATOM     16  C   UNL     1      23.065   4.894 101.920  1.00  0.00     0.062 A 
ATOM     17  C   UNL     1      21.889   5.658 101.899  1.00  0.00     0.158 A 
BRANCH  15  18
ATOM     18  O   UNL     1      19.838   6.375 103.006  1.00  0.00    -0.504 OA
ATOM     19  H   UNL     1      19.597   6.994 103.771  1.00  0.00     0.293 HD
ENDBRANCH  15  18
BRANCH  17  20
ATOM     20  O   UNL     1      21.587   6.448 100.790  1.00  0.00    -0.504 OA
ATOM     21  H   UNL     1      21.181   7.371 100.891  1.00  0.00     0.293 HD
ENDBRANCH  17  20
ENDBRANCH   1  12
BRANCH   6  22
ATOM     22  O   UNL     1      29.257   1.054 103.698  1.00  0.00    -0.507 OA
ATOM     23  H   UNL     1      29.872   0.418 104.182  1.00  0.00     0.293 HD
ENDBRANCH   6  22
BRANCH   8  24
ATOM     24  O   UNL     1      26.317  -2.358 102.031  1.00  0.00    -0.508 OA
ATOM     25  H   UNL     1      25.980  -2.591 101.103  1.00  0.00     0.293 HD
ENDBRANCH   8  24
TORSDOF 5
ENDMDL
MODEL 3
REMARK VINA RESULT:    -5.968      9.485     10.343
REMARK INTER + INTRA:          -7.314
REMARK INTER:                  -7.049
REMARK INTRA:                  -0.265
REMARK UNBOUND:                -0.299
REMARK SMILES O=c1cc(-c2ccc(O)c(O)c2)oc2cc(O)cc(O)c12
REMARK SMILES IDX 4 1 3 2 2 3 1 4 21 5 19 6 18 7 16 8 15 9 14 10 13 11 5 12
REMARK SMILES IDX 6 13 7 14 8 15 12 16 10 17 9 18 11 20 20 22 17 24
REMARK H PARENT 9 19 11 21 20 23 17 25
REMARK Flexibility Score: inf
ROOT
ATOM      1  C   UNL     1      24.641   3.315 103.030  1.00  0.00     0.138 A 
ATOM      2  C   UNL     1      24.664   1.966 102.653  1.00  0.00     0.100 A 
ATOM      3  C   UNL     1      25.864   1.254 102.706  1.00  0.00     0.197 A 
ATOM      4  O   UNL     1      25.840   0.028 102.421  1.00  0.00    -0.289 OA
ATOM      5  C   UNL     1      27.052   1.907 103.110  1.00  0.00     0.107 A 
ATOM      6  C   UNL     1      28.339   1.293 103.164  1.00  0.00     0.134 A 
ATOM      7  C   UNL     1      29.422   2.008 103.691  1.00  0.00     0.093 A 
ATOM      8  C   UNL     1      29.278   3.332 104.110  1.00  0.00     0.123 A 
ATOM      9  C   UNL     1      28.037   3.957 104.012  1.00  0.00     0.094 A 
ATOM     10  C   UNL     1      26.929   3.262 103.522  1.00  0.00     0.146 A 
ATOM     11  O   UNL     1      25.760   3.891 103.458  1.00  0.00    -0.456 OA
ENDROOT
BRANCH   1  12
ATOM     12  C   UNL     1      23.394   4.119 102.991  1.00  0.00     0.021 A 
ATOM     13  C   UNL     1      22.531   4.112 104.102  1.00  0.00     0.016 A 
ATOM     14  C   UNL     1      21.356   4.865 104.093  1.00  0.00     0.051 A 
ATOM     15  C   UNL     1      21.023   5.646 102.982  1.00  0.00     0.157 A 
ATOM     16  C   UNL     1      23.062   4.917 101.879  1.00  0.00     0.062 A 
ATOM     17  C   UNL     1      21.882   5.675 101.870  1.00  0.00     0.158 A 
BRANCH  15  18
ATOM     18  O   UNL     1      19.842   6.386 103.002  1.00  0.00    -0.504 OA
ATOM     19  H   UNL     1      19.397   6.712 102.153  1.00  0.00     0.293 HD
ENDBRANCH  15  18
BRANCH  17  20
ATOM     20  O   UNL     1      21.562   6.461 100.764  1.00  0.00    -0.504 OA
ATOM     21  H   UNL     1      22.044   7.331 100.574  1.00  0.00     0.293 HD
ENDBRANCH  17  20
ENDBRANCH   1  12
BRANCH   6  22
ATOM     22  O   UNL     1      28.610   0.006 102.693  1.00  0.00    -0.507 OA
ATOM     23  H   UNL     1      28.171  -0.837 103.031  1.00  0.00     0.293 HD
ENDBRANCH   6  22
BRANCH   8  24
ATOM     24  O   UNL     1      30.364   4.040 104.619  1.00  0.00    -0.508 OA
ATOM     25  H   UNL     1      30.989   4.559 104.013  1.00  0.00     0.293 HD
ENDBRANCH   8  24
TORSDOF 5
ENDMDL
MODEL 4
REMARK VINA RESULT:    -5.967     13.148     15.091
REMARK INTER + INTRA:          -7.314
REMARK INTER:                  -7.017
REMARK INTRA:                  -0.297
REMARK UNBOUND:                -0.299
REMARK SMILES O=c1cc(-c2ccc(O)c(O)c2)oc2cc(O)cc(O)c12
REMARK SMILES IDX 4 1 3 2 2 3 1 4 21 5 19 6 18 7 16 8 15 9 14 10 13 11 5 12
REMARK SMILES IDX 6 13 7 14 8 15 12 16 10 17 9 18 11 20 20 22 17 24
REMARK H PARENT 9 19 11 21 20 23 17 25
REMARK Flexibility Score: inf
ROOT
ATOM      1  C   UNL     1      32.189   3.824 102.982  1.00  0.00     0.138 A 
ATOM      2  C   UNL     1      32.610   2.492 102.874  1.00  0.00     0.100 A 
ATOM      3  C   UNL     1      32.772   1.919 101.611  1.00  0.00     0.197 A 
ATOM      4  O   UNL     1      33.211   0.742 101.545  1.00  0.00    -0.289 OA
ATOM      5  C   UNL     1      32.480   2.677 100.452  1.00  0.00     0.107 A 
ATOM      6  C   UNL     1      32.569   2.186  99.116  1.00  0.00     0.134 A 
ATOM      7  C   UNL     1      32.366   3.063  98.043  1.00  0.00     0.093 A 
ATOM      8  C   UNL     1      32.020   4.398  98.259  1.00  0.00     0.123 A 
ATOM      9  C   UNL     1      31.878   4.875  99.561  1.00  0.00     0.094 A 
ATOM     10  C   UNL     1      32.105   4.034 100.652  1.00  0.00     0.146 A 
ATOM     11  O   UNL     1      31.974   4.531 101.877  1.00  0.00    -0.456 OA
ENDROOT
BRANCH   1  12
ATOM     12  C   UNL     1      32.000   4.482 104.299  1.00  0.00     0.021 A 
ATOM     13  C   UNL     1      32.928   4.248 105.329  1.00  0.00     0.016 A 
ATOM     14  C   UNL     1      32.777   4.860 106.575  1.00  0.00     0.051 A 
ATOM     15  C   UNL     1      31.704   5.723 106.814  1.00  0.00     0.157 A 
ATOM     16  C   UNL     1      30.927   5.363 104.540  1.00  0.00     0.062 A 
ATOM     17  C   UNL     1      30.776   5.979 105.791  1.00  0.00     0.158 A 
BRANCH  15  18
ATOM     18  O   UNL     1      31.578   6.319 108.068  1.00  0.00    -0.504 OA
ATOM     19  H   UNL     1      31.629   7.322 108.194  1.00  0.00     0.293 HD
ENDBRANCH  15  18
BRANCH  17  20
ATOM     20  O   UNL     1      29.710   6.849 106.018  1.00  0.00    -0.504 OA
ATOM     21  H   UNL     1      29.737   7.814 105.711  1.00  0.00     0.293 HD
ENDBRANCH  17  20
ENDBRANCH   1  12
BRANCH   6  22
ATOM     22  O   UNL     1      32.825   0.850  98.790  1.00  0.00    -0.507 OA
ATOM     23  H   UNL     1      32.979   0.113  99.461  1.00  0.00     0.293 HD
ENDBRANCH   6  22
BRANCH   8  24
ATOM     24  O   UNL     1      31.805   5.260  97.186  1.00  0.00    -0.508 OA
ATOM     25  H   UNL     1      31.706   6.261  97.321  1.00  0.00     0.293 HD
ENDBRANCH   8  24
TORSDOF 5
ENDMDL
MODEL 5
REMARK VINA RESULT:    -5.947     10.452     12.214
REMARK INTER + INTRA:          -7.289
REMARK INTER:                  -6.972
REMARK INTRA:                  -0.317
REMARK UNBOUND:                -0.299
REMARK SMILES O=c1cc(-c2ccc(O)c(O)c2)oc2cc(O)cc(O)c12
REMARK SMILES IDX 4 1 3 2 2 3 1 4 21 5 19 6 18 7 16 8 15 9 14 10 13 11 5 12
REMARK SMILES IDX 6 13 7 14 8 15 12 16 10 17 9 18 11 20 20 22 17 24
REMARK H PARENT 9 19 11 21 20 23 17 25
REMARK Flexibility Score: inf
ROOT
ATOM      1  C   UNL     1      29.840   2.434 104.304  1.00  0.00     0.138 A 
ATOM      2  C   UNL     1      29.244   1.836 105.422  1.00  0.00     0.100 A 
ATOM      3  C   UNL     1      28.197   0.929 105.245  1.00  0.00     0.197 A 
ATOM      4  O   UNL     1      27.725   0.361 106.264  1.00  0.00    -0.289 OA
ATOM      5  C   UNL     1      27.726   0.644 103.941  1.00  0.00     0.107 A 
ATOM      6  C   UNL     1      26.640  -0.231 103.643  1.00  0.00     0.134 A 
ATOM      7  C   UNL     1      26.338  -0.526 102.307  1.00  0.00     0.093 A 
ATOM      8  C   UNL     1      27.044   0.070 101.260  1.00  0.00     0.123 A 
ATOM      9  C   UNL     1      28.072   0.968 101.541  1.00  0.00     0.094 A 
ATOM     10  C   UNL     1      28.419   1.257 102.862  1.00  0.00     0.146 A 
ATOM     11  O   UNL     1      29.415   2.108 103.087  1.00  0.00    -0.456 OA
ENDROOT
BRANCH   1  12
ATOM     12  C   UNL     1      30.954   3.405 104.435  1.00  0.00     0.021 A 
ATOM     13  C   UNL     1      31.352   3.833 105.714  1.00  0.00     0.016 A 
ATOM     14  C   UNL     1      32.403   4.741 105.864  1.00  0.00     0.051 A 
ATOM     15  C   UNL     1      33.081   5.231 104.745  1.00  0.00     0.157 A 
ATOM     16  C   UNL     1      31.649   3.892 103.310  1.00  0.00     0.062 A 
ATOM     17  C   UNL     1      32.705   4.802 103.461  1.00  0.00     0.158 A 
BRANCH  15  18
ATOM     18  O   UNL     1      34.124   6.137 104.927  1.00  0.00    -0.504 OA
ATOM     19  H   UNL     1      33.966   7.079 105.263  1.00  0.00     0.293 HD
ENDBRANCH  15  18
BRANCH  17  20
ATOM     20  O   UNL     1      33.386   5.277 102.341  1.00  0.00    -0.504 OA
ATOM     21  H   UNL     1      33.458   4.730 101.491  1.00  0.00     0.293 HD
ENDBRANCH  17  20
ENDBRANCH   1  12
BRANCH   6  22
ATOM     22  O   UNL     1      25.817  -0.813 104.611  1.00  0.00    -0.507 OA
ATOM     23  H   UNL     1      25.514  -1.775 104.610  1.00  0.00     0.293 HD
ENDBRANCH   6  22
BRANCH   8  24
ATOM     24  O   UNL     1      26.727  -0.216  99.934  1.00  0.00    -0.508 OA
ATOM     25  H   UNL     1      26.146   0.405  99.382  1.00  0.00     0.293 HD
ENDBRANCH   8  24
TORSDOF 5
ENDMDL
MODEL 6
REMARK VINA RESULT:    -5.919      7.351      8.625
REMARK INTER + INTRA:          -7.256
REMARK INTER:                  -6.992
REMARK INTRA:                  -0.264
REMARK UNBOUND:                -0.299
REMARK SMILES O=c1cc(-c2ccc(O)c(O)c2)oc2cc(O)cc(O)c12
REMARK SMILES IDX 4 1 3 2 2 3 1 4 21 5 19 6 18 7 16 8 15 9 14 10 13 11 5 12
REMARK SMILES IDX 6 13 7 14 8 15 12 16 10 17 9 18 11 20 20 22 17 24
REMARK H PARENT 9 19 11 21 20 23 17 25
REMARK Flexibility Score: inf
ROOT
ATOM      1  C   UNL     1      22.990   1.600 102.795  1.00  0.00     0.138 A 
ATOM      2  C   UNL     1      22.344   0.437 102.357  1.00  0.00     0.100 A 
ATOM      3  C   UNL     1      23.079  -0.737 102.181  1.00  0.00     0.197 A 
ATOM      4  O   UNL     1      22.460  -1.781 101.848  1.00  0.00    -0.289 OA
ATOM      5  C   UNL     1      24.474  -0.735 102.417  1.00  0.00     0.107 A 
ATOM      6  C   UNL     1      25.332  -1.861 102.233  1.00  0.00     0.134 A 
ATOM      7  C   UNL     1      26.678  -1.771 102.609  1.00  0.00     0.093 A 
ATOM      8  C   UNL     1      27.210  -0.580 103.107  1.00  0.00     0.123 A 
ATOM      9  C   UNL     1      26.393   0.540 103.240  1.00  0.00     0.094 A 
ATOM     10  C   UNL     1      25.039   0.475 102.905  1.00  0.00     0.146 A 
ATOM     11  O   UNL     1      24.291   1.562 103.061  1.00  0.00    -0.456 OA
ENDROOT
BRANCH   1  12
ATOM     12  C   UNL     1      22.257   2.875 102.996  1.00  0.00     0.021 A 
ATOM     13  C   UNL     1      22.098   3.761 101.915  1.00  0.00     0.016 A 
ATOM     14  C   UNL     1      21.407   4.963 102.077  1.00  0.00     0.051 A 
ATOM     15  C   UNL     1      20.852   5.300 103.315  1.00  0.00     0.157 A 
ATOM     16  C   UNL     1      21.685   3.213 104.239  1.00  0.00     0.062 A 
ATOM     17  C   UNL     1      20.989   4.420 104.401  1.00  0.00     0.158 A 
BRANCH  15  18
ATOM     18  O   UNL     1      20.169   6.507 103.446  1.00  0.00    -0.504 OA
ATOM     19  H   UNL     1      19.262   6.567 103.893  1.00  0.00     0.293 HD
ENDBRANCH  15  18
BRANCH  17  20
ATOM     20  O   UNL     1      20.428   4.744 105.635  1.00  0.00    -0.504 OA
ATOM     21  H   UNL     1      20.127   4.029 106.287  1.00  0.00     0.293 HD
ENDBRANCH  17  20
ENDBRANCH   1  12
BRANCH   6  22
ATOM     22  O   UNL     1      24.921  -3.070 101.665  1.00  0.00    -0.507 OA
ATOM     23  H   UNL     1      24.004  -3.476 101.773  1.00  0.00     0.293 HD
ENDBRANCH   6  22
BRANCH   8  24
ATOM     24  O   UNL     1      28.554  -0.496 103.464  1.00  0.00    -0.508 OA
ATOM     25  H   UNL     1      28.997  -1.211 104.032  1.00  0.00     0.293 HD
ENDBRANCH   8  24
TORSDOF 5
ENDMDL
MODEL 7
REMARK VINA RESULT:    -5.860     12.828     13.334
REMARK INTER + INTRA:          -7.187
REMARK INTER:                  -6.897
REMARK INTRA:                  -0.290
REMARK UNBOUND:                -0.299
REMARK SMILES O=c1cc(-c2ccc(O)c(O)c2)oc2cc(O)cc(O)c12
REMARK SMILES IDX 4 1 3 2 2 3 1 4 21 5 19 6 18 7 16 8 15 9 14 10 13 11 5 12
REMARK SMILES IDX 6 13 7 14 8 15 12 16 10 17 9 18 11 20 20 22 17 24
REMARK H PARENT 9 19 11 21 20 23 17 25
REMARK Flexibility Score: inf
ROOT
ATOM      1  C   UNL     1      32.637   2.875 102.559  1.00  0.00     0.138 A 
ATOM      2  C   UNL     1      33.346   1.669 102.645  1.00  0.00     0.100 A 
ATOM      3  C   UNL     1      33.477   1.031 103.880  1.00  0.00     0.197 A 
ATOM      4  O   UNL     1      34.064  -0.081 103.914  1.00  0.00    -0.289 OA
ATOM      5  C   UNL     1      32.920   1.622 105.039  1.00  0.00     0.107 A 
ATOM      6  C   UNL     1      33.025   1.083 106.356  1.00  0.00     0.134 A 
ATOM      7  C   UNL     1      32.334   1.696 107.409  1.00  0.00     0.093 A 
ATOM      8  C   UNL     1      31.592   2.861 107.204  1.00  0.00     0.123 A 
ATOM      9  C   UNL     1      31.527   3.424 105.932  1.00  0.00     0.094 A 
ATOM     10  C   UNL     1      32.177   2.819 104.853  1.00  0.00     0.146 A 
ATOM     11  O   UNL     1      32.078   3.381 103.654  1.00  0.00    -0.456 OA
ENDROOT
BRANCH   1  12
ATOM     12  C   UNL     1      32.469   3.596 101.272  1.00  0.00     0.021 A 
ATOM     13  C   UNL     1      32.063   2.885 100.129  1.00  0.00     0.016 A 
ATOM     14  C   UNL     1      31.891   3.541  98.908  1.00  0.00     0.051 A 
ATOM     15  C   UNL     1      32.111   4.917  98.808  1.00  0.00     0.157 A 
ATOM     16  C   UNL     1      32.677   4.985 101.169  1.00  0.00     0.062 A 
ATOM     17  C   UNL     1      32.503   5.645  99.944  1.00  0.00     0.158 A 
BRANCH  15  18
ATOM     18  O   UNL     1      31.932   5.544  97.575  1.00  0.00    -0.504 OA
ATOM     19  H   UNL     1      31.952   6.552  97.477  1.00  0.00     0.293 HD
ENDBRANCH  15  18
BRANCH  17  20
ATOM     20  O   UNL     1      32.712   7.020  99.853  1.00  0.00    -0.504 OA
ATOM     21  H   UNL     1      31.964   7.655  99.600  1.00  0.00     0.293 HD
ENDBRANCH  17  20
ENDBRANCH   1  12
BRANCH   6  22
ATOM     22  O   UNL     1      33.809  -0.026 106.686  1.00  0.00    -0.507 OA
ATOM     23  H   UNL     1      34.355  -0.563 106.028  1.00  0.00     0.293 HD
ENDBRANCH   6  22
BRANCH   8  24
ATOM     24  O   UNL     1      30.921   3.472 108.260  1.00  0.00    -0.508 OA
ATOM     25  H   UNL     1      30.828   3.019 109.163  1.00  0.00     0.293 HD
ENDBRANCH   8  24
TORSDOF 5
ENDMDL
MODEL 8
REMARK VINA RESULT:    -5.736      6.295      7.797
REMARK INTER + INTRA:          -7.042
REMARK INTER:                  -6.753
REMARK INTRA:                  -0.289
REMARK UNBOUND:                -0.299
REMARK SMILES O=c1cc(-c2ccc(O)c(O)c2)oc2cc(O)cc(O)c12
REMARK SMILES IDX 4 1 3 2 2 3 1 4 21 5 19 6 18 7 16 8 15 9 14 10 13 11 5 12
REMARK SMILES IDX 6 13 7 14 8 15 12 16 10 17 9 18 11 20 20 22 17 24
REMARK H PARENT 9 19 11 21 20 23 17 25
REMARK Flexibility Score: inf
ROOT
ATOM      1  C   UNL     1      23.095   0.622 102.881  1.00  0.00     0.138 A 
ATOM      2  C   UNL     1      24.493   0.586 102.799  1.00  0.00     0.100 A 
ATOM      3  C   UNL     1      25.125  -0.533 102.253  1.00  0.00     0.197 A 
ATOM      4  O   UNL     1      26.378  -0.510 102.136  1.00  0.00    -0.289 OA
ATOM      5  C   UNL     1      24.351  -1.634 101.815  1.00  0.00     0.107 A 
ATOM      6  C   UNL     1      24.887  -2.843 101.280  1.00  0.00     0.134 A 
ATOM      7  C   UNL     1      24.019  -3.817 100.772  1.00  0.00     0.093 A 
ATOM      8  C   UNL     1      22.634  -3.653 100.835  1.00  0.00     0.123 A 
ATOM      9  C   UNL     1      22.099  -2.499 101.405  1.00  0.00     0.094 A 
ATOM     10  C   UNL     1      22.939  -1.493 101.890  1.00  0.00     0.146 A 
ATOM     11  O   UNL     1      22.389  -0.403 102.412  1.00  0.00    -0.456 OA
ENDROOT
BRANCH   1  12
ATOM     12  C   UNL     1      22.373   1.785 103.453  1.00  0.00     0.021 A 
ATOM     13  C   UNL     1      22.698   3.083 103.021  1.00  0.00     0.016 A 
ATOM     14  C   UNL     1      22.029   4.193 103.539  1.00  0.00     0.051 A 
ATOM     15  C   UNL     1      21.017   4.030 104.489  1.00  0.00     0.157 A 
ATOM     16  C   UNL     1      21.344   1.624 104.402  1.00  0.00     0.062 A 
ATOM     17  C   UNL     1      20.670   2.739 104.921  1.00  0.00     0.158 A 
BRANCH  15  18
ATOM     18  O   UNL     1      20.368   5.157 104.989  1.00  0.00    -0.504 OA
ATOM     19  H   UNL     1      20.597   5.554 105.892  1.00  0.00     0.293 HD
ENDBRANCH  15  18
BRANCH  17  20
ATOM     20  O   UNL     1      19.653   2.569 105.860  1.00  0.00    -0.504 OA
ATOM     21  H   UNL     1      19.167   3.359 106.266  1.00  0.00     0.293 HD
ENDBRANCH  17  20
ENDBRANCH   1  12
BRANCH   6  22
ATOM     22  O   UNL     1      26.252  -3.145 101.247  1.00  0.00    -0.507 OA
ATOM     23  H   UNL     1      26.905  -2.943 101.989  1.00  0.00     0.293 HD
ENDBRANCH   6  22
BRANCH   8  24
ATOM     24  O   UNL     1      21.777  -4.634 100.341  1.00  0.00    -0.508 OA
ATOM     25  H   UNL     1      21.024  -5.012 100.905  1.00  0.00     0.293 HD
ENDBRANCH   8  24
TORSDOF 5
ENDMDL
MODEL 9
REMARK VINA RESULT:    -5.695     10.851     11.639
REMARK INTER + INTRA:          -6.993
REMARK INTER:                  -6.702
REMARK INTRA:                  -0.291
REMARK UNBOUND:                -0.299
REMARK SMILES O=c1cc(-c2ccc(O)c(O)c2)oc2cc(O)cc(O)c12
REMARK SMILES IDX 4 1 3 2 2 3 1 4 21 5 19 6 18 7 16 8 15 9 14 10 13 11 5 12
REMARK SMILES IDX 6 13 7 14 8 15 12 16 10 17 9 18 11 20 20 22 17 24
REMARK H PARENT 9 19 11 21 20 23 17 25
REMARK Flexibility Score: inf
ROOT
ATOM      1  C   UNL     1      29.632   2.193 102.965  1.00  0.00     0.138 A 
ATOM      2  C   UNL     1      30.670   2.361 102.039  1.00  0.00     0.100 A 
ATOM      3  C   UNL     1      31.707   3.253 102.319  1.00  0.00     0.197 A 
ATOM      4  O   UNL     1      32.657   3.336 101.498  1.00  0.00    -0.289 OA
ATOM      5  C   UNL     1      31.686   4.001 103.520  1.00  0.00     0.107 A 
ATOM      6  C   UNL     1      32.668   4.968 103.892  1.00  0.00     0.134 A 
ATOM      7  C   UNL     1      32.604   5.563 105.159  1.00  0.00     0.093 A 
ATOM      8  C   UNL     1      31.562   5.270 106.041  1.00  0.00     0.123 A 
ATOM      9  C   UNL     1      30.570   4.368 105.666  1.00  0.00     0.094 A 
ATOM     10  C   UNL     1      30.622   3.733 104.423  1.00  0.00     0.146 A 
ATOM     11  O   UNL     1      29.664   2.868 104.109  1.00  0.00    -0.456 OA
ENDROOT
BRANCH   1  12
ATOM     12  C   UNL     1      28.504   1.260 102.716  1.00  0.00     0.021 A 
ATOM     13  C   UNL     1      27.790   0.733 103.806  1.00  0.00     0.016 A 
ATOM     14  C   UNL     1      26.720  -0.141 103.600  1.00  0.00     0.051 A 
ATOM     15  C   UNL     1      26.338  -0.497 102.303  1.00  0.00     0.157 A 
ATOM     16  C   UNL     1      28.107   0.909 101.411  1.00  0.00     0.062 A 
ATOM     17  C   UNL     1      27.032   0.033 101.203  1.00  0.00     0.158 A 
BRANCH  15  18
ATOM     18  O   UNL     1      25.267  -1.372 102.128  1.00  0.00    -0.504 OA
ATOM     19  H   UNL     1      24.662  -1.641 102.894  1.00  0.00     0.293 HD
ENDBRANCH  15  18
BRANCH  17  20
ATOM     20  O   UNL     1      26.647  -0.308  99.907  1.00  0.00    -0.504 OA
ATOM     21  H   UNL     1      26.991  -1.147  99.454  1.00  0.00     0.293 HD
ENDBRANCH  17  20
ENDBRANCH   1  12
BRANCH   6  22
ATOM     22  O   UNL     1      33.701   5.395 103.053  1.00  0.00    -0.507 OA
ATOM     23  H   UNL     1      33.672   6.222 102.477  1.00  0.00     0.293 HD
ENDBRANCH   6  22
BRANCH   8  24
ATOM     24  O   UNL     1      31.499   5.878 107.293  1.00  0.00    -0.508 OA
ATOM     25  H   UNL     1      30.630   5.928 107.815  1.00  0.00     0.293 HD
ENDBRANCH   8  24
TORSDOF 5
ENDMDL
