MODEL 1
REMARK VINA RESULT:    -6.993      0.000      0.000
REMARK INTER + INTRA:          -8.747
REMARK INTER:                  -8.424
REMARK INTRA:                  -0.322
REMARK UNBOUND:                -0.322
REMARK SMILES O=c1c(O)c(-c2ccc(O)c(O)c2)oc2cc(O)cc(O)c12
REMARK SMILES IDX 5 1 3 2 2 3 1 4 22 5 20 6 19 7 17 8 16 9 15 10 14 11 6 12
REMARK SMILES IDX 7 13 8 14 9 15 13 16 11 17 10 18 12 20 4 22 21 24 18 26
REMARK H PARENT 10 19 12 21 4 23 21 25 18 27
REMARK Flexibility Score: inf
ROOT
ATOM      1  C   UNL     1      28.164   5.387 -13.953  1.00  0.00     0.180 A 
ATOM      2  C   UNL     1      28.098   5.577 -12.562  1.00  0.00     0.208 A 
ATOM      3  C   UNL     1      28.987   6.476 -11.954  1.00  0.00     0.238 A 
ATOM      4  O   UNL     1      28.973   6.584 -10.700  1.00  0.00    -0.285 OA
ATOM      5  C   UNL     1      29.895   7.218 -12.749  1.00  0.00     0.111 A 
ATOM      6  C   UNL     1      30.811   8.191 -12.245  1.00  0.00     0.134 A 
ATOM      7  C   UNL     1      31.734   8.785 -13.114  1.00  0.00     0.093 A 
ATOM      8  C   UNL     1      31.733   8.493 -14.477  1.00  0.00     0.123 A 
ATOM      9  C   UNL     1      30.806   7.585 -14.991  1.00  0.00     0.094 A 
ATOM     10  C   UNL     1      29.897   6.946 -14.143  1.00  0.00     0.146 A 
ATOM     11  O   UNL     1      29.047   6.074 -14.669  1.00  0.00    -0.452 OA
ENDROOT
BRANCH   1  12
ATOM     12  C   UNL     1      27.270   4.446 -14.664  1.00  0.00     0.025 A 
ATOM     13  C   UNL     1      26.032   4.863 -15.185  1.00  0.00     0.016 A 
ATOM     14  C   UNL     1      25.194   3.950 -15.832  1.00  0.00     0.051 A 
ATOM     15  C   UNL     1      25.573   2.607 -15.954  1.00  0.00     0.157 A 
ATOM     16  C   UNL     1      27.635   3.093 -14.771  1.00  0.00     0.062 A 
ATOM     17  C   UNL     1      26.794   2.178 -15.420  1.00  0.00     0.158 A 
BRANCH  15  18
ATOM     18  O   UNL     1      24.740   1.695 -16.599  1.00  0.00    -0.504 OA
ATOM     19  H   UNL     1      24.009   1.200 -16.101  1.00  0.00     0.293 HD
ENDBRANCH  15  18
BRANCH  17  20
ATOM     20  O   UNL     1      27.165   0.839 -15.537  1.00  0.00    -0.504 OA
ATOM     21  H   UNL     1      26.881   0.149 -14.852  1.00  0.00     0.293 HD
ENDBRANCH  17  20
ENDBRANCH   1  12
BRANCH   2  22
ATOM     22  O   UNL     1      27.144   4.892 -11.804  1.00  0.00    -0.502 OA
ATOM     23  H   UNL     1      26.691   5.305 -10.998  1.00  0.00     0.293 HD
ENDBRANCH   2  22
BRANCH   6  24
ATOM     24  O   UNL     1      30.840   8.624 -10.916  1.00  0.00    -0.507 OA
ATOM     25  H   UNL     1      30.252   8.266 -10.179  1.00  0.00     0.293 HD
ENDBRANCH   6  24
BRANCH   8  26
ATOM     26  O   UNL     1      32.655   9.117 -15.315  1.00  0.00    -0.508 OA
ATOM     27  H   UNL     1      33.131   8.608 -16.051  1.00  0.00     0.293 HD
ENDBRANCH   8  26
TORSDOF 6
ENDMDL
MODEL 2
REMARK VINA RESULT:    -6.972      1.385      2.022
REMARK INTER + INTRA:          -8.721
REMARK INTER:                  -8.520
REMARK INTRA:                  -0.202
REMARK UNBOUND:                -0.322
REMARK SMILES O=c1c(O)c(-c2ccc(O)c(O)c2)oc2cc(O)cc(O)c12
REMARK SMILES IDX 5 1 3 2 2 3 1 4 22 5 20 6 19 7 17 8 16 9 15 10 14 11 6 12
REMARK SMILES IDX 7 13 8 14 9 15 13 16 11 17 10 18 12 20 4 22 21 24 18 26
REMARK H PARENT 10 19 12 21 4 23 21 25 18 27
REMARK Flexibility Score: inf
ROOT
ATOM      1  C   UNL     1      26.613   4.931 -14.959  1.00  0.00     0.180 A 
ATOM      2  C   UNL     1      26.496   4.927 -13.559  1.00  0.00     0.208 A 
ATOM      3  C   UNL     1      27.466   5.592 -12.793  1.00  0.00     0.238 A 
ATOM      4  O   UNL     1      27.396   5.520 -11.537  1.00  0.00    -0.285 OA
ATOM      5  C   UNL     1      28.510   6.300 -13.436  1.00  0.00     0.111 A 
ATOM      6  C   UNL     1      29.523   7.047 -12.759  1.00  0.00     0.134 A 
ATOM      7  C   UNL     1      30.567   7.619 -13.497  1.00  0.00     0.093 A 
ATOM      8  C   UNL     1      30.601   7.528 -14.887  1.00  0.00     0.123 A 
ATOM      9  C   UNL     1      29.588   6.848 -15.563  1.00  0.00     0.094 A 
ATOM     10  C   UNL     1      28.553   6.233 -14.853  1.00  0.00     0.146 A 
ATOM     11  O   UNL     1      27.621   5.578 -15.533  1.00  0.00    -0.452 OA
ENDROOT
BRANCH   1  12
ATOM     12  C   UNL     1      25.638   4.242 -15.834  1.00  0.00     0.025 A 
ATOM     13  C   UNL     1      24.730   4.962 -16.630  1.00  0.00     0.016 A 
ATOM     14  C   UNL     1      23.803   4.288 -17.430  1.00  0.00     0.051 A 
ATOM     15  C   UNL     1      23.760   2.888 -17.436  1.00  0.00     0.157 A 
ATOM     16  C   UNL     1      25.576   2.837 -15.828  1.00  0.00     0.062 A 
ATOM     17  C   UNL     1      24.646   2.162 -16.631  1.00  0.00     0.158 A 
BRANCH  15  18
ATOM     18  O   UNL     1      22.838   2.213 -18.233  1.00  0.00    -0.504 OA
ATOM     19  H   UNL     1      22.268   2.702 -18.914  1.00  0.00     0.293 HD
ENDBRANCH  15  18
BRANCH  17  20
ATOM     20  O   UNL     1      24.597   0.768 -16.633  1.00  0.00    -0.504 OA
ATOM     21  H   UNL     1      24.125   0.254 -15.899  1.00  0.00     0.293 HD
ENDBRANCH  17  20
ENDBRANCH   1  12
BRANCH   2  22
ATOM     22  O   UNL     1      25.416   4.286 -12.946  1.00  0.00    -0.502 OA
ATOM     23  H   UNL     1      24.455   4.473 -13.204  1.00  0.00     0.293 HD
ENDBRANCH   2  22
BRANCH   6  24
ATOM     24  O   UNL     1      29.537   7.276 -11.381  1.00  0.00    -0.507 OA
ATOM     25  H   UNL     1      29.237   8.129 -10.933  1.00  0.00     0.293 HD
ENDBRANCH   6  24
BRANCH   8  26
ATOM     26  O   UNL     1      31.647   8.125 -15.589  1.00  0.00    -0.508 OA
ATOM     27  H   UNL     1      31.873   9.106 -15.472  1.00  0.00     0.293 HD
ENDBRANCH   8  26
TORSDOF 6
ENDMDL
MODEL 3
REMARK VINA RESULT:    -6.891      1.869      3.634
REMARK INTER + INTRA:          -8.623
REMARK INTER:                  -8.515
REMARK INTRA:                  -0.109
REMARK UNBOUND:                -0.322
REMARK SMILES O=c1c(O)c(-c2ccc(O)c(O)c2)oc2cc(O)cc(O)c12
REMARK SMILES IDX 5 1 3 2 2 3 1 4 22 5 20 6 19 7 17 8 16 9 15 10 14 11 6 12
REMARK SMILES IDX 7 13 8 14 9 15 13 16 11 17 10 18 12 20 4 22 21 24 18 26
REMARK H PARENT 10 19 12 21 4 23 21 25 18 27
REMARK Flexibility Score: inf
ROOT
ATOM      1  C   UNL     1      27.314   4.308 -14.264  1.00  0.00     0.180 A 
ATOM      2  C   UNL     1      28.153   5.170 -14.990  1.00  0.00     0.208 A 
ATOM      3  C   UNL     1      28.871   6.160 -14.302  1.00  0.00     0.238 A 
ATOM      4  O   UNL     1      29.562   6.976 -14.967  1.00  0.00    -0.285 OA
ATOM      5  C   UNL     1      28.786   6.242 -12.890  1.00  0.00     0.111 A 
ATOM      6  C   UNL     1      29.505   7.177 -12.085  1.00  0.00     0.134 A 
ATOM      7  C   UNL     1      29.260   7.233 -10.707  1.00  0.00     0.093 A 
ATOM      8  C   UNL     1      28.373   6.348 -10.097  1.00  0.00     0.123 A 
ATOM      9  C   UNL     1      27.706   5.394 -10.865  1.00  0.00     0.094 A 
ATOM     10  C   UNL     1      27.900   5.338 -12.248  1.00  0.00     0.146 A 
ATOM     11  O   UNL     1      27.230   4.428 -12.944  1.00  0.00    -0.452 OA
ENDROOT
BRANCH   1  12
ATOM     12  C   UNL     1      26.514   3.249 -14.920  1.00  0.00     0.025 A 
ATOM     13  C   UNL     1      26.730   1.888 -14.639  1.00  0.00     0.016 A 
ATOM     14  C   UNL     1      25.979   0.905 -15.289  1.00  0.00     0.051 A 
ATOM     15  C   UNL     1      25.012   1.265 -16.238  1.00  0.00     0.157 A 
ATOM     16  C   UNL     1      25.558   3.603 -15.888  1.00  0.00     0.062 A 
ATOM     17  C   UNL     1      24.805   2.617 -16.539  1.00  0.00     0.158 A 
BRANCH  15  18
ATOM     18  O   UNL     1      24.261   0.288 -16.886  1.00  0.00    -0.504 OA
ATOM     19  H   UNL     1      24.648  -0.262 -17.645  1.00  0.00     0.293 HD
ENDBRANCH  15  18
BRANCH  17  20
ATOM     20  O   UNL     1      23.847   2.972 -17.488  1.00  0.00    -0.504 OA
ATOM     21  H   UNL     1      24.041   2.919 -18.481  1.00  0.00     0.293 HD
ENDBRANCH  17  20
ENDBRANCH   1  12
BRANCH   2  22
ATOM     22  O   UNL     1      28.282   5.025 -16.374  1.00  0.00    -0.502 OA
ATOM     23  H   UNL     1      29.131   5.268 -16.869  1.00  0.00     0.293 HD
ENDBRANCH   2  22
BRANCH   6  24
ATOM     24  O   UNL     1      30.480   8.048 -12.579  1.00  0.00    -0.507 OA
ATOM     25  H   UNL     1      30.924   8.780 -12.046  1.00  0.00     0.293 HD
ENDBRANCH   6  24
BRANCH   8  26
ATOM     26  O   UNL     1      28.167   6.423  -8.720  1.00  0.00    -0.508 OA
ATOM     27  H   UNL     1      27.240   6.542  -8.329  1.00  0.00     0.293 HD
ENDBRANCH   8  26
TORSDOF 6
ENDMDL
MODEL 4
REMARK VINA RESULT:    -6.773      2.453      6.266
REMARK INTER + INTRA:          -8.481
REMARK INTER:                  -8.771
REMARK INTRA:                   0.290
REMARK UNBOUND:                -0.322
REMARK SMILES O=c1c(O)c(-c2ccc(O)c(O)c2)oc2cc(O)cc(O)c12
REMARK SMILES IDX 5 1 3 2 2 3 1 4 22 5 20 6 19 7 17 8 16 9 15 10 14 11 6 12
REMARK SMILES IDX 7 13 8 14 9 15 13 16 11 17 10 18 12 20 4 22 21 24 18 26
REMARK H PARENT 10 19 12 21 4 23 21 25 18 27
REMARK Flexibility Score: inf
ROOT
ATOM      1  C   UNL     1      29.606   6.666 -15.532  1.00  0.00     0.180 A 
ATOM      2  C   UNL     1      28.461   6.038 -16.053  1.00  0.00     0.208 A 
ATOM      3  C   UNL     1      27.554   5.435 -15.168  1.00  0.00     0.238 A 
ATOM      4  O   UNL     1      26.570   4.810 -15.646  1.00  0.00    -0.285 OA
ATOM      5  C   UNL     1      27.771   5.514 -13.771  1.00  0.00     0.111 A 
ATOM      6  C   UNL     1      26.893   4.978 -12.780  1.00  0.00     0.134 A 
ATOM      7  C   UNL     1      27.265   5.024 -11.430  1.00  0.00     0.093 A 
ATOM      8  C   UNL     1      28.448   5.642 -11.030  1.00  0.00     0.123 A 
ATOM      9  C   UNL     1      29.287   6.218 -11.984  1.00  0.00     0.094 A 
ATOM     10  C   UNL     1      28.963   6.154 -13.342  1.00  0.00     0.146 A 
ATOM     11  O   UNL     1      29.799   6.697 -14.218  1.00  0.00    -0.452 OA
ENDROOT
BRANCH   1  12
ATOM     12  C   UNL     1      30.616   7.311 -16.401  1.00  0.00     0.025 A 
ATOM     13  C   UNL     1      31.305   8.466 -15.990  1.00  0.00     0.016 A 
ATOM     14  C   UNL     1      32.237   9.072 -16.838  1.00  0.00     0.051 A 
ATOM     15  C   UNL     1      32.482   8.542 -18.112  1.00  0.00     0.157 A 
ATOM     16  C   UNL     1      30.851   6.796 -17.688  1.00  0.00     0.062 A 
ATOM     17  C   UNL     1      31.786   7.404 -18.537  1.00  0.00     0.158 A 
BRANCH  15  18
ATOM     18  O   UNL     1      33.411   9.142 -18.959  1.00  0.00    -0.504 OA
ATOM     19  H   UNL     1      33.815   8.642 -19.743  1.00  0.00     0.293 HD
ENDBRANCH  15  18
BRANCH  17  20
ATOM     20  O   UNL     1      32.028   6.883 -19.808  1.00  0.00    -0.504 OA
ATOM     21  H   UNL     1      32.590   6.051 -19.941  1.00  0.00     0.293 HD
ENDBRANCH  17  20
ENDBRANCH   1  12
BRANCH   2  22
ATOM     22  O   UNL     1      28.226   6.037 -17.430  1.00  0.00    -0.502 OA
ATOM     23  H   UNL     1      27.690   6.762 -17.891  1.00  0.00     0.293 HD
ENDBRANCH   2  22
BRANCH   6  24
ATOM     24  O   UNL     1      25.644   4.417 -13.061  1.00  0.00    -0.507 OA
ATOM     25  H   UNL     1      25.476   3.693 -13.744  1.00  0.00     0.293 HD
ENDBRANCH   6  24
BRANCH   8  26
ATOM     26  O   UNL     1      28.778   5.684  -9.676  1.00  0.00    -0.508 OA
ATOM     27  H   UNL     1      29.649   5.300  -9.331  1.00  0.00     0.293 HD
ENDBRANCH   8  26
TORSDOF 6
ENDMDL
MODEL 5
REMARK VINA RESULT:    -6.670      2.226      4.153
REMARK INTER + INTRA:          -8.357
REMARK INTER:                  -8.128
REMARK INTRA:                  -0.230
REMARK UNBOUND:                -0.322
REMARK SMILES O=c1c(O)c(-c2ccc(O)c(O)c2)oc2cc(O)cc(O)c12
REMARK SMILES IDX 5 1 3 2 2 3 1 4 22 5 20 6 19 7 17 8 16 9 15 10 14 11 6 12
REMARK SMILES IDX 7 13 8 14 9 15 13 16 11 17 10 18 12 20 4 22 21 24 18 26
REMARK H PARENT 10 19 12 21 4 23 21 25 18 27
REMARK Flexibility Score: inf
ROOT
ATOM      1  C   UNL     1      29.974   7.226 -13.617  1.00  0.00     0.180 A 
ATOM      2  C   UNL     1      30.674   7.321 -14.831  1.00  0.00     0.208 A 
ATOM      3  C   UNL     1      31.791   8.168 -14.908  1.00  0.00     0.238 A 
ATOM      4  O   UNL     1      32.368   8.306 -16.019  1.00  0.00    -0.285 OA
ATOM      5  C   UNL     1      32.229   8.866 -13.756  1.00  0.00     0.111 A 
ATOM      6  C   UNL     1      33.376   9.716 -13.708  1.00  0.00     0.134 A 
ATOM      7  C   UNL     1      33.650  10.439 -12.540  1.00  0.00     0.093 A 
ATOM      8  C   UNL     1      32.861  10.293 -11.400  1.00  0.00     0.123 A 
ATOM      9  C   UNL     1      31.770   9.424 -11.418  1.00  0.00     0.094 A 
ATOM     10  C   UNL     1      31.447   8.718 -12.581  1.00  0.00     0.146 A 
ATOM     11  O   UNL     1      30.389   7.918 -12.562  1.00  0.00    -0.452 OA
ENDROOT
BRANCH   1  12
ATOM     12  C   UNL     1      28.779   6.367 -13.461  1.00  0.00     0.025 A 
ATOM     13  C   UNL     1      28.834   5.157 -12.746  1.00  0.00     0.016 A 
ATOM     14  C   UNL     1      27.698   4.351 -12.633  1.00  0.00     0.051 A 
ATOM     15  C   UNL     1      26.496   4.733 -13.244  1.00  0.00     0.157 A 
ATOM     16  C   UNL     1      27.576   6.735 -14.089  1.00  0.00     0.062 A 
ATOM     17  C   UNL     1      26.437   5.925 -13.975  1.00  0.00     0.158 A 
BRANCH  15  18
ATOM     18  O   UNL     1      25.362   3.932 -13.132  1.00  0.00    -0.504 OA
ATOM     19  H   UNL     1      24.696   3.846 -13.892  1.00  0.00     0.293 HD
ENDBRANCH  15  18
BRANCH  17  20
ATOM     20  O   UNL     1      25.241   6.300 -14.587  1.00  0.00    -0.504 OA
ATOM     21  H   UNL     1      24.969   7.272 -14.665  1.00  0.00     0.293 HD
ENDBRANCH  17  20
ENDBRANCH   1  12
BRANCH   2  22
ATOM     22  O   UNL     1      30.272   6.566 -15.936  1.00  0.00    -0.502 OA
ATOM     23  H   UNL     1      29.365   6.120 -15.988  1.00  0.00     0.293 HD
ENDBRANCH   2  22
BRANCH   6  24
ATOM     24  O   UNL     1      34.284   9.868 -14.760  1.00  0.00    -0.507 OA
ATOM     25  H   UNL     1      34.622   9.118 -15.343  1.00  0.00     0.293 HD
ENDBRANCH   6  24
BRANCH   8  26
ATOM     26  O   UNL     1      33.174  11.015 -10.250  1.00  0.00    -0.508 OA
ATOM     27  H   UNL     1      34.120  11.054  -9.890  1.00  0.00     0.293 HD
ENDBRANCH   8  26
TORSDOF 6
ENDMDL
MODEL 6
REMARK VINA RESULT:    -6.646      3.888      9.593
REMARK INTER + INTRA:          -8.328
REMARK INTER:                  -8.153
REMARK INTRA:                  -0.175
REMARK UNBOUND:                -0.322
REMARK SMILES O=c1c(O)c(-c2ccc(O)c(O)c2)oc2cc(O)cc(O)c12
REMARK SMILES IDX 5 1 3 2 2 3 1 4 22 5 20 6 19 7 17 8 16 9 15 10 14 11 6 12
REMARK SMILES IDX 7 13 8 14 9 15 13 16 11 17 10 18 12 20 4 22 21 24 18 26
REMARK H PARENT 10 19 12 21 4 23 21 25 18 27
REMARK Flexibility Score: inf
ROOT
ATOM      1  C   UNL     1      24.622   1.939 -16.469  1.00  0.00     0.180 A 
ATOM      2  C   UNL     1      23.969   2.749 -17.413  1.00  0.00     0.208 A 
ATOM      3  C   UNL     1      22.931   2.199 -18.180  1.00  0.00     0.238 A 
ATOM      4  O   UNL     1      22.402   2.909 -19.076  1.00  0.00    -0.285 OA
ATOM      5  C   UNL     1      22.518   0.863 -17.957  1.00  0.00     0.111 A 
ATOM      6  C   UNL     1      21.447   0.216 -18.645  1.00  0.00     0.134 A 
ATOM      7  C   UNL     1      21.199  -1.143 -18.415  1.00  0.00     0.093 A 
ATOM      8  C   UNL     1      21.938  -1.861 -17.476  1.00  0.00     0.123 A 
ATOM      9  C   UNL     1      22.951  -1.226 -16.758  1.00  0.00     0.094 A 
ATOM     10  C   UNL     1      23.249   0.119 -16.993  1.00  0.00     0.146 A 
ATOM     11  O   UNL     1      24.235   0.679 -16.303  1.00  0.00    -0.452 OA
ENDROOT
BRANCH   1  12
ATOM     12  C   UNL     1      25.735   2.442 -15.632  1.00  0.00     0.025 A 
ATOM     13  C   UNL     1      27.034   1.919 -15.750  1.00  0.00     0.016 A 
ATOM     14  C   UNL     1      28.064   2.393 -14.932  1.00  0.00     0.051 A 
ATOM     15  C   UNL     1      27.807   3.385 -13.976  1.00  0.00     0.157 A 
ATOM     16  C   UNL     1      25.478   3.421 -14.657  1.00  0.00     0.062 A 
ATOM     17  C   UNL     1      26.511   3.896 -13.837  1.00  0.00     0.158 A 
BRANCH  15  18
ATOM     18  O   UNL     1      28.831   3.861 -13.160  1.00  0.00    -0.504 OA
ATOM     19  H   UNL     1      28.675   4.066 -12.179  1.00  0.00     0.293 HD
ENDBRANCH  15  18
BRANCH  17  20
ATOM     20  O   UNL     1      26.256   4.878 -12.880  1.00  0.00    -0.504 OA
ATOM     21  H   UNL     1      26.644   4.820 -11.946  1.00  0.00     0.293 HD
ENDBRANCH  17  20
ENDBRANCH   1  12
BRANCH   2  22
ATOM     22  O   UNL     1      24.340   4.088 -17.566  1.00  0.00    -0.502 OA
ATOM     23  H   UNL     1      24.189   4.599 -18.428  1.00  0.00     0.293 HD
ENDBRANCH   2  22
BRANCH   6  24
ATOM     24  O   UNL     1      20.588   0.862 -19.539  1.00  0.00    -0.507 OA
ATOM     25  H   UNL     1      20.531   1.861 -19.666  1.00  0.00     0.293 HD
ENDBRANCH   6  24
BRANCH   8  26
ATOM     26  O   UNL     1      21.652  -3.208 -17.261  1.00  0.00    -0.508 OA
ATOM     27  H   UNL     1      20.808  -3.635 -17.625  1.00  0.00     0.293 HD
ENDBRANCH   8  26
TORSDOF 6
ENDMDL
MODEL 7
REMARK VINA RESULT:    -6.491      2.211      7.045
REMARK INTER + INTRA:          -8.141
REMARK INTER:                  -7.823
REMARK INTRA:                  -0.318
REMARK UNBOUND:                -0.322
REMARK SMILES O=c1c(O)c(-c2ccc(O)c(O)c2)oc2cc(O)cc(O)c12
REMARK SMILES IDX 5 1 3 2 2 3 1 4 22 5 20 6 19 7 17 8 16 9 15 10 14 11 6 12
REMARK SMILES IDX 7 13 8 14 9 15 13 16 11 17 10 18 12 20 4 22 21 24 18 26
REMARK H PARENT 10 19 12 21 4 23 21 25 18 27
REMARK Flexibility Score: inf
ROOT
ATOM      1  C   UNL     1      27.039   5.435 -13.696  1.00  0.00     0.180 A 
ATOM      2  C   UNL     1      27.288   4.148 -14.202  1.00  0.00     0.208 A 
ATOM      3  C   UNL     1      26.428   3.621 -15.177  1.00  0.00     0.238 A 
ATOM      4  O   UNL     1      26.613   2.439 -15.570  1.00  0.00    -0.285 OA
ATOM      5  C   UNL     1      25.361   4.407 -15.677  1.00  0.00     0.111 A 
ATOM      6  C   UNL     1      24.454   3.991 -16.699  1.00  0.00     0.134 A 
ATOM      7  C   UNL     1      23.372   4.814 -17.037  1.00  0.00     0.093 A 
ATOM      8  C   UNL     1      23.201   6.062 -16.441  1.00  0.00     0.123 A 
ATOM      9  C   UNL     1      24.113   6.503 -15.481  1.00  0.00     0.094 A 
ATOM     10  C   UNL     1      25.180   5.688 -15.093  1.00  0.00     0.146 A 
ATOM     11  O   UNL     1      26.012   6.137 -14.161  1.00  0.00    -0.452 OA
ENDROOT
BRANCH   1  12
ATOM     12  C   UNL     1      27.892   6.054 -12.657  1.00  0.00     0.025 A 
ATOM     13  C   UNL     1      29.071   6.744 -12.992  1.00  0.00     0.016 A 
ATOM     14  C   UNL     1      29.873   7.299 -11.991  1.00  0.00     0.051 A 
ATOM     15  C   UNL     1      29.519   7.159 -10.642  1.00  0.00     0.157 A 
ATOM     16  C   UNL     1      27.553   5.899 -11.301  1.00  0.00     0.062 A 
ATOM     17  C   UNL     1      28.358   6.456 -10.298  1.00  0.00     0.158 A 
BRANCH  15  18
ATOM     18  O   UNL     1      30.316   7.712  -9.642  1.00  0.00    -0.504 OA
ATOM     19  H   UNL     1      30.191   7.464  -8.667  1.00  0.00     0.293 HD
ENDBRANCH  15  18
BRANCH  17  20
ATOM     20  O   UNL     1      28.011   6.313  -8.955  1.00  0.00    -0.504 OA
ATOM     21  H   UNL     1      27.074   6.048  -8.675  1.00  0.00     0.293 HD
ENDBRANCH  17  20
ENDBRANCH   1  12
BRANCH   2  22
ATOM     22  O   UNL     1      28.391   3.417 -13.751  1.00  0.00    -0.502 OA
ATOM     23  H   UNL     1      28.294   2.551 -13.235  1.00  0.00     0.293 HD
ENDBRANCH   2  22
BRANCH   6  24
ATOM     24  O   UNL     1      24.581   2.803 -17.423  1.00  0.00    -0.507 OA
ATOM     25  H   UNL     1      24.142   1.928 -17.180  1.00  0.00     0.293 HD
ENDBRANCH   6  24
BRANCH   8  26
ATOM     26  O   UNL     1      22.122   6.861 -16.816  1.00  0.00    -0.508 OA
ATOM     27  H   UNL     1      21.967   7.771 -16.399  1.00  0.00     0.293 HD
ENDBRANCH   8  26
TORSDOF 6
ENDMDL
MODEL 8
REMARK VINA RESULT:    -6.447      2.203      3.715
REMARK INTER + INTRA:          -8.089
REMARK INTER:                  -7.880
REMARK INTRA:                  -0.208
REMARK UNBOUND:                -0.322
REMARK SMILES O=c1c(O)c(-c2ccc(O)c(O)c2)oc2cc(O)cc(O)c12
REMARK SMILES IDX 5 1 3 2 2 3 1 4 22 5 20 6 19 7 17 8 16 9 15 10 14 11 6 12
REMARK SMILES IDX 7 13 8 14 9 15 13 16 11 17 10 18 12 20 4 22 21 24 18 26
REMARK H PARENT 10 19 12 21 4 23 21 25 18 27
REMARK Flexibility Score: inf
ROOT
ATOM      1  C   UNL     1      29.944   7.173 -13.998  1.00  0.00     0.180 A 
ATOM      2  C   UNL     1      30.606   7.885 -12.984  1.00  0.00     0.208 A 
ATOM      3  C   UNL     1      31.734   8.651 -13.315  1.00  0.00     0.238 A 
ATOM      4  O   UNL     1      32.367   9.225 -12.390  1.00  0.00    -0.285 OA
ATOM      5  C   UNL     1      32.155   8.742 -14.665  1.00  0.00     0.111 A 
ATOM      6  C   UNL     1      33.258   9.526 -15.122  1.00  0.00     0.134 A 
ATOM      7  C   UNL     1      33.645   9.455 -16.466  1.00  0.00     0.093 A 
ATOM      8  C   UNL     1      32.933   8.682 -17.381  1.00  0.00     0.123 A 
ATOM      9  C   UNL     1      31.819   7.955 -16.957  1.00  0.00     0.094 A 
ATOM     10  C   UNL     1      31.431   7.975 -15.615  1.00  0.00     0.146 A 
ATOM     11  O   UNL     1      30.379   7.252 -15.250  1.00  0.00    -0.452 OA
ENDROOT
BRANCH   1  12
ATOM     12  C   UNL     1      28.756   6.332 -13.725  1.00  0.00     0.025 A 
ATOM     13  C   UNL     1      28.849   5.161 -12.952  1.00  0.00     0.016 A 
ATOM     14  C   UNL     1      27.719   4.371 -12.729  1.00  0.00     0.051 A 
ATOM     15  C   UNL     1      26.484   4.730 -13.285  1.00  0.00     0.157 A 
ATOM     16  C   UNL     1      27.519   6.676 -14.298  1.00  0.00     0.062 A 
ATOM     17  C   UNL     1      26.386   5.883 -14.073  1.00  0.00     0.158 A 
BRANCH  15  18
ATOM     18  O   UNL     1      25.354   3.945 -13.063  1.00  0.00    -0.504 OA
ATOM     19  H   UNL     1      25.310   3.286 -12.294  1.00  0.00     0.293 HD
ENDBRANCH  15  18
BRANCH  17  20
ATOM     20  O   UNL     1      25.157   6.234 -14.631  1.00  0.00    -0.504 OA
ATOM     21  H   UNL     1      24.283   6.015 -14.168  1.00  0.00     0.293 HD
ENDBRANCH  17  20
ENDBRANCH   1  12
BRANCH   2  22
ATOM     22  O   UNL     1      30.131   7.843 -11.670  1.00  0.00    -0.502 OA
ATOM     23  H   UNL     1      29.153   7.703 -11.450  1.00  0.00     0.293 HD
ENDBRANCH   2  22
BRANCH   6  24
ATOM     24  O   UNL     1      33.985  10.402 -14.311  1.00  0.00    -0.507 OA
ATOM     25  H   UNL     1      34.184  10.253 -13.334  1.00  0.00     0.293 HD
ENDBRANCH   6  24
BRANCH   8  26
ATOM     26  O   UNL     1      33.337   8.649 -18.715  1.00  0.00    -0.508 OA
ATOM     27  H   UNL     1      33.417   7.776 -19.223  1.00  0.00     0.293 HD
ENDBRANCH   8  26
TORSDOF 6
ENDMDL
MODEL 9
REMARK VINA RESULT:    -6.361      3.587      7.889
REMARK INTER + INTRA:          -7.985
REMARK INTER:                  -7.707
REMARK INTRA:                  -0.277
REMARK UNBOUND:                -0.322
REMARK SMILES O=c1c(O)c(-c2ccc(O)c(O)c2)oc2cc(O)cc(O)c12
REMARK SMILES IDX 5 1 3 2 2 3 1 4 22 5 20 6 19 7 17 8 16 9 15 10 14 11 6 12
REMARK SMILES IDX 7 13 8 14 9 15 13 16 11 17 10 18 12 20 4 22 21 24 18 26
REMARK H PARENT 10 19 12 21 4 23 21 25 18 27
REMARK Flexibility Score: inf
ROOT
ATOM      1  C   UNL     1      24.773   5.419 -15.681  1.00  0.00     0.180 A 
ATOM      2  C   UNL     1      23.974   6.562 -15.502  1.00  0.00     0.208 A 
ATOM      3  C   UNL     1      22.838   6.731 -16.309  1.00  0.00     0.238 A 
ATOM      4  O   UNL     1      22.170   7.793 -16.195  1.00  0.00    -0.285 OA
ATOM      5  C   UNL     1      22.482   5.732 -17.247  1.00  0.00     0.111 A 
ATOM      6  C   UNL     1      21.327   5.778 -18.086  1.00  0.00     0.134 A 
ATOM      7  C   UNL     1      21.135   4.781 -19.051  1.00  0.00     0.093 A 
ATOM      8  C   UNL     1      22.017   3.708 -19.164  1.00  0.00     0.123 A 
ATOM      9  C   UNL     1      23.119   3.623 -18.313  1.00  0.00     0.094 A 
ATOM     10  C   UNL     1      23.360   4.622 -17.366  1.00  0.00     0.146 A 
ATOM     11  O   UNL     1      24.432   4.514 -16.591  1.00  0.00    -0.452 OA
ENDROOT
BRANCH   1  12
ATOM     12  C   UNL     1      25.993   5.177 -14.879  1.00  0.00     0.025 A 
ATOM     13  C   UNL     1      25.985   4.300 -13.780  1.00  0.00     0.016 A 
ATOM     14  C   UNL     1      27.144   4.105 -13.023  1.00  0.00     0.051 A 
ATOM     15  C   UNL     1      28.321   4.794 -13.343  1.00  0.00     0.157 A 
ATOM     16  C   UNL     1      27.171   5.881 -15.182  1.00  0.00     0.062 A 
ATOM     17  C   UNL     1      28.333   5.685 -14.423  1.00  0.00     0.158 A 
BRANCH  15  18
ATOM     18  O   UNL     1      29.478   4.601 -12.591  1.00  0.00    -0.504 OA
ATOM     19  H   UNL     1      30.065   5.380 -12.313  1.00  0.00     0.293 HD
ENDBRANCH  15  18
BRANCH  17  20
ATOM     20  O   UNL     1      29.504   6.375 -14.735  1.00  0.00    -0.504 OA
ATOM     21  H   UNL     1      30.371   6.194 -14.244  1.00  0.00     0.293 HD
ENDBRANCH  17  20
ENDBRANCH   1  12
BRANCH   2  22
ATOM     22  O   UNL     1      24.299   7.500 -14.519  1.00  0.00    -0.502 OA
ATOM     23  H   UNL     1      23.738   7.632 -13.686  1.00  0.00     0.293 HD
ENDBRANCH   2  22
BRANCH   6  24
ATOM     24  O   UNL     1      20.334   6.757 -17.997  1.00  0.00    -0.507 OA
ATOM     25  H   UNL     1      19.605   6.780 -17.301  1.00  0.00     0.293 HD
ENDBRANCH   6  24
BRANCH   8  26
ATOM     26  O   UNL     1      21.784   2.726 -20.125  1.00  0.00    -0.508 OA
ATOM     27  H   UNL     1      22.249   2.743 -21.025  1.00  0.00     0.293 HD
ENDBRANCH   8  26
TORSDOF 6
ENDMDL
