MODEL 1
REMARK VINA RESULT:    -3.561      0.000      0.000
REMARK INTER + INTRA:         -15.691
REMARK INTER:                  -9.390
REMARK INTRA:                  -6.301
REMARK UNBOUND:                -6.301
REMARK SMILES CCCCCCCCCCCCCCCCCCCCCCCCCCCCCC(=O)[O-]
REMARK SMILES IDX 16 1 17 2 18 3 19 4 20 5 21 6 22 7 23 8 24 9 25 10 26 11
REMARK SMILES IDX 27 12 28 13 29 14 30 15 31 16 32 17 15 18 14 19 13 20 12 21
REMARK SMILES IDX 11 22 10 23 9 24 8 25 7 26 6 27 5 28 4 29 3 30 2 31 1 32
REMARK H PARENT
REMARK Flexibility Score: inf
ROOT
ATOM      1  C   UNL     1       4.935  25.145 113.294  1.00  0.00     0.000 C 
ENDROOT
BRANCH   1   2
ATOM      2  C   UNL     1       6.144  25.924 112.744  1.00  0.00     0.000 C 
BRANCH   2   3
ATOM      3  C   UNL     1       5.813  27.275 112.079  1.00  0.00     0.000 C 
BRANCH   3   4
ATOM      4  C   UNL     1       4.303  27.565 111.947  1.00  0.00     0.000 C 
BRANCH   4   5
ATOM      5  C   UNL     1       3.767  27.318 110.524  1.00  0.00     0.000 C 
BRANCH   5   6
ATOM      6  C   UNL     1       2.351  27.878 110.315  1.00  0.00     0.000 C 
BRANCH   6   7
ATOM      7  C   UNL     1       2.342  29.252 109.630  1.00  0.00     0.000 C 
BRANCH   7   8
ATOM      8  C   UNL     1       2.448  30.379 110.669  1.00  0.00     0.000 C 
BRANCH   8   9
ATOM      9  C   UNL     1       1.286  30.377 111.676  1.00  0.00     0.000 C 
BRANCH   9  10
ATOM     10  C   UNL     1       1.763  30.371 113.139  1.00  0.00     0.000 C 
BRANCH  10  11
ATOM     11  C   UNL     1       3.239  30.787 113.270  1.00  0.00     0.000 C 
BRANCH  11  12
ATOM     12  C   UNL     1       3.542  31.440 114.631  1.00  0.00     0.000 C 
BRANCH  12  13
ATOM     13  C   UNL     1       5.040  31.432 114.973  1.00  0.00     0.006 C 
BRANCH  13  14
ATOM     14  C   UNL     1       5.913  30.939 113.812  1.00  0.00     0.053 C 
BRANCH  14  15
ATOM     15  C   UNL     1       7.304  31.476 113.938  1.00  0.00     0.041 C 
ATOM     16  O   UNL     1       7.819  32.131 112.990  1.00  0.00    -0.550 OA
ATOM     17  O   UNL     1       8.012  31.302 115.121  1.00  0.00    -0.550 OA
ENDBRANCH  14  15
ENDBRANCH  13  14
ENDBRANCH  12  13
ENDBRANCH  11  12
ENDBRANCH  10  11
ENDBRANCH   9  10
ENDBRANCH   8   9
ENDBRANCH   7   8
ENDBRANCH   6   7
ENDBRANCH   5   6
ENDBRANCH   4   5
ENDBRANCH   3   4
ENDBRANCH   2   3
ENDBRANCH   1   2
BRANCH   1  18
ATOM     18  C   UNL     1       4.805  23.693 112.790  1.00  0.00     0.000 C 
BRANCH  18  19
ATOM     19  C   UNL     1       3.931  22.795 113.693  1.00  0.00     0.000 C 
BRANCH  19  20
ATOM     20  C   UNL     1       3.556  23.483 115.019  1.00  0.00     0.000 C 
BRANCH  20  21
ATOM     21  C   UNL     1       2.063  23.342 115.355  1.00  0.00     0.000 C 
BRANCH  21  22
ATOM     22  C   UNL     1       1.205  23.018 114.118  1.00  0.00     0.000 C 
BRANCH  22  23
ATOM     23  C   UNL     1       0.392  24.230 113.636  1.00  0.00     0.000 C 
BRANCH  23  24
ATOM     24  C   UNL     1       1.249  25.242 112.856  1.00  0.00    -0.000 C 
BRANCH  24  25
ATOM     25  C   UNL     1       1.001  26.692 113.304  1.00  0.00    -0.000 C 
BRANCH  25  26
ATOM     26  C   UNL     1       0.402  26.776 114.719  1.00  0.00    -0.000 C 
BRANCH  26  27
ATOM     27  C   UNL     1       1.284  27.579 115.687  1.00  0.00    -0.000 C 
BRANCH  27  28
ATOM     28  C   UNL     1       2.769  27.558 115.287  1.00  0.00    -0.000 C 
BRANCH  28  29
ATOM     29  C   UNL     1       3.708  27.835 116.475  1.00  0.00    -0.000 C 
BRANCH  29  30
ATOM     30  C   UNL     1       4.536  26.621 116.946  1.00  0.00    -0.000 C 
BRANCH  30  31
ATOM     31  C   UNL     1       5.987  26.587 116.435  1.00  0.00    -0.003 C 
ATOM     32  C   UNL     1       6.531  27.973 116.091  1.00  0.00     0.004 C 
ENDBRANCH  30  31
ENDBRANCH  29  30
ENDBRANCH  28  29
ENDBRANCH  27  28
ENDBRANCH  26  27
ENDBRANCH  25  26
ENDBRANCH  24  25
ENDBRANCH  23  24
ENDBRANCH  22  23
ENDBRANCH  21  22
ENDBRANCH  20  21
ENDBRANCH  19  20
ENDBRANCH  18  19
ENDBRANCH   1  18
TORSDOF 28
ENDMDL
MODEL 2
REMARK VINA RESULT:    -3.511      2.139      5.436
REMARK INTER + INTRA:         -15.559
REMARK INTER:                 -10.396
REMARK INTRA:                  -5.163
REMARK UNBOUND:                -6.301
REMARK SMILES CCCCCCCCCCCCCCCCCCCCCCCCCCCCCC(=O)[O-]
REMARK SMILES IDX 16 1 17 2 18 3 19 4 20 5 21 6 22 7 23 8 24 9 25 10 26 11
REMARK SMILES IDX 27 12 28 13 29 14 30 15 31 16 32 17 15 18 14 19 13 20 12 21
REMARK SMILES IDX 11 22 10 23 9 24 8 25 7 26 6 27 5 28 4 29 3 30 2 31 1 32
REMARK H PARENT
REMARK Flexibility Score: inf
ROOT
ATOM      1  C   UNL     1       1.636  30.148 111.597  1.00  0.00     0.000 C 
ENDROOT
BRANCH   1   2
ATOM      2  C   UNL     1       3.144  30.449 111.627  1.00  0.00     0.000 C 
BRANCH   2   3
ATOM      3  C   UNL     1       3.839  30.211 112.984  1.00  0.00     0.000 C 
BRANCH   3   4
ATOM      4  C   UNL     1       4.777  28.987 113.011  1.00  0.00     0.000 C 
BRANCH   4   5
ATOM      5  C   UNL     1       4.532  28.071 114.226  1.00  0.00     0.000 C 
BRANCH   5   6
ATOM      6  C   UNL     1       3.184  28.340 114.914  1.00  0.00     0.000 C 
BRANCH   6   7
ATOM      7  C   UNL     1       3.090  27.722 116.316  1.00  0.00     0.000 C 
BRANCH   7   8
ATOM      8  C   UNL     1       4.436  27.108 116.732  1.00  0.00     0.000 C 
BRANCH   8   9
ATOM      9  C   UNL     1       5.339  28.098 117.487  1.00  0.00     0.000 C 
BRANCH   9  10
ATOM     10  C   UNL     1       4.597  28.847 118.607  1.00  0.00     0.000 C 
BRANCH  10  11
ATOM     11  C   UNL     1       4.444  30.347 118.300  1.00  0.00     0.000 C 
BRANCH  11  12
ATOM     12  C   UNL     1       5.137  30.749 116.986  1.00  0.00     0.000 C 
BRANCH  12  13
ATOM     13  C   UNL     1       4.886  32.216 116.606  1.00  0.00     0.006 C 
BRANCH  13  14
ATOM     14  C   UNL     1       5.528  32.603 115.267  1.00  0.00     0.053 C 
BRANCH  14  15
ATOM     15  C   UNL     1       6.957  32.163 115.223  1.00  0.00     0.041 C 
ATOM     16  O   UNL     1       7.806  32.690 115.995  1.00  0.00    -0.550 OA
ATOM     17  O   UNL     1       7.343  31.134 114.373  1.00  0.00    -0.550 OA
ENDBRANCH  14  15
ENDBRANCH  13  14
ENDBRANCH  12  13
ENDBRANCH  11  12
ENDBRANCH  10  11
ENDBRANCH   9  10
ENDBRANCH   8   9
ENDBRANCH   7   8
ENDBRANCH   6   7
ENDBRANCH   5   6
ENDBRANCH   4   5
ENDBRANCH   3   4
ENDBRANCH   2   3
ENDBRANCH   1   2
BRANCH   1  18
ATOM     18  C   UNL     1       1.267  28.659 111.436  1.00  0.00     0.000 C 
BRANCH  18  19
ATOM     19  C   UNL     1       2.279  27.853 110.592  1.00  0.00     0.000 C 
BRANCH  19  20
ATOM     20  C   UNL     1       2.624  26.493 111.228  1.00  0.00     0.000 C 
BRANCH  20  21
ATOM     21  C   UNL     1       1.804  26.210 112.496  1.00  0.00     0.000 C 
BRANCH  21  22
ATOM     22  C   UNL     1       1.874  24.734 112.930  1.00  0.00     0.000 C 
BRANCH  22  23
ATOM     23  C   UNL     1       2.611  24.551 114.266  1.00  0.00     0.000 C 
BRANCH  23  24
ATOM     24  C   UNL     1       4.133  24.414 114.084  1.00  0.00    -0.000 C 
BRANCH  24  25
ATOM     25  C   UNL     1       4.505  23.489 112.913  1.00  0.00    -0.000 C 
BRANCH  25  26
ATOM     26  C   UNL     1       5.419  24.179 111.885  1.00  0.00    -0.000 C 
BRANCH  26  27
ATOM     27  C   UNL     1       6.217  25.342 112.493  1.00  0.00    -0.000 C 
BRANCH  27  28
ATOM     28  C   UNL     1       6.932  26.189 111.426  1.00  0.00    -0.000 C 
BRANCH  28  29
ATOM     29  C   UNL     1       7.259  25.388 110.152  1.00  0.00    -0.000 C 
BRANCH  29  30
ATOM     30  C   UNL     1       7.156  26.188 108.837  1.00  0.00    -0.000 C 
BRANCH  30  31
ATOM     31  C   UNL     1       7.902  25.571 107.641  1.00  0.00    -0.003 C 
ATOM     32  C   UNL     1       9.416  25.751 107.727  1.00  0.00     0.004 C 
ENDBRANCH  30  31
ENDBRANCH  29  30
ENDBRANCH  28  29
ENDBRANCH  27  28
ENDBRANCH  26  27
ENDBRANCH  25  26
ENDBRANCH  24  25
ENDBRANCH  23  24
ENDBRANCH  22  23
ENDBRANCH  21  22
ENDBRANCH  20  21
ENDBRANCH  19  20
ENDBRANCH  18  19
ENDBRANCH   1  18
TORSDOF 28
ENDMDL
MODEL 3
REMARK VINA RESULT:    -3.472      1.787      4.332
REMARK INTER + INTRA:         -15.455
REMARK INTER:                 -11.095
REMARK INTRA:                  -4.360
REMARK UNBOUND:                -6.301
REMARK SMILES CCCCCCCCCCCCCCCCCCCCCCCCCCCCCC(=O)[O-]
REMARK SMILES IDX 16 1 17 2 18 3 19 4 20 5 21 6 22 7 23 8 24 9 25 10 26 11
REMARK SMILES IDX 27 12 28 13 29 14 30 15 31 16 32 17 15 18 14 19 13 20 12 21
REMARK SMILES IDX 11 22 10 23 9 24 8 25 7 26 6 27 5 28 4 29 3 30 2 31 1 32
REMARK H PARENT
REMARK Flexibility Score: inf
ROOT
ATOM      1  C   UNL     1       0.614  23.994 113.353  1.00  0.00     0.000 C 
ENDROOT
BRANCH   1   2
ATOM      2  C   UNL     1       1.028  25.474 113.280  1.00  0.00     0.000 C 
BRANCH   2   3
ATOM      3  C   UNL     1       2.512  25.730 112.947  1.00  0.00     0.000 C 
BRANCH   3   4
ATOM      4  C   UNL     1       2.944  25.237 111.551  1.00  0.00     0.000 C 
BRANCH   4   5
ATOM      5  C   UNL     1       3.212  26.390 110.564  1.00  0.00     0.000 C 
BRANCH   5   6
ATOM      6  C   UNL     1       2.285  27.595 110.789  1.00  0.00     0.000 C 
BRANCH   6   7
ATOM      7  C   UNL     1       2.598  28.777 109.860  1.00  0.00     0.000 C 
BRANCH   7   8
ATOM      8  C   UNL     1       2.440  30.112 110.605  1.00  0.00     0.000 C 
BRANCH   8   9
ATOM      9  C   UNL     1       1.731  29.962 111.960  1.00  0.00     0.000 C 
BRANCH   9  10
ATOM     10  C   UNL     1       2.519  30.593 113.121  1.00  0.00     0.000 C 
BRANCH  10  11
ATOM     11  C   UNL     1       3.672  29.693 113.598  1.00  0.00     0.000 C 
BRANCH  11  12
ATOM     12  C   UNL     1       3.990  29.893 115.091  1.00  0.00     0.000 C 
BRANCH  12  13
ATOM     13  C   UNL     1       5.499  29.945 115.375  1.00  0.00     0.006 C 
BRANCH  13  14
ATOM     14  C   UNL     1       6.043  31.379 115.444  1.00  0.00     0.053 C 
BRANCH  14  15
ATOM     15  C   UNL     1       7.292  31.505 114.631  1.00  0.00     0.041 C 
ATOM     16  O   UNL     1       8.421  31.449 115.191  1.00  0.00    -0.550 OA
ATOM     17  O   UNL     1       7.212  31.629 113.249  1.00  0.00    -0.550 OA
ENDBRANCH  14  15
ENDBRANCH  13  14
ENDBRANCH  12  13
ENDBRANCH  11  12
ENDBRANCH  10  11
ENDBRANCH   9  10
ENDBRANCH   8   9
ENDBRANCH   7   8
ENDBRANCH   6   7
ENDBRANCH   5   6
ENDBRANCH   4   5
ENDBRANCH   3   4
ENDBRANCH   2   3
ENDBRANCH   1   2
BRANCH   1  18
ATOM     18  C   UNL     1       0.552  23.399 114.774  1.00  0.00     0.000 C 
BRANCH  18  19
ATOM     19  C   UNL     1       1.401  22.121 114.954  1.00  0.00     0.000 C 
BRANCH  19  20
ATOM     20  C   UNL     1       2.293  21.832 113.733  1.00  0.00     0.000 C 
BRANCH  20  21
ATOM     21  C   UNL     1       3.743  22.299 113.937  1.00  0.00     0.000 C 
BRANCH  21  22
ATOM     22  C   UNL     1       4.046  22.669 115.400  1.00  0.00     0.000 C 
BRANCH  22  23
ATOM     23  C   UNL     1       4.348  24.165 115.576  1.00  0.00     0.000 C 
BRANCH  23  24
ATOM     24  C   UNL     1       5.858  24.463 115.599  1.00  0.00    -0.000 C 
BRANCH  24  25
ATOM     25  C   UNL     1       6.366  25.029 114.262  1.00  0.00    -0.000 C 
BRANCH  25  26
ATOM     26  C   UNL     1       6.024  26.519 114.087  1.00  0.00    -0.000 C 
BRANCH  26  27
ATOM     27  C   UNL     1       6.122  26.979 112.624  1.00  0.00    -0.000 C 
BRANCH  27  28
ATOM     28  C   UNL     1       7.004  26.051 111.772  1.00  0.00    -0.000 C 
BRANCH  28  29
ATOM     29  C   UNL     1       7.726  26.797 110.634  1.00  0.00    -0.000 C 
BRANCH  29  30
ATOM     30  C   UNL     1       7.870  25.998 109.322  1.00  0.00    -0.000 C 
BRANCH  30  31
ATOM     31  C   UNL     1       6.787  26.283 108.267  1.00  0.00    -0.003 C 
ATOM     32  C   UNL     1       7.298  26.140 106.834  1.00  0.00     0.004 C 
ENDBRANCH  30  31
ENDBRANCH  29  30
ENDBRANCH  28  29
ENDBRANCH  27  28
ENDBRANCH  26  27
ENDBRANCH  25  26
ENDBRANCH  24  25
ENDBRANCH  23  24
ENDBRANCH  22  23
ENDBRANCH  21  22
ENDBRANCH  20  21
ENDBRANCH  19  20
ENDBRANCH  18  19
ENDBRANCH   1  18
TORSDOF 28
ENDMDL
MODEL 4
REMARK VINA RESULT:    -3.450      2.365      6.077
REMARK INTER + INTRA:         -15.398
REMARK INTER:                  -8.973
REMARK INTRA:                  -6.424
REMARK UNBOUND:                -6.301
REMARK SMILES CCCCCCCCCCCCCCCCCCCCCCCCCCCCCC(=O)[O-]
REMARK SMILES IDX 16 1 17 2 18 3 19 4 20 5 21 6 22 7 23 8 24 9 25 10 26 11
REMARK SMILES IDX 27 12 28 13 29 14 30 15 31 16 32 17 15 18 14 19 13 20 12 21
REMARK SMILES IDX 11 22 10 23 9 24 8 25 7 26 6 27 5 28 4 29 3 30 2 31 1 32
REMARK H PARENT
REMARK Flexibility Score: inf
ROOT
ATOM      1  C   UNL     1       1.968  29.622 110.986  1.00  0.00     0.000 C 
ENDROOT
BRANCH   1   2
ATOM      2  C   UNL     1       2.514  28.289 110.443  1.00  0.00     0.000 C 
BRANCH   2   3
ATOM      3  C   UNL     1       3.756  27.737 111.171  1.00  0.00     0.000 C 
BRANCH   3   4
ATOM      4  C   UNL     1       4.266  28.629 112.322  1.00  0.00     0.000 C 
BRANCH   4   5
ATOM      5  C   UNL     1       3.973  28.037 113.714  1.00  0.00     0.000 C 
BRANCH   5   6
ATOM      6  C   UNL     1       2.707  28.626 114.358  1.00  0.00     0.000 C 
BRANCH   6   7
ATOM      7  C   UNL     1       1.714  27.551 114.823  1.00  0.00     0.000 C 
BRANCH   7   8
ATOM      8  C   UNL     1       0.928  26.984 113.630  1.00  0.00     0.000 C 
BRANCH   8   9
ATOM      9  C   UNL     1       1.016  25.452 113.528  1.00  0.00     0.000 C 
BRANCH   9  10
ATOM     10  C   UNL     1       2.161  24.980 112.616  1.00  0.00     0.000 C 
BRANCH  10  11
ATOM     11  C   UNL     1       3.315  24.345 113.412  1.00  0.00     0.000 C 
BRANCH  11  12
ATOM     12  C   UNL     1       4.645  24.374 112.636  1.00  0.00     0.000 C 
BRANCH  12  13
ATOM     13  C   UNL     1       5.825  24.845 113.500  1.00  0.00     0.006 C 
BRANCH  13  14
ATOM     14  C   UNL     1       6.775  25.786 112.748  1.00  0.00     0.053 C 
BRANCH  14  15
ATOM     15  C   UNL     1       7.990  25.045 112.286  1.00  0.00     0.041 C 
ATOM     16  O   UNL     1       8.693  25.504 111.344  1.00  0.00    -0.550 OA
ATOM     17  O   UNL     1       8.379  23.877 112.931  1.00  0.00    -0.550 OA
ENDBRANCH  14  15
ENDBRANCH  13  14
ENDBRANCH  12  13
ENDBRANCH  11  12
ENDBRANCH  10  11
ENDBRANCH   9  10
ENDBRANCH   8   9
ENDBRANCH   7   8
ENDBRANCH   6   7
ENDBRANCH   5   6
ENDBRANCH   4   5
ENDBRANCH   3   4
ENDBRANCH   2   3
ENDBRANCH   1   2
BRANCH   1  18
ATOM     18  C   UNL     1       0.443  29.665 111.210  1.00  0.00     0.000 C 
BRANCH  18  19
ATOM     19  C   UNL     1      -0.017  30.792 112.160  1.00  0.00     0.000 C 
BRANCH  19  20
ATOM     20  C   UNL     1      -0.845  30.261 113.345  1.00  0.00     0.000 C 
BRANCH  20  21
ATOM     21  C   UNL     1      -0.318  30.755 114.701  1.00  0.00     0.000 C 
BRANCH  21  22
ATOM     22  C   UNL     1       0.592  31.990 114.570  1.00  0.00     0.000 C 
BRANCH  22  23
ATOM     23  C   UNL     1       1.883  31.855 115.392  1.00  0.00     0.000 C 
BRANCH  23  24
ATOM     24  C   UNL     1       3.023  32.734 114.847  1.00  0.00    -0.000 C 
BRANCH  24  25
ATOM     25  C   UNL     1       3.652  32.155 113.568  1.00  0.00    -0.000 C 
BRANCH  25  26
ATOM     26  C   UNL     1       5.106  31.697 113.783  1.00  0.00    -0.000 C 
BRANCH  26  27
ATOM     27  C   UNL     1       5.651  32.094 115.163  1.00  0.00    -0.000 C 
BRANCH  27  28
ATOM     28  C   UNL     1       5.965  30.875 116.047  1.00  0.00    -0.000 C 
BRANCH  28  29
ATOM     29  C   UNL     1       5.199  30.895 117.382  1.00  0.00    -0.000 C 
BRANCH  29  30
ATOM     30  C   UNL     1       4.143  29.782 117.544  1.00  0.00    -0.000 C 
BRANCH  30  31
ATOM     31  C   UNL     1       4.672  28.466 118.140  1.00  0.00    -0.003 C 
ATOM     32  C   UNL     1       5.134  27.473 117.075  1.00  0.00     0.004 C 
ENDBRANCH  30  31
ENDBRANCH  29  30
ENDBRANCH  28  29
ENDBRANCH  27  28
ENDBRANCH  26  27
ENDBRANCH  25  26
ENDBRANCH  24  25
ENDBRANCH  23  24
ENDBRANCH  22  23
ENDBRANCH  21  22
ENDBRANCH  20  21
ENDBRANCH  19  20
ENDBRANCH  18  19
ENDBRANCH   1  18
TORSDOF 28
ENDMDL
MODEL 5
REMARK VINA RESULT:    -3.449      2.291      4.935
REMARK INTER + INTRA:         -15.396
REMARK INTER:                 -10.022
REMARK INTRA:                  -5.374
REMARK UNBOUND:                -6.301
REMARK SMILES CCCCCCCCCCCCCCCCCCCCCCCCCCCCCC(=O)[O-]
REMARK SMILES IDX 16 1 17 2 18 3 19 4 20 5 21 6 22 7 23 8 24 9 25 10 26 11
REMARK SMILES IDX 27 12 28 13 29 14 30 15 31 16 32 17 15 18 14 19 13 20 12 21
REMARK SMILES IDX 11 22 10 23 9 24 8 25 7 26 6 27 5 28 4 29 3 30 2 31 1 32
REMARK H PARENT
REMARK Flexibility Score: inf
ROOT
ATOM      1  C   UNL     1       1.183  23.247 114.497  1.00  0.00     0.000 C 
ENDROOT
BRANCH   1   2
ATOM      2  C   UNL     1       0.465  24.210 113.534  1.00  0.00     0.000 C 
BRANCH   2   3
ATOM      3  C   UNL     1       1.334  25.353 112.972  1.00  0.00     0.000 C 
BRANCH   3   4
ATOM      4  C   UNL     1       1.496  26.555 113.924  1.00  0.00     0.000 C 
BRANCH   4   5
ATOM      5  C   UNL     1       0.477  27.678 113.651  1.00  0.00     0.000 C 
BRANCH   5   6
ATOM      6  C   UNL     1       1.062  29.082 113.878  1.00  0.00     0.000 C 
BRANCH   6   7
ATOM      7  C   UNL     1       1.404  29.809 112.569  1.00  0.00     0.000 C 
BRANCH   7   8
ATOM      8  C   UNL     1       0.587  29.239 111.399  1.00  0.00     0.000 C 
BRANCH   8   9
ATOM      9  C   UNL     1       1.467  28.724 110.249  1.00  0.00     0.000 C 
BRANCH   9  10
ATOM     10  C   UNL     1       2.939  28.543 110.658  1.00  0.00     0.000 C 
BRANCH  10  11
ATOM     11  C   UNL     1       3.423  27.096 110.459  1.00  0.00     0.000 C 
BRANCH  11  12
ATOM     12  C   UNL     1       4.408  26.654 111.557  1.00  0.00     0.000 C 
BRANCH  12  13
ATOM     13  C   UNL     1       5.865  27.008 111.225  1.00  0.00     0.006 C 
BRANCH  13  14
ATOM     14  C   UNL     1       6.878  26.171 112.018  1.00  0.00     0.053 C 
BRANCH  14  15
ATOM     15  C   UNL     1       7.605  25.230 111.109  1.00  0.00     0.041 C 
ATOM     16  O   UNL     1       8.646  25.610 110.505  1.00  0.00    -0.550 OA
ATOM     17  O   UNL     1       7.168  23.918 110.973  1.00  0.00    -0.550 OA
ENDBRANCH  14  15
ENDBRANCH  13  14
ENDBRANCH  12  13
ENDBRANCH  11  12
ENDBRANCH  10  11
ENDBRANCH   9  10
ENDBRANCH   8   9
ENDBRANCH   7   8
ENDBRANCH   6   7
ENDBRANCH   5   6
ENDBRANCH   4   5
ENDBRANCH   3   4
ENDBRANCH   2   3
ENDBRANCH   1   2
BRANCH   1  18
ATOM     18  C   UNL     1       1.920  22.072 113.821  1.00  0.00     0.000 C 
BRANCH  18  19
ATOM     19  C   UNL     1       3.451  22.094 114.028  1.00  0.00     0.000 C 
BRANCH  19  20
ATOM     20  C   UNL     1       4.126  23.265 113.291  1.00  0.00     0.000 C 
BRANCH  20  21
ATOM     21  C   UNL     1       5.072  24.067 114.200  1.00  0.00     0.000 C 
BRANCH  21  22
ATOM     22  C   UNL     1       4.392  24.531 115.501  1.00  0.00     0.000 C 
BRANCH  22  23
ATOM     23  C   UNL     1       4.581  26.034 115.756  1.00  0.00     0.000 C 
BRANCH  23  24
ATOM     24  C   UNL     1       6.062  26.453 115.741  1.00  0.00    -0.000 C 
BRANCH  24  25
ATOM     25  C   UNL     1       6.259  27.932 116.117  1.00  0.00    -0.000 C 
BRANCH  25  26
ATOM     26  C   UNL     1       5.211  28.850 115.461  1.00  0.00    -0.000 C 
BRANCH  26  27
ATOM     27  C   UNL     1       5.547  29.177 113.999  1.00  0.00    -0.000 C 
BRANCH  27  28
ATOM     28  C   UNL     1       4.678  30.314 113.434  1.00  0.00    -0.000 C 
BRANCH  28  29
ATOM     29  C   UNL     1       5.285  31.707 113.684  1.00  0.00    -0.000 C 
BRANCH  29  30
ATOM     30  C   UNL     1       4.601  32.523 114.800  1.00  0.00    -0.000 C 
BRANCH  30  31
ATOM     31  C   UNL     1       5.562  33.179 115.807  1.00  0.00    -0.003 C 
ATOM     32  C   UNL     1       7.010  32.724 115.632  1.00  0.00     0.004 C 
ENDBRANCH  30  31
ENDBRANCH  29  30
ENDBRANCH  28  29
ENDBRANCH  27  28
ENDBRANCH  26  27
ENDBRANCH  25  26
ENDBRANCH  24  25
ENDBRANCH  23  24
ENDBRANCH  22  23
ENDBRANCH  21  22
ENDBRANCH  20  21
ENDBRANCH  19  20
ENDBRANCH  18  19
ENDBRANCH   1  18
TORSDOF 28
ENDMDL
MODEL 6
REMARK VINA RESULT:    -3.447      1.621      5.308
REMARK INTER + INTRA:         -15.391
REMARK INTER:                  -8.890
REMARK INTRA:                  -6.500
REMARK UNBOUND:                -6.301
REMARK SMILES CCCCCCCCCCCCCCCCCCCCCCCCCCCCCC(=O)[O-]
REMARK SMILES IDX 16 1 17 2 18 3 19 4 20 5 21 6 22 7 23 8 24 9 25 10 26 11
REMARK SMILES IDX 27 12 28 13 29 14 30 15 31 16 32 17 15 18 14 19 13 20 12 21
REMARK SMILES IDX 11 22 10 23 9 24 8 25 7 26 6 27 5 28 4 29 3 30 2 31 1 32
REMARK H PARENT
REMARK Flexibility Score: inf
ROOT
ATOM      1  C   UNL     1       3.186  25.870 110.749  1.00  0.00     0.000 C 
ENDROOT
BRANCH   1   2
ATOM      2  C   UNL     1       4.660  26.150 110.408  1.00  0.00     0.000 C 
BRANCH   2   3
ATOM      3  C   UNL     1       5.693  25.503 111.354  1.00  0.00     0.000 C 
BRANCH   3   4
ATOM      4  C   UNL     1       5.251  24.148 111.944  1.00  0.00     0.000 C 
BRANCH   4   5
ATOM      5  C   UNL     1       5.543  24.027 113.452  1.00  0.00     0.000 C 
BRANCH   5   6
ATOM      6  C   UNL     1       4.372  23.418 114.240  1.00  0.00     0.000 C 
BRANCH   6   7
ATOM      7  C   UNL     1       3.123  23.186 113.377  1.00  0.00     0.000 C 
BRANCH   7   8
ATOM      8  C   UNL     1       1.847  23.525 114.163  1.00  0.00     0.000 C 
BRANCH   8   9
ATOM      9  C   UNL     1       0.827  24.321 113.334  1.00  0.00     0.000 C 
BRANCH   9  10
ATOM     10  C   UNL     1       0.569  25.730 113.897  1.00  0.00     0.000 C 
BRANCH  10  11
ATOM     11  C   UNL     1       1.380  26.002 115.176  1.00  0.00     0.000 C 
BRANCH  11  12
ATOM     12  C   UNL     1       2.248  27.268 115.059  1.00  0.00     0.000 C 
BRANCH  12  13
ATOM     13  C   UNL     1       3.565  27.017 114.309  1.00  0.00     0.006 C 
BRANCH  13  14
ATOM     14  C   UNL     1       4.792  27.056 115.229  1.00  0.00     0.053 C 
BRANCH  14  15
ATOM     15  C   UNL     1       5.779  28.071 114.743  1.00  0.00     0.041 C 
ATOM     16  O   UNL     1       5.881  28.316 113.510  1.00  0.00    -0.550 OA
ATOM     17  O   UNL     1       6.547  28.786 115.655  1.00  0.00    -0.550 OA
ENDBRANCH  14  15
ENDBRANCH  13  14
ENDBRANCH  12  13
ENDBRANCH  11  12
ENDBRANCH  10  11
ENDBRANCH   9  10
ENDBRANCH   8   9
ENDBRANCH   7   8
ENDBRANCH   6   7
ENDBRANCH   5   6
ENDBRANCH   4   5
ENDBRANCH   3   4
ENDBRANCH   2   3
ENDBRANCH   1   2
BRANCH   1  18
ATOM     18  C   UNL     1       2.307  27.124 110.940  1.00  0.00     0.000 C 
BRANCH  18  19
ATOM     19  C   UNL     1       3.093  28.452 110.876  1.00  0.00     0.000 C 
BRANCH  19  20
ATOM     20  C   UNL     1       2.194  29.650 110.521  1.00  0.00     0.000 C 
BRANCH  20  21
ATOM     21  C   UNL     1       0.701  29.351 110.731  1.00  0.00     0.000 C 
BRANCH  21  22
ATOM     22  C   UNL     1       0.063  30.246 111.810  1.00  0.00     0.000 C 
BRANCH  22  23
ATOM     23  C   UNL     1       0.094  29.597 113.202  1.00  0.00     0.000 C 
BRANCH  23  24
ATOM     24  C   UNL     1       0.624  30.552 114.286  1.00  0.00    -0.000 C 
BRANCH  24  25
ATOM     25  C   UNL     1       1.794  31.417 113.787  1.00  0.00    -0.000 C 
BRANCH  25  26
ATOM     26  C   UNL     1       3.148  30.693 113.897  1.00  0.00    -0.000 C 
BRANCH  26  27
ATOM     27  C   UNL     1       4.302  31.504 113.287  1.00  0.00    -0.000 C 
BRANCH  27  28
ATOM     28  C   UNL     1       5.414  31.805 114.305  1.00  0.00    -0.000 C 
BRANCH  28  29
ATOM     29  C   UNL     1       4.907  32.601 115.522  1.00  0.00    -0.000 C 
BRANCH  29  30
ATOM     30  C   UNL     1       5.245  31.978 116.893  1.00  0.00    -0.000 C 
BRANCH  30  31
ATOM     31  C   UNL     1       4.036  31.442 117.678  1.00  0.00    -0.003 C 
ATOM     32  C   UNL     1       3.710  29.986 117.350  1.00  0.00     0.004 C 
ENDBRANCH  30  31
ENDBRANCH  29  30
ENDBRANCH  28  29
ENDBRANCH  27  28
ENDBRANCH  26  27
ENDBRANCH  25  26
ENDBRANCH  24  25
ENDBRANCH  23  24
ENDBRANCH  22  23
ENDBRANCH  21  22
ENDBRANCH  20  21
ENDBRANCH  19  20
ENDBRANCH  18  19
ENDBRANCH   1  18
TORSDOF 28
ENDMDL
MODEL 7
REMARK VINA RESULT:    -3.442      2.419      5.830
REMARK INTER + INTRA:         -15.376
REMARK INTER:                  -8.917
REMARK INTRA:                  -6.458
REMARK UNBOUND:                -6.301
REMARK SMILES CCCCCCCCCCCCCCCCCCCCCCCCCCCCCC(=O)[O-]
REMARK SMILES IDX 16 1 17 2 18 3 19 4 20 5 21 6 22 7 23 8 24 9 25 10 26 11
REMARK SMILES IDX 27 12 28 13 29 14 30 15 31 16 32 17 15 18 14 19 13 20 12 21
REMARK SMILES IDX 11 22 10 23 9 24 8 25 7 26 6 27 5 28 4 29 3 30 2 31 1 32
REMARK H PARENT
REMARK Flexibility Score: inf
ROOT
ATOM      1  C   UNL     1       3.593  25.213 115.830  1.00  0.00     0.000 C 
ENDROOT
BRANCH   1   2
ATOM      2  C   UNL     1       3.937  23.715 115.759  1.00  0.00     0.000 C 
BRANCH   2   3
ATOM      3  C   UNL     1       4.238  23.173 114.347  1.00  0.00     0.000 C 
BRANCH   3   4
ATOM      4  C   UNL     1       3.066  22.407 113.698  1.00  0.00     0.000 C 
BRANCH   4   5
ATOM      5  C   UNL     1       2.016  21.937 114.723  1.00  0.00     0.000 C 
BRANCH   5   6
ATOM      6  C   UNL     1       0.655  22.628 114.542  1.00  0.00     0.000 C 
BRANCH   6   7
ATOM      7  C   UNL     1       0.663  23.693 113.435  1.00  0.00     0.000 C 
BRANCH   7   8
ATOM      8  C   UNL     1       0.354  25.082 114.014  1.00  0.00     0.000 C 
BRANCH   8   9
ATOM      9  C   UNL     1       1.127  26.210 113.311  1.00  0.00     0.000 C 
BRANCH   9  10
ATOM     10  C   UNL     1       2.186  25.685 112.327  1.00  0.00     0.000 C 
BRANCH  10  11
ATOM     11  C   UNL     1       2.491  26.695 111.207  1.00  0.00     0.000 C 
BRANCH  11  12
ATOM     12  C   UNL     1       3.737  26.303 110.391  1.00  0.00     0.000 C 
BRANCH  12  13
ATOM     13  C   UNL     1       4.708  25.413 111.181  1.00  0.00     0.006 C 
BRANCH  13  14
ATOM     14  C   UNL     1       6.146  25.950 111.178  1.00  0.00     0.053 C 
BRANCH  14  15
ATOM     15  C   UNL     1       7.091  24.922 111.716  1.00  0.00     0.041 C 
ATOM     16  O   UNL     1       7.149  23.778 111.188  1.00  0.00    -0.550 OA
ATOM     17  O   UNL     1       7.947  25.244 112.762  1.00  0.00    -0.550 OA
ENDBRANCH  14  15
ENDBRANCH  13  14
ENDBRANCH  12  13
ENDBRANCH  11  12
ENDBRANCH  10  11
ENDBRANCH   9  10
ENDBRANCH   8   9
ENDBRANCH   7   8
ENDBRANCH   6   7
ENDBRANCH   5   6
ENDBRANCH   4   5
ENDBRANCH   3   4
ENDBRANCH   2   3
ENDBRANCH   1   2
BRANCH   1  18
ATOM     18  C   UNL     1       4.807  26.163 115.900  1.00  0.00     0.000 C 
BRANCH  18  19
ATOM     19  C   UNL     1       5.170  26.813 114.547  1.00  0.00     0.000 C 
BRANCH  19  20
ATOM     20  C   UNL     1       4.299  28.043 114.233  1.00  0.00     0.000 C 
BRANCH  20  21
ATOM     21  C   UNL     1       4.813  28.837 113.022  1.00  0.00     0.000 C 
BRANCH  21  22
ATOM     22  C   UNL     1       3.873  29.990 112.626  1.00  0.00     0.000 C 
BRANCH  22  23
ATOM     23  C   UNL     1       2.788  30.250 113.682  1.00  0.00     0.000 C 
BRANCH  23  24
ATOM     24  C   UNL     1       2.542  31.750 113.919  1.00  0.00    -0.000 C 
BRANCH  24  25
ATOM     25  C   UNL     1       3.300  32.284 115.147  1.00  0.00    -0.000 C 
BRANCH  25  26
ATOM     26  C   UNL     1       4.776  32.595 114.836  1.00  0.00    -0.000 C 
BRANCH  26  27
ATOM     27  C   UNL     1       5.742  31.618 115.522  1.00  0.00    -0.000 C 
BRANCH  27  28
ATOM     28  C   UNL     1       5.317  31.281 116.962  1.00  0.00    -0.000 C 
BRANCH  28  29
ATOM     29  C   UNL     1       5.187  29.767 117.204  1.00  0.00    -0.000 C 
BRANCH  29  30
ATOM     30  C   UNL     1       3.995  29.350 118.091  1.00  0.00    -0.000 C 
BRANCH  30  31
ATOM     31  C   UNL     1       2.710  28.992 117.326  1.00  0.00    -0.003 C 
ATOM     32  C   UNL     1       1.603  30.030 117.500  1.00  0.00     0.004 C 
ENDBRANCH  30  31
ENDBRANCH  29  30
ENDBRANCH  28  29
ENDBRANCH  27  28
ENDBRANCH  26  27
ENDBRANCH  25  26
ENDBRANCH  24  25
ENDBRANCH  23  24
ENDBRANCH  22  23
ENDBRANCH  21  22
ENDBRANCH  20  21
ENDBRANCH  19  20
ENDBRANCH  18  19
ENDBRANCH   1  18
TORSDOF 28
ENDMDL
MODEL 8
REMARK VINA RESULT:    -3.404      2.371      5.923
REMARK INTER + INTRA:         -15.275
REMARK INTER:                  -9.002
REMARK INTRA:                  -6.273
REMARK UNBOUND:                -6.301
REMARK SMILES CCCCCCCCCCCCCCCCCCCCCCCCCCCCCC(=O)[O-]
REMARK SMILES IDX 16 1 17 2 18 3 19 4 20 5 21 6 22 7 23 8 24 9 25 10 26 11
REMARK SMILES IDX 27 12 28 13 29 14 30 15 31 16 32 17 15 18 14 19 13 20 12 21
REMARK SMILES IDX 11 22 10 23 9 24 8 25 7 26 6 27 5 28 4 29 3 30 2 31 1 32
REMARK H PARENT
REMARK Flexibility Score: inf
ROOT
ATOM      1  C   UNL     1       2.420  28.346 110.538  1.00  0.00     0.000 C 
ENDROOT
BRANCH   1   2
ATOM      2  C   UNL     1       2.570  29.588 111.434  1.00  0.00     0.000 C 
BRANCH   2   3
ATOM      3  C   UNL     1       1.364  30.549 111.439  1.00  0.00     0.000 C 
BRANCH   3   4
ATOM      4  C   UNL     1       0.292  30.218 112.498  1.00  0.00     0.000 C 
BRANCH   4   5
ATOM      5  C   UNL     1       0.794  30.412 113.942  1.00  0.00     0.000 C 
BRANCH   5   6
ATOM      6  C   UNL     1       0.446  29.228 114.858  1.00  0.00     0.000 C 
BRANCH   6   7
ATOM      7  C   UNL     1       0.164  27.931 114.086  1.00  0.00     0.000 C 
BRANCH   7   8
ATOM      8  C   UNL     1       0.538  26.703 114.929  1.00  0.00     0.000 C 
BRANCH   8   9
ATOM      9  C   UNL     1      -0.451  25.538 114.763  1.00  0.00     0.000 C 
BRANCH   9  10
ATOM     10  C   UNL     1       0.179  24.311 114.083  1.00  0.00     0.000 C 
BRANCH  10  11
ATOM     11  C   UNL     1       1.688  24.491 113.843  1.00  0.00     0.000 C 
BRANCH  11  12
ATOM     12  C   UNL     1       2.432  23.144 113.766  1.00  0.00     0.000 C 
BRANCH  12  13
ATOM     13  C   UNL     1       3.945  23.313 113.563  1.00  0.00     0.006 C 
BRANCH  13  14
ATOM     14  C   UNL     1       4.555  24.377 114.486  1.00  0.00     0.053 C 
BRANCH  14  15
ATOM     15  C   UNL     1       5.859  23.901 115.045  1.00  0.00     0.041 C 
ATOM     16  O   UNL     1       5.875  23.092 116.013  1.00  0.00    -0.550 OA
ATOM     17  O   UNL     1       7.054  24.306 114.463  1.00  0.00    -0.550 OA
ENDBRANCH  14  15
ENDBRANCH  13  14
ENDBRANCH  12  13
ENDBRANCH  11  12
ENDBRANCH  10  11
ENDBRANCH   9  10
ENDBRANCH   8   9
ENDBRANCH   7   8
ENDBRANCH   6   7
ENDBRANCH   5   6
ENDBRANCH   4   5
ENDBRANCH   3   4
ENDBRANCH   2   3
ENDBRANCH   1   2
BRANCH   1  18
ATOM     18  C   UNL     1       2.238  27.012 111.291  1.00  0.00     0.000 C 
BRANCH  18  19
ATOM     19  C   UNL     1       3.088  25.854 110.723  1.00  0.00     0.000 C 
BRANCH  19  20
ATOM     20  C   UNL     1       4.487  26.317 110.275  1.00  0.00     0.000 C 
BRANCH  20  21
ATOM     21  C   UNL     1       5.616  25.568 110.999  1.00  0.00     0.000 C 
BRANCH  21  22
ATOM     22  C   UNL     1       6.443  26.486 111.918  1.00  0.00     0.000 C 
BRANCH  22  23
ATOM     23  C   UNL     1       5.658  27.731 112.361  1.00  0.00     0.000 C 
BRANCH  23  24
ATOM     24  C   UNL     1       5.554  27.847 113.892  1.00  0.00    -0.000 C 
BRANCH  24  25
ATOM     25  C   UNL     1       4.107  28.067 114.368  1.00  0.00    -0.000 C 
BRANCH  25  26
ATOM     26  C   UNL     1       4.010  28.236 115.895  1.00  0.00    -0.000 C 
BRANCH  26  27
ATOM     27  C   UNL     1       3.677  29.678 116.308  1.00  0.00    -0.000 C 
BRANCH  27  28
ATOM     28  C   UNL     1       4.871  30.396 116.960  1.00  0.00    -0.000 C 
BRANCH  28  29
ATOM     29  C   UNL     1       5.303  31.655 116.187  1.00  0.00    -0.000 C 
BRANCH  29  30
ATOM     30  C   UNL     1       5.842  31.392 114.765  1.00  0.00    -0.000 C 
BRANCH  30  31
ATOM     31  C   UNL     1       4.826  31.619 113.633  1.00  0.00    -0.003 C 
ATOM     32  C   UNL     1       3.752  32.644 113.993  1.00  0.00     0.004 C 
ENDBRANCH  30  31
ENDBRANCH  29  30
ENDBRANCH  28  29
ENDBRANCH  27  28
ENDBRANCH  26  27
ENDBRANCH  25  26
ENDBRANCH  24  25
ENDBRANCH  23  24
ENDBRANCH  22  23
ENDBRANCH  21  22
ENDBRANCH  20  21
ENDBRANCH  19  20
ENDBRANCH  18  19
ENDBRANCH   1  18
TORSDOF 28
ENDMDL
MODEL 9
REMARK VINA RESULT:    -3.351      2.204      5.931
REMARK INTER + INTRA:         -15.137
REMARK INTER:                  -9.573
REMARK INTRA:                  -5.564
REMARK UNBOUND:                -6.301
REMARK SMILES CCCCCCCCCCCCCCCCCCCCCCCCCCCCCC(=O)[O-]
REMARK SMILES IDX 16 1 17 2 18 3 19 4 20 5 21 6 22 7 23 8 24 9 25 10 26 11
REMARK SMILES IDX 27 12 28 13 29 14 30 15 31 16 32 17 15 18 14 19 13 20 12 21
REMARK SMILES IDX 11 22 10 23 9 24 8 25 7 26 6 27 5 28 4 29 3 30 2 31 1 32
REMARK H PARENT
REMARK Flexibility Score: inf
ROOT
ATOM      1  C   UNL     1       2.674  26.197 112.758  1.00  0.00     0.000 C 
ENDROOT
BRANCH   1   2
ATOM      2  C   UNL     1       1.173  25.893 112.906  1.00  0.00     0.000 C 
BRANCH   2   3
ATOM      3  C   UNL     1       0.597  26.080 114.324  1.00  0.00     0.000 C 
BRANCH   3   4
ATOM      4  C   UNL     1      -0.188  24.863 114.855  1.00  0.00     0.000 C 
BRANCH   4   5
ATOM      5  C   UNL     1       0.094  23.573 114.062  1.00  0.00     0.000 C 
BRANCH   5   6
ATOM      6  C   UNL     1       1.028  22.606 114.808  1.00  0.00     0.000 C 
BRANCH   6   7
ATOM      7  C   UNL     1       2.489  22.705 114.347  1.00  0.00     0.000 C 
BRANCH   7   8
ATOM      8  C   UNL     1       3.298  23.608 115.291  1.00  0.00     0.000 C 
BRANCH   8   9
ATOM      9  C   UNL     1       4.689  23.960 114.739  1.00  0.00     0.000 C 
BRANCH   9  10
ATOM     10  C   UNL     1       5.176  25.349 115.186  1.00  0.00     0.000 C 
BRANCH  10  11
ATOM     11  C   UNL     1       6.404  25.820 114.388  1.00  0.00     0.000 C 
BRANCH  11  12
ATOM     12  C   UNL     1       7.210  24.643 113.809  1.00  0.00     0.000 C 
BRANCH  12  13
ATOM     13  C   UNL     1       7.433  24.764 112.294  1.00  0.00     0.006 C 
BRANCH  13  14
ATOM     14  C   UNL     1       7.119  26.167 111.756  1.00  0.00     0.053 C 
BRANCH  14  15
ATOM     15  C   UNL     1       7.675  26.336 110.377  1.00  0.00     0.041 C 
ATOM     16  O   UNL     1       7.001  26.928 109.490  1.00  0.00    -0.550 OA
ATOM     17  O   UNL     1       8.959  25.891 110.086  1.00  0.00    -0.550 OA
ENDBRANCH  14  15
ENDBRANCH  13  14
ENDBRANCH  12  13
ENDBRANCH  11  12
ENDBRANCH  10  11
ENDBRANCH   9  10
ENDBRANCH   8   9
ENDBRANCH   7   8
ENDBRANCH   6   7
ENDBRANCH   5   6
ENDBRANCH   4   5
ENDBRANCH   3   4
ENDBRANCH   2   3
ENDBRANCH   1   2
BRANCH   1  18
ATOM     18  C   UNL     1       3.363  25.531 111.549  1.00  0.00     0.000 C 
BRANCH  18  19
ATOM     19  C   UNL     1       3.490  26.455 110.316  1.00  0.00     0.000 C 
BRANCH  19  20
ATOM     20  C   UNL     1       3.432  27.947 110.692  1.00  0.00     0.000 C 
BRANCH  20  21
ATOM     21  C   UNL     1       2.287  28.689 109.985  1.00  0.00     0.000 C 
BRANCH  21  22
ATOM     22  C   UNL     1       1.274  29.295 110.973  1.00  0.00     0.000 C 
BRANCH  22  23
ATOM     23  C   UNL     1       1.929  30.286 111.948  1.00  0.00     0.000 C 
BRANCH  23  24
ATOM     24  C   UNL     1       1.019  30.626 113.142  1.00  0.00    -0.000 C 
BRANCH  24  25
ATOM     25  C   UNL     1       1.263  29.703 114.349  1.00  0.00    -0.000 C 
BRANCH  25  26
ATOM     26  C   UNL     1       2.567  30.043 115.094  1.00  0.00    -0.000 C 
BRANCH  26  27
ATOM     27  C   UNL     1       3.583  28.892 115.060  1.00  0.00    -0.000 C 
BRANCH  27  28
ATOM     28  C   UNL     1       4.684  29.107 114.008  1.00  0.00    -0.000 C 
BRANCH  28  29
ATOM     29  C   UNL     1       5.303  30.515 114.075  1.00  0.00    -0.000 C 
BRANCH  29  30
ATOM     30  C   UNL     1       6.271  30.745 115.254  1.00  0.00    -0.000 C 
BRANCH  30  31
ATOM     31  C   UNL     1       7.420  31.727 114.969  1.00  0.00    -0.003 C 
ATOM     32  C   UNL     1       7.686  31.916 113.476  1.00  0.00     0.004 C 
ENDBRANCH  30  31
ENDBRANCH  29  30
ENDBRANCH  28  29
ENDBRANCH  27  28
ENDBRANCH  26  27
ENDBRANCH  25  26
ENDBRANCH  24  25
ENDBRANCH  23  24
ENDBRANCH  22  23
ENDBRANCH  21  22
ENDBRANCH  20  21
ENDBRANCH  19  20
ENDBRANCH  18  19
ENDBRANCH   1  18
TORSDOF 28
ENDMDL
