MODEL 1
REMARK VINA RESULT:    -6.943      0.000      0.000
REMARK INTER + INTRA:          -8.645
REMARK INTER:                  -8.364
REMARK INTRA:                  -0.281
REMARK UNBOUND:                -0.281
REMARK SMILES O=c1c(O)c(-c2ccc(O)c(O)c2)oc2cc(O)cc(O)c12
REMARK SMILES IDX 5 1 3 2 2 3 1 4 22 5 20 6 19 7 17 8 16 9 15 10 14 11 6 12
REMARK SMILES IDX 7 13 8 14 9 15 13 16 11 17 10 18 12 20 4 22 21 24 18 26
REMARK H PARENT 10 19 12 21 4 23 21 25 18 27
REMARK Flexibility Score: inf
ROOT
ATOM      1  C   UNL     1      98.145 104.326 116.183  1.00  0.00     0.180 A 
ATOM      2  C   UNL     1      98.243 103.119 115.468  1.00  0.00     0.208 A 
ATOM      3  C   UNL     1      98.255 101.907 116.176  1.00  0.00     0.238 A 
ATOM      4  O   UNL     1      98.267 100.830 115.527  1.00  0.00    -0.285 OA
ATOM      5  C   UNL     1      98.226 101.918 117.593  1.00  0.00     0.111 A 
ATOM      6  C   UNL     1      98.279 100.752 118.415  1.00  0.00     0.134 A 
ATOM      7  C   UNL     1      98.135 100.878 119.803  1.00  0.00     0.093 A 
ATOM      8  C   UNL     1      98.006 102.129 120.403  1.00  0.00     0.123 A 
ATOM      9  C   UNL     1      98.008 103.279 119.614  1.00  0.00     0.094 A 
ATOM     10  C   UNL     1      98.111 103.185 118.223  1.00  0.00     0.146 A 
ATOM     11  O   UNL     1      98.086 104.303 117.509  1.00  0.00    -0.452 OA
ENDROOT
BRANCH   1  12
ATOM     12  C   UNL     1      98.111 105.642 115.506  1.00  0.00     0.025 A 
ATOM     13  C   UNL     1      99.238 106.477 115.565  1.00  0.00     0.016 A 
ATOM     14  C   UNL     1      99.222 107.732 114.951  1.00  0.00     0.051 A 
ATOM     15  C   UNL     1      98.077 108.178 114.284  1.00  0.00     0.157 A 
ATOM     16  C   UNL     1      96.954 106.101 114.852  1.00  0.00     0.062 A 
ATOM     17  C   UNL     1      96.934 107.362 114.238  1.00  0.00     0.158 A 
BRANCH  15  18
ATOM     18  O   UNL     1      98.091 109.435 113.680  1.00  0.00    -0.504 OA
ATOM     19  H   UNL     1      98.373 109.565 112.716  1.00  0.00     0.293 HD
ENDBRANCH  15  18
BRANCH  17  20
ATOM     20  O   UNL     1      95.785 107.807 113.586  1.00  0.00    -0.504 OA
ATOM     21  H   UNL     1      95.635 108.789 113.386  1.00  0.00     0.293 HD
ENDBRANCH  17  20
ENDBRANCH   1  12
BRANCH   2  22
ATOM     22  O   UNL     1      98.347 103.133 114.075  1.00  0.00    -0.502 OA
ATOM     23  H   UNL     1      99.150 103.521 113.593  1.00  0.00     0.293 HD
ENDBRANCH   2  22
BRANCH   6  24
ATOM     24  O   UNL     1      98.494  99.459 117.928  1.00  0.00    -0.507 OA
ATOM     25  H   UNL     1      98.712  98.656 118.498  1.00  0.00     0.293 HD
ENDBRANCH   6  24
BRANCH   8  26
ATOM     26  O   UNL     1      97.883 102.218 121.788  1.00  0.00    -0.508 OA
ATOM     27  H   UNL     1      98.110 103.070 122.287  1.00  0.00     0.293 HD
ENDBRANCH   8  26
TORSDOF 6
ENDMDL
MODEL 2
REMARK VINA RESULT:    -6.937     11.109     12.649
REMARK INTER + INTRA:          -8.637
REMARK INTER:                  -8.364
REMARK INTRA:                  -0.273
REMARK UNBOUND:                -0.281
REMARK SMILES O=c1c(O)c(-c2ccc(O)c(O)c2)oc2cc(O)cc(O)c12
REMARK SMILES IDX 5 1 3 2 2 3 1 4 22 5 20 6 19 7 17 8 16 9 15 10 14 11 6 12
REMARK SMILES IDX 7 13 8 14 9 15 13 16 11 17 10 18 12 20 4 22 21 24 18 26
REMARK H PARENT 10 19 12 21 4 23 21 25 18 27
REMARK Flexibility Score: inf
ROOT
ATOM      1  C   UNL     1     109.195 103.133 116.342  1.00  0.00     0.180 A 
ATOM      2  C   UNL     1     109.131 104.342 115.627  1.00  0.00     0.208 A 
ATOM      3  C   UNL     1     109.137 105.554 116.335  1.00  0.00     0.238 A 
ATOM      4  O   UNL     1     109.155 106.632 115.687  1.00  0.00    -0.285 OA
ATOM      5  C   UNL     1     109.150 105.542 117.752  1.00  0.00     0.111 A 
ATOM      6  C   UNL     1     109.112 106.708 118.575  1.00  0.00     0.134 A 
ATOM      7  C   UNL     1     109.238 106.579 119.964  1.00  0.00     0.093 A 
ATOM      8  C   UNL     1     109.334 105.325 120.564  1.00  0.00     0.123 A 
ATOM      9  C   UNL     1     109.316 104.175 119.774  1.00  0.00     0.094 A 
ATOM     10  C   UNL     1     109.231 104.273 118.383  1.00  0.00     0.146 A 
ATOM     11  O   UNL     1     109.240 103.155 117.668  1.00  0.00    -0.452 OA
ENDROOT
BRANCH   1  12
ATOM     12  C   UNL     1     109.208 101.817 115.664  1.00  0.00     0.025 A 
ATOM     13  C   UNL     1     108.073 100.995 115.734  1.00  0.00     0.016 A 
ATOM     14  C   UNL     1     108.070  99.739 115.120  1.00  0.00     0.051 A 
ATOM     15  C   UNL     1     109.203  99.281 114.442  1.00  0.00     0.157 A 
ATOM     16  C   UNL     1     110.354 101.346 114.999  1.00  0.00     0.062 A 
ATOM     17  C   UNL     1     110.354 100.085 114.384  1.00  0.00     0.158 A 
BRANCH  15  18
ATOM     18  O   UNL     1     109.170  98.024 113.837  1.00  0.00    -0.504 OA
ATOM     19  H   UNL     1     108.512  97.800 113.101  1.00  0.00     0.293 HD
ENDBRANCH  15  18
BRANCH  17  20
ATOM     20  O   UNL     1     111.492  99.628 113.721  1.00  0.00    -0.504 OA
ATOM     21  H   UNL     1     111.990  98.801 114.030  1.00  0.00     0.293 HD
ENDBRANCH  17  20
ENDBRANCH   1  12
BRANCH   2  22
ATOM     22  O   UNL     1     109.042 104.331 114.232  1.00  0.00    -0.502 OA
ATOM     23  H   UNL     1     109.109 105.175 113.676  1.00  0.00     0.293 HD
ENDBRANCH   2  22
BRANCH   6  24
ATOM     24  O   UNL     1     108.930 108.006 118.086  1.00  0.00    -0.507 OA
ATOM     25  H   UNL     1     109.176 108.849 118.581  1.00  0.00     0.293 HD
ENDBRANCH   6  24
BRANCH   8  26
ATOM     26  O   UNL     1     109.440 105.233 121.950  1.00  0.00    -0.508 OA
ATOM     27  H   UNL     1     109.843 104.419 122.399  1.00  0.00     0.293 HD
ENDBRANCH   8  26
TORSDOF 6
ENDMDL
MODEL 3
REMARK VINA RESULT:    -6.765      2.254      6.995
REMARK INTER + INTRA:          -8.430
REMARK INTER:                  -8.264
REMARK INTRA:                  -0.166
REMARK UNBOUND:                -0.281
REMARK SMILES O=c1c(O)c(-c2ccc(O)c(O)c2)oc2cc(O)cc(O)c12
REMARK SMILES IDX 5 1 3 2 2 3 1 4 22 5 20 6 19 7 17 8 16 9 15 10 14 11 6 12
REMARK SMILES IDX 7 13 8 14 9 15 13 16 11 17 10 18 12 20 4 22 21 24 18 26
REMARK H PARENT 10 19 12 21 4 23 21 25 18 27
REMARK Flexibility Score: inf
ROOT
ATOM      1  C   UNL     1      98.183 102.673 118.627  1.00  0.00     0.180 A 
ATOM      2  C   UNL     1      96.954 102.106 118.246  1.00  0.00     0.208 A 
ATOM      3  C   UNL     1      96.207 102.720 117.229  1.00  0.00     0.238 A 
ATOM      4  O   UNL     1      95.146 102.166 116.841  1.00  0.00    -0.285 OA
ATOM      5  C   UNL     1      96.669 103.925 116.644  1.00  0.00     0.111 A 
ATOM      6  C   UNL     1      95.972 104.658 115.637  1.00  0.00     0.134 A 
ATOM      7  C   UNL     1      96.577 105.780 115.055  1.00  0.00     0.093 A 
ATOM      8  C   UNL     1      97.822 106.233 115.489  1.00  0.00     0.123 A 
ATOM      9  C   UNL     1      98.487 105.556 116.511  1.00  0.00     0.094 A 
ATOM     10  C   UNL     1      97.928 104.411 117.084  1.00  0.00     0.146 A 
ATOM     11  O   UNL     1      98.606 103.785 118.038  1.00  0.00    -0.452 OA
ENDROOT
BRANCH   1  12
ATOM     12  C   UNL     1      99.034 102.075 119.681  1.00  0.00     0.025 A 
ATOM     13  C   UNL     1      99.603 100.809 119.471  1.00  0.00     0.016 A 
ATOM     14  C   UNL     1     100.392 100.215 120.460  1.00  0.00     0.051 A 
ATOM     15  C   UNL     1     100.611 100.868 121.677  1.00  0.00     0.157 A 
ATOM     16  C   UNL     1      99.238 102.721 120.913  1.00  0.00     0.062 A 
ATOM     17  C   UNL     1     100.028 102.125 121.908  1.00  0.00     0.158 A 
BRANCH  15  18
ATOM     18  O   UNL     1     101.404 100.251 122.644  1.00  0.00    -0.504 OA
ATOM     19  H   UNL     1     101.058  99.495 123.220  1.00  0.00     0.293 HD
ENDBRANCH  15  18
BRANCH  17  20
ATOM     20  O   UNL     1     100.230 102.775 123.125  1.00  0.00    -0.504 OA
ATOM     21  H   UNL     1     100.879 103.549 123.211  1.00  0.00     0.293 HD
ENDBRANCH  17  20
ENDBRANCH   1  12
BRANCH   2  22
ATOM     22  O   UNL     1      96.480 100.959 118.888  1.00  0.00    -0.502 OA
ATOM     23  H   UNL     1      97.062 100.396 119.498  1.00  0.00     0.293 HD
ENDBRANCH   2  22
BRANCH   6  24
ATOM     24  O   UNL     1      94.683 104.346 115.190  1.00  0.00    -0.507 OA
ATOM     25  H   UNL     1      94.261 104.707 114.349  1.00  0.00     0.293 HD
ENDBRANCH   6  24
BRANCH   8  26
ATOM     26  O   UNL     1      98.385 107.363 114.900  1.00  0.00    -0.508 OA
ATOM     27  H   UNL     1      98.739 108.131 115.458  1.00  0.00     0.293 HD
ENDBRANCH   8  26
TORSDOF 6
ENDMDL
MODEL 4
REMARK VINA RESULT:    -6.613      3.249      5.502
REMARK INTER + INTRA:          -8.247
REMARK INTER:                  -7.927
REMARK INTRA:                  -0.320
REMARK UNBOUND:                -0.281
REMARK SMILES O=c1c(O)c(-c2ccc(O)c(O)c2)oc2cc(O)cc(O)c12
REMARK SMILES IDX 5 1 3 2 2 3 1 4 22 5 20 6 19 7 17 8 16 9 15 10 14 11 6 12
REMARK SMILES IDX 7 13 8 14 9 15 13 16 11 17 10 18 12 20 4 22 21 24 18 26
REMARK H PARENT 10 19 12 21 4 23 21 25 18 27
REMARK Flexibility Score: inf
ROOT
ATOM      1  C   UNL     1     100.017 101.884 115.921  1.00  0.00     0.180 A 
ATOM      2  C   UNL     1      98.796 102.497 115.586  1.00  0.00     0.208 A 
ATOM      3  C   UNL     1      98.016 103.064 116.606  1.00  0.00     0.238 A 
ATOM      4  O   UNL     1      96.963 103.675 116.291  1.00  0.00    -0.285 OA
ATOM      5  C   UNL     1      98.439 102.963 117.955  1.00  0.00     0.111 A 
ATOM      6  C   UNL     1      97.706 103.462 119.075  1.00  0.00     0.134 A 
ATOM      7  C   UNL     1      98.273 103.401 120.354  1.00  0.00     0.093 A 
ATOM      8  C   UNL     1      99.514 102.801 120.564  1.00  0.00     0.123 A 
ATOM      9  C   UNL     1     100.213 102.261 119.485  1.00  0.00     0.094 A 
ATOM     10  C   UNL     1      99.692 102.341 118.191  1.00  0.00     0.146 A 
ATOM     11  O   UNL     1     100.402 101.834 117.190  1.00  0.00    -0.452 OA
ENDROOT
BRANCH   1  12
ATOM     12  C   UNL     1     100.900 101.277 114.899  1.00  0.00     0.025 A 
ATOM     13  C   UNL     1     100.882  99.886 114.712  1.00  0.00     0.016 A 
ATOM     14  C   UNL     1     101.723  99.289 113.768  1.00  0.00     0.051 A 
ATOM     15  C   UNL     1     102.602 100.069 113.010  1.00  0.00     0.157 A 
ATOM     16  C   UNL     1     101.800 102.057 114.151  1.00  0.00     0.062 A 
ATOM     17  C   UNL     1     102.646 101.459 113.205  1.00  0.00     0.158 A 
BRANCH  15  18
ATOM     18  O   UNL     1     103.427  99.444 112.075  1.00  0.00    -0.504 OA
ATOM     19  H   UNL     1     104.401  99.245 112.266  1.00  0.00     0.293 HD
ENDBRANCH  15  18
BRANCH  17  20
ATOM     20  O   UNL     1     103.530 102.241 112.463  1.00  0.00    -0.504 OA
ATOM     21  H   UNL     1     103.262 103.149 112.103  1.00  0.00     0.293 HD
ENDBRANCH  17  20
ENDBRANCH   1  12
BRANCH   2  22
ATOM     22  O   UNL     1      98.361 102.518 114.259  1.00  0.00    -0.502 OA
ATOM     23  H   UNL     1      97.397 102.700 114.005  1.00  0.00     0.293 HD
ENDBRANCH   2  22
BRANCH   6  24
ATOM     24  O   UNL     1      96.418 104.002 118.991  1.00  0.00    -0.507 OA
ATOM     25  H   UNL     1      96.125 104.865 119.422  1.00  0.00     0.293 HD
ENDBRANCH   6  24
BRANCH   8  26
ATOM     26  O   UNL     1     100.039 102.742 121.853  1.00  0.00    -0.508 OA
ATOM     27  H   UNL     1      99.638 102.139 122.562  1.00  0.00     0.293 HD
ENDBRANCH   8  26
TORSDOF 6
ENDMDL
MODEL 5
REMARK VINA RESULT:    -6.591     11.284     12.620
REMARK INTER + INTRA:          -8.220
REMARK INTER:                  -8.016
REMARK INTRA:                  -0.204
REMARK UNBOUND:                -0.281
REMARK SMILES O=c1c(O)c(-c2ccc(O)c(O)c2)oc2cc(O)cc(O)c12
REMARK SMILES IDX 5 1 3 2 2 3 1 4 22 5 20 6 19 7 17 8 16 9 15 10 14 11 6 12
REMARK SMILES IDX 7 13 8 14 9 15 13 16 11 17 10 18 12 20 4 22 21 24 18 26
REMARK H PARENT 10 19 12 21 4 23 21 25 18 27
REMARK Flexibility Score: inf
ROOT
ATOM      1  C   UNL     1     109.265 104.572 118.572  1.00  0.00     0.180 A 
ATOM      2  C   UNL     1     110.516 105.096 118.202  1.00  0.00     0.208 A 
ATOM      3  C   UNL     1     111.234 104.478 117.166  1.00  0.00     0.238 A 
ATOM      4  O   UNL     1     112.317 104.996 116.790  1.00  0.00    -0.285 OA
ATOM      5  C   UNL     1     110.718 103.311 116.550  1.00  0.00     0.111 A 
ATOM      6  C   UNL     1     111.381 102.576 115.520  1.00  0.00     0.134 A 
ATOM      7  C   UNL     1     110.727 101.498 114.911  1.00  0.00     0.093 A 
ATOM      8  C   UNL     1     109.464 101.088 115.336  1.00  0.00     0.123 A 
ATOM      9  C   UNL     1     108.831 101.765 116.378  1.00  0.00     0.094 A 
ATOM     10  C   UNL     1     109.441 102.868 116.981  1.00  0.00     0.146 A 
ATOM     11  O   UNL     1     108.793 103.497 117.954  1.00  0.00    -0.452 OA
ENDROOT
BRANCH   1  12
ATOM     12  C   UNL     1     108.443 105.178 119.645  1.00  0.00     0.025 A 
ATOM     13  C   UNL     1     107.868 106.442 119.441  1.00  0.00     0.016 A 
ATOM     14  C   UNL     1     107.107 107.043 120.447  1.00  0.00     0.051 A 
ATOM     15  C   UNL     1     106.922 106.398 121.674  1.00  0.00     0.157 A 
ATOM     16  C   UNL     1     108.274 104.541 120.886  1.00  0.00     0.062 A 
ATOM     17  C   UNL     1     107.512 105.143 121.898  1.00  0.00     0.158 A 
BRANCH  15  18
ATOM     18  O   UNL     1     106.155 107.022 122.659  1.00  0.00    -0.504 OA
ATOM     19  H   UNL     1     105.177 107.244 122.518  1.00  0.00     0.293 HD
ENDBRANCH  15  18
BRANCH  17  20
ATOM     20  O   UNL     1     107.343 104.502 123.125  1.00  0.00    -0.504 OA
ATOM     21  H   UNL     1     107.823 103.636 123.341  1.00  0.00     0.293 HD
ENDBRANCH  17  20
ENDBRANCH   1  12
BRANCH   2  22
ATOM     22  O   UNL     1     111.042 106.203 118.873  1.00  0.00    -0.502 OA
ATOM     23  H   UNL     1     112.037 106.390 118.919  1.00  0.00     0.293 HD
ENDBRANCH   2  22
BRANCH   6  24
ATOM     24  O   UNL     1     112.681 102.844 115.078  1.00  0.00    -0.507 OA
ATOM     25  H   UNL     1     113.426 102.167 115.034  1.00  0.00     0.293 HD
ENDBRANCH   6  24
BRANCH   8  26
ATOM     26  O   UNL     1     108.850 100.000 114.719  1.00  0.00    -0.508 OA
ATOM     27  H   UNL     1     108.883  99.072 115.124  1.00  0.00     0.293 HD
ENDBRANCH   8  26
TORSDOF 6
ENDMDL
MODEL 6
REMARK VINA RESULT:    -6.454      5.538      7.831
REMARK INTER + INTRA:          -8.056
REMARK INTER:                  -7.891
REMARK INTRA:                  -0.165
REMARK UNBOUND:                -0.281
REMARK SMILES O=c1c(O)c(-c2ccc(O)c(O)c2)oc2cc(O)cc(O)c12
REMARK SMILES IDX 5 1 3 2 2 3 1 4 22 5 20 6 19 7 17 8 16 9 15 10 14 11 6 12
REMARK SMILES IDX 7 13 8 14 9 15 13 16 11 17 10 18 12 20 4 22 21 24 18 26
REMARK H PARENT 10 19 12 21 4 23 21 25 18 27
REMARK Flexibility Score: inf
ROOT
ATOM      1  C   UNL     1     100.815 104.910 111.656  1.00  0.00     0.180 A 
ATOM      2  C   UNL     1     100.989 103.612 112.166  1.00  0.00     0.208 A 
ATOM      3  C   UNL     1     101.911 102.754 111.547  1.00  0.00     0.238 A 
ATOM      4  O   UNL     1     102.116 101.621 112.054  1.00  0.00    -0.285 OA
ATOM      5  C   UNL     1     102.608 103.185 110.391  1.00  0.00     0.111 A 
ATOM      6  C   UNL     1     103.533 102.384 109.654  1.00  0.00     0.134 A 
ATOM      7  C   UNL     1     104.243 102.952 108.589  1.00  0.00     0.093 A 
ATOM      8  C   UNL     1     104.015 104.269 108.192  1.00  0.00     0.123 A 
ATOM      9  C   UNL     1     103.073 105.043 108.869  1.00  0.00     0.094 A 
ATOM     10  C   UNL     1     102.377 104.518 109.961  1.00  0.00     0.146 A 
ATOM     11  O   UNL     1     101.506 105.297 110.590  1.00  0.00    -0.452 OA
ENDROOT
BRANCH   1  12
ATOM     12  C   UNL     1      99.871 105.876 112.264  1.00  0.00     0.025 A 
ATOM     13  C   UNL     1     100.374 107.021 112.902  1.00  0.00     0.016 A 
ATOM     14  C   UNL     1      99.504 107.936 113.502  1.00  0.00     0.051 A 
ATOM     15  C   UNL     1      98.124 107.713 113.486  1.00  0.00     0.157 A 
ATOM     16  C   UNL     1      98.485 105.644 112.267  1.00  0.00     0.062 A 
ATOM     17  C   UNL     1      97.610 106.559 112.871  1.00  0.00     0.158 A 
BRANCH  15  18
ATOM     18  O   UNL     1      97.280 108.645 114.092  1.00  0.00    -0.504 OA
ATOM     19  H   UNL     1      97.504 109.632 114.123  1.00  0.00     0.293 HD
ENDBRANCH  15  18
BRANCH  17  20
ATOM     20  O   UNL     1      96.236 106.325 112.865  1.00  0.00    -0.504 OA
ATOM     21  H   UNL     1      95.700 106.287 113.724  1.00  0.00     0.293 HD
ENDBRANCH  17  20
ENDBRANCH   1  12
BRANCH   2  22
ATOM     22  O   UNL     1     100.236 103.180 113.261  1.00  0.00    -0.502 OA
ATOM     23  H   UNL     1      99.866 103.820 113.954  1.00  0.00     0.293 HD
ENDBRANCH   2  22
BRANCH   6  24
ATOM     24  O   UNL     1     103.773 101.030 109.909  1.00  0.00    -0.507 OA
ATOM     25  H   UNL     1     103.423 100.522 110.707  1.00  0.00     0.293 HD
ENDBRANCH   6  24
BRANCH   8  26
ATOM     26  O   UNL     1     104.727 104.795 107.117  1.00  0.00    -0.508 OA
ATOM     27  H   UNL     1     104.257 105.145 106.290  1.00  0.00     0.293 HD
ENDBRANCH   8  26
TORSDOF 6
ENDMDL
MODEL 7
REMARK VINA RESULT:    -6.444      2.152      2.547
REMARK INTER + INTRA:          -8.043
REMARK INTER:                  -7.721
REMARK INTRA:                  -0.322
REMARK UNBOUND:                -0.281
REMARK SMILES O=c1c(O)c(-c2ccc(O)c(O)c2)oc2cc(O)cc(O)c12
REMARK SMILES IDX 5 1 3 2 2 3 1 4 22 5 20 6 19 7 17 8 16 9 15 10 14 11 6 12
REMARK SMILES IDX 7 13 8 14 9 15 13 16 11 17 10 18 12 20 4 22 21 24 18 26
REMARK H PARENT 10 19 12 21 4 23 21 25 18 27
REMARK Flexibility Score: inf
ROOT
ATOM      1  C   UNL     1      98.652 103.827 116.088  1.00  0.00     0.180 A 
ATOM      2  C   UNL     1      97.305 103.449 116.236  1.00  0.00     0.208 A 
ATOM      3  C   UNL     1      96.967 102.508 117.221  1.00  0.00     0.238 A 
ATOM      4  O   UNL     1      95.752 102.230 117.397  1.00  0.00    -0.285 OA
ATOM      5  C   UNL     1      97.984 101.914 118.008  1.00  0.00     0.111 A 
ATOM      6  C   UNL     1      97.761 100.916 119.005  1.00  0.00     0.134 A 
ATOM      7  C   UNL     1      98.831 100.479 119.797  1.00  0.00     0.093 A 
ATOM      8  C   UNL     1     100.124 100.954 119.585  1.00  0.00     0.123 A 
ATOM      9  C   UNL     1     100.363 101.888 118.577  1.00  0.00     0.094 A 
ATOM     10  C   UNL     1      99.310 102.373 117.796  1.00  0.00     0.146 A 
ATOM     11  O   UNL     1      99.579 103.278 116.864  1.00  0.00    -0.452 OA
ENDROOT
BRANCH   1  12
ATOM     12  C   UNL     1      99.084 104.824 115.082  1.00  0.00     0.025 A 
ATOM     13  C   UNL     1      99.057 106.189 115.409  1.00  0.00     0.016 A 
ATOM     14  C   UNL     1      99.440 107.149 114.469  1.00  0.00     0.051 A 
ATOM     15  C   UNL     1      99.840 106.762 113.186  1.00  0.00     0.157 A 
ATOM     16  C   UNL     1      99.467 104.438 113.786  1.00  0.00     0.062 A 
ATOM     17  C   UNL     1      99.849 105.401 112.839  1.00  0.00     0.158 A 
BRANCH  15  18
ATOM     18  O   UNL     1     100.219 107.743 112.270  1.00  0.00    -0.504 OA
ATOM     19  H   UNL     1     100.519 107.514 111.330  1.00  0.00     0.293 HD
ENDBRANCH  15  18
BRANCH  17  20
ATOM     20  O   UNL     1     100.233 105.009 111.557  1.00  0.00    -0.504 OA
ATOM     21  H   UNL     1     100.993 104.356 111.408  1.00  0.00     0.293 HD
ENDBRANCH  17  20
ENDBRANCH   1  12
BRANCH   2  22
ATOM     22  O   UNL     1      96.327 103.989 115.398  1.00  0.00    -0.502 OA
ATOM     23  H   UNL     1      96.069 104.969 115.424  1.00  0.00     0.293 HD
ENDBRANCH   2  22
BRANCH   6  24
ATOM     24  O   UNL     1      96.524 100.307 119.242  1.00  0.00    -0.507 OA
ATOM     25  H   UNL     1      96.264  99.386 118.925  1.00  0.00     0.293 HD
ENDBRANCH   6  24
BRANCH   8  26
ATOM     26  O   UNL     1     101.167 100.484 120.380  1.00  0.00    -0.508 OA
ATOM     27  H   UNL     1     101.388 100.909 121.273  1.00  0.00     0.293 HD
ENDBRANCH   8  26
TORSDOF 6
ENDMDL
MODEL 8
REMARK VINA RESULT:    -6.438      9.360     11.998
REMARK INTER + INTRA:          -8.036
REMARK INTER:                  -7.772
REMARK INTRA:                  -0.264
REMARK UNBOUND:                -0.281
REMARK SMILES O=c1c(O)c(-c2ccc(O)c(O)c2)oc2cc(O)cc(O)c12
REMARK SMILES IDX 5 1 3 2 2 3 1 4 22 5 20 6 19 7 17 8 16 9 15 10 14 11 6 12
REMARK SMILES IDX 7 13 8 14 9 15 13 16 11 17 10 18 12 20 4 22 21 24 18 26
REMARK H PARENT 10 19 12 21 4 23 21 25 18 27
REMARK Flexibility Score: inf
ROOT
ATOM      1  C   UNL     1     106.434 102.518 111.748  1.00  0.00     0.180 A 
ATOM      2  C   UNL     1     106.235 103.839 112.188  1.00  0.00     0.208 A 
ATOM      3  C   UNL     1     105.320 104.654 111.504  1.00  0.00     0.238 A 
ATOM      4  O   UNL     1     105.092 105.809 111.948  1.00  0.00    -0.285 OA
ATOM      5  C   UNL     1     104.657 104.159 110.354  1.00  0.00     0.111 A 
ATOM      6  C   UNL     1     103.743 104.912 109.556  1.00  0.00     0.134 A 
ATOM      7  C   UNL     1     103.065 104.284 108.503  1.00  0.00     0.093 A 
ATOM      8  C   UNL     1     103.315 102.952 108.179  1.00  0.00     0.123 A 
ATOM      9  C   UNL     1     104.247 102.222 108.917  1.00  0.00     0.094 A 
ATOM     10  C   UNL     1     104.911 102.809 109.997  1.00  0.00     0.146 A 
ATOM     11  O   UNL     1     105.773 102.072 110.687  1.00  0.00    -0.452 OA
ENDROOT
BRANCH   1  12
ATOM     12  C   UNL     1     107.370 101.594 112.427  1.00  0.00     0.025 A 
ATOM     13  C   UNL     1     106.862 100.607 113.286  1.00  0.00     0.016 A 
ATOM     14  C   UNL     1     107.729  99.737 113.954  1.00  0.00     0.051 A 
ATOM     15  C   UNL     1     109.112  99.850 113.787  1.00  0.00     0.157 A 
ATOM     16  C   UNL     1     108.762 101.720 112.277  1.00  0.00     0.062 A 
ATOM     17  C   UNL     1     109.634 100.850 112.949  1.00  0.00     0.158 A 
BRANCH  15  18
ATOM     18  O   UNL     1     109.951  98.967 114.466  1.00  0.00    -0.504 OA
ATOM     19  H   UNL     1     110.932  98.872 114.234  1.00  0.00     0.293 HD
ENDBRANCH  15  18
BRANCH  17  20
ATOM     20  O   UNL     1     111.013 100.977 112.789  1.00  0.00    -0.504 OA
ATOM     21  H   UNL     1     111.640 100.987 113.585  1.00  0.00     0.293 HD
ENDBRANCH  17  20
ENDBRANCH   1  12
BRANCH   2  22
ATOM     22  O   UNL     1     106.955 104.333 113.279  1.00  0.00    -0.502 OA
ATOM     23  H   UNL     1     107.958 104.216 113.366  1.00  0.00     0.293 HD
ENDBRANCH   2  22
BRANCH   6  24
ATOM     24  O   UNL     1     103.484 106.275 109.736  1.00  0.00    -0.507 OA
ATOM     25  H   UNL     1     103.975 106.875 110.380  1.00  0.00     0.293 HD
ENDBRANCH   6  24
BRANCH   8  26
ATOM     26  O   UNL     1     102.636 102.364 107.114  1.00  0.00    -0.508 OA
ATOM     27  H   UNL     1     102.666 101.365 106.952  1.00  0.00     0.293 HD
ENDBRANCH   8  26
TORSDOF 6
ENDMDL
MODEL 9
REMARK VINA RESULT:    -6.391     10.263     11.638
REMARK INTER + INTRA:          -7.979
REMARK INTER:                  -7.660
REMARK INTRA:                  -0.319
REMARK UNBOUND:                -0.281
REMARK SMILES O=c1c(O)c(-c2ccc(O)c(O)c2)oc2cc(O)cc(O)c12
REMARK SMILES IDX 5 1 3 2 2 3 1 4 22 5 20 6 19 7 17 8 16 9 15 10 14 11 6 12
REMARK SMILES IDX 7 13 8 14 9 15 13 16 11 17 10 18 12 20 4 22 21 24 18 26
REMARK H PARENT 10 19 12 21 4 23 21 25 18 27
REMARK Flexibility Score: inf
ROOT
ATOM      1  C   UNL     1     108.563 103.525 116.000  1.00  0.00     0.180 A 
ATOM      2  C   UNL     1     109.927 103.851 116.107  1.00  0.00     0.208 A 
ATOM      3  C   UNL     1     110.329 104.794 117.066  1.00  0.00     0.238 A 
ATOM      4  O   UNL     1     111.557 105.024 117.207  1.00  0.00    -0.285 OA
ATOM      5  C   UNL     1     109.357 105.441 117.868  1.00  0.00     0.111 A 
ATOM      6  C   UNL     1     109.645 106.446 118.841  1.00  0.00     0.134 A 
ATOM      7  C   UNL     1     108.614 106.940 119.650  1.00  0.00     0.093 A 
ATOM      8  C   UNL     1     107.298 106.515 119.479  1.00  0.00     0.123 A 
ATOM      9  C   UNL     1     106.996 105.574 118.495  1.00  0.00     0.094 A 
ATOM     10  C   UNL     1     108.008 105.034 117.697  1.00  0.00     0.146 A 
ATOM     11  O   UNL     1     107.679 104.125 116.787  1.00  0.00    -0.452 OA
ENDROOT
BRANCH   1  12
ATOM     12  C   UNL     1     108.066 102.530 115.023  1.00  0.00     0.025 A 
ATOM     13  C   UNL     1     107.945 101.186 115.409  1.00  0.00     0.016 A 
ATOM     14  C   UNL     1     107.498 100.225 114.498  1.00  0.00     0.051 A 
ATOM     15  C   UNL     1     107.180 100.589 113.186  1.00  0.00     0.157 A 
ATOM     16  C   UNL     1     107.766 102.890 113.697  1.00  0.00     0.062 A 
ATOM     17  C   UNL     1     107.319 101.927 112.780  1.00  0.00     0.158 A 
BRANCH  15  18
ATOM     18  O   UNL     1     106.734  99.608 112.300  1.00  0.00    -0.504 OA
ATOM     19  H   UNL     1     106.336  98.735 112.621  1.00  0.00     0.293 HD
ENDBRANCH  15  18
BRANCH  17  20
ATOM     20  O   UNL     1     107.017 102.293 111.469  1.00  0.00    -0.504 OA
ATOM     21  H   UNL     1     107.629 102.055 110.698  1.00  0.00     0.293 HD
ENDBRANCH  17  20
ENDBRANCH   1  12
BRANCH   2  22
ATOM     22  O   UNL     1     110.861 103.256 115.255  1.00  0.00    -0.502 OA
ATOM     23  H   UNL     1     110.824 103.363 114.248  1.00  0.00     0.293 HD
ENDBRANCH   2  22
BRANCH   6  24
ATOM     24  O   UNL     1     110.911 107.008 119.035  1.00  0.00    -0.507 OA
ATOM     25  H   UNL     1     111.740 106.753 118.522  1.00  0.00     0.293 HD
ENDBRANCH   6  24
BRANCH   8  26
ATOM     26  O   UNL     1     106.295 107.041 120.291  1.00  0.00    -0.508 OA
ATOM     27  H   UNL     1     105.738 106.450 120.897  1.00  0.00     0.293 HD
ENDBRANCH   8  26
TORSDOF 6
ENDMDL
