MODEL 1
REMARK VINA RESULT:    -4.948      0.000      0.000
REMARK INTER + INTRA:          -9.595
REMARK INTER:                  -7.841
REMARK INTRA:                  -1.754
REMARK UNBOUND:                -1.754
REMARK SMILES CCCCCCCCCCCC(=O)[O-]
REMARK SMILES IDX 7 1 8 2 9 3 10 4 11 5 12 6 13 7 14 8 6 9 5 10 4 11 3 12 2 13
REMARK SMILES IDX 1 14
REMARK H PARENT
REMARK Flexibility Score: inf
ROOT
ATOM      1  C   UNL     1     -27.248  -1.351  22.639  1.00  0.00     0.000 C 
ENDROOT
BRANCH   1   2
ATOM      2  C   UNL     1     -27.304  -1.827  24.100  1.00  0.00     0.000 C 
BRANCH   2   3
ATOM      3  C   UNL     1     -27.277  -0.663  25.103  1.00  0.00     0.000 C 
BRANCH   3   4
ATOM      4  C   UNL     1     -28.478  -0.732  26.054  1.00  0.00     0.006 C 
BRANCH   4   5
ATOM      5  C   UNL     1     -28.915   0.670  26.490  1.00  0.00     0.053 C 
BRANCH   5   6
ATOM      6  C   UNL     1     -30.178   0.600  27.288  1.00  0.00     0.041 C 
ATOM      7  O   UNL     1     -31.126  -0.140  26.913  1.00  0.00    -0.550 OA
ATOM      8  O   UNL     1     -30.330   1.391  28.420  1.00  0.00    -0.550 OA
ENDBRANCH   5   6
ENDBRANCH   4   5
ENDBRANCH   3   4
ENDBRANCH   2   3
ENDBRANCH   1   2
BRANCH   1   9
ATOM      9  C   UNL     1     -27.604   0.135  22.486  1.00  0.00     0.000 C 
BRANCH   9  10
ATOM     10  C   UNL     1     -29.015   0.304  21.910  1.00  0.00    -0.000 C 
BRANCH  10  11
ATOM     11  C   UNL     1     -29.886   1.168  22.829  1.00  0.00    -0.000 C 
BRANCH  11  12
ATOM     12  C   UNL     1     -31.041   0.353  23.422  1.00  0.00    -0.000 C 
BRANCH  12  13
ATOM     13  C   UNL     1     -31.064  -1.067  22.849  1.00  0.00    -0.003 C 
ATOM     14  C   UNL     1     -31.155  -2.110  23.960  1.00  0.00     0.004 C 
ENDBRANCH  12  13
ENDBRANCH  11  12
ENDBRANCH  10  11
ENDBRANCH   9  10
ENDBRANCH   1   9
TORSDOF 10
ENDMDL
MODEL 2
REMARK VINA RESULT:    -4.938      0.957      1.597
REMARK INTER + INTRA:          -9.579
REMARK INTER:                  -7.917
REMARK INTRA:                  -1.661
REMARK UNBOUND:                -1.754
REMARK SMILES CCCCCCCCCCCC(=O)[O-]
REMARK SMILES IDX 7 1 8 2 9 3 10 4 11 5 12 6 13 7 14 8 6 9 5 10 4 11 3 12 2 13
REMARK SMILES IDX 1 14
REMARK H PARENT
REMARK Flexibility Score: inf
ROOT
ATOM      1  C   UNL     1     -27.381   0.396  22.504  1.00  0.00     0.000 C 
ENDROOT
BRANCH   1   2
ATOM      2  C   UNL     1     -27.133   0.356  24.020  1.00  0.00     0.000 C 
BRANCH   2   3
ATOM      3  C   UNL     1     -27.348  -1.043  24.619  1.00  0.00     0.000 C 
BRANCH   3   4
ATOM      4  C   UNL     1     -28.403  -1.007  25.731  1.00  0.00     0.006 C 
BRANCH   4   5
ATOM      5  C   UNL     1     -28.828   0.432  26.040  1.00  0.00     0.053 C 
BRANCH   5   6
ATOM      6  C   UNL     1     -30.077   0.444  26.863  1.00  0.00     0.041 C 
ATOM      7  O   UNL     1     -31.015  -0.354  26.604  1.00  0.00    -0.550 OA
ATOM      8  O   UNL     1     -30.225   1.372  27.886  1.00  0.00    -0.550 OA
ENDBRANCH   5   6
ENDBRANCH   4   5
ENDBRANCH   3   4
ENDBRANCH   2   3
ENDBRANCH   1   2
BRANCH   1   9
ATOM      9  C   UNL     1     -27.171  -0.970  21.834  1.00  0.00     0.000 C 
BRANCH   9  10
ATOM     10  C   UNL     1     -28.241  -1.227  20.766  1.00  0.00    -0.000 C 
BRANCH  10  11
ATOM     11  C   UNL     1     -29.627  -0.792  21.257  1.00  0.00    -0.000 C 
BRANCH  11  12
ATOM     12  C   UNL     1     -30.212  -1.814  22.237  1.00  0.00    -0.000 C 
BRANCH  12  13
ATOM     13  C   UNL     1     -31.181  -1.145  23.218  1.00  0.00    -0.003 C 
ATOM     14  C   UNL     1     -31.121   0.375  23.101  1.00  0.00     0.004 C 
ENDBRANCH  12  13
ENDBRANCH  11  12
ENDBRANCH  10  11
ENDBRANCH   9  10
ENDBRANCH   1   9
TORSDOF 10
ENDMDL
MODEL 3
REMARK VINA RESULT:    -4.898      3.384      5.622
REMARK INTER + INTRA:          -9.515
REMARK INTER:                  -8.014
REMARK INTRA:                  -1.501
REMARK UNBOUND:                -1.754
REMARK SMILES CCCCCCCCCCCC(=O)[O-]
REMARK SMILES IDX 7 1 8 2 9 3 10 4 11 5 12 6 13 7 14 8 6 9 5 10 4 11 3 12 2 13
REMARK SMILES IDX 1 14
REMARK H PARENT
REMARK Flexibility Score: inf
ROOT
ATOM      1  C   UNL     1     -30.631  -0.000  24.530  1.00  0.00     0.000 C 
ENDROOT
BRANCH   1   2
ATOM      2  C   UNL     1     -31.236  -1.412  24.459  1.00  0.00     0.000 C 
BRANCH   2   3
ATOM      3  C   UNL     1     -30.463  -2.340  23.509  1.00  0.00     0.000 C 
BRANCH   3   4
ATOM      4  C   UNL     1     -30.162  -1.637  22.181  1.00  0.00     0.006 C 
BRANCH   4   5
ATOM      5  C   UNL     1     -28.944  -2.260  21.493  1.00  0.00     0.053 C 
BRANCH   5   6
ATOM      6  C   UNL     1     -28.876  -1.835  20.060  1.00  0.00     0.041 C 
ATOM      7  O   UNL     1     -28.651  -0.632  19.766  1.00  0.00    -0.550 OA
ATOM      8  O   UNL     1     -29.110  -2.759  19.049  1.00  0.00    -0.550 OA
ENDBRANCH   5   6
ENDBRANCH   4   5
ENDBRANCH   3   4
ENDBRANCH   2   3
ENDBRANCH   1   2
BRANCH   1   9
ATOM      9  C   UNL     1     -30.124   0.357  25.936  1.00  0.00     0.000 C 
BRANCH   9  10
ATOM     10  C   UNL     1     -28.950  -0.543  26.340  1.00  0.00    -0.000 C 
BRANCH  10  11
ATOM     11  C   UNL     1     -27.646  -0.078  25.681  1.00  0.00    -0.000 C 
BRANCH  11  12
ATOM     12  C   UNL     1     -27.127  -1.123  24.687  1.00  0.00    -0.000 C 
BRANCH  12  13
ATOM     13  C   UNL     1     -26.492  -0.452  23.464  1.00  0.00    -0.003 C 
ATOM     14  C   UNL     1     -27.284   0.781  23.039  1.00  0.00     0.004 C 
ENDBRANCH  12  13
ENDBRANCH  11  12
ENDBRANCH  10  11
ENDBRANCH   9  10
ENDBRANCH   1   9
TORSDOF 10
ENDMDL
MODEL 4
REMARK VINA RESULT:    -4.863      3.206      4.647
REMARK INTER + INTRA:          -9.460
REMARK INTER:                  -7.896
REMARK INTRA:                  -1.565
REMARK UNBOUND:                -1.754
REMARK SMILES CCCCCCCCCCCC(=O)[O-]
REMARK SMILES IDX 7 1 8 2 9 3 10 4 11 5 12 6 13 7 14 8 6 9 5 10 4 11 3 12 2 13
REMARK SMILES IDX 1 14
REMARK H PARENT
REMARK Flexibility Score: inf
ROOT
ATOM      1  C   UNL     1     -27.969  -0.997  25.522  1.00  0.00     0.000 C 
ENDROOT
BRANCH   1   2
ATOM      2  C   UNL     1     -26.990  -0.965  24.337  1.00  0.00     0.000 C 
BRANCH   2   3
ATOM      3  C   UNL     1     -27.036   0.363  23.566  1.00  0.00     0.000 C 
BRANCH   3   4
ATOM      4  C   UNL     1     -27.562   0.153  22.142  1.00  0.00     0.006 C 
BRANCH   4   5
ATOM      5  C   UNL     1     -27.167  -1.227  21.608  1.00  0.00     0.053 C 
BRANCH   5   6
ATOM      6  C   UNL     1     -28.104  -1.658  20.525  1.00  0.00     0.041 C 
ATOM      7  O   UNL     1     -28.738  -2.741  20.628  1.00  0.00    -0.550 OA
ATOM      8  O   UNL     1     -28.239  -0.888  19.376  1.00  0.00    -0.550 OA
ENDBRANCH   5   6
ENDBRANCH   4   5
ENDBRANCH   3   4
ENDBRANCH   2   3
ENDBRANCH   1   2
BRANCH   1   9
ATOM      9  C   UNL     1     -28.276   0.403  26.074  1.00  0.00     0.000 C 
BRANCH   9  10
ATOM     10  C   UNL     1     -29.785   0.604  26.253  1.00  0.00    -0.000 C 
BRANCH  10  11
ATOM     11  C   UNL     1     -30.580  -0.381  25.387  1.00  0.00    -0.000 C 
BRANCH  11  12
ATOM     12  C   UNL     1     -30.905   0.227  24.017  1.00  0.00    -0.000 C 
BRANCH  12  13
ATOM     13  C   UNL     1     -30.939  -0.852  22.931  1.00  0.00    -0.003 C 
ATOM     14  C   UNL     1     -30.869  -2.250  23.538  1.00  0.00     0.004 C 
ENDBRANCH  12  13
ENDBRANCH  11  12
ENDBRANCH  10  11
ENDBRANCH   9  10
ENDBRANCH   1   9
TORSDOF 10
ENDMDL
MODEL 5
REMARK VINA RESULT:    -4.856      1.419      3.118
REMARK INTER + INTRA:          -9.449
REMARK INTER:                  -7.836
REMARK INTRA:                  -1.613
REMARK UNBOUND:                -1.754
REMARK SMILES CCCCCCCCCCCC(=O)[O-]
REMARK SMILES IDX 7 1 8 2 9 3 10 4 11 5 12 6 13 7 14 8 6 9 5 10 4 11 3 12 2 13
REMARK SMILES IDX 1 14
REMARK H PARENT
REMARK Flexibility Score: inf
ROOT
ATOM      1  C   UNL     1     -29.841  -2.111  22.257  1.00  0.00     0.000 C 
ENDROOT
BRANCH   1   2
ATOM      2  C   UNL     1     -30.662  -1.855  23.532  1.00  0.00     0.000 C 
BRANCH   2   3
ATOM      3  C   UNL     1     -31.201  -0.418  23.610  1.00  0.00     0.000 C 
BRANCH   3   4
ATOM      4  C   UNL     1     -30.390   0.418  24.606  1.00  0.00     0.006 C 
BRANCH   4   5
ATOM      5  C   UNL     1     -30.136  -0.360  25.901  1.00  0.00     0.053 C 
BRANCH   5   6
ATOM      6  C   UNL     1     -29.484   0.518  26.921  1.00  0.00     0.041 C 
ATOM      7  O   UNL     1     -30.161   1.375  27.547  1.00  0.00    -0.550 OA
ATOM      8  O   UNL     1     -28.116   0.424  27.145  1.00  0.00    -0.550 OA
ENDBRANCH   5   6
ENDBRANCH   4   5
ENDBRANCH   3   4
ENDBRANCH   2   3
ENDBRANCH   1   2
BRANCH   1   9
ATOM      9  C   UNL     1     -30.003  -0.994  21.215  1.00  0.00     0.000 C 
BRANCH   9  10
ATOM     10  C   UNL     1     -28.646  -0.597  20.621  1.00  0.00    -0.000 C 
BRANCH  10  11
ATOM     11  C   UNL     1     -27.527  -0.733  21.660  1.00  0.00    -0.000 C 
BRANCH  11  12
ATOM     12  C   UNL     1     -27.379   0.552  22.483  1.00  0.00    -0.000 C 
BRANCH  12  13
ATOM     13  C   UNL     1     -26.726   0.265  23.839  1.00  0.00    -0.003 C 
ATOM     14  C   UNL     1     -26.780  -1.223  24.174  1.00  0.00     0.004 C 
ENDBRANCH  12  13
ENDBRANCH  11  12
ENDBRANCH  10  11
ENDBRANCH   9  10
ENDBRANCH   1   9
TORSDOF 10
ENDMDL
MODEL 6
REMARK VINA RESULT:    -4.849      3.438      5.214
REMARK INTER + INTRA:          -9.438
REMARK INTER:                  -7.783
REMARK INTRA:                  -1.654
REMARK UNBOUND:                -1.754
REMARK SMILES CCCCCCCCCCCC(=O)[O-]
REMARK SMILES IDX 7 1 8 2 9 3 10 4 11 5 12 6 13 7 14 8 6 9 5 10 4 11 3 12 2 13
REMARK SMILES IDX 1 14
REMARK H PARENT
REMARK Flexibility Score: inf
ROOT
ATOM      1  C   UNL     1     -31.203   0.138  23.295  1.00  0.00     0.000 C 
ENDROOT
BRANCH   1   2
ATOM      2  C   UNL     1     -31.198  -1.229  23.997  1.00  0.00     0.000 C 
BRANCH   2   3
ATOM      3  C   UNL     1     -30.340  -2.270  23.262  1.00  0.00     0.000 C 
BRANCH   3   4
ATOM      4  C   UNL     1     -30.107  -1.857  21.803  1.00  0.00     0.006 C 
BRANCH   4   5
ATOM      5  C   UNL     1     -28.768  -2.390  21.287  1.00  0.00     0.053 C 
BRANCH   5   6
ATOM      6  C   UNL     1     -28.109  -1.383  20.400  1.00  0.00     0.041 C 
ATOM      7  O   UNL     1     -28.798  -0.504  19.817  1.00  0.00    -0.550 OA
ATOM      8  O   UNL     1     -26.740  -1.444  20.175  1.00  0.00    -0.550 OA
ENDBRANCH   5   6
ENDBRANCH   4   5
ENDBRANCH   3   4
ENDBRANCH   2   3
ENDBRANCH   1   2
BRANCH   1   9
ATOM      9  C   UNL     1     -30.120   1.085  23.834  1.00  0.00     0.000 C 
BRANCH   9  10
ATOM     10  C   UNL     1     -29.057   1.367  22.766  1.00  0.00    -0.000 C 
BRANCH  10  11
ATOM     11  C   UNL     1     -27.678   0.868  23.215  1.00  0.00    -0.000 C 
BRANCH  11  12
ATOM     12  C   UNL     1     -27.704   0.414  24.678  1.00  0.00    -0.000 C 
BRANCH  12  13
ATOM     13  C   UNL     1     -27.204  -1.027  24.817  1.00  0.00    -0.003 C 
ATOM     14  C   UNL     1     -26.222  -1.380  23.704  1.00  0.00     0.004 C 
ENDBRANCH  12  13
ENDBRANCH  11  12
ENDBRANCH  10  11
ENDBRANCH   9  10
ENDBRANCH   1   9
TORSDOF 10
ENDMDL
MODEL 7
REMARK VINA RESULT:    -4.774      3.141      5.198
REMARK INTER + INTRA:          -9.319
REMARK INTER:                  -7.973
REMARK INTRA:                  -1.346
REMARK UNBOUND:                -1.754
REMARK SMILES CCCCCCCCCCCC(=O)[O-]
REMARK SMILES IDX 7 1 8 2 9 3 10 4 11 5 12 6 13 7 14 8 6 9 5 10 4 11 3 12 2 13
REMARK SMILES IDX 1 14
REMARK H PARENT
REMARK Flexibility Score: inf
ROOT
ATOM      1  C   UNL     1     -28.017   0.633  22.731  1.00  0.00     0.000 C 
ENDROOT
BRANCH   1   2
ATOM      2  C   UNL     1     -29.363   1.364  22.858  1.00  0.00     0.000 C 
BRANCH   2   3
ATOM      3  C   UNL     1     -30.564   0.406  22.808  1.00  0.00     0.000 C 
BRANCH   3   4
ATOM      4  C   UNL     1     -30.117  -1.016  22.447  1.00  0.00     0.006 C 
BRANCH   4   5
ATOM      5  C   UNL     1     -30.364  -1.310  20.964  1.00  0.00     0.053 C 
BRANCH   5   6
ATOM      6  C   UNL     1     -29.263  -2.155  20.407  1.00  0.00     0.041 C 
ATOM      7  O   UNL     1     -28.256  -2.432  21.112  1.00  0.00    -0.550 OA
ATOM      8  O   UNL     1     -29.323  -2.596  19.091  1.00  0.00    -0.550 OA
ENDBRANCH   5   6
ENDBRANCH   4   5
ENDBRANCH   3   4
ENDBRANCH   2   3
ENDBRANCH   1   2
BRANCH   1   9
ATOM      9  C   UNL     1     -27.198   0.671  24.030  1.00  0.00     0.000 C 
BRANCH   9  10
ATOM     10  C   UNL     1     -27.175  -0.706  24.704  1.00  0.00    -0.000 C 
BRANCH  10  11
ATOM     11  C   UNL     1     -28.278  -0.821  25.763  1.00  0.00    -0.000 C 
BRANCH  11  12
ATOM     12  C   UNL     1     -28.286   0.403  26.687  1.00  0.00    -0.000 C 
BRANCH  12  13
ATOM     13  C   UNL     1     -29.719   0.848  26.997  1.00  0.00    -0.003 C 
ATOM     14  C   UNL     1     -30.738  -0.139  26.436  1.00  0.00     0.004 C 
ENDBRANCH  12  13
ENDBRANCH  11  12
ENDBRANCH  10  11
ENDBRANCH   9  10
ENDBRANCH   1   9
TORSDOF 10
ENDMDL
MODEL 8
REMARK VINA RESULT:    -4.723      3.208      5.004
REMARK INTER + INTRA:          -9.238
REMARK INTER:                  -7.723
REMARK INTRA:                  -1.515
REMARK UNBOUND:                -1.754
REMARK SMILES CCCCCCCCCCCC(=O)[O-]
REMARK SMILES IDX 7 1 8 2 9 3 10 4 11 5 12 6 13 7 14 8 6 9 5 10 4 11 3 12 2 13
REMARK SMILES IDX 1 14
REMARK H PARENT
REMARK Flexibility Score: inf
ROOT
ATOM      1  C   UNL     1     -28.652   1.158  22.507  1.00  0.00     0.000 C 
ENDROOT
BRANCH   1   2
ATOM      2  C   UNL     1     -27.414   0.614  23.238  1.00  0.00     0.000 C 
BRANCH   2   3
ATOM      3  C   UNL     1     -27.094  -0.841  22.859  1.00  0.00     0.000 C 
BRANCH   3   4
ATOM      4  C   UNL     1     -27.526  -1.139  21.418  1.00  0.00     0.006 C 
BRANCH   4   5
ATOM      5  C   UNL     1     -28.529  -2.295  21.373  1.00  0.00     0.053 C 
BRANCH   5   6
ATOM      6  C   UNL     1     -29.392  -2.194  20.156  1.00  0.00     0.041 C 
ATOM      7  O   UNL     1     -29.019  -2.711  19.070  1.00  0.00    -0.550 OA
ATOM      8  O   UNL     1     -30.586  -1.486  20.206  1.00  0.00    -0.550 OA
ENDBRANCH   5   6
ENDBRANCH   4   5
ENDBRANCH   3   4
ENDBRANCH   2   3
ENDBRANCH   1   2
BRANCH   1   9
ATOM      9  C   UNL     1     -29.873   1.293  23.429  1.00  0.00     0.000 C 
BRANCH   9  10
ATOM     10  C   UNL     1     -30.831   0.109  23.248  1.00  0.00    -0.000 C 
BRANCH  10  11
ATOM     11  C   UNL     1     -30.582  -0.970  24.309  1.00  0.00    -0.000 C 
BRANCH  11  12
ATOM     12  C   UNL     1     -30.361  -0.345  25.691  1.00  0.00    -0.000 C 
BRANCH  12  13
ATOM     13  C   UNL     1     -29.035  -0.809  26.300  1.00  0.00    -0.003 C 
ATOM     14  C   UNL     1     -28.264   0.362  26.901  1.00  0.00     0.004 C 
ENDBRANCH  12  13
ENDBRANCH  11  12
ENDBRANCH  10  11
ENDBRANCH   9  10
ENDBRANCH   1   9
TORSDOF 10
ENDMDL
MODEL 9
REMARK VINA RESULT:    -4.699      1.570      2.427
REMARK INTER + INTRA:          -9.200
REMARK INTER:                  -8.053
REMARK INTRA:                  -1.148
REMARK UNBOUND:                -1.754
REMARK SMILES CCCCCCCCCCCC(=O)[O-]
REMARK SMILES IDX 7 1 8 2 9 3 10 4 11 5 12 6 13 7 14 8 6 9 5 10 4 11 3 12 2 13
REMARK SMILES IDX 1 14
REMARK H PARENT
REMARK Flexibility Score: inf
ROOT
ATOM      1  C   UNL     1     -27.924   0.383  22.476  1.00  0.00     0.000 C 
ENDROOT
BRANCH   1   2
ATOM      2  C   UNL     1     -27.180   0.512  23.815  1.00  0.00     0.000 C 
BRANCH   2   3
ATOM      3  C   UNL     1     -27.109  -0.817  24.583  1.00  0.00     0.000 C 
BRANCH   3   4
ATOM      4  C   UNL     1     -28.271  -0.939  25.577  1.00  0.00     0.006 C 
BRANCH   4   5
ATOM      5  C   UNL     1     -28.491   0.377  26.328  1.00  0.00     0.053 C 
BRANCH   5   6
ATOM      6  C   UNL     1     -29.907   0.482  26.799  1.00  0.00     0.041 C 
ATOM      7  O   UNL     1     -30.821  -0.150  26.206  1.00  0.00    -0.550 OA
ATOM      8  O   UNL     1     -30.225   1.315  27.863  1.00  0.00    -0.550 OA
ENDBRANCH   5   6
ENDBRANCH   4   5
ENDBRANCH   3   4
ENDBRANCH   2   3
ENDBRANCH   1   2
BRANCH   1   9
ATOM      9  C   UNL     1     -29.309   1.045  22.502  1.00  0.00     0.000 C 
BRANCH   9  10
ATOM     10  C   UNL     1     -30.415  -0.001  22.687  1.00  0.00    -0.000 C 
BRANCH  10  11
ATOM     11  C   UNL     1     -29.957  -1.380  22.196  1.00  0.00    -0.000 C 
BRANCH  11  12
ATOM     12  C   UNL     1     -30.156  -1.522  20.683  1.00  0.00    -0.000 C 
BRANCH  12  13
ATOM     13  C   UNL     1     -28.987  -2.276  20.042  1.00  0.00    -0.003 C 
ATOM     14  C   UNL     1     -28.135  -1.346  19.183  1.00  0.00     0.004 C 
ENDBRANCH  12  13
ENDBRANCH  11  12
ENDBRANCH  10  11
ENDBRANCH   9  10
ENDBRANCH   1   9
TORSDOF 10
ENDMDL
