MODEL 1
REMARK VINA RESULT:    -5.858      0.000      0.000
REMARK INTER + INTRA:          -7.170
REMARK INTER:                  -6.885
REMARK INTRA:                  -0.285
REMARK UNBOUND:                -0.285
REMARK SMILES O=c1cc(-c2ccc(O)c(O)c2)oc2cc(O)cc(O)c12
REMARK SMILES IDX 4 1 3 2 2 3 1 4 21 5 19 6 18 7 16 8 15 9 14 10 13 11 5 12
REMARK SMILES IDX 6 13 7 14 8 15 12 16 10 17 9 18 11 20 20 22 17 24
REMARK H PARENT 9 19 11 21 20 23 17 25
REMARK Flexibility Score: inf
ROOT
ATOM      1  C   UNL     1     127.879 129.388 114.591  1.00  0.00     0.138 A 
ATOM      2  C   UNL     1     128.607 128.594 113.695  1.00  0.00     0.100 A 
ATOM      3  C   UNL     1     128.304 128.634 112.333  1.00  0.00     0.197 A 
ATOM      4  O   UNL     1     128.939 127.868 111.563  1.00  0.00    -0.289 OA
ATOM      5  C   UNL     1     127.288 129.500 111.864  1.00  0.00     0.107 A 
ATOM      6  C   UNL     1     126.914 129.648 110.493  1.00  0.00     0.134 A 
ATOM      7  C   UNL     1     125.826 130.465 110.160  1.00  0.00     0.093 A 
ATOM      8  C   UNL     1     125.134 131.181 111.140  1.00  0.00     0.123 A 
ATOM      9  C   UNL     1     125.523 131.080 112.474  1.00  0.00     0.094 A 
ATOM     10  C   UNL     1     126.582 130.249 112.843  1.00  0.00     0.146 A 
ATOM     11  O   UNL     1     126.908 130.169 114.128  1.00  0.00    -0.456 OA
ENDROOT
BRANCH   1  12
ATOM     12  C   UNL     1     128.161 129.388 116.049  1.00  0.00     0.021 A 
ATOM     13  C   UNL     1     127.150 129.630 116.999  1.00  0.00     0.016 A 
ATOM     14  C   UNL     1     127.446 129.633 118.364  1.00  0.00     0.051 A 
ATOM     15  C   UNL     1     128.756 129.405 118.805  1.00  0.00     0.157 A 
ATOM     16  C   UNL     1     129.475 129.174 116.499  1.00  0.00     0.062 A 
ATOM     17  C   UNL     1     129.775 129.175 117.866  1.00  0.00     0.158 A 
BRANCH  15  18
ATOM     18  O   UNL     1     129.047 129.408 120.168  1.00  0.00    -0.504 OA
ATOM     19  H   UNL     1     128.913 130.236 120.737  1.00  0.00     0.293 HD
ENDBRANCH  15  18
BRANCH  17  20
ATOM     20  O   UNL     1     131.089 128.948 118.272  1.00  0.00    -0.504 OA
ATOM     21  H   UNL     1     131.694 128.288 117.798  1.00  0.00     0.293 HD
ENDBRANCH  17  20
ENDBRANCH   1  12
BRANCH   6  22
ATOM     22  O   UNL     1     127.586 129.043 109.427  1.00  0.00    -0.507 OA
ATOM     23  H   UNL     1     127.543 128.063 109.196  1.00  0.00     0.293 HD
ENDBRANCH   6  22
BRANCH   8  24
ATOM     24  O   UNL     1     124.063 132.001 110.796  1.00  0.00    -0.508 OA
ATOM     25  H   UNL     1     123.288 131.657 110.239  1.00  0.00     0.293 HD
ENDBRANCH   8  24
TORSDOF 5
ENDMDL
MODEL 2
REMARK VINA RESULT:    -5.754      6.466      8.138
REMARK INTER + INTRA:          -7.048
REMARK INTER:                  -6.756
REMARK INTRA:                  -0.292
REMARK UNBOUND:                -0.285
REMARK SMILES O=c1cc(-c2ccc(O)c(O)c2)oc2cc(O)cc(O)c12
REMARK SMILES IDX 4 1 3 2 2 3 1 4 21 5 19 6 18 7 16 8 15 9 14 10 13 11 5 12
REMARK SMILES IDX 6 13 7 14 8 15 12 16 10 17 9 18 11 20 20 22 17 24
REMARK H PARENT 9 19 11 21 20 23 17 25
REMARK Flexibility Score: inf
ROOT
ATOM      1  C   UNL     1     124.180 133.826 111.206  1.00  0.00     0.138 A 
ATOM      2  C   UNL     1     123.786 133.176 112.383  1.00  0.00     0.100 A 
ATOM      3  C   UNL     1     122.514 132.607 112.466  1.00  0.00     0.197 A 
ATOM      4  O   UNL     1     122.172 132.080 113.556  1.00  0.00    -0.289 OA
ATOM      5  C   UNL     1     121.645 132.662 111.350  1.00  0.00     0.107 A 
ATOM      6  C   UNL     1     120.338 132.088 111.308  1.00  0.00     0.134 A 
ATOM      7  C   UNL     1     119.532 132.291 110.181  1.00  0.00     0.093 A 
ATOM      8  C   UNL     1     120.005 132.998 109.072  1.00  0.00     0.123 A 
ATOM      9  C   UNL     1     121.298 133.518 109.085  1.00  0.00     0.094 A 
ATOM     10  C   UNL     1     122.114 133.363 110.207  1.00  0.00     0.146 A 
ATOM     11  O   UNL     1     123.333 133.891 110.184  1.00  0.00    -0.456 OA
ENDROOT
BRANCH   1  12
ATOM     12  C   UNL     1     125.522 134.445 111.061  1.00  0.00     0.021 A 
ATOM     13  C   UNL     1     126.692 133.780 111.472  1.00  0.00     0.016 A 
ATOM     14  C   UNL     1     127.941 134.391 111.332  1.00  0.00     0.051 A 
ATOM     15  C   UNL     1     128.043 135.677 110.787  1.00  0.00     0.157 A 
ATOM     16  C   UNL     1     125.631 135.742 110.528  1.00  0.00     0.062 A 
ATOM     17  C   UNL     1     126.880 136.355 110.385  1.00  0.00     0.158 A 
BRANCH  15  18
ATOM     18  O   UNL     1     129.290 136.283 110.647  1.00  0.00    -0.504 OA
ATOM     19  H   UNL     1     129.947 135.987 109.934  1.00  0.00     0.293 HD
ENDBRANCH  15  18
BRANCH  17  20
ATOM     20  O   UNL     1     126.948 137.639 109.842  1.00  0.00    -0.504 OA
ATOM     21  H   UNL     1     127.792 138.197 109.883  1.00  0.00     0.293 HD
ENDBRANCH  17  20
ENDBRANCH   1  12
BRANCH   6  22
ATOM     22  O   UNL     1     119.796 131.298 112.326  1.00  0.00    -0.507 OA
ATOM     23  H   UNL     1     120.226 131.131 113.222  1.00  0.00     0.293 HD
ENDBRANCH   6  22
BRANCH   8  24
ATOM     24  O   UNL     1     119.202 133.181 107.951  1.00  0.00    -0.508 OA
ATOM     25  H   UNL     1     118.699 132.410 107.526  1.00  0.00     0.293 HD
ENDBRANCH   8  24
TORSDOF 5
ENDMDL
MODEL 3
REMARK VINA RESULT:    -5.739      6.001      7.645
REMARK INTER + INTRA:          -7.030
REMARK INTER:                  -6.761
REMARK INTRA:                  -0.269
REMARK UNBOUND:                -0.285
REMARK SMILES O=c1cc(-c2ccc(O)c(O)c2)oc2cc(O)cc(O)c12
REMARK SMILES IDX 4 1 3 2 2 3 1 4 21 5 19 6 18 7 16 8 15 9 14 10 13 11 5 12
REMARK SMILES IDX 6 13 7 14 8 15 12 16 10 17 9 18 11 20 20 22 17 24
REMARK H PARENT 9 19 11 21 20 23 17 25
REMARK Flexibility Score: inf
ROOT
ATOM      1  C   UNL     1     124.560 133.849 111.202  1.00  0.00     0.138 A 
ATOM      2  C   UNL     1     124.117 133.341 112.431  1.00  0.00     0.100 A 
ATOM      3  C   UNL     1     122.841 132.784 112.529  1.00  0.00     0.197 A 
ATOM      4  O   UNL     1     122.454 132.387 113.658  1.00  0.00    -0.289 OA
ATOM      5  C   UNL     1     122.018 132.704 111.380  1.00  0.00     0.107 A 
ATOM      6  C   UNL     1     120.712 132.127 111.353  1.00  0.00     0.134 A 
ATOM      7  C   UNL     1     119.953 132.194 110.178  1.00  0.00     0.093 A 
ATOM      8  C   UNL     1     120.473 132.767 109.014  1.00  0.00     0.123 A 
ATOM      9  C   UNL     1     121.765 133.288 109.018  1.00  0.00     0.094 A 
ATOM     10  C   UNL     1     122.535 133.267 110.182  1.00  0.00     0.146 A 
ATOM     11  O   UNL     1     123.755 133.791 110.146  1.00  0.00    -0.456 OA
ENDROOT
BRANCH   1  12
ATOM     12  C   UNL     1     125.908 134.450 111.040  1.00  0.00     0.021 A 
ATOM     13  C   UNL     1     126.085 135.737 110.500  1.00  0.00     0.016 A 
ATOM     14  C   UNL     1     127.366 136.273 110.350  1.00  0.00     0.051 A 
ATOM     15  C   UNL     1     128.493 135.532 110.728  1.00  0.00     0.157 A 
ATOM     16  C   UNL     1     127.044 133.706 111.404  1.00  0.00     0.062 A 
ATOM     17  C   UNL     1     128.329 134.240 111.256  1.00  0.00     0.158 A 
BRANCH  15  18
ATOM     18  O   UNL     1     129.770 136.070 110.578  1.00  0.00    -0.504 OA
ATOM     19  H   UNL     1     129.913 136.992 110.184  1.00  0.00     0.293 HD
ENDBRANCH  15  18
BRANCH  17  20
ATOM     20  O   UNL     1     129.430 133.475 111.639  1.00  0.00    -0.504 OA
ATOM     21  H   UNL     1     129.841 133.546 112.562  1.00  0.00     0.293 HD
ENDBRANCH  17  20
ENDBRANCH   1  12
BRANCH   6  22
ATOM     22  O   UNL     1     120.127 131.461 112.434  1.00  0.00    -0.507 OA
ATOM     23  H   UNL     1     119.297 130.891 112.384  1.00  0.00     0.293 HD
ENDBRANCH   6  22
BRANCH   8  24
ATOM     24  O   UNL     1     119.715 132.815 107.847  1.00  0.00    -0.508 OA
ATOM     25  H   UNL     1     118.705 132.898 107.873  1.00  0.00     0.293 HD
ENDBRANCH   8  24
TORSDOF 5
ENDMDL
MODEL 4
REMARK VINA RESULT:    -5.708      5.400      8.165
REMARK INTER + INTRA:          -6.993
REMARK INTER:                  -6.676
REMARK INTRA:                  -0.318
REMARK UNBOUND:                -0.285
REMARK SMILES O=c1cc(-c2ccc(O)c(O)c2)oc2cc(O)cc(O)c12
REMARK SMILES IDX 4 1 3 2 2 3 1 4 21 5 19 6 18 7 16 8 15 9 14 10 13 11 5 12
REMARK SMILES IDX 6 13 7 14 8 15 12 16 10 17 9 18 11 20 20 22 17 24
REMARK H PARENT 9 19 11 21 20 23 17 25
REMARK Flexibility Score: inf
ROOT
ATOM      1  C   UNL     1     126.010 134.465 111.140  1.00  0.00     0.138 A 
ATOM      2  C   UNL     1     126.279 133.582 112.195  1.00  0.00     0.100 A 
ATOM      3  C   UNL     1     125.269 132.744 112.669  1.00  0.00     0.197 A 
ATOM      4  O   UNL     1     125.527 132.005 113.654  1.00  0.00    -0.289 OA
ATOM      5  C   UNL     1     123.992 132.766 112.058  1.00  0.00     0.107 A 
ATOM      6  C   UNL     1     122.895 131.933 112.435  1.00  0.00     0.134 A 
ATOM      7  C   UNL     1     121.649 132.113 111.822  1.00  0.00     0.093 A 
ATOM      8  C   UNL     1     121.474 133.057 110.806  1.00  0.00     0.123 A 
ATOM      9  C   UNL     1     122.552 133.840 110.398  1.00  0.00     0.094 A 
ATOM     10  C   UNL     1     123.799 133.708 111.013  1.00  0.00     0.146 A 
ATOM     11  O   UNL     1     124.794 134.487 110.605  1.00  0.00    -0.456 OA
ENDROOT
BRANCH   1  12
ATOM     12  C   UNL     1     127.047 135.376 110.593  1.00  0.00     0.021 A 
ATOM     13  C   UNL     1     128.386 135.319 111.026  1.00  0.00     0.016 A 
ATOM     14  C   UNL     1     129.338 136.195 110.501  1.00  0.00     0.051 A 
ATOM     15  C   UNL     1     128.972 137.148 109.542  1.00  0.00     0.157 A 
ATOM     16  C   UNL     1     126.685 136.344 109.640  1.00  0.00     0.062 A 
ATOM     17  C   UNL     1     127.637 137.222 109.112  1.00  0.00     0.158 A 
BRANCH  15  18
ATOM     18  O   UNL     1     129.925 138.020 109.019  1.00  0.00    -0.504 OA
ATOM     19  H   UNL     1     130.552 137.736 108.276  1.00  0.00     0.293 HD
ENDBRANCH  15  18
BRANCH  17  20
ATOM     20  O   UNL     1     127.239 138.162 108.161  1.00  0.00    -0.504 OA
ATOM     21  H   UNL     1     127.689 138.237 107.256  1.00  0.00     0.293 HD
ENDBRANCH  17  20
ENDBRANCH   1  12
BRANCH   6  22
ATOM     22  O   UNL     1     122.979 130.906 113.380  1.00  0.00    -0.507 OA
ATOM     23  H   UNL     1     123.539 130.073 113.284  1.00  0.00     0.293 HD
ENDBRANCH   6  22
BRANCH   8  24
ATOM     24  O   UNL     1     120.236 133.219 110.193  1.00  0.00    -0.508 OA
ATOM     25  H   UNL     1     120.157 133.472 109.214  1.00  0.00     0.293 HD
ENDBRANCH   8  24
TORSDOF 5
ENDMDL
MODEL 5
REMARK VINA RESULT:    -5.655      5.263      6.939
REMARK INTER + INTRA:          -6.931
REMARK INTER:                  -6.669
REMARK INTRA:                  -0.262
REMARK UNBOUND:                -0.285
REMARK SMILES O=c1cc(-c2ccc(O)c(O)c2)oc2cc(O)cc(O)c12
REMARK SMILES IDX 4 1 3 2 2 3 1 4 21 5 19 6 18 7 16 8 15 9 14 10 13 11 5 12
REMARK SMILES IDX 6 13 7 14 8 15 12 16 10 17 9 18 11 20 20 22 17 24
REMARK H PARENT 9 19 11 21 20 23 17 25
REMARK Flexibility Score: inf
ROOT
ATOM      1  C   UNL     1     124.949 132.515 111.498  1.00  0.00     0.138 A 
ATOM      2  C   UNL     1     124.284 132.689 112.720  1.00  0.00     0.100 A 
ATOM      3  C   UNL     1     122.904 132.492 112.790  1.00  0.00     0.197 A 
ATOM      4  O   UNL     1     122.331 132.711 113.888  1.00  0.00    -0.289 OA
ATOM      5  C   UNL     1     122.192 132.085 111.636  1.00  0.00     0.107 A 
ATOM      6  C   UNL     1     120.788 131.823 111.596  1.00  0.00     0.134 A 
ATOM      7  C   UNL     1     120.178 131.521 110.373  1.00  0.00     0.093 A 
ATOM      8  C   UNL     1     120.927 131.417 109.198  1.00  0.00     0.123 A 
ATOM      9  C   UNL     1     122.305 131.622 109.237  1.00  0.00     0.094 A 
ATOM     10  C   UNL     1     122.939 131.958 110.434  1.00  0.00     0.146 A 
ATOM     11  O   UNL     1     124.251 132.163 110.422  1.00  0.00    -0.456 OA
ENDROOT
BRANCH   1  12
ATOM     12  C   UNL     1     126.415 132.706 111.366  1.00  0.00     0.021 A 
ATOM     13  C   UNL     1     127.303 131.615 111.313  1.00  0.00     0.016 A 
ATOM     14  C   UNL     1     128.679 131.826 111.198  1.00  0.00     0.051 A 
ATOM     15  C   UNL     1     129.194 133.127 111.142  1.00  0.00     0.157 A 
ATOM     16  C   UNL     1     126.941 134.010 111.323  1.00  0.00     0.062 A 
ATOM     17  C   UNL     1     128.319 134.224 111.207  1.00  0.00     0.158 A 
BRANCH  15  18
ATOM     18  O   UNL     1     130.567 133.334 111.027  1.00  0.00    -0.504 OA
ATOM     19  H   UNL     1     130.949 134.246 110.805  1.00  0.00     0.293 HD
ENDBRANCH  15  18
BRANCH  17  20
ATOM     20  O   UNL     1     128.800 135.532 111.158  1.00  0.00    -0.504 OA
ATOM     21  H   UNL     1     129.721 135.781 111.499  1.00  0.00     0.293 HD
ENDBRANCH  17  20
ENDBRANCH   1  12
BRANCH   6  22
ATOM     22  O   UNL     1     119.959 131.822 112.722  1.00  0.00    -0.507 OA
ATOM     23  H   UNL     1     119.310 131.090 112.963  1.00  0.00     0.293 HD
ENDBRANCH   6  22
BRANCH   8  24
ATOM     24  O   UNL     1     120.313 131.102 107.989  1.00  0.00    -0.508 OA
ATOM     25  H   UNL     1     120.011 130.157 107.777  1.00  0.00     0.293 HD
ENDBRANCH   8  24
TORSDOF 5
ENDMDL
MODEL 6
REMARK VINA RESULT:    -5.623      5.242      7.488
REMARK INTER + INTRA:          -6.894
REMARK INTER:                  -6.624
REMARK INTRA:                  -0.270
REMARK UNBOUND:                -0.285
REMARK SMILES O=c1cc(-c2ccc(O)c(O)c2)oc2cc(O)cc(O)c12
REMARK SMILES IDX 4 1 3 2 2 3 1 4 21 5 19 6 18 7 16 8 15 9 14 10 13 11 5 12
REMARK SMILES IDX 6 13 7 14 8 15 12 16 10 17 9 18 11 20 20 22 17 24
REMARK H PARENT 9 19 11 21 20 23 17 25
REMARK Flexibility Score: inf
ROOT
ATOM      1  C   UNL     1     125.398 133.236 111.545  1.00  0.00     0.138 A 
ATOM      2  C   UNL     1     126.411 132.268 111.586  1.00  0.00     0.100 A 
ATOM      3  C   UNL     1     127.720 132.623 111.260  1.00  0.00     0.197 A 
ATOM      4  O   UNL     1     128.594 131.718 111.252  1.00  0.00    -0.289 OA
ATOM      5  C   UNL     1     128.023 133.965 110.926  1.00  0.00     0.107 A 
ATOM      6  C   UNL     1     129.328 134.450 110.608  1.00  0.00     0.134 A 
ATOM      7  C   UNL     1     129.488 135.779 110.197  1.00  0.00     0.093 A 
ATOM      8  C   UNL     1     128.400 136.656 110.146  1.00  0.00     0.123 A 
ATOM      9  C   UNL     1     127.132 136.204 110.502  1.00  0.00     0.094 A 
ATOM     10  C   UNL     1     126.933 134.875 110.883  1.00  0.00     0.146 A 
ATOM     11  O   UNL     1     125.703 134.482 111.197  1.00  0.00    -0.456 OA
ENDROOT
BRANCH   1  12
ATOM     12  C   UNL     1     123.989 132.915 111.885  1.00  0.00     0.021 A 
ATOM     13  C   UNL     1     123.586 132.660 113.210  1.00  0.00     0.016 A 
ATOM     14  C   UNL     1     122.255 132.352 113.499  1.00  0.00     0.051 A 
ATOM     15  C   UNL     1     121.304 132.284 112.473  1.00  0.00     0.157 A 
ATOM     16  C   UNL     1     123.032 132.832 110.859  1.00  0.00     0.062 A 
ATOM     17  C   UNL     1     121.697 132.524 111.145  1.00  0.00     0.158 A 
BRANCH  15  18
ATOM     18  O   UNL     1     119.977 131.977 112.765  1.00  0.00    -0.504 OA
ATOM     19  H   UNL     1     119.684 131.732 113.704  1.00  0.00     0.293 HD
ENDBRANCH  15  18
BRANCH  17  20
ATOM     20  O   UNL     1     120.776 132.460 110.100  1.00  0.00    -0.504 OA
ATOM     21  H   UNL     1     121.033 132.139 109.174  1.00  0.00     0.293 HD
ENDBRANCH  17  20
ENDBRANCH   1  12
BRANCH   6  22
ATOM     22  O   UNL     1     130.493 133.684 110.701  1.00  0.00    -0.507 OA
ATOM     23  H   UNL     1     130.545 132.687 110.559  1.00  0.00     0.293 HD
ENDBRANCH   6  22
BRANCH   8  24
ATOM     24  O   UNL     1     128.573 137.979 109.750  1.00  0.00    -0.508 OA
ATOM     25  H   UNL     1     128.994 138.667 110.365  1.00  0.00     0.293 HD
ENDBRANCH   8  24
TORSDOF 5
ENDMDL
MODEL 7
REMARK VINA RESULT:    -5.593      5.501      8.390
REMARK INTER + INTRA:          -6.859
REMARK INTER:                  -6.574
REMARK INTRA:                  -0.285
REMARK UNBOUND:                -0.285
REMARK SMILES O=c1cc(-c2ccc(O)c(O)c2)oc2cc(O)cc(O)c12
REMARK SMILES IDX 4 1 3 2 2 3 1 4 21 5 19 6 18 7 16 8 15 9 14 10 13 11 5 12
REMARK SMILES IDX 6 13 7 14 8 15 12 16 10 17 9 18 11 20 20 22 17 24
REMARK H PARENT 9 19 11 21 20 23 17 25
REMARK Flexibility Score: inf
ROOT
ATOM      1  C   UNL     1     124.850 133.058 110.469  1.00  0.00     0.138 A 
ATOM      2  C   UNL     1     125.913 132.231 110.855  1.00  0.00     0.100 A 
ATOM      3  C   UNL     1     127.162 132.792 111.126  1.00  0.00     0.197 A 
ATOM      4  O   UNL     1     128.109 132.016 111.415  1.00  0.00    -0.289 OA
ATOM      5  C   UNL     1     127.336 134.194 111.044  1.00  0.00     0.107 A 
ATOM      6  C   UNL     1     128.555 134.882 111.329  1.00  0.00     0.134 A 
ATOM      7  C   UNL     1     128.633 136.263 111.118  1.00  0.00     0.093 A 
ATOM      8  C   UNL     1     127.522 136.992 110.685  1.00  0.00     0.123 A 
ATOM      9  C   UNL     1     126.315 136.337 110.451  1.00  0.00     0.094 A 
ATOM     10  C   UNL     1     126.213 134.955 110.620  1.00  0.00     0.146 A 
ATOM     11  O   UNL     1     125.048 134.369 110.368  1.00  0.00    -0.456 OA
ENDROOT
BRANCH   1  12
ATOM     12  C   UNL     1     123.500 132.516 110.172  1.00  0.00     0.021 A 
ATOM     13  C   UNL     1     123.305 131.488 109.230  1.00  0.00     0.016 A 
ATOM     14  C   UNL     1     122.022 131.004 108.964  1.00  0.00     0.051 A 
ATOM     15  C   UNL     1     120.911 131.542 109.626  1.00  0.00     0.157 A 
ATOM     16  C   UNL     1     122.378 133.060 110.821  1.00  0.00     0.062 A 
ATOM     17  C   UNL     1     121.092 132.577 110.558  1.00  0.00     0.158 A 
BRANCH  15  18
ATOM     18  O   UNL     1     119.632 131.056 109.359  1.00  0.00    -0.504 OA
ATOM     19  H   UNL     1     118.805 131.614 109.535  1.00  0.00     0.293 HD
ENDBRANCH  15  18
BRANCH  17  20
ATOM     20  O   UNL     1     120.006 133.137 111.231  1.00  0.00    -0.504 OA
ATOM     21  H   UNL     1     120.015 134.092 111.569  1.00  0.00     0.293 HD
ENDBRANCH  17  20
ENDBRANCH   1  12
BRANCH   6  22
ATOM     22  O   UNL     1     129.701 134.265 111.841  1.00  0.00    -0.507 OA
ATOM     23  H   UNL     1     130.646 134.579 111.688  1.00  0.00     0.293 HD
ENDBRANCH   6  22
BRANCH   8  24
ATOM     24  O   UNL     1     127.607 138.368 110.491  1.00  0.00    -0.508 OA
ATOM     25  H   UNL     1     126.913 139.002 110.873  1.00  0.00     0.293 HD
ENDBRANCH   8  24
TORSDOF 5
ENDMDL
MODEL 8
REMARK VINA RESULT:    -5.533      5.813      7.922
REMARK INTER + INTRA:          -6.788
REMARK INTER:                  -6.472
REMARK INTRA:                  -0.317
REMARK UNBOUND:                -0.285
REMARK SMILES O=c1cc(-c2ccc(O)c(O)c2)oc2cc(O)cc(O)c12
REMARK SMILES IDX 4 1 3 2 2 3 1 4 21 5 19 6 18 7 16 8 15 9 14 10 13 11 5 12
REMARK SMILES IDX 6 13 7 14 8 15 12 16 10 17 9 18 11 20 20 22 17 24
REMARK H PARENT 9 19 11 21 20 23 17 25
REMARK Flexibility Score: inf
ROOT
ATOM      1  C   UNL     1     126.145 134.945 110.358  1.00  0.00     0.138 A 
ATOM      2  C   UNL     1     125.221 135.072 109.312  1.00  0.00     0.100 A 
ATOM      3  C   UNL     1     124.043 134.325 109.336  1.00  0.00     0.197 A 
ATOM      4  O   UNL     1     123.261 134.420 108.355  1.00  0.00    -0.289 OA
ATOM      5  C   UNL     1     123.773 133.471 110.433  1.00  0.00     0.107 A 
ATOM      6  C   UNL     1     122.589 132.686 110.581  1.00  0.00     0.134 A 
ATOM      7  C   UNL     1     122.479 131.803 111.663  1.00  0.00     0.093 A 
ATOM      8  C   UNL     1     123.482 131.719 112.632  1.00  0.00     0.123 A 
ATOM      9  C   UNL     1     124.619 132.517 112.521  1.00  0.00     0.094 A 
ATOM     10  C   UNL     1     124.775 133.382 111.436  1.00  0.00     0.146 A 
ATOM     11  O   UNL     1     125.882 134.112 111.361  1.00  0.00    -0.456 OA
ENDROOT
BRANCH   1  12
ATOM     12  C   UNL     1     127.412 135.718 110.386  1.00  0.00     0.021 A 
ATOM     13  C   UNL     1     127.872 136.427 109.261  1.00  0.00     0.016 A 
ATOM     14  C   UNL     1     129.073 137.138 109.313  1.00  0.00     0.051 A 
ATOM     15  C   UNL     1     129.840 137.148 110.485  1.00  0.00     0.157 A 
ATOM     16  C   UNL     1     128.195 135.721 111.555  1.00  0.00     0.062 A 
ATOM     17  C   UNL     1     129.398 136.433 111.611  1.00  0.00     0.158 A 
BRANCH  15  18
ATOM     18  O   UNL     1     131.038 137.860 110.535  1.00  0.00    -0.504 OA
ATOM     19  H   UNL     1     131.594 137.902 111.380  1.00  0.00     0.293 HD
ENDBRANCH  15  18
BRANCH  17  20
ATOM     20  O   UNL     1     130.140 136.419 112.791  1.00  0.00    -0.504 OA
ATOM     21  H   UNL     1     130.355 137.267 113.302  1.00  0.00     0.293 HD
ENDBRANCH  17  20
ENDBRANCH   1  12
BRANCH   6  22
ATOM     22  O   UNL     1     121.492 132.751 109.717  1.00  0.00    -0.507 OA
ATOM     23  H   UNL     1     120.583 133.111 109.960  1.00  0.00     0.293 HD
ENDBRANCH   6  22
BRANCH   8  24
ATOM     24  O   UNL     1     123.356 130.849 113.711  1.00  0.00    -0.508 OA
ATOM     25  H   UNL     1     124.155 130.587 114.279  1.00  0.00     0.293 HD
ENDBRANCH   8  24
TORSDOF 5
ENDMDL
MODEL 9
REMARK VINA RESULT:    -5.446      7.608      9.739
REMARK INTER + INTRA:          -6.686
REMARK INTER:                  -6.411
REMARK INTRA:                  -0.275
REMARK UNBOUND:                -0.285
REMARK SMILES O=c1cc(-c2ccc(O)c(O)c2)oc2cc(O)cc(O)c12
REMARK SMILES IDX 4 1 3 2 2 3 1 4 21 5 19 6 18 7 16 8 15 9 14 10 13 11 5 12
REMARK SMILES IDX 6 13 7 14 8 15 12 16 10 17 9 18 11 20 20 22 17 24
REMARK H PARENT 9 19 11 21 20 23 17 25
REMARK Flexibility Score: inf
ROOT
ATOM      1  C   UNL     1     131.644 123.913 110.868  1.00  0.00     0.138 A 
ATOM      2  C   UNL     1     131.312 124.982 110.023  1.00  0.00     0.100 A 
ATOM      3  C   UNL     1     132.059 126.159 110.072  1.00  0.00     0.197 A 
ATOM      4  O   UNL     1     131.701 127.118 109.341  1.00  0.00    -0.289 OA
ATOM      5  C   UNL     1     133.167 126.254 110.949  1.00  0.00     0.107 A 
ATOM      6  C   UNL     1     134.021 127.393 111.061  1.00  0.00     0.134 A 
ATOM      7  C   UNL     1     135.027 127.407 112.035  1.00  0.00     0.093 A 
ATOM      8  C   UNL     1     135.247 126.302 112.863  1.00  0.00     0.123 A 
ATOM      9  C   UNL     1     134.450 125.168 112.726  1.00  0.00     0.094 A 
ATOM     10  C   UNL     1     133.416 125.135 111.788  1.00  0.00     0.146 A 
ATOM     11  O   UNL     1     132.669 124.040 111.704  1.00  0.00    -0.456 OA
ENDROOT
BRANCH   1  12
ATOM     12  C   UNL     1     130.886 122.636 110.855  1.00  0.00     0.021 A 
ATOM     13  C   UNL     1     129.533 122.574 111.237  1.00  0.00     0.016 A 
ATOM     14  C   UNL     1     128.848 121.357 111.224  1.00  0.00     0.051 A 
ATOM     15  C   UNL     1     129.502 120.180 110.839  1.00  0.00     0.157 A 
ATOM     16  C   UNL     1     131.540 121.449 110.483  1.00  0.00     0.062 A 
ATOM     17  C   UNL     1     130.856 120.228 110.468  1.00  0.00     0.158 A 
BRANCH  15  18
ATOM     18  O   UNL     1     128.815 118.967 110.826  1.00  0.00    -0.504 OA
ATOM     19  H   UNL     1     128.331 118.642 109.998  1.00  0.00     0.293 HD
ENDBRANCH  15  18
BRANCH  17  20
ATOM     20  O   UNL     1     131.538 119.073 110.083  1.00  0.00    -0.504 OA
ATOM     21  H   UNL     1     131.191 118.461 109.354  1.00  0.00     0.293 HD
ENDBRANCH  17  20
ENDBRANCH   1  12
BRANCH   6  22
ATOM     22  O   UNL     1     133.942 128.517 110.233  1.00  0.00    -0.507 OA
ATOM     23  H   UNL     1     133.170 128.734 109.622  1.00  0.00     0.293 HD
ENDBRANCH   6  22
BRANCH   8  24
ATOM     24  O   UNL     1     136.259 126.321 113.818  1.00  0.00    -0.508 OA
ATOM     25  H   UNL     1     137.231 126.187 113.564  1.00  0.00     0.293 HD
ENDBRANCH   8  24
TORSDOF 5
ENDMDL
