MODEL 1
REMARK VINA RESULT:    -5.613      0.000      0.000
REMARK INTER + INTRA:         -12.387
REMARK INTER:                 -10.207
REMARK INTRA:                  -2.181
REMARK UNBOUND:                -2.181
REMARK SMILES CCCCCCCCCCCCCCCC(=O)[O-]
REMARK SMILES IDX 9 1 10 2 11 3 12 4 13 5 14 6 15 7 16 8 17 9 18 10 8 11 7 12
REMARK SMILES IDX 6 13 5 14 4 15 3 16 2 17 1 18
REMARK H PARENT
REMARK Flexibility Score: inf
ROOT
ATOM      1  C   UNL     1     -14.016   0.465 -19.843  1.00  0.00     0.000 C 
ENDROOT
BRANCH   1   2
ATOM      2  C   UNL     1     -15.502   0.572 -20.208  1.00  0.00     0.000 C 
BRANCH   2   3
ATOM      3  C   UNL     1     -16.359  -0.310 -19.289  1.00  0.00     0.000 C 
BRANCH   3   4
ATOM      4  C   UNL     1     -17.649   0.388 -18.830  1.00  0.00     0.000 C 
BRANCH   4   5
ATOM      5  C   UNL     1     -17.549   0.925 -17.391  1.00  0.00     0.000 C 
BRANCH   5   6
ATOM      6  C   UNL     1     -16.627   0.071 -16.500  1.00  0.00     0.006 C 
BRANCH   6   7
ATOM      7  C   UNL     1     -17.355  -0.701 -15.388  1.00  0.00     0.053 C 
BRANCH   7   8
ATOM      8  C   UNL     1     -18.152  -1.847 -15.930  1.00  0.00     0.041 C 
ATOM      9  O   UNL     1     -17.662  -2.599 -16.814  1.00  0.00    -0.550 OA
ATOM     10  O   UNL     1     -19.424  -2.105 -15.436  1.00  0.00    -0.550 OA
ENDBRANCH   7   8
ENDBRANCH   6   7
ENDBRANCH   5   6
ENDBRANCH   4   5
ENDBRANCH   3   4
ENDBRANCH   2   3
ENDBRANCH   1   2
BRANCH   1  11
ATOM     11  C   UNL     1     -13.729   1.135 -18.494  1.00  0.00     0.000 C 
BRANCH  11  12
ATOM     12  C   UNL     1     -13.983   2.645 -18.565  1.00  0.00    -0.000 C 
BRANCH  12  13
ATOM     13  C   UNL     1     -14.487   3.182 -17.217  1.00  0.00    -0.000 C 
BRANCH  13  14
ATOM     14  C   UNL     1     -13.475   2.975 -16.075  1.00  0.00    -0.000 C 
BRANCH  14  15
ATOM     15  C   UNL     1     -14.041   2.291 -14.814  1.00  0.00    -0.000 C 
BRANCH  15  16
ATOM     16  C   UNL     1     -15.407   2.819 -14.343  1.00  0.00    -0.000 C 
BRANCH  16  17
ATOM     17  C   UNL     1     -15.702   2.484 -12.874  1.00  0.00    -0.003 C 
ATOM     18  C   UNL     1     -15.019   1.184 -12.458  1.00  0.00     0.004 C 
ENDBRANCH  16  17
ENDBRANCH  15  16
ENDBRANCH  14  15
ENDBRANCH  13  14
ENDBRANCH  12  13
ENDBRANCH  11  12
ENDBRANCH   1  11
TORSDOF 14
ENDMDL
MODEL 2
REMARK VINA RESULT:    -5.612      1.461      2.702
REMARK INTER + INTRA:         -12.385
REMARK INTER:                 -11.136
REMARK INTRA:                  -1.249
REMARK UNBOUND:                -2.181
REMARK SMILES CCCCCCCCCCCCCCCC(=O)[O-]
REMARK SMILES IDX 9 1 10 2 11 3 12 4 13 5 14 6 15 7 16 8 17 9 18 10 8 11 7 12
REMARK SMILES IDX 6 13 5 14 4 15 3 16 2 17 1 18
REMARK H PARENT
REMARK Flexibility Score: inf
ROOT
ATOM      1  C   UNL     1     -13.280   3.089 -17.937  1.00  0.00     0.000 C 
ENDROOT
BRANCH   1   2
ATOM      2  C   UNL     1     -14.045   2.249 -18.968  1.00  0.00     0.000 C 
BRANCH   2   3
ATOM      3  C   UNL     1     -13.705   0.759 -18.823  1.00  0.00     0.000 C 
BRANCH   3   4
ATOM      4  C   UNL     1     -14.715  -0.154 -19.537  1.00  0.00     0.000 C 
BRANCH   4   5
ATOM      5  C   UNL     1     -16.103   0.497 -19.673  1.00  0.00     0.000 C 
BRANCH   5   6
ATOM      6  C   UNL     1     -17.119  -0.051 -18.653  1.00  0.00     0.006 C 
BRANCH   6   7
ATOM      7  C   UNL     1     -17.365  -1.565 -18.750  1.00  0.00     0.053 C 
BRANCH   7   8
ATOM      8  C   UNL     1     -17.045  -2.269 -17.468  1.00  0.00     0.041 C 
ATOM      9  O   UNL     1     -15.860  -2.304 -17.042  1.00  0.00    -0.550 OA
ATOM     10  O   UNL     1     -18.060  -2.857 -16.726  1.00  0.00    -0.550 OA
ENDBRANCH   7   8
ENDBRANCH   6   7
ENDBRANCH   5   6
ENDBRANCH   4   5
ENDBRANCH   3   4
ENDBRANCH   2   3
ENDBRANCH   1   2
BRANCH   1  11
ATOM     11  C   UNL     1     -13.679   2.705 -16.507  1.00  0.00     0.000 C 
BRANCH  11  12
ATOM     12  C   UNL     1     -15.173   2.948 -16.268  1.00  0.00    -0.000 C 
BRANCH  12  13
ATOM     13  C   UNL     1     -15.747   1.917 -15.285  1.00  0.00    -0.000 C 
BRANCH  13  14
ATOM     14  C   UNL     1     -14.957   1.845 -13.965  1.00  0.00    -0.000 C 
BRANCH  14  15
ATOM     15  C   UNL     1     -15.490   2.745 -12.833  1.00  0.00    -0.000 C 
BRANCH  15  16
ATOM     16  C   UNL     1     -15.740   2.029 -11.493  1.00  0.00    -0.000 C 
BRANCH  16  17
ATOM     17  C   UNL     1     -17.221   2.016 -11.090  1.00  0.00    -0.003 C 
ATOM     18  C   UNL     1     -17.536   0.822 -10.194  1.00  0.00     0.004 C 
ENDBRANCH  16  17
ENDBRANCH  15  16
ENDBRANCH  14  15
ENDBRANCH  13  14
ENDBRANCH  12  13
ENDBRANCH  11  12
ENDBRANCH   1  11
TORSDOF 14
ENDMDL
MODEL 3
REMARK VINA RESULT:    -5.606      2.203      4.781
REMARK INTER + INTRA:         -12.375
REMARK INTER:                 -10.457
REMARK INTRA:                  -1.919
REMARK UNBOUND:                -2.181
REMARK SMILES CCCCCCCCCCCCCCCC(=O)[O-]
REMARK SMILES IDX 9 1 10 2 11 3 12 4 13 5 14 6 15 7 16 8 17 9 18 10 8 11 7 12
REMARK SMILES IDX 6 13 5 14 4 15 3 16 2 17 1 18
REMARK H PARENT
REMARK Flexibility Score: inf
ROOT
ATOM      1  C   UNL     1     -17.665   1.104 -17.461  1.00  0.00     0.000 C 
ENDROOT
BRANCH   1   2
ATOM      2  C   UNL     1     -18.015   0.380 -16.155  1.00  0.00     0.000 C 
BRANCH   2   3
ATOM      3  C   UNL     1     -16.791   0.287 -15.233  1.00  0.00     0.000 C 
BRANCH   3   4
ATOM      4  C   UNL     1     -15.827   1.473 -15.404  1.00  0.00     0.000 C 
BRANCH   4   5
ATOM      5  C   UNL     1     -15.029   1.773 -14.123  1.00  0.00     0.000 C 
BRANCH   5   6
ATOM      6  C   UNL     1     -15.882   2.457 -13.037  1.00  0.00     0.006 C 
BRANCH   6   7
ATOM      7  C   UNL     1     -15.823   1.777 -11.661  1.00  0.00     0.053 C 
BRANCH   7   8
ATOM      8  C   UNL     1     -17.149   1.209 -11.259  1.00  0.00     0.041 C 
ATOM      9  O   UNL     1     -18.055   1.041 -12.119  1.00  0.00    -0.550 OA
ATOM     10  O   UNL     1     -17.375   0.834  -9.941  1.00  0.00    -0.550 OA
ENDBRANCH   7   8
ENDBRANCH   6   7
ENDBRANCH   5   6
ENDBRANCH   4   5
ENDBRANCH   3   4
ENDBRANCH   2   3
ENDBRANCH   1   2
BRANCH   1  11
ATOM     11  C   UNL     1     -18.027   0.248 -18.681  1.00  0.00     0.000 C 
BRANCH  11  12
ATOM     12  C   UNL     1     -16.850  -0.640 -19.099  1.00  0.00    -0.000 C 
BRANCH  12  13
ATOM     13  C   UNL     1     -15.636   0.210 -19.501  1.00  0.00    -0.000 C 
BRANCH  13  14
ATOM     14  C   UNL     1     -14.405  -0.050 -18.613  1.00  0.00    -0.000 C 
BRANCH  14  15
ATOM     15  C   UNL     1     -13.615   1.209 -18.204  1.00  0.00    -0.000 C 
BRANCH  15  16
ATOM     16  C   UNL     1     -14.073   2.515 -18.878  1.00  0.00    -0.000 C 
BRANCH  16  17
ATOM     17  C   UNL     1     -14.115   3.704 -17.908  1.00  0.00    -0.003 C 
ATOM     18  C   UNL     1     -12.875   3.733 -17.019  1.00  0.00     0.004 C 
ENDBRANCH  16  17
ENDBRANCH  15  16
ENDBRANCH  14  15
ENDBRANCH  13  14
ENDBRANCH  12  13
ENDBRANCH  11  12
ENDBRANCH   1  11
TORSDOF 14
ENDMDL
MODEL 4
REMARK VINA RESULT:    -5.590      1.958      4.753
REMARK INTER + INTRA:         -12.346
REMARK INTER:                 -10.584
REMARK INTRA:                  -1.762
REMARK UNBOUND:                -2.181
REMARK SMILES CCCCCCCCCCCCCCCC(=O)[O-]
REMARK SMILES IDX 9 1 10 2 11 3 12 4 13 5 14 6 15 7 16 8 17 9 18 10 8 11 7 12
REMARK SMILES IDX 6 13 5 14 4 15 3 16 2 17 1 18
REMARK H PARENT
REMARK Flexibility Score: inf
ROOT
ATOM      1  C   UNL     1     -15.081   2.508 -15.200  1.00  0.00     0.000 C 
ENDROOT
BRANCH   1   2
ATOM      2  C   UNL     1     -13.845   2.955 -15.990  1.00  0.00     0.000 C 
BRANCH   2   3
ATOM      3  C   UNL     1     -14.249   3.729 -17.252  1.00  0.00     0.000 C 
BRANCH   3   4
ATOM      4  C   UNL     1     -13.527   3.228 -18.514  1.00  0.00     0.000 C 
BRANCH   4   5
ATOM      5  C   UNL     1     -14.382   2.241 -19.329  1.00  0.00     0.000 C 
BRANCH   5   6
ATOM      6  C   UNL     1     -14.106   0.771 -18.963  1.00  0.00     0.006 C 
BRANCH   6   7
ATOM      7  C   UNL     1     -15.182   0.123 -18.077  1.00  0.00     0.053 C 
BRANCH   7   8
ATOM      8  C   UNL     1     -16.563   0.557 -18.465  1.00  0.00     0.041 C 
ATOM      9  O   UNL     1     -17.125   0.055 -19.474  1.00  0.00    -0.550 OA
ATOM     10  O   UNL     1     -17.241   1.490 -17.692  1.00  0.00    -0.550 OA
ENDBRANCH   7   8
ENDBRANCH   6   7
ENDBRANCH   5   6
ENDBRANCH   4   5
ENDBRANCH   3   4
ENDBRANCH   2   3
ENDBRANCH   1   2
BRANCH   1  11
ATOM     11  C   UNL     1     -14.684   1.892 -13.853  1.00  0.00     0.000 C 
BRANCH  11  12
ATOM     12  C   UNL     1     -15.453   2.547 -12.700  1.00  0.00    -0.000 C 
BRANCH  12  13
ATOM     13  C   UNL     1     -15.538   1.603 -11.491  1.00  0.00    -0.000 C 
BRANCH  13  14
ATOM     14  C   UNL     1     -16.953   1.531 -10.889  1.00  0.00    -0.000 C 
BRANCH  14  15
ATOM     15  C   UNL     1     -18.045   1.010 -11.844  1.00  0.00    -0.000 C 
BRANCH  15  16
ATOM     16  C   UNL     1     -17.706  -0.305 -12.569  1.00  0.00    -0.000 C 
BRANCH  16  17
ATOM     17  C   UNL     1     -18.122  -0.296 -14.046  1.00  0.00    -0.003 C 
ATOM     18  C   UNL     1     -16.977  -0.760 -14.942  1.00  0.00     0.004 C 
ENDBRANCH  16  17
ENDBRANCH  15  16
ENDBRANCH  14  15
ENDBRANCH  13  14
ENDBRANCH  12  13
ENDBRANCH  11  12
ENDBRANCH   1  11
TORSDOF 14
ENDMDL
MODEL 5
REMARK VINA RESULT:    -5.562      1.550      3.735
REMARK INTER + INTRA:         -12.296
REMARK INTER:                 -10.647
REMARK INTRA:                  -1.649
REMARK UNBOUND:                -2.181
REMARK SMILES CCCCCCCCCCCCCCCC(=O)[O-]
REMARK SMILES IDX 9 1 10 2 11 3 12 4 13 5 14 6 15 7 16 8 17 9 18 10 8 11 7 12
REMARK SMILES IDX 6 13 5 14 4 15 3 16 2 17 1 18
REMARK H PARENT
REMARK Flexibility Score: inf
ROOT
ATOM      1  C   UNL     1     -13.664   2.627 -16.316  1.00  0.00     0.000 C 
ENDROOT
BRANCH   1   2
ATOM      2  C   UNL     1     -13.380   3.634 -17.438  1.00  0.00     0.000 C 
BRANCH   2   3
ATOM      3  C   UNL     1     -13.964   3.150 -18.772  1.00  0.00     0.000 C 
BRANCH   3   4
ATOM      4  C   UNL     1     -13.952   1.618 -18.905  1.00  0.00     0.000 C 
BRANCH   4   5
ATOM      5  C   UNL     1     -15.227   1.075 -19.576  1.00  0.00     0.000 C 
BRANCH   5   6
ATOM      6  C   UNL     1     -16.336   0.740 -18.561  1.00  0.00     0.006 C 
BRANCH   6   7
ATOM      7  C   UNL     1     -15.947  -0.320 -17.520  1.00  0.00     0.053 C 
BRANCH   7   8
ATOM      8  C   UNL     1     -16.587  -1.645 -17.801  1.00  0.00     0.041 C 
ATOM      9  O   UNL     1     -16.630  -2.531 -16.907  1.00  0.00    -0.550 OA
ATOM     10  O   UNL     1     -17.164  -1.889 -19.040  1.00  0.00    -0.550 OA
ENDBRANCH   7   8
ENDBRANCH   6   7
ENDBRANCH   5   6
ENDBRANCH   4   5
ENDBRANCH   3   4
ENDBRANCH   2   3
ENDBRANCH   1   2
BRANCH   1  11
ATOM     11  C   UNL     1     -15.046   2.867 -15.696  1.00  0.00     0.000 C 
BRANCH  11  12
ATOM     12  C   UNL     1     -15.225   2.047 -14.414  1.00  0.00    -0.000 C 
BRANCH  12  13
ATOM     13  C   UNL     1     -15.521   2.960 -13.215  1.00  0.00    -0.000 C 
BRANCH  13  14
ATOM     14  C   UNL     1     -15.536   2.200 -11.876  1.00  0.00    -0.000 C 
BRANCH  14  15
ATOM     15  C   UNL     1     -16.938   1.864 -11.329  1.00  0.00    -0.000 C 
BRANCH  15  16
ATOM     16  C   UNL     1     -17.394   0.411 -11.550  1.00  0.00    -0.000 C 
BRANCH  16  17
ATOM     17  C   UNL     1     -18.163   0.221 -12.865  1.00  0.00    -0.003 C 
ATOM     18  C   UNL     1     -17.464  -0.792 -13.769  1.00  0.00     0.004 C 
ENDBRANCH  16  17
ENDBRANCH  15  16
ENDBRANCH  14  15
ENDBRANCH  13  14
ENDBRANCH  12  13
ENDBRANCH  11  12
ENDBRANCH   1  11
TORSDOF 14
ENDMDL
MODEL 6
REMARK VINA RESULT:    -5.532      1.406      2.745
REMARK INTER + INTRA:         -12.241
REMARK INTER:                 -10.958
REMARK INTRA:                  -1.283
REMARK UNBOUND:                -2.181
REMARK SMILES CCCCCCCCCCCCCCCC(=O)[O-]
REMARK SMILES IDX 9 1 10 2 11 3 12 4 13 5 14 6 15 7 16 8 17 9 18 10 8 11 7 12
REMARK SMILES IDX 6 13 5 14 4 15 3 16 2 17 1 18
REMARK H PARENT
REMARK Flexibility Score: inf
ROOT
ATOM      1  C   UNL     1     -13.683   3.366 -18.523  1.00  0.00     0.000 C 
ENDROOT
BRANCH   1   2
ATOM      2  C   UNL     1     -14.003   1.919 -18.918  1.00  0.00     0.000 C 
BRANCH   2   3
ATOM      3  C   UNL     1     -14.664   1.861 -20.302  1.00  0.00     0.000 C 
BRANCH   3   4
ATOM      4  C   UNL     1     -15.418   0.544 -20.546  1.00  0.00     0.000 C 
BRANCH   4   5
ATOM      5  C   UNL     1     -15.881  -0.121 -19.238  1.00  0.00     0.000 C 
BRANCH   5   6
ATOM      6  C   UNL     1     -17.350   0.193 -18.897  1.00  0.00     0.006 C 
BRANCH   6   7
ATOM      7  C   UNL     1     -17.538   1.110 -17.678  1.00  0.00     0.053 C 
BRANCH   7   8
ATOM      8  C   UNL     1     -17.872   0.337 -16.440  1.00  0.00     0.041 C 
ATOM      9  O   UNL     1     -19.065   0.264 -16.041  1.00  0.00    -0.550 OA
ATOM     10  O   UNL     1     -16.872  -0.331 -15.746  1.00  0.00    -0.550 OA
ENDBRANCH   7   8
ENDBRANCH   6   7
ENDBRANCH   5   6
ENDBRANCH   4   5
ENDBRANCH   3   4
ENDBRANCH   2   3
ENDBRANCH   1   2
BRANCH   1  11
ATOM     11  C   UNL     1     -13.296   3.461 -17.041  1.00  0.00     0.000 C 
BRANCH  11  12
ATOM     12  C   UNL     1     -13.811   2.249 -16.259  1.00  0.00    -0.000 C 
BRANCH  12  13
ATOM     13  C   UNL     1     -13.908   2.563 -14.759  1.00  0.00    -0.000 C 
BRANCH  13  14
ATOM     14  C   UNL     1     -15.356   2.541 -14.236  1.00  0.00    -0.000 C 
BRANCH  14  15
ATOM     15  C   UNL     1     -15.521   2.907 -12.747  1.00  0.00    -0.000 C 
BRANCH  15  16
ATOM     16  C   UNL     1     -15.588   1.708 -11.784  1.00  0.00    -0.000 C 
BRANCH  16  17
ATOM     17  C   UNL     1     -17.001   1.457 -11.241  1.00  0.00    -0.003 C 
ATOM     18  C   UNL     1     -17.790   0.535 -12.167  1.00  0.00     0.004 C 
ENDBRANCH  16  17
ENDBRANCH  15  16
ENDBRANCH  14  15
ENDBRANCH  13  14
ENDBRANCH  12  13
ENDBRANCH  11  12
ENDBRANCH   1  11
TORSDOF 14
ENDMDL
MODEL 7
REMARK VINA RESULT:    -5.518      1.416      5.089
REMARK INTER + INTRA:         -12.215
REMARK INTER:                 -10.587
REMARK INTRA:                  -1.628
REMARK UNBOUND:                -2.181
REMARK SMILES CCCCCCCCCCCCCCCC(=O)[O-]
REMARK SMILES IDX 9 1 10 2 11 3 12 4 13 5 14 6 15 7 16 8 17 9 18 10 8 11 7 12
REMARK SMILES IDX 6 13 5 14 4 15 3 16 2 17 1 18
REMARK H PARENT
REMARK Flexibility Score: inf
ROOT
ATOM      1  C   UNL     1     -15.116   1.720 -12.499  1.00  0.00     0.000 C 
ENDROOT
BRANCH   1   2
ATOM      2  C   UNL     1     -16.126   1.843 -11.352  1.00  0.00     0.000 C 
BRANCH   2   3
ATOM      3  C   UNL     1     -17.535   1.446 -11.815  1.00  0.00     0.000 C 
BRANCH   3   4
ATOM      4  C   UNL     1     -17.611  -0.010 -12.303  1.00  0.00     0.000 C 
BRANCH   4   5
ATOM      5  C   UNL     1     -17.964  -0.113 -13.797  1.00  0.00     0.000 C 
BRANCH   5   6
ATOM      6  C   UNL     1     -16.821  -0.710 -14.639  1.00  0.00     0.006 C 
BRANCH   6   7
ATOM      7  C   UNL     1     -16.987  -0.529 -16.156  1.00  0.00     0.053 C 
BRANCH   7   8
ATOM      8  C   UNL     1     -16.661  -1.781 -16.910  1.00  0.00     0.041 C 
ATOM      9  O   UNL     1     -15.551  -1.900 -17.494  1.00  0.00    -0.550 OA
ATOM     10  O   UNL     1     -17.570  -2.831 -16.940  1.00  0.00    -0.550 OA
ENDBRANCH   7   8
ENDBRANCH   6   7
ENDBRANCH   5   6
ENDBRANCH   4   5
ENDBRANCH   3   4
ENDBRANCH   2   3
ENDBRANCH   1   2
BRANCH   1  11
ATOM     11  C   UNL     1     -15.375   2.780 -13.578  1.00  0.00     0.000 C 
BRANCH  11  12
ATOM     12  C   UNL     1     -14.530   2.511 -14.828  1.00  0.00    -0.000 C 
BRANCH  12  13
ATOM     13  C   UNL     1     -15.353   2.730 -16.106  1.00  0.00    -0.000 C 
BRANCH  13  14
ATOM     14  C   UNL     1     -14.584   3.514 -17.184  1.00  0.00    -0.000 C 
BRANCH  14  15
ATOM     15  C   UNL     1     -13.593   2.679 -18.020  1.00  0.00    -0.000 C 
BRANCH  15  16
ATOM     16  C   UNL     1     -14.056   1.248 -18.344  1.00  0.00    -0.000 C 
BRANCH  16  17
ATOM     17  C   UNL     1     -15.163   1.205 -19.407  1.00  0.00    -0.003 C 
ATOM     18  C   UNL     1     -14.702   0.451 -20.651  1.00  0.00     0.004 C 
ENDBRANCH  16  17
ENDBRANCH  15  16
ENDBRANCH  14  15
ENDBRANCH  13  14
ENDBRANCH  12  13
ENDBRANCH  11  12
ENDBRANCH   1  11
TORSDOF 14
ENDMDL
MODEL 8
REMARK VINA RESULT:    -5.512      2.074      5.826
REMARK INTER + INTRA:         -12.204
REMARK INTER:                 -10.258
REMARK INTRA:                  -1.946
REMARK UNBOUND:                -2.181
REMARK SMILES CCCCCCCCCCCCCCCC(=O)[O-]
REMARK SMILES IDX 9 1 10 2 11 3 12 4 13 5 14 6 15 7 16 8 17 9 18 10 8 11 7 12
REMARK SMILES IDX 6 13 5 14 4 15 3 16 2 17 1 18
REMARK H PARENT
REMARK Flexibility Score: inf
ROOT
ATOM      1  C   UNL     1     -15.501   2.847 -12.481  1.00  0.00     0.000 C 
ENDROOT
BRANCH   1   2
ATOM      2  C   UNL     1     -14.789   2.143 -13.643  1.00  0.00     0.000 C 
BRANCH   2   3
ATOM      3  C   UNL     1     -15.315   2.645 -14.995  1.00  0.00     0.000 C 
BRANCH   3   4
ATOM      4  C   UNL     1     -14.279   2.510 -16.123  1.00  0.00     0.000 C 
BRANCH   4   5
ATOM      5  C   UNL     1     -14.593   3.420 -17.323  1.00  0.00     0.000 C 
BRANCH   5   6
ATOM      6  C   UNL     1     -13.972   2.908 -18.637  1.00  0.00     0.006 C 
BRANCH   6   7
ATOM      7  C   UNL     1     -13.680   1.400 -18.656  1.00  0.00     0.053 C 
BRANCH   7   8
ATOM      8  C   UNL     1     -14.675   0.646 -19.483  1.00  0.00     0.041 C 
ATOM      9  O   UNL     1     -15.155   1.164 -20.526  1.00  0.00    -0.550 OA
ATOM     10  O   UNL     1     -15.048  -0.641 -19.120  1.00  0.00    -0.550 OA
ENDBRANCH   7   8
ENDBRANCH   6   7
ENDBRANCH   5   6
ENDBRANCH   4   5
ENDBRANCH   3   4
ENDBRANCH   2   3
ENDBRANCH   1   2
BRANCH   1  11
ATOM     11  C   UNL     1     -15.881   1.850 -11.380  1.00  0.00     0.000 C 
BRANCH  11  12
ATOM     12  C   UNL     1     -17.362   1.468 -11.469  1.00  0.00    -0.000 C 
BRANCH  12  13
ATOM     13  C   UNL     1     -17.532   0.057 -12.050  1.00  0.00    -0.000 C 
BRANCH  13  14
ATOM     14  C   UNL     1     -17.871   0.066 -13.552  1.00  0.00    -0.000 C 
BRANCH  14  15
ATOM     15  C   UNL     1     -16.874  -0.690 -14.453  1.00  0.00    -0.000 C 
BRANCH  15  16
ATOM     16  C   UNL     1     -17.153  -0.590 -15.963  1.00  0.00    -0.000 C 
BRANCH  16  17
ATOM     17  C   UNL     1     -18.129   0.541 -16.316  1.00  0.00    -0.003 C 
ATOM     18  C   UNL     1     -17.700   1.259 -17.592  1.00  0.00     0.004 C 
ENDBRANCH  16  17
ENDBRANCH  15  16
ENDBRANCH  14  15
ENDBRANCH  13  14
ENDBRANCH  12  13
ENDBRANCH  11  12
ENDBRANCH   1  11
TORSDOF 14
ENDMDL
MODEL 9
REMARK VINA RESULT:    -5.506      2.142      4.724
REMARK INTER + INTRA:         -12.194
REMARK INTER:                 -10.689
REMARK INTRA:                  -1.504
REMARK UNBOUND:                -2.181
REMARK SMILES CCCCCCCCCCCCCCCC(=O)[O-]
REMARK SMILES IDX 9 1 10 2 11 3 12 4 13 5 14 6 15 7 16 8 17 9 18 10 8 11 7 12
REMARK SMILES IDX 6 13 5 14 4 15 3 16 2 17 1 18
REMARK H PARENT
REMARK Flexibility Score: inf
ROOT
ATOM      1  C   UNL     1     -13.579   3.101 -18.452  1.00  0.00     0.000 C 
ENDROOT
BRANCH   1   2
ATOM      2  C   UNL     1     -13.544   3.425 -16.953  1.00  0.00     0.000 C 
BRANCH   2   3
ATOM      3  C   UNL     1     -14.750   2.809 -16.230  1.00  0.00     0.000 C 
BRANCH   3   4
ATOM      4  C   UNL     1     -14.373   2.172 -14.883  1.00  0.00     0.000 C 
BRANCH   4   5
ATOM      5  C   UNL     1     -15.262   2.667 -13.727  1.00  0.00     0.000 C 
BRANCH   5   6
ATOM      6  C   UNL     1     -15.395   1.632 -12.594  1.00  0.00     0.006 C 
BRANCH   6   7
ATOM      7  C   UNL     1     -16.232   2.107 -11.396  1.00  0.00     0.053 C 
BRANCH   7   8
ATOM      8  C   UNL     1     -17.381   1.188 -11.115  1.00  0.00     0.041 C 
ATOM      9  O   UNL     1     -18.080   0.738 -12.062  1.00  0.00    -0.550 OA
ATOM     10  O   UNL     1     -17.659   0.801  -9.811  1.00  0.00    -0.550 OA
ENDBRANCH   7   8
ENDBRANCH   6   7
ENDBRANCH   5   6
ENDBRANCH   4   5
ENDBRANCH   3   4
ENDBRANCH   2   3
ENDBRANCH   1   2
BRANCH   1  11
ATOM     11  C   UNL     1     -13.983   1.641 -18.692  1.00  0.00     0.000 C 
BRANCH  11  12
ATOM     12  C   UNL     1     -14.839   1.507 -19.956  1.00  0.00    -0.000 C 
BRANCH  12  13
ATOM     13  C   UNL     1     -15.326   0.062 -20.139  1.00  0.00    -0.000 C 
BRANCH  13  14
ATOM     14  C   UNL     1     -16.259  -0.402 -19.006  1.00  0.00    -0.000 C 
BRANCH  14  15
ATOM     15  C   UNL     1     -17.574   0.392 -18.874  1.00  0.00    -0.000 C 
BRANCH  15  16
ATOM     16  C   UNL     1     -17.795   1.067 -17.508  1.00  0.00    -0.000 C 
BRANCH  16  17
ATOM     17  C   UNL     1     -18.285   0.088 -16.432  1.00  0.00    -0.003 C 
ATOM     18  C   UNL     1     -17.197  -0.182 -15.397  1.00  0.00     0.004 C 
ENDBRANCH  16  17
ENDBRANCH  15  16
ENDBRANCH  14  15
ENDBRANCH  13  14
ENDBRANCH  12  13
ENDBRANCH  11  12
ENDBRANCH   1  11
TORSDOF 14
ENDMDL
