MODEL 1
REMARK VINA RESULT:    -4.039      0.000      0.000
REMARK INTER + INTRA:         -13.525
REMARK INTER:                 -10.650
REMARK INTRA:                  -2.875
REMARK UNBOUND:                -2.875
REMARK SMILES CCCCCCCCCCCCCCCCCCCCCCCCCCCCCC(=O)[O-]
REMARK SMILES IDX 16 1 17 2 18 3 19 4 20 5 21 6 22 7 23 8 24 9 25 10 26 11
REMARK SMILES IDX 27 12 28 13 29 14 30 15 31 16 32 17 15 18 14 19 13 20 12 21
REMARK SMILES IDX 11 22 10 23 9 24 8 25 7 26 6 27 5 28 4 29 3 30 2 31 1 32
REMARK H PARENT
REMARK Flexibility Score: inf
ROOT
ATOM      1  C   UNL     1      48.483  34.758 -15.901  1.00  0.00     0.000 C 
ENDROOT
BRANCH   1   2
ATOM      2  C   UNL     1      48.756  36.061 -16.668  1.00  0.00     0.000 C 
BRANCH   2   3
ATOM      3  C   UNL     1      47.484  36.683 -17.263  1.00  0.00     0.000 C 
BRANCH   3   4
ATOM      4  C   UNL     1      47.199  38.053 -16.638  1.00  0.00     0.000 C 
BRANCH   4   5
ATOM      5  C   UNL     1      45.793  38.096 -16.022  1.00  0.00     0.000 C 
BRANCH   5   6
ATOM      6  C   UNL     1      45.812  38.105 -14.482  1.00  0.00     0.000 C 
BRANCH   6   7
ATOM      7  C   UNL     1      44.752  37.210 -13.810  1.00  0.00     0.000 C 
BRANCH   7   8
ATOM      8  C   UNL     1      43.909  37.902 -12.722  1.00  0.00     0.000 C 
BRANCH   8   9
ATOM      9  C   UNL     1      42.756  37.051 -12.155  1.00  0.00     0.000 C 
BRANCH   9  10
ATOM     10  C   UNL     1      43.000  36.476 -10.744  1.00  0.00     0.000 C 
BRANCH  10  11
ATOM     11  C   UNL     1      43.660  37.449  -9.750  1.00  0.00     0.000 C 
BRANCH  11  12
ATOM     12  C   UNL     1      45.018  36.943  -9.233  1.00  0.00     0.000 C 
BRANCH  12  13
ATOM     13  C   UNL     1      45.084  35.407  -9.136  1.00  0.00     0.006 C 
BRANCH  13  14
ATOM     14  C   UNL     1      45.032  34.875  -7.693  1.00  0.00     0.053 C 
BRANCH  14  15
ATOM     15  C   UNL     1      45.173  33.387  -7.626  1.00  0.00     0.041 C 
ATOM     16  O   UNL     1      45.884  32.779  -8.469  1.00  0.00    -0.550 OA
ATOM     17  O   UNL     1      44.525  32.669  -6.629  1.00  0.00    -0.550 OA
ENDBRANCH  14  15
ENDBRANCH  13  14
ENDBRANCH  12  13
ENDBRANCH  11  12
ENDBRANCH  10  11
ENDBRANCH   9  10
ENDBRANCH   8   9
ENDBRANCH   7   8
ENDBRANCH   6   7
ENDBRANCH   5   6
ENDBRANCH   4   5
ENDBRANCH   3   4
ENDBRANCH   2   3
ENDBRANCH   1   2
BRANCH   1  18
ATOM     18  C   UNL     1      47.176  34.810 -15.091  1.00  0.00     0.000 C 
BRANCH  18  19
ATOM     19  C   UNL     1      47.278  34.082 -13.737  1.00  0.00     0.000 C 
BRANCH  19  20
ATOM     20  C   UNL     1      47.295  34.997 -12.498  1.00  0.00     0.000 C 
BRANCH  20  21
ATOM     21  C   UNL     1      47.901  36.381 -12.781  1.00  0.00     0.000 C 
BRANCH  21  22
ATOM     22  C   UNL     1      49.209  36.623 -12.010  1.00  0.00     0.000 C 
BRANCH  22  23
ATOM     23  C   UNL     1      50.432  36.006 -12.706  1.00  0.00     0.000 C 
BRANCH  23  24
ATOM     24  C   UNL     1      51.289  37.094 -13.371  1.00  0.00    -0.000 C 
BRANCH  24  25
ATOM     25  C   UNL     1      50.742  37.533 -14.741  1.00  0.00    -0.000 C 
BRANCH  25  26
ATOM     26  C   UNL     1      51.793  38.122 -15.703  1.00  0.00    -0.000 C 
BRANCH  26  27
ATOM     27  C   UNL     1      53.236  37.631 -15.473  1.00  0.00    -0.000 C 
BRANCH  27  28
ATOM     28  C   UNL     1      54.232  37.976 -16.598  1.00  0.00    -0.000 C 
BRANCH  28  29
ATOM     29  C   UNL     1      53.836  37.476 -17.999  1.00  0.00    -0.000 C 
BRANCH  29  30
ATOM     30  C   UNL     1      55.028  37.405 -18.968  1.00  0.00    -0.000 C 
BRANCH  30  31
ATOM     31  C   UNL     1      55.130  36.045 -19.676  1.00  0.00    -0.003 C 
ATOM     32  C   UNL     1      55.496  36.172 -21.154  1.00  0.00     0.004 C 
ENDBRANCH  30  31
ENDBRANCH  29  30
ENDBRANCH  28  29
ENDBRANCH  27  28
ENDBRANCH  26  27
ENDBRANCH  25  26
ENDBRANCH  24  25
ENDBRANCH  23  24
ENDBRANCH  22  23
ENDBRANCH  21  22
ENDBRANCH  20  21
ENDBRANCH  19  20
ENDBRANCH  18  19
ENDBRANCH   1  18
TORSDOF 28
ENDMDL
MODEL 2
REMARK VINA RESULT:    -4.036      1.521      5.042
REMARK INTER + INTRA:         -13.519
REMARK INTER:                  -9.926
REMARK INTRA:                  -3.592
REMARK UNBOUND:                -2.875
REMARK SMILES CCCCCCCCCCCCCCCCCCCCCCCCCCCCCC(=O)[O-]
REMARK SMILES IDX 16 1 17 2 18 3 19 4 20 5 21 6 22 7 23 8 24 9 25 10 26 11
REMARK SMILES IDX 27 12 28 13 29 14 30 15 31 16 32 17 15 18 14 19 13 20 12 21
REMARK SMILES IDX 11 22 10 23 9 24 8 25 7 26 6 27 5 28 4 29 3 30 2 31 1 32
REMARK H PARENT
REMARK Flexibility Score: inf
ROOT
ATOM      1  C   UNL     1      49.138  35.045 -16.299  1.00  0.00     0.000 C 
ENDROOT
BRANCH   1   2
ATOM      2  C   UNL     1      47.688  35.091 -16.807  1.00  0.00     0.000 C 
BRANCH   2   3
ATOM      3  C   UNL     1      47.339  36.418 -17.498  1.00  0.00     0.000 C 
BRANCH   3   4
ATOM      4  C   UNL     1      47.303  37.570 -16.487  1.00  0.00     0.000 C 
BRANCH   4   5
ATOM      5  C   UNL     1      45.921  37.682 -15.828  1.00  0.00     0.000 C 
BRANCH   5   6
ATOM      6  C   UNL     1      45.986  37.670 -14.289  1.00  0.00     0.000 C 
BRANCH   6   7
ATOM      7  C   UNL     1      44.630  37.850 -13.577  1.00  0.00     0.000 C 
BRANCH   7   8
ATOM      8  C   UNL     1      43.778  36.571 -13.466  1.00  0.00     0.000 C 
BRANCH   8   9
ATOM      9  C   UNL     1      43.202  36.295 -12.063  1.00  0.00     0.000 C 
BRANCH   9  10
ATOM     10  C   UNL     1      42.882  37.553 -11.228  1.00  0.00     0.000 C 
BRANCH  10  11
ATOM     11  C   UNL     1      42.415  37.276  -9.787  1.00  0.00     0.000 C 
BRANCH  11  12
ATOM     12  C   UNL     1      43.584  37.000  -8.825  1.00  0.00     0.000 C 
BRANCH  12  13
ATOM     13  C   UNL     1      43.897  35.498  -8.682  1.00  0.00     0.006 C 
BRANCH  13  14
ATOM     14  C   UNL     1      45.219  35.208  -7.951  1.00  0.00     0.053 C 
BRANCH  14  15
ATOM     15  C   UNL     1      45.515  33.743  -7.862  1.00  0.00     0.041 C 
ATOM     16  O   UNL     1      44.573  32.907  -7.837  1.00  0.00    -0.550 OA
ATOM     17  O   UNL     1      46.830  33.300  -7.811  1.00  0.00    -0.550 OA
ENDBRANCH  14  15
ENDBRANCH  13  14
ENDBRANCH  12  13
ENDBRANCH  11  12
ENDBRANCH  10  11
ENDBRANCH   9  10
ENDBRANCH   8   9
ENDBRANCH   7   8
ENDBRANCH   6   7
ENDBRANCH   5   6
ENDBRANCH   4   5
ENDBRANCH   3   4
ENDBRANCH   2   3
ENDBRANCH   1   2
BRANCH   1  18
ATOM     18  C   UNL     1      50.025  36.125 -16.941  1.00  0.00     0.000 C 
BRANCH  18  19
ATOM     19  C   UNL     1      51.374  35.575 -17.444  1.00  0.00     0.000 C 
BRANCH  19  20
ATOM     20  C   UNL     1      52.372  36.636 -17.943  1.00  0.00     0.000 C 
BRANCH  20  21
ATOM     21  C   UNL     1      53.399  37.046 -16.875  1.00  0.00     0.000 C 
BRANCH  21  22
ATOM     22  C   UNL     1      52.808  37.997 -15.821  1.00  0.00     0.000 C 
BRANCH  22  23
ATOM     23  C   UNL     1      53.040  37.507 -14.383  1.00  0.00     0.000 C 
BRANCH  23  24
ATOM     24  C   UNL     1      51.811  37.789 -13.505  1.00  0.00    -0.000 C 
BRANCH  24  25
ATOM     25  C   UNL     1      50.554  38.124 -14.326  1.00  0.00    -0.000 C 
BRANCH  25  26
ATOM     26  C   UNL     1      49.222  37.685 -13.685  1.00  0.00    -0.000 C 
BRANCH  26  27
ATOM     27  C   UNL     1      49.174  37.782 -12.148  1.00  0.00    -0.000 C 
BRANCH  27  28
ATOM     28  C   UNL     1      47.811  37.441 -11.512  1.00  0.00    -0.000 C 
BRANCH  28  29
ATOM     29  C   UNL     1      47.736  36.066 -10.825  1.00  0.00    -0.000 C 
BRANCH  29  30
ATOM     30  C   UNL     1      46.628  35.168 -11.402  1.00  0.00    -0.000 C 
BRANCH  30  31
ATOM     31  C   UNL     1      47.108  34.343 -12.606  1.00  0.00    -0.003 C 
ATOM     32  C   UNL     1      46.040  34.200 -13.690  1.00  0.00     0.004 C 
ENDBRANCH  30  31
ENDBRANCH  29  30
ENDBRANCH  28  29
ENDBRANCH  27  28
ENDBRANCH  26  27
ENDBRANCH  25  26
ENDBRANCH  24  25
ENDBRANCH  23  24
ENDBRANCH  22  23
ENDBRANCH  21  22
ENDBRANCH  20  21
ENDBRANCH  19  20
ENDBRANCH  18  19
ENDBRANCH   1  18
TORSDOF 28
ENDMDL
MODEL 3
REMARK VINA RESULT:    -3.960      1.271      2.712
REMARK INTER + INTRA:         -13.316
REMARK INTER:                 -10.425
REMARK INTRA:                  -2.891
REMARK UNBOUND:                -2.875
REMARK SMILES CCCCCCCCCCCCCCCCCCCCCCCCCCCCCC(=O)[O-]
REMARK SMILES IDX 16 1 17 2 18 3 19 4 20 5 21 6 22 7 23 8 24 9 25 10 26 11
REMARK SMILES IDX 27 12 28 13 29 14 30 15 31 16 32 17 15 18 14 19 13 20 12 21
REMARK SMILES IDX 11 22 10 23 9 24 8 25 7 26 6 27 5 28 4 29 3 30 2 31 1 32
REMARK H PARENT
REMARK Flexibility Score: inf
ROOT
ATOM      1  C   UNL     1      47.050  34.650 -11.506  1.00  0.00     0.000 C 
ENDROOT
BRANCH   1   2
ATOM      2  C   UNL     1      47.818  35.888 -11.017  1.00  0.00     0.000 C 
BRANCH   2   3
ATOM      3  C   UNL     1      46.979  37.173 -11.075  1.00  0.00     0.000 C 
BRANCH   3   4
ATOM      4  C   UNL     1      46.937  37.737 -12.500  1.00  0.00     0.000 C 
BRANCH   4   5
ATOM      5  C   UNL     1      45.506  38.125 -12.897  1.00  0.00     0.000 C 
BRANCH   5   6
ATOM      6  C   UNL     1      44.711  36.952 -13.501  1.00  0.00     0.000 C 
BRANCH   6   7
ATOM      7  C   UNL     1      43.799  36.202 -12.509  1.00  0.00     0.000 C 
BRANCH   7   8
ATOM      8  C   UNL     1      42.446  36.882 -12.226  1.00  0.00     0.000 C 
BRANCH   8   9
ATOM      9  C   UNL     1      42.109  37.061 -10.733  1.00  0.00     0.000 C 
BRANCH   9  10
ATOM     10  C   UNL     1      43.316  37.369  -9.823  1.00  0.00     0.000 C 
BRANCH  10  11
ATOM     11  C   UNL     1      43.634  36.287  -8.775  1.00  0.00     0.000 C 
BRANCH  11  12
ATOM     12  C   UNL     1      44.577  36.789  -7.667  1.00  0.00     0.000 C 
BRANCH  12  13
ATOM     13  C   UNL     1      45.337  35.644  -6.968  1.00  0.00     0.006 C 
BRANCH  13  14
ATOM     14  C   UNL     1      45.730  34.495  -7.912  1.00  0.00     0.053 C 
BRANCH  14  15
ATOM     15  C   UNL     1      44.959  33.242  -7.641  1.00  0.00     0.041 C 
ATOM     16  O   UNL     1      45.161  32.211  -8.336  1.00  0.00    -0.550 OA
ATOM     17  O   UNL     1      44.020  33.209  -6.619  1.00  0.00    -0.550 OA
ENDBRANCH  14  15
ENDBRANCH  13  14
ENDBRANCH  12  13
ENDBRANCH  11  12
ENDBRANCH  10  11
ENDBRANCH   9  10
ENDBRANCH   8   9
ENDBRANCH   7   8
ENDBRANCH   6   7
ENDBRANCH   5   6
ENDBRANCH   4   5
ENDBRANCH   3   4
ENDBRANCH   2   3
ENDBRANCH   1   2
BRANCH   1  18
ATOM     18  C   UNL     1      46.815  34.661 -13.026  1.00  0.00     0.000 C 
BRANCH  18  19
ATOM     19  C   UNL     1      48.119  34.797 -13.835  1.00  0.00     0.000 C 
BRANCH  19  20
ATOM     20  C   UNL     1      47.941  34.861 -15.364  1.00  0.00     0.000 C 
BRANCH  20  21
ATOM     21  C   UNL     1      47.100  36.064 -15.822  1.00  0.00     0.000 C 
BRANCH  21  22
ATOM     22  C   UNL     1      47.904  37.374 -15.841  1.00  0.00     0.000 C 
BRANCH  22  23
ATOM     23  C   UNL     1      48.606  37.620 -17.186  1.00  0.00     0.000 C 
BRANCH  23  24
ATOM     24  C   UNL     1      50.052  38.089 -16.968  1.00  0.00    -0.000 C 
BRANCH  24  25
ATOM     25  C   UNL     1      50.486  38.030 -15.493  1.00  0.00    -0.000 C 
BRANCH  25  26
ATOM     26  C   UNL     1      51.564  36.976 -15.172  1.00  0.00    -0.000 C 
BRANCH  26  27
ATOM     27  C   UNL     1      53.000  37.524 -15.062  1.00  0.00    -0.000 C 
BRANCH  27  28
ATOM     28  C   UNL     1      53.594  38.073 -16.375  1.00  0.00    -0.000 C 
BRANCH  28  29
ATOM     29  C   UNL     1      53.433  37.154 -17.599  1.00  0.00    -0.000 C 
BRANCH  29  30
ATOM     30  C   UNL     1      54.563  37.326 -18.628  1.00  0.00    -0.000 C 
BRANCH  30  31
ATOM     31  C   UNL     1      54.471  36.310 -19.777  1.00  0.00    -0.003 C 
ATOM     32  C   UNL     1      55.832  35.740 -20.175  1.00  0.00     0.004 C 
ENDBRANCH  30  31
ENDBRANCH  29  30
ENDBRANCH  28  29
ENDBRANCH  27  28
ENDBRANCH  26  27
ENDBRANCH  25  26
ENDBRANCH  24  25
ENDBRANCH  23  24
ENDBRANCH  22  23
ENDBRANCH  21  22
ENDBRANCH  20  21
ENDBRANCH  19  20
ENDBRANCH  18  19
ENDBRANCH   1  18
TORSDOF 28
ENDMDL
MODEL 4
REMARK VINA RESULT:    -3.906      2.839      6.207
REMARK INTER + INTRA:         -13.176
REMARK INTER:                 -10.387
REMARK INTRA:                  -2.788
REMARK UNBOUND:                -2.875
REMARK SMILES CCCCCCCCCCCCCCCCCCCCCCCCCCCCCC(=O)[O-]
REMARK SMILES IDX 16 1 17 2 18 3 19 4 20 5 21 6 22 7 23 8 24 9 25 10 26 11
REMARK SMILES IDX 27 12 28 13 29 14 30 15 31 16 32 17 15 18 14 19 13 20 12 21
REMARK SMILES IDX 11 22 10 23 9 24 8 25 7 26 6 27 5 28 4 29 3 30 2 31 1 32
REMARK H PARENT
REMARK Flexibility Score: inf
ROOT
ATOM      1  C   UNL     1      44.235  36.125  -7.845  1.00  0.00     0.000 C 
ENDROOT
BRANCH   1   2
ATOM      2  C   UNL     1      43.671  35.740  -9.222  1.00  0.00     0.000 C 
BRANCH   2   3
ATOM      3  C   UNL     1      42.506  36.638  -9.663  1.00  0.00     0.000 C 
BRANCH   3   4
ATOM      4  C   UNL     1      43.020  37.881 -10.399  1.00  0.00     0.000 C 
BRANCH   4   5
ATOM      5  C   UNL     1      44.525  38.078 -10.163  1.00  0.00     0.000 C 
BRANCH   5   6
ATOM      6  C   UNL     1      45.336  38.125 -11.471  1.00  0.00     0.000 C 
BRANCH   6   7
ATOM      7  C   UNL     1      44.559  37.713 -12.737  1.00  0.00     0.000 C 
BRANCH   7   8
ATOM      8  C   UNL     1      45.212  36.592 -13.567  1.00  0.00     0.000 C 
BRANCH   8   9
ATOM      9  C   UNL     1      44.904  35.162 -13.082  1.00  0.00     0.000 C 
BRANCH   9  10
ATOM     10  C   UNL     1      45.757  34.053 -13.731  1.00  0.00     0.000 C 
BRANCH  10  11
ATOM     11  C   UNL     1      47.198  34.464 -14.086  1.00  0.00     0.000 C 
BRANCH  11  12
ATOM     12  C   UNL     1      47.347  34.907 -15.553  1.00  0.00     0.000 C 
BRANCH  12  13
ATOM     13  C   UNL     1      48.796  34.790 -16.066  1.00  0.00     0.006 C 
BRANCH  13  14
ATOM     14  C   UNL     1      49.174  35.866 -17.098  1.00  0.00     0.053 C 
BRANCH  14  15
ATOM     15  C   UNL     1      48.196  36.998 -17.131  1.00  0.00     0.041 C 
ATOM     16  O   UNL     1      47.982  37.682 -16.095  1.00  0.00    -0.550 OA
ATOM     17  O   UNL     1      47.522  37.303 -18.306  1.00  0.00    -0.550 OA
ENDBRANCH  14  15
ENDBRANCH  13  14
ENDBRANCH  12  13
ENDBRANCH  11  12
ENDBRANCH  10  11
ENDBRANCH   9  10
ENDBRANCH   8   9
ENDBRANCH   7   8
ENDBRANCH   6   7
ENDBRANCH   5   6
ENDBRANCH   4   5
ENDBRANCH   3   4
ENDBRANCH   2   3
ENDBRANCH   1   2
BRANCH   1  18
ATOM     18  C   UNL     1      44.880  34.935  -7.115  1.00  0.00     0.000 C 
BRANCH  18  19
ATOM     19  C   UNL     1      45.181  33.747  -8.049  1.00  0.00     0.000 C 
BRANCH  19  20
ATOM     20  C   UNL     1      46.674  33.485  -8.321  1.00  0.00     0.000 C 
BRANCH  20  21
ATOM     21  C   UNL     1      47.441  34.753  -8.732  1.00  0.00     0.000 C 
BRANCH  21  22
ATOM     22  C   UNL     1      47.219  35.127 -10.207  1.00  0.00     0.000 C 
BRANCH  22  23
ATOM     23  C   UNL     1      48.151  36.254 -10.680  1.00  0.00     0.000 C 
BRANCH  23  24
ATOM     24  C   UNL     1      48.471  36.106 -12.175  1.00  0.00    -0.000 C 
BRANCH  24  25
ATOM     25  C   UNL     1      49.346  37.251 -12.716  1.00  0.00    -0.000 C 
BRANCH  25  26
ATOM     26  C   UNL     1      50.567  36.802 -13.543  1.00  0.00    -0.000 C 
BRANCH  26  27
ATOM     27  C   UNL     1      51.122  37.861 -14.516  1.00  0.00    -0.000 C 
BRANCH  27  28
ATOM     28  C   UNL     1      52.650  37.827 -14.720  1.00  0.00    -0.000 C 
BRANCH  28  29
ATOM     29  C   UNL     1      53.128  37.024 -15.944  1.00  0.00    -0.000 C 
BRANCH  29  30
ATOM     30  C   UNL     1      53.793  37.907 -17.014  1.00  0.00    -0.000 C 
BRANCH  30  31
ATOM     31  C   UNL     1      53.618  37.342 -18.432  1.00  0.00    -0.003 C 
ATOM     32  C   UNL     1      54.951  37.074 -19.131  1.00  0.00     0.004 C 
ENDBRANCH  30  31
ENDBRANCH  29  30
ENDBRANCH  28  29
ENDBRANCH  27  28
ENDBRANCH  26  27
ENDBRANCH  25  26
ENDBRANCH  24  25
ENDBRANCH  23  24
ENDBRANCH  22  23
ENDBRANCH  21  22
ENDBRANCH  20  21
ENDBRANCH  19  20
ENDBRANCH  18  19
ENDBRANCH   1  18
TORSDOF 28
ENDMDL
MODEL 5
REMARK VINA RESULT:    -3.738      2.994      9.760
REMARK INTER + INTRA:         -12.732
REMARK INTER:                 -10.379
REMARK INTRA:                  -2.353
REMARK UNBOUND:                -2.875
REMARK SMILES CCCCCCCCCCCCCCCCCCCCCCCCCCCCCC(=O)[O-]
REMARK SMILES IDX 16 1 17 2 18 3 19 4 20 5 21 6 22 7 23 8 24 9 25 10 26 11
REMARK SMILES IDX 27 12 28 13 29 14 30 15 31 16 32 17 15 18 14 19 13 20 12 21
REMARK SMILES IDX 11 22 10 23 9 24 8 25 7 26 6 27 5 28 4 29 3 30 2 31 1 32
REMARK H PARENT
REMARK Flexibility Score: inf
ROOT
ATOM      1  C   UNL     1      46.861  35.846 -11.768  1.00  0.00     0.000 C 
ENDROOT
BRANCH   1   2
ATOM      2  C   UNL     1      48.386  36.037 -11.739  1.00  0.00     0.000 C 
BRANCH   2   3
ATOM      3  C   UNL     1      48.933  36.668 -13.028  1.00  0.00     0.000 C 
BRANCH   3   4
ATOM      4  C   UNL     1      50.457  36.520 -13.108  1.00  0.00     0.000 C 
BRANCH   4   5
ATOM      5  C   UNL     1      51.135  37.888 -13.277  1.00  0.00     0.000 C 
BRANCH   5   6
ATOM      6  C   UNL     1      51.687  38.113 -14.697  1.00  0.00     0.000 C 
BRANCH   6   7
ATOM      7  C   UNL     1      53.194  37.828 -14.864  1.00  0.00     0.000 C 
BRANCH   7   8
ATOM      8  C   UNL     1      53.588  37.173 -16.201  1.00  0.00     0.000 C 
BRANCH   8   9
ATOM      9  C   UNL     1      52.462  37.114 -17.252  1.00  0.00     0.000 C 
BRANCH   9  10
ATOM     10  C   UNL     1      51.630  35.816 -17.248  1.00  0.00     0.000 C 
BRANCH  10  11
ATOM     11  C   UNL     1      50.105  36.020 -17.189  1.00  0.00     0.000 C 
BRANCH  11  12
ATOM     12  C   UNL     1      49.357  34.778 -16.674  1.00  0.00     0.000 C 
BRANCH  12  13
ATOM     13  C   UNL     1      47.982  35.120 -16.068  1.00  0.00     0.006 C 
BRANCH  13  14
ATOM     14  C   UNL     1      47.146  36.080 -16.931  1.00  0.00     0.053 C 
BRANCH  14  15
ATOM     15  C   UNL     1      46.937  37.408 -16.272  1.00  0.00     0.041 C 
ATOM     16  O   UNL     1      47.926  38.108 -15.928  1.00  0.00    -0.550 OA
ATOM     17  O   UNL     1      45.650  37.876 -16.040  1.00  0.00    -0.550 OA
ENDBRANCH  14  15
ENDBRANCH  13  14
ENDBRANCH  12  13
ENDBRANCH  11  12
ENDBRANCH  10  11
ENDBRANCH   9  10
ENDBRANCH   8   9
ENDBRANCH   7   8
ENDBRANCH   6   7
ENDBRANCH   5   6
ENDBRANCH   4   5
ENDBRANCH   3   4
ENDBRANCH   2   3
ENDBRANCH   1   2
BRANCH   1  18
ATOM     18  C   UNL     1      46.098  37.094 -11.291  1.00  0.00     0.000 C 
BRANCH  18  19
ATOM     19  C   UNL     1      45.796  38.086 -12.430  1.00  0.00     0.000 C 
BRANCH  19  20
ATOM     20  C   UNL     1      44.366  38.020 -12.998  1.00  0.00     0.000 C 
BRANCH  20  21
ATOM     21  C   UNL     1      43.706  36.644 -12.807  1.00  0.00     0.000 C 
BRANCH  21  22
ATOM     22  C   UNL     1      42.591  36.665 -11.749  1.00  0.00     0.000 C 
BRANCH  22  23
ATOM     23  C   UNL     1      42.038  38.077 -11.498  1.00  0.00     0.000 C 
BRANCH  23  24
ATOM     24  C   UNL     1      40.908  38.043 -10.458  1.00  0.00    -0.000 C 
BRANCH  24  25
ATOM     25  C   UNL     1      41.422  37.853  -9.020  1.00  0.00    -0.000 C 
BRANCH  25  26
ATOM     26  C   UNL     1      42.935  38.084  -8.833  1.00  0.00    -0.000 C 
BRANCH  26  27
ATOM     27  C   UNL     1      43.455  37.868  -7.398  1.00  0.00    -0.000 C 
BRANCH  27  28
ATOM     28  C   UNL     1      44.625  36.871  -7.270  1.00  0.00    -0.000 C 
BRANCH  28  29
ATOM     29  C   UNL     1      45.170  36.328  -8.603  1.00  0.00    -0.000 C 
BRANCH  29  30
ATOM     30  C   UNL     1      45.026  34.802  -8.730  1.00  0.00    -0.000 C 
BRANCH  30  31
ATOM     31  C   UNL     1      45.467  34.063  -7.456  1.00  0.00    -0.003 C 
ATOM     32  C   UNL     1      44.689  32.768  -7.223  1.00  0.00     0.004 C 
ENDBRANCH  30  31
ENDBRANCH  29  30
ENDBRANCH  28  29
ENDBRANCH  27  28
ENDBRANCH  26  27
ENDBRANCH  25  26
ENDBRANCH  24  25
ENDBRANCH  23  24
ENDBRANCH  22  23
ENDBRANCH  21  22
ENDBRANCH  20  21
ENDBRANCH  19  20
ENDBRANCH  18  19
ENDBRANCH   1  18
TORSDOF 28
ENDMDL
MODEL 6
REMARK VINA RESULT:    -3.729      1.646      4.518
REMARK INTER + INTRA:         -12.709
REMARK INTER:                  -9.704
REMARK INTRA:                  -3.005
REMARK UNBOUND:                -2.875
REMARK SMILES CCCCCCCCCCCCCCCCCCCCCCCCCCCCCC(=O)[O-]
REMARK SMILES IDX 16 1 17 2 18 3 19 4 20 5 21 6 22 7 23 8 24 9 25 10 26 11
REMARK SMILES IDX 27 12 28 13 29 14 30 15 31 16 32 17 15 18 14 19 13 20 12 21
REMARK SMILES IDX 11 22 10 23 9 24 8 25 7 26 6 27 5 28 4 29 3 30 2 31 1 32
REMARK H PARENT
REMARK Flexibility Score: inf
ROOT
ATOM      1  C   UNL     1      47.617  34.713 -13.976  1.00  0.00     0.000 C 
ENDROOT
BRANCH   1   2
ATOM      2  C   UNL     1      46.624  34.315 -12.873  1.00  0.00     0.000 C 
BRANCH   2   3
ATOM      3  C   UNL     1      45.387  35.224 -12.826  1.00  0.00     0.000 C 
BRANCH   3   4
ATOM      4  C   UNL     1      45.617  36.415 -11.889  1.00  0.00     0.000 C 
BRANCH   4   5
ATOM      5  C   UNL     1      44.761  37.619 -12.308  1.00  0.00     0.000 C 
BRANCH   5   6
ATOM      6  C   UNL     1      43.445  37.210 -12.995  1.00  0.00     0.000 C 
BRANCH   6   7
ATOM      7  C   UNL     1      42.251  36.995 -12.044  1.00  0.00     0.000 C 
BRANCH   7   8
ATOM      8  C   UNL     1      42.154  38.002 -10.882  1.00  0.00     0.000 C 
BRANCH   8   9
ATOM      9  C   UNL     1      41.587  37.425  -9.569  1.00  0.00     0.000 C 
BRANCH   9  10
ATOM     10  C   UNL     1      42.131  38.076  -8.280  1.00  0.00     0.000 C 
BRANCH  10  11
ATOM     11  C   UNL     1      43.577  37.692  -7.918  1.00  0.00     0.000 C 
BRANCH  11  12
ATOM     12  C   UNL     1      44.204  36.711  -8.924  1.00  0.00     0.000 C 
BRANCH  12  13
ATOM     13  C   UNL     1      44.288  35.272  -8.379  1.00  0.00     0.006 C 
BRANCH  13  14
ATOM     14  C   UNL     1      45.606  34.556  -8.723  1.00  0.00     0.053 C 
BRANCH  14  15
ATOM     15  C   UNL     1      45.737  33.235  -8.033  1.00  0.00     0.041 C 
ATOM     16  O   UNL     1      46.821  32.915  -7.477  1.00  0.00    -0.550 OA
ATOM     17  O   UNL     1      44.661  32.357  -7.998  1.00  0.00    -0.550 OA
ENDBRANCH  14  15
ENDBRANCH  13  14
ENDBRANCH  12  13
ENDBRANCH  11  12
ENDBRANCH  10  11
ENDBRANCH   9  10
ENDBRANCH   8   9
ENDBRANCH   7   8
ENDBRANCH   6   7
ENDBRANCH   5   6
ENDBRANCH   4   5
ENDBRANCH   3   4
ENDBRANCH   2   3
ENDBRANCH   1   2
BRANCH   1  18
ATOM     18  C   UNL     1      46.919  35.090 -15.294  1.00  0.00     0.000 C 
BRANCH  18  19
ATOM     19  C   UNL     1      46.721  36.609 -15.456  1.00  0.00     0.000 C 
BRANCH  19  20
ATOM     20  C   UNL     1      47.771  37.319 -16.331  1.00  0.00     0.000 C 
BRANCH  20  21
ATOM     21  C   UNL     1      48.619  36.344 -17.164  1.00  0.00     0.000 C 
BRANCH  21  22
ATOM     22  C   UNL     1      50.062  36.836 -17.364  1.00  0.00     0.000 C 
BRANCH  22  23
ATOM     23  C   UNL     1      51.103  35.884 -16.755  1.00  0.00     0.000 C 
BRANCH  23  24
ATOM     24  C   UNL     1      52.512  36.218 -17.267  1.00  0.00    -0.000 C 
BRANCH  24  25
ATOM     25  C   UNL     1      52.864  37.709 -17.126  1.00  0.00    -0.000 C 
BRANCH  25  26
ATOM     26  C   UNL     1      53.395  38.124 -15.739  1.00  0.00    -0.000 C 
BRANCH  26  27
ATOM     27  C   UNL     1      52.764  37.376 -14.548  1.00  0.00    -0.000 C 
BRANCH  27  28
ATOM     28  C   UNL     1      51.591  38.107 -13.864  1.00  0.00    -0.000 C 
BRANCH  28  29
ATOM     29  C   UNL     1      50.316  37.265 -13.675  1.00  0.00    -0.000 C 
BRANCH  29  30
ATOM     30  C   UNL     1      50.299  36.498 -12.342  1.00  0.00    -0.000 C 
BRANCH  30  31
ATOM     31  C   UNL     1      48.995  36.712 -11.558  1.00  0.00    -0.003 C 
ATOM     32  C   UNL     1      48.809  35.700 -10.428  1.00  0.00     0.004 C 
ENDBRANCH  30  31
ENDBRANCH  29  30
ENDBRANCH  28  29
ENDBRANCH  27  28
ENDBRANCH  26  27
ENDBRANCH  25  26
ENDBRANCH  24  25
ENDBRANCH  23  24
ENDBRANCH  22  23
ENDBRANCH  21  22
ENDBRANCH  20  21
ENDBRANCH  19  20
ENDBRANCH  18  19
ENDBRANCH   1  18
TORSDOF 28
ENDMDL
MODEL 7
REMARK VINA RESULT:    -3.427      2.503      9.031
REMARK INTER + INTRA:         -11.912
REMARK INTER:                  -9.491
REMARK INTRA:                  -2.421
REMARK UNBOUND:                -2.875
REMARK SMILES CCCCCCCCCCCCCCCCCCCCCCCCCCCCCC(=O)[O-]
REMARK SMILES IDX 16 1 17 2 18 3 19 4 20 5 21 6 22 7 23 8 24 9 25 10 26 11
REMARK SMILES IDX 27 12 28 13 29 14 30 15 31 16 32 17 15 18 14 19 13 20 12 21
REMARK SMILES IDX 11 22 10 23 9 24 8 25 7 26 6 27 5 28 4 29 3 30 2 31 1 32
REMARK H PARENT
REMARK Flexibility Score: inf
ROOT
ATOM      1  C   UNL     1      45.264  36.076 -13.470  1.00  0.00     0.000 C 
ENDROOT
BRANCH   1   2
ATOM      2  C   UNL     1      46.231  37.186 -13.913  1.00  0.00     0.000 C 
BRANCH   2   3
ATOM      3  C   UNL     1      46.184  37.451 -15.425  1.00  0.00     0.000 C 
BRANCH   3   4
ATOM      4  C   UNL     1      47.056  36.446 -16.186  1.00  0.00     0.000 C 
BRANCH   4   5
ATOM      5  C   UNL     1      47.205  36.851 -17.660  1.00  0.00     0.000 C 
BRANCH   5   6
ATOM      6  C   UNL     1      48.464  37.697 -17.926  1.00  0.00     0.000 C 
BRANCH   6   7
ATOM      7  C   UNL     1      49.611  37.497 -16.915  1.00  0.00     0.000 C 
BRANCH   7   8
ATOM      8  C   UNL     1      50.324  36.134 -17.001  1.00  0.00     0.000 C 
BRANCH   8   9
ATOM      9  C   UNL     1      51.859  36.195 -16.867  1.00  0.00     0.000 C 
BRANCH   9  10
ATOM     10  C   UNL     1      52.414  37.521 -16.307  1.00  0.00     0.000 C 
BRANCH  10  11
ATOM     11  C   UNL     1      52.950  37.445 -14.865  1.00  0.00     0.000 C 
BRANCH  11  12
ATOM     12  C   UNL     1      51.947  37.979 -13.828  1.00  0.00     0.000 C 
BRANCH  12  13
ATOM     13  C   UNL     1      50.914  36.920 -13.397  1.00  0.00     0.006 C 
BRANCH  13  14
ATOM     14  C   UNL     1      49.591  37.516 -12.887  1.00  0.00     0.053 C 
BRANCH  14  15
ATOM     15  C   UNL     1      48.802  36.544 -12.068  1.00  0.00     0.041 C 
ATOM     16  O   UNL     1      48.772  35.325 -12.386  1.00  0.00    -0.550 OA
ATOM     17  O   UNL     1      48.102  36.980 -10.950  1.00  0.00    -0.550 OA
ENDBRANCH  14  15
ENDBRANCH  13  14
ENDBRANCH  12  13
ENDBRANCH  11  12
ENDBRANCH  10  11
ENDBRANCH   9  10
ENDBRANCH   8   9
ENDBRANCH   7   8
ENDBRANCH   6   7
ENDBRANCH   5   6
ENDBRANCH   4   5
ENDBRANCH   3   4
ENDBRANCH   2   3
ENDBRANCH   1   2
BRANCH   1  18
ATOM     18  C   UNL     1      44.864  36.195 -11.990  1.00  0.00     0.000 C 
BRANCH  18  19
ATOM     19  C   UNL     1      44.361  37.602 -11.614  1.00  0.00     0.000 C 
BRANCH  19  20
ATOM     20  C   UNL     1      43.112  38.080 -12.379  1.00  0.00     0.000 C 
BRANCH  20  21
ATOM     21  C   UNL     1      41.803  37.812 -11.619  1.00  0.00     0.000 C 
BRANCH  21  22
ATOM     22  C   UNL     1      42.030  37.069 -10.293  1.00  0.00     0.000 C 
BRANCH  22  23
ATOM     23  C   UNL     1      41.246  37.687  -9.124  1.00  0.00     0.000 C 
BRANCH  23  24
ATOM     24  C   UNL     1      42.087  37.684  -7.840  1.00  0.00    -0.000 C 
BRANCH  24  25
ATOM     25  C   UNL     1      43.544  38.120  -8.077  1.00  0.00    -0.000 C 
BRANCH  25  26
ATOM     26  C   UNL     1      44.607  37.248  -7.380  1.00  0.00    -0.000 C 
BRANCH  26  27
ATOM     27  C   UNL     1      44.645  35.776  -7.836  1.00  0.00    -0.000 C 
BRANCH  27  28
ATOM     28  C   UNL     1      45.591  35.481  -9.018  1.00  0.00    -0.000 C 
BRANCH  28  29
ATOM     29  C   UNL     1      46.416  34.188  -8.887  1.00  0.00    -0.000 C 
BRANCH  29  30
ATOM     30  C   UNL     1      46.360  33.584  -7.474  1.00  0.00    -0.000 C 
BRANCH  30  31
ATOM     31  C   UNL     1      45.099  32.738  -7.246  1.00  0.00    -0.003 C 
ATOM     32  C   UNL     1      44.442  32.289  -8.551  1.00  0.00     0.004 C 
ENDBRANCH  30  31
ENDBRANCH  29  30
ENDBRANCH  28  29
ENDBRANCH  27  28
ENDBRANCH  26  27
ENDBRANCH  25  26
ENDBRANCH  24  25
ENDBRANCH  23  24
ENDBRANCH  22  23
ENDBRANCH  21  22
ENDBRANCH  20  21
ENDBRANCH  19  20
ENDBRANCH  18  19
ENDBRANCH   1  18
TORSDOF 28
ENDMDL
MODEL 8
REMARK VINA RESULT:    -3.281      4.140     10.121
REMARK INTER + INTRA:         -11.526
REMARK INTER:                  -8.862
REMARK INTRA:                  -2.664
REMARK UNBOUND:                -2.875
REMARK SMILES CCCCCCCCCCCCCCCCCCCCCCCCCCCCCC(=O)[O-]
REMARK SMILES IDX 16 1 17 2 18 3 19 4 20 5 21 6 22 7 23 8 24 9 25 10 26 11
REMARK SMILES IDX 27 12 28 13 29 14 30 15 31 16 32 17 15 18 14 19 13 20 12 21
REMARK SMILES IDX 11 22 10 23 9 24 8 25 7 26 6 27 5 28 4 29 3 30 2 31 1 32
REMARK H PARENT
REMARK Flexibility Score: inf
ROOT
ATOM      1  C   UNL     1      48.551  36.105 -16.226  1.00  0.00     0.000 C 
ENDROOT
BRANCH   1   2
ATOM      2  C   UNL     1      48.060  34.666 -16.001  1.00  0.00     0.000 C 
BRANCH   2   3
ATOM      3  C   UNL     1      47.147  34.531 -14.772  1.00  0.00     0.000 C 
BRANCH   3   4
ATOM      4  C   UNL     1      47.933  34.765 -13.477  1.00  0.00     0.000 C 
BRANCH   4   5
ATOM      5  C   UNL     1      47.496  36.069 -12.795  1.00  0.00     0.000 C 
BRANCH   5   6
ATOM      6  C   UNL     1      48.647  36.777 -12.057  1.00  0.00     0.000 C 
BRANCH   6   7
ATOM      7  C   UNL     1      49.992  36.795 -12.811  1.00  0.00     0.000 C 
BRANCH   7   8
ATOM      8  C   UNL     1      50.312  38.115 -13.539  1.00  0.00     0.000 C 
BRANCH   8   9
ATOM      9  C   UNL     1      51.506  38.046 -14.512  1.00  0.00     0.000 C 
BRANCH   9  10
ATOM     10  C   UNL     1      51.133  37.823 -15.992  1.00  0.00     0.000 C 
BRANCH  10  11
ATOM     11  C   UNL     1      52.299  37.390 -16.899  1.00  0.00     0.000 C 
BRANCH  11  12
ATOM     12  C   UNL     1      53.676  37.714 -16.295  1.00  0.00     0.000 C 
BRANCH  12  13
ATOM     13  C   UNL     1      54.803  37.713 -17.346  1.00  0.00     0.006 C 
BRANCH  13  14
ATOM     14  C   UNL     1      54.297  37.634 -18.796  1.00  0.00     0.053 C 
BRANCH  14  15
ATOM     15  C   UNL     1      54.995  36.575 -19.590  1.00  0.00     0.041 C 
ATOM     16  O   UNL     1      54.613  36.303 -20.760  1.00  0.00    -0.550 OA
ATOM     17  O   UNL     1      56.072  35.889 -19.043  1.00  0.00    -0.550 OA
ENDBRANCH  14  15
ENDBRANCH  13  14
ENDBRANCH  12  13
ENDBRANCH  11  12
ENDBRANCH  10  11
ENDBRANCH   9  10
ENDBRANCH   8   9
ENDBRANCH   7   8
ENDBRANCH   6   7
ENDBRANCH   5   6
ENDBRANCH   4   5
ENDBRANCH   3   4
ENDBRANCH   2   3
ENDBRANCH   1   2
BRANCH   1  18
ATOM     18  C   UNL     1      47.460  37.019 -16.808  1.00  0.00     0.000 C 
BRANCH  18  19
ATOM     19  C   UNL     1      46.998  38.108 -15.821  1.00  0.00     0.000 C 
BRANCH  19  20
ATOM     20  C   UNL     1      45.487  38.125 -15.521  1.00  0.00     0.000 C 
BRANCH  20  21
ATOM     21  C   UNL     1      45.168  37.911 -14.032  1.00  0.00     0.000 C 
BRANCH  21  22
ATOM     22  C   UNL     1      43.658  37.916 -13.743  1.00  0.00     0.000 C 
BRANCH  22  23
ATOM     23  C   UNL     1      43.327  37.472 -12.310  1.00  0.00     0.000 C 
BRANCH  23  24
ATOM     24  C   UNL     1      42.017  38.115 -11.829  1.00  0.00    -0.000 C 
BRANCH  24  25
ATOM     25  C   UNL     1      41.714  37.821 -10.349  1.00  0.00    -0.000 C 
BRANCH  25  26
ATOM     26  C   UNL     1      42.863  37.151  -9.569  1.00  0.00    -0.000 C 
BRANCH  26  27
ATOM     27  C   UNL     1      44.132  38.012  -9.409  1.00  0.00    -0.000 C 
BRANCH  27  28
ATOM     28  C   UNL     1      45.463  37.236  -9.477  1.00  0.00    -0.000 C 
BRANCH  28  29
ATOM     29  C   UNL     1      45.543  35.996  -8.568  1.00  0.00    -0.000 C 
BRANCH  29  30
ATOM     30  C   UNL     1      46.278  34.817  -9.228  1.00  0.00    -0.000 C 
BRANCH  30  31
ATOM     31  C   UNL     1      45.761  33.455  -8.739  1.00  0.00    -0.003 C 
ATOM     32  C   UNL     1      46.515  32.941  -7.513  1.00  0.00     0.004 C 
ENDBRANCH  30  31
ENDBRANCH  29  30
ENDBRANCH  28  29
ENDBRANCH  27  28
ENDBRANCH  26  27
ENDBRANCH  25  26
ENDBRANCH  24  25
ENDBRANCH  23  24
ENDBRANCH  22  23
ENDBRANCH  21  22
ENDBRANCH  20  21
ENDBRANCH  19  20
ENDBRANCH  18  19
ENDBRANCH   1  18
TORSDOF 28
ENDMDL
MODEL 9
REMARK VINA RESULT:    -3.130      1.258      3.268
REMARK INTER + INTRA:         -11.129
REMARK INTER:                  -9.392
REMARK INTRA:                  -1.737
REMARK UNBOUND:                -2.875
REMARK SMILES CCCCCCCCCCCCCCCCCCCCCCCCCCCCCC(=O)[O-]
REMARK SMILES IDX 16 1 17 2 18 3 19 4 20 5 21 6 22 7 23 8 24 9 25 10 26 11
REMARK SMILES IDX 27 12 28 13 29 14 30 15 31 16 32 17 15 18 14 19 13 20 12 21
REMARK SMILES IDX 11 22 10 23 9 24 8 25 7 26 6 27 5 28 4 29 3 30 2 31 1 32
REMARK H PARENT
REMARK Flexibility Score: inf
ROOT
ATOM      1  C   UNL     1      50.105  36.994 -12.047  1.00  0.00     0.000 C 
ENDROOT
BRANCH   1   2
ATOM      2  C   UNL     1      48.593  37.123 -11.805  1.00  0.00     0.000 C 
BRANCH   2   3
ATOM      3  C   UNL     1      48.096  36.246 -10.646  1.00  0.00     0.000 C 
BRANCH   3   4
ATOM      4  C   UNL     1      47.231  35.091 -11.164  1.00  0.00     0.000 C 
BRANCH   4   5
ATOM      5  C   UNL     1      47.114  35.134 -12.695  1.00  0.00     0.000 C 
BRANCH   5   6
ATOM      6  C   UNL     1      45.734  34.679 -13.204  1.00  0.00     0.000 C 
BRANCH   6   7
ATOM      7  C   UNL     1      44.545  35.532 -12.720  1.00  0.00     0.000 C 
BRANCH   7   8
ATOM      8  C   UNL     1      44.256  36.787 -13.566  1.00  0.00     0.000 C 
BRANCH   8   9
ATOM      9  C   UNL     1      44.605  38.125 -12.883  1.00  0.00     0.000 C 
BRANCH   9  10
ATOM     10  C   UNL     1      44.613  38.089 -11.341  1.00  0.00     0.000 C 
BRANCH  10  11
ATOM     11  C   UNL     1      44.061  36.794 -10.717  1.00  0.00     0.000 C 
BRANCH  11  12
ATOM     12  C   UNL     1      43.834  36.913  -9.200  1.00  0.00     0.000 C 
BRANCH  12  13
ATOM     13  C   UNL     1      44.655  35.888  -8.393  1.00  0.00     0.006 C 
BRANCH  13  14
ATOM     14  C   UNL     1      44.081  34.462  -8.438  1.00  0.00     0.053 C 
BRANCH  14  15
ATOM     15  C   UNL     1      44.894  33.492  -7.639  1.00  0.00     0.041 C 
ATOM     16  O   UNL     1      46.070  33.210  -7.991  1.00  0.00    -0.550 OA
ATOM     17  O   UNL     1      44.356  32.901  -6.503  1.00  0.00    -0.550 OA
ENDBRANCH  14  15
ENDBRANCH  13  14
ENDBRANCH  12  13
ENDBRANCH  11  12
ENDBRANCH  10  11
ENDBRANCH   9  10
ENDBRANCH   8   9
ENDBRANCH   7   8
ENDBRANCH   6   7
ENDBRANCH   5   6
ENDBRANCH   4   5
ENDBRANCH   3   4
ENDBRANCH   2   3
ENDBRANCH   1   2
BRANCH   1  18
ATOM     18  C   UNL     1      50.477  37.091 -13.537  1.00  0.00     0.000 C 
BRANCH  18  19
ATOM     19  C   UNL     1      49.277  36.854 -14.473  1.00  0.00     0.000 C 
BRANCH  19  20
ATOM     20  C   UNL     1      48.662  38.124 -15.089  1.00  0.00     0.000 C 
BRANCH  20  21
ATOM     21  C   UNL     1      47.319  37.863 -15.791  1.00  0.00     0.000 C 
BRANCH  21  22
ATOM     22  C   UNL     1      47.123  36.383 -16.159  1.00  0.00     0.000 C 
BRANCH  22  23
ATOM     23  C   UNL     1      48.075  35.918 -17.272  1.00  0.00     0.000 C 
BRANCH  23  24
ATOM     24  C   UNL     1      49.206  35.053 -16.696  1.00  0.00    -0.000 C 
BRANCH  24  25
ATOM     25  C   UNL     1      50.519  35.178 -17.489  1.00  0.00    -0.000 C 
BRANCH  25  26
ATOM     26  C   UNL     1      51.188  36.565 -17.426  1.00  0.00    -0.000 C 
BRANCH  26  27
ATOM     27  C   UNL     1      52.416  36.656 -16.497  1.00  0.00    -0.000 C 
BRANCH  27  28
ATOM     28  C   UNL     1      53.271  37.928 -16.665  1.00  0.00    -0.000 C 
BRANCH  28  29
ATOM     29  C   UNL     1      54.665  37.703 -17.278  1.00  0.00    -0.000 C 
BRANCH  29  30
ATOM     30  C   UNL     1      54.664  37.791 -18.814  1.00  0.00    -0.000 C 
BRANCH  30  31
ATOM     31  C   UNL     1      54.350  36.443 -19.480  1.00  0.00    -0.003 C 
ATOM     32  C   UNL     1      55.350  36.077 -20.576  1.00  0.00     0.004 C 
ENDBRANCH  30  31
ENDBRANCH  29  30
ENDBRANCH  28  29
ENDBRANCH  27  28
ENDBRANCH  26  27
ENDBRANCH  25  26
ENDBRANCH  24  25
ENDBRANCH  23  24
ENDBRANCH  22  23
ENDBRANCH  21  22
ENDBRANCH  20  21
ENDBRANCH  19  20
ENDBRANCH  18  19
ENDBRANCH   1  18
TORSDOF 28
ENDMDL
