MODEL 1
REMARK VINA RESULT:    -4.566      0.000      0.000
REMARK INTER + INTRA:          -8.465
REMARK INTER:                  -7.769
REMARK INTRA:                  -0.696
REMARK UNBOUND:                -0.696
REMARK SMILES CCCCCCCCCCCCCC(=O)[O-]
REMARK SMILES IDX 8 1 9 2 10 3 11 4 12 5 13 6 14 7 15 8 16 9 7 10 6 11 5 12
REMARK SMILES IDX 4 13 3 14 2 15 1 16
REMARK H PARENT
REMARK Flexibility Score: inf
ROOT
ATOM      1  C   UNL     1      45.356  65.474  50.688  1.00  0.00     0.000 C 
ENDROOT
BRANCH   1   2
ATOM      2  C   UNL     1      44.669  66.659  49.988  1.00  0.00     0.000 C 
BRANCH   2   3
ATOM      3  C   UNL     1      44.353  66.373  48.512  1.00  0.00     0.000 C 
BRANCH   3   4
ATOM      4  C   UNL     1      43.372  67.392  47.909  1.00  0.00     0.000 C 
BRANCH   4   5
ATOM      5  C   UNL     1      41.935  66.840  47.811  1.00  0.00     0.006 C 
BRANCH   5   6
ATOM      6  C   UNL     1      41.575  66.304  46.416  1.00  0.00     0.053 C 
BRANCH   6   7
ATOM      7  C   UNL     1      41.682  64.814  46.332  1.00  0.00     0.041 C 
ATOM      8  O   UNL     1      42.679  64.281  45.778  1.00  0.00    -0.550 OA
ATOM      9  O   UNL     1      40.668  64.013  46.843  1.00  0.00    -0.550 OA
ENDBRANCH   6   7
ENDBRANCH   5   6
ENDBRANCH   4   5
ENDBRANCH   3   4
ENDBRANCH   2   3
ENDBRANCH   1   2
BRANCH   1  10
ATOM     10  C   UNL     1      44.810  65.226  52.103  1.00  0.00     0.000 C 
BRANCH  10  11
ATOM     11  C   UNL     1      43.935  66.383  52.610  1.00  0.00    -0.000 C 
BRANCH  11  12
ATOM     12  C   UNL     1      42.813  65.867  53.519  1.00  0.00    -0.000 C 
BRANCH  12  13
ATOM     13  C   UNL     1      43.313  64.730  54.421  1.00  0.00    -0.000 C 
BRANCH  13  14
ATOM     14  C   UNL     1      42.863  64.891  55.882  1.00  0.00    -0.000 C 
BRANCH  14  15
ATOM     15  C   UNL     1      43.686  64.031  56.852  1.00  0.00    -0.003 C 
ATOM     16  C   UNL     1      44.468  62.955  56.103  1.00  0.00     0.004 C 
ENDBRANCH  14  15
ENDBRANCH  13  14
ENDBRANCH  12  13
ENDBRANCH  11  12
ENDBRANCH  10  11
ENDBRANCH   1  10
TORSDOF 12
ENDMDL
MODEL 2
REMARK VINA RESULT:    -4.245      3.104      7.107
REMARK INTER + INTRA:          -7.920
REMARK INTER:                  -6.685
REMARK INTRA:                  -1.235
REMARK UNBOUND:                -0.696
REMARK SMILES CCCCCCCCCCCCCC(=O)[O-]
REMARK SMILES IDX 8 1 9 2 10 3 11 4 12 5 13 6 14 7 15 8 16 9 7 10 6 11 5 12
REMARK SMILES IDX 4 13 3 14 2 15 1 16
REMARK H PARENT
REMARK Flexibility Score: inf
ROOT
ATOM      1  C   UNL     1      43.765  67.594  49.397  1.00  0.00     0.000 C 
ENDROOT
BRANCH   1   2
ATOM      2  C   UNL     1      44.538  66.308  49.057  1.00  0.00     0.000 C 
BRANCH   2   3
ATOM      3  C   UNL     1      45.480  65.867  50.189  1.00  0.00     0.000 C 
BRANCH   3   4
ATOM      4  C   UNL     1      45.105  66.489  51.545  1.00  0.00     0.000 C 
BRANCH   4   5
ATOM      5  C   UNL     1      44.368  65.494  52.465  1.00  0.00     0.006 C 
BRANCH   5   6
ATOM      6  C   UNL     1      43.218  66.131  53.264  1.00  0.00     0.053 C 
BRANCH   6   7
ATOM      7  C   UNL     1      42.549  65.154  54.178  1.00  0.00     0.041 C 
ATOM      8  O   UNL     1      43.189  64.639  55.132  1.00  0.00    -0.550 OA
ATOM      9  O   UNL     1      41.226  64.790  53.961  1.00  0.00    -0.550 OA
ENDBRANCH   6   7
ENDBRANCH   5   6
ENDBRANCH   4   5
ENDBRANCH   3   4
ENDBRANCH   2   3
ENDBRANCH   1   2
BRANCH   1  10
ATOM     10  C   UNL     1      42.641  67.890  48.391  1.00  0.00     0.000 C 
BRANCH  10  11
ATOM     11  C   UNL     1      41.270  67.394  48.874  1.00  0.00    -0.000 C 
BRANCH  11  12
ATOM     12  C   UNL     1      40.508  66.694  47.742  1.00  0.00    -0.000 C 
BRANCH  12  13
ATOM     13  C   UNL     1      41.113  67.039  46.374  1.00  0.00    -0.000 C 
BRANCH  13  14
ATOM     14  C   UNL     1      41.417  65.792  45.529  1.00  0.00    -0.000 C 
BRANCH  14  15
ATOM     15  C   UNL     1      42.216  64.734  46.303  1.00  0.00    -0.003 C 
ATOM     16  C   UNL     1      43.645  64.633  45.778  1.00  0.00     0.004 C 
ENDBRANCH  14  15
ENDBRANCH  13  14
ENDBRANCH  12  13
ENDBRANCH  11  12
ENDBRANCH  10  11
ENDBRANCH   1  10
TORSDOF 12
ENDMDL
MODEL 3
REMARK VINA RESULT:    -4.239      9.233     11.715
REMARK INTER + INTRA:          -7.910
REMARK INTER:                  -7.320
REMARK INTRA:                  -0.590
REMARK UNBOUND:                -0.696
REMARK SMILES CCCCCCCCCCCCCC(=O)[O-]
REMARK SMILES IDX 8 1 9 2 10 3 11 4 12 5 13 6 14 7 15 8 16 9 7 10 6 11 5 12
REMARK SMILES IDX 4 13 3 14 2 15 1 16
REMARK H PARENT
REMARK Flexibility Score: inf
ROOT
ATOM      1  C   UNL     1      36.041  63.448  55.429  1.00  0.00     0.000 C 
ENDROOT
BRANCH   1   2
ATOM      2  C   UNL     1      37.005  62.709  56.374  1.00  0.00     0.000 C 
BRANCH   2   3
ATOM      3  C   UNL     1      36.419  61.391  56.905  1.00  0.00     0.000 C 
BRANCH   3   4
ATOM      4  C   UNL     1      36.122  60.382  55.782  1.00  0.00     0.000 C 
BRANCH   4   5
ATOM      5  C   UNL     1      37.323  59.460  55.488  1.00  0.00     0.006 C 
BRANCH   5   6
ATOM      6  C   UNL     1      37.531  58.363  56.546  1.00  0.00     0.053 C 
BRANCH   6   7
ATOM      7  C   UNL     1      37.291  56.991  56.000  1.00  0.00     0.041 C 
ATOM      8  O   UNL     1      36.823  56.844  54.840  1.00  0.00    -0.550 OA
ATOM      9  O   UNL     1      37.558  55.874  56.781  1.00  0.00    -0.550 OA
ENDBRANCH   6   7
ENDBRANCH   5   6
ENDBRANCH   4   5
ENDBRANCH   3   4
ENDBRANCH   2   3
ENDBRANCH   1   2
BRANCH   1  10
ATOM     10  C   UNL     1      36.629  64.765  54.898  1.00  0.00     0.000 C 
BRANCH  10  11
ATOM     11  C   UNL     1      35.546  65.787  54.523  1.00  0.00    -0.000 C 
BRANCH  11  12
ATOM     12  C   UNL     1      34.513  65.933  55.647  1.00  0.00    -0.000 C 
BRANCH  12  13
ATOM     13  C   UNL     1      33.415  66.935  55.260  1.00  0.00    -0.000 C 
BRANCH  13  14
ATOM     14  C   UNL     1      32.077  66.251  54.937  1.00  0.00    -0.000 C 
BRANCH  14  15
ATOM     15  C   UNL     1      31.187  67.099  54.017  1.00  0.00    -0.003 C 
ATOM     16  C   UNL     1      31.906  67.433  52.713  1.00  0.00     0.004 C 
ENDBRANCH  14  15
ENDBRANCH  13  14
ENDBRANCH  12  13
ENDBRANCH  11  12
ENDBRANCH  10  11
ENDBRANCH   1  10
TORSDOF 12
ENDMDL
MODEL 4
REMARK VINA RESULT:    -4.185      3.103      7.082
REMARK INTER + INTRA:          -7.816
REMARK INTER:                  -6.781
REMARK INTRA:                  -1.035
REMARK UNBOUND:                -0.696
REMARK SMILES CCCCCCCCCCCCCC(=O)[O-]
REMARK SMILES IDX 8 1 9 2 10 3 11 4 12 5 13 6 14 7 15 8 16 9 7 10 6 11 5 12
REMARK SMILES IDX 4 13 3 14 2 15 1 16
REMARK H PARENT
REMARK Flexibility Score: inf
ROOT
ATOM      1  C   UNL     1      44.238  66.391  48.802  1.00  0.00     0.000 C 
ENDROOT
BRANCH   1   2
ATOM      2  C   UNL     1      43.820  67.519  49.762  1.00  0.00     0.000 C 
BRANCH   2   3
ATOM      3  C   UNL     1      44.665  67.547  51.046  1.00  0.00     0.000 C 
BRANCH   3   4
ATOM      4  C   UNL     1      45.466  66.251  51.254  1.00  0.00     0.000 C 
BRANCH   4   5
ATOM      5  C   UNL     1      44.727  65.239  52.154  1.00  0.00     0.006 C 
BRANCH   5   6
ATOM      6  C   UNL     1      43.674  65.886  53.069  1.00  0.00     0.053 C 
BRANCH   6   7
ATOM      7  C   UNL     1      42.998  64.887  53.954  1.00  0.00     0.041 C 
ATOM      8  O   UNL     1      41.742  64.801  53.968  1.00  0.00    -0.550 OA
ATOM      9  O   UNL     1      43.753  64.068  54.784  1.00  0.00    -0.550 OA
ENDBRANCH   6   7
ENDBRANCH   5   6
ENDBRANCH   4   5
ENDBRANCH   3   4
ENDBRANCH   2   3
ENDBRANCH   1   2
BRANCH   1  10
ATOM     10  C   UNL     1      44.252  66.841  47.333  1.00  0.00     0.000 C 
BRANCH  10  11
ATOM     11  C   UNL     1      43.930  65.697  46.361  1.00  0.00    -0.000 C 
BRANCH  11  12
ATOM     12  C   UNL     1      42.478  65.781  45.873  1.00  0.00    -0.000 C 
BRANCH  12  13
ATOM     13  C   UNL     1      41.624  64.663  46.487  1.00  0.00    -0.000 C 
BRANCH  13  14
ATOM     14  C   UNL     1      40.455  65.204  47.326  1.00  0.00    -0.000 C 
BRANCH  14  15
ATOM     15  C   UNL     1      40.499  66.730  47.486  1.00  0.00    -0.003 C 
ATOM     16  C   UNL     1      39.101  67.299  47.711  1.00  0.00     0.004 C 
ENDBRANCH  14  15
ENDBRANCH  13  14
ENDBRANCH  12  13
ENDBRANCH  11  12
ENDBRANCH  10  11
ENDBRANCH   1  10
TORSDOF 12
ENDMDL
MODEL 5
REMARK VINA RESULT:    -4.135      1.818      3.017
REMARK INTER + INTRA:          -7.732
REMARK INTER:                  -6.916
REMARK INTRA:                  -0.815
REMARK UNBOUND:                -0.696
REMARK SMILES CCCCCCCCCCCCCC(=O)[O-]
REMARK SMILES IDX 8 1 9 2 10 3 11 4 12 5 13 6 14 7 15 8 16 9 7 10 6 11 5 12
REMARK SMILES IDX 4 13 3 14 2 15 1 16
REMARK H PARENT
REMARK Flexibility Score: inf
ROOT
ATOM      1  C   UNL     1      44.259  66.684  48.402  1.00  0.00     0.000 C 
ENDROOT
BRANCH   1   2
ATOM      2  C   UNL     1      43.055  67.507  47.911  1.00  0.00     0.000 C 
BRANCH   2   3
ATOM      3  C   UNL     1      41.786  66.658  47.744  1.00  0.00     0.000 C 
BRANCH   3   4
ATOM      4  C   UNL     1      41.595  66.157  46.302  1.00  0.00     0.000 C 
BRANCH   4   5
ATOM      5  C   UNL     1      41.959  64.667  46.143  1.00  0.00     0.006 C 
BRANCH   5   6
ATOM      6  C   UNL     1      43.401  64.434  45.664  1.00  0.00     0.053 C 
BRANCH   6   7
ATOM      7  C   UNL     1      43.789  65.358  44.553  1.00  0.00     0.041 C 
ATOM      8  O   UNL     1      44.586  66.309  44.769  1.00  0.00    -0.550 OA
ATOM      9  O   UNL     1      43.251  65.187  43.284  1.00  0.00    -0.550 OA
ENDBRANCH   6   7
ENDBRANCH   5   6
ENDBRANCH   4   5
ENDBRANCH   3   4
ENDBRANCH   2   3
ENDBRANCH   1   2
BRANCH   1  10
ATOM     10  C   UNL     1      44.394  66.691  49.933  1.00  0.00     0.000 C 
BRANCH  10  11
ATOM     11  C   UNL     1      45.545  65.803  50.428  1.00  0.00    -0.000 C 
BRANCH  11  12
ATOM     12  C   UNL     1      45.219  65.189  51.795  1.00  0.00    -0.000 C 
BRANCH  12  13
ATOM     13  C   UNL     1      44.057  65.932  52.469  1.00  0.00    -0.000 C 
BRANCH  13  14
ATOM     14  C   UNL     1      43.471  65.158  53.661  1.00  0.00    -0.000 C 
BRANCH  14  15
ATOM     15  C   UNL     1      42.012  65.537  53.952  1.00  0.00    -0.003 C 
ATOM     16  C   UNL     1      41.743  65.573  55.453  1.00  0.00     0.004 C 
ENDBRANCH  14  15
ENDBRANCH  13  14
ENDBRANCH  12  13
ENDBRANCH  11  12
ENDBRANCH  10  11
ENDBRANCH   1  10
TORSDOF 12
ENDMDL
MODEL 6
REMARK VINA RESULT:    -4.127      9.319     10.846
REMARK INTER + INTRA:          -7.718
REMARK INTER:                  -7.190
REMARK INTRA:                  -0.529
REMARK UNBOUND:                -0.696
REMARK SMILES CCCCCCCCCCCCCC(=O)[O-]
REMARK SMILES IDX 8 1 9 2 10 3 11 4 12 5 13 6 14 7 15 8 16 9 7 10 6 11 5 12
REMARK SMILES IDX 4 13 3 14 2 15 1 16
REMARK H PARENT
REMARK Flexibility Score: inf
ROOT
ATOM      1  C   UNL     1      37.595  61.767  55.994  1.00  0.00     0.000 C 
ENDROOT
BRANCH   1   2
ATOM      2  C   UNL     1      36.250  62.345  55.521  1.00  0.00     0.000 C 
BRANCH   2   3
ATOM      3  C   UNL     1      36.089  63.832  55.872  1.00  0.00     0.000 C 
BRANCH   3   4
ATOM      4  C   UNL     1      36.060  64.734  54.625  1.00  0.00     0.000 C 
BRANCH   4   5
ATOM      5  C   UNL     1      35.680  66.191  54.961  1.00  0.00     0.006 C 
BRANCH   5   6
ATOM      6  C   UNL     1      34.736  66.833  53.931  1.00  0.00     0.053 C 
BRANCH   6   7
ATOM      7  C   UNL     1      33.332  66.941  54.435  1.00  0.00     0.041 C 
ATOM      8  O   UNL     1      32.636  67.954  54.162  1.00  0.00    -0.550 OA
ATOM      9  O   UNL     1      32.797  65.934  55.230  1.00  0.00    -0.550 OA
ENDBRANCH   6   7
ENDBRANCH   5   6
ENDBRANCH   4   5
ENDBRANCH   3   4
ENDBRANCH   2   3
ENDBRANCH   1   2
BRANCH   1  10
ATOM     10  C   UNL     1      37.483  60.302  56.444  1.00  0.00     0.000 C 
BRANCH  10  11
ATOM     11  C   UNL     1      36.964  59.379  55.331  1.00  0.00    -0.000 C 
BRANCH  11  12
ATOM     12  C   UNL     1      37.320  57.916  55.618  1.00  0.00    -0.000 C 
BRANCH  12  13
ATOM     13  C   UNL     1      37.595  57.698  57.113  1.00  0.00    -0.000 C 
BRANCH  13  14
ATOM     14  C   UNL     1      37.301  56.259  57.566  1.00  0.00    -0.000 C 
BRANCH  14  15
ATOM     15  C   UNL     1      36.725  55.391  56.438  1.00  0.00    -0.003 C 
ATOM     16  C   UNL     1      35.901  54.237  57.000  1.00  0.00     0.004 C 
ENDBRANCH  14  15
ENDBRANCH  13  14
ENDBRANCH  12  13
ENDBRANCH  11  12
ENDBRANCH  10  11
ENDBRANCH   1  10
TORSDOF 12
ENDMDL
MODEL 7
REMARK VINA RESULT:    -4.121      3.939      7.824
REMARK INTER + INTRA:          -7.707
REMARK INTER:                  -6.895
REMARK INTRA:                  -0.812
REMARK UNBOUND:                -0.696
REMARK SMILES CCCCCCCCCCCCCC(=O)[O-]
REMARK SMILES IDX 8 1 9 2 10 3 11 4 12 5 13 6 14 7 15 8 16 9 7 10 6 11 5 12
REMARK SMILES IDX 4 13 3 14 2 15 1 16
REMARK H PARENT
REMARK Flexibility Score: inf
ROOT
ATOM      1  C   UNL     1      44.975  66.155  50.567  1.00  0.00     0.000 C 
ENDROOT
BRANCH   1   2
ATOM      2  C   UNL     1      44.690  65.674  52.000  1.00  0.00     0.000 C 
BRANCH   2   3
ATOM      3  C   UNL     1      43.764  66.628  52.772  1.00  0.00     0.000 C 
BRANCH   3   4
ATOM      4  C   UNL     1      42.701  65.881  53.596  1.00  0.00     0.000 C 
BRANCH   4   5
ATOM      5  C   UNL     1      43.280  64.652  54.328  1.00  0.00     0.006 C 
BRANCH   5   6
ATOM      6  C   UNL     1      43.035  64.669  55.846  1.00  0.00     0.053 C 
BRANCH   6   7
ATOM      7  C   UNL     1      43.995  63.794  56.588  1.00  0.00     0.041 C 
ATOM      8  O   UNL     1      44.493  62.782  56.028  1.00  0.00    -0.550 OA
ATOM      9  O   UNL     1      44.322  64.080  57.907  1.00  0.00    -0.550 OA
ENDBRANCH   6   7
ENDBRANCH   5   6
ENDBRANCH   4   5
ENDBRANCH   3   4
ENDBRANCH   2   3
ENDBRANCH   1   2
BRANCH   1  10
ATOM     10  C   UNL     1      44.219  67.446  50.216  1.00  0.00     0.000 C 
BRANCH  10  11
ATOM     11  C   UNL     1      43.681  67.444  48.778  1.00  0.00    -0.000 C 
BRANCH  11  12
ATOM     12  C   UNL     1      44.249  66.265  47.979  1.00  0.00    -0.000 C 
BRANCH  12  13
ATOM     13  C   UNL     1      43.481  66.069  46.664  1.00  0.00    -0.000 C 
BRANCH  13  14
ATOM     14  C   UNL     1      42.139  66.819  46.645  1.00  0.00    -0.000 C 
BRANCH  14  15
ATOM     15  C   UNL     1      40.937  65.885  46.847  1.00  0.00    -0.003 C 
ATOM     16  C   UNL     1      39.989  66.434  47.909  1.00  0.00     0.004 C 
ENDBRANCH  14  15
ENDBRANCH  13  14
ENDBRANCH  12  13
ENDBRANCH  11  12
ENDBRANCH  10  11
ENDBRANCH   1  10
TORSDOF 12
ENDMDL
MODEL 8
REMARK VINA RESULT:    -4.111      8.651     10.089
REMARK INTER + INTRA:          -7.691
REMARK INTER:                  -7.063
REMARK INTRA:                  -0.628
REMARK UNBOUND:                -0.696
REMARK SMILES CCCCCCCCCCCCCC(=O)[O-]
REMARK SMILES IDX 8 1 9 2 10 3 11 4 12 5 13 6 14 7 15 8 16 9 7 10 6 11 5 12
REMARK SMILES IDX 4 13 3 14 2 15 1 16
REMARK H PARENT
REMARK Flexibility Score: inf
ROOT
ATOM      1  C   UNL     1      36.174  63.686  55.547  1.00  0.00     0.000 C 
ENDROOT
BRANCH   1   2
ATOM      2  C   UNL     1      36.124  64.728  54.417  1.00  0.00     0.000 C 
BRANCH   2   3
ATOM      3  C   UNL     1      35.510  66.063  54.869  1.00  0.00     0.000 C 
BRANCH   3   4
ATOM      4  C   UNL     1      34.167  65.879  55.596  1.00  0.00     0.000 C 
BRANCH   4   5
ATOM      5  C   UNL     1      33.001  66.571  54.861  1.00  0.00     0.006 C 
BRANCH   5   6
ATOM      6  C   UNL     1      33.457  67.563  53.779  1.00  0.00     0.053 C 
BRANCH   6   7
ATOM      7  C   UNL     1      32.725  67.376  52.488  1.00  0.00     0.041 C 
ATOM      8  O   UNL     1      31.466  67.337  52.474  1.00  0.00    -0.550 OA
ATOM      9  O   UNL     1      33.431  67.218  51.303  1.00  0.00    -0.550 OA
ENDBRANCH   6   7
ENDBRANCH   5   6
ENDBRANCH   4   5
ENDBRANCH   3   4
ENDBRANCH   2   3
ENDBRANCH   1   2
BRANCH   1  10
ATOM     10  C   UNL     1      37.607  63.397  56.022  1.00  0.00     0.000 C 
BRANCH  10  11
ATOM     11  C   UNL     1      37.925  61.895  56.060  1.00  0.00    -0.000 C 
BRANCH  11  12
ATOM     12  C   UNL     1      36.868  61.128  56.863  1.00  0.00    -0.000 C 
BRANCH  12  13
ATOM     13  C   UNL     1      36.207  60.039  56.005  1.00  0.00    -0.000 C 
BRANCH  13  14
ATOM     14  C   UNL     1      37.204  58.969  55.533  1.00  0.00    -0.000 C 
BRANCH  14  15
ATOM     15  C   UNL     1      37.583  57.983  56.647  1.00  0.00    -0.003 C 
ATOM     16  C   UNL     1      37.179  56.558  56.279  1.00  0.00     0.004 C 
ENDBRANCH  14  15
ENDBRANCH  13  14
ENDBRANCH  12  13
ENDBRANCH  11  12
ENDBRANCH  10  11
ENDBRANCH   1  10
TORSDOF 12
ENDMDL
MODEL 9
REMARK VINA RESULT:    -3.972      9.211     11.627
REMARK INTER + INTRA:          -7.455
REMARK INTER:                  -6.423
REMARK INTRA:                  -1.031
REMARK UNBOUND:                -0.696
REMARK SMILES CCCCCCCCCCCCCC(=O)[O-]
REMARK SMILES IDX 8 1 9 2 10 3 11 4 12 5 13 6 14 7 15 8 16 9 7 10 6 11 5 12
REMARK SMILES IDX 4 13 3 14 2 15 1 16
REMARK H PARENT
REMARK Flexibility Score: inf
ROOT
ATOM      1  C   UNL     1      35.683  65.312  55.224  1.00  0.00     0.000 C 
ENDROOT
BRANCH   1   2
ATOM      2  C   UNL     1      36.112  65.040  56.676  1.00  0.00     0.000 C 
BRANCH   2   3
ATOM      3  C   UNL     1      36.161  63.540  57.008  1.00  0.00     0.000 C 
BRANCH   3   4
ATOM      4  C   UNL     1      37.584  62.963  56.923  1.00  0.00     0.000 C 
BRANCH   4   5
ATOM      5  C   UNL     1      37.683  61.781  55.936  1.00  0.00     0.006 C 
BRANCH   5   6
ATOM      6  C   UNL     1      36.353  61.037  55.733  1.00  0.00     0.053 C 
BRANCH   6   7
ATOM      7  C   UNL     1      36.194  59.887  56.677  1.00  0.00     0.041 C 
ATOM      8  O   UNL     1      36.869  58.837  56.515  1.00  0.00    -0.550 OA
ATOM      9  O   UNL     1      35.280  59.963  57.720  1.00  0.00    -0.550 OA
ENDBRANCH   6   7
ENDBRANCH   5   6
ENDBRANCH   4   5
ENDBRANCH   3   4
ENDBRANCH   2   3
ENDBRANCH   1   2
BRANCH   1  10
ATOM     10  C   UNL     1      35.288  66.778  54.989  1.00  0.00     0.000 C 
BRANCH  10  11
ATOM     11  C   UNL     1      33.898  67.113  55.550  1.00  0.00    -0.000 C 
BRANCH  11  12
ATOM     12  C   UNL     1      32.848  66.111  55.053  1.00  0.00    -0.000 C 
BRANCH  12  13
ATOM     13  C   UNL     1      31.700  66.829  54.330  1.00  0.00    -0.000 C 
BRANCH  13  14
ATOM     14  C   UNL     1      32.195  67.924  53.372  1.00  0.00    -0.000 C 
BRANCH  14  15
ATOM     15  C   UNL     1      32.489  67.388  51.963  1.00  0.00    -0.003 C 
ATOM     16  C   UNL     1      33.989  67.380  51.681  1.00  0.00     0.004 C 
ENDBRANCH  14  15
ENDBRANCH  13  14
ENDBRANCH  12  13
ENDBRANCH  11  12
ENDBRANCH  10  11
ENDBRANCH   1  10
TORSDOF 12
ENDMDL
