MODEL 1
REMARK VINA RESULT:    -5.740      0.000      0.000
REMARK INTER + INTRA:         -10.819
REMARK INTER:                  -9.767
REMARK INTRA:                  -1.053
REMARK UNBOUND:                -1.053
REMARK SMILES CCCCCCCCCCCCCC(=O)[O-]
REMARK SMILES IDX 8 1 9 2 10 3 11 4 12 5 13 6 14 7 15 8 16 9 7 10 6 11 5 12
REMARK SMILES IDX 4 13 3 14 2 15 1 16
REMARK H PARENT
REMARK Flexibility Score: inf
ROOT
ATOM      1  C   UNL     1      14.881   2.596  15.316  1.00  0.00     0.000 C 
ENDROOT
BRANCH   1   2
ATOM      2  C   UNL     1      13.672   2.245  16.197  1.00  0.00     0.000 C 
BRANCH   2   3
ATOM      3  C   UNL     1      13.138   3.456  16.978  1.00  0.00     0.000 C 
BRANCH   3   4
ATOM      4  C   UNL     1      13.371   3.283  18.484  1.00  0.00     0.000 C 
BRANCH   4   5
ATOM      5  C   UNL     1      13.678   1.818  18.830  1.00  0.00     0.006 C 
BRANCH   5   6
ATOM      6  C   UNL     1      14.797   1.689  19.871  1.00  0.00     0.053 C 
BRANCH   6   7
ATOM      7  C   UNL     1      15.912   0.817  19.382  1.00  0.00     0.041 C 
ATOM      8  O   UNL     1      16.166  -0.272  19.962  1.00  0.00    -0.550 OA
ATOM      9  O   UNL     1      16.650   1.191  18.266  1.00  0.00    -0.550 OA
ENDBRANCH   6   7
ENDBRANCH   5   6
ENDBRANCH   4   5
ENDBRANCH   3   4
ENDBRANCH   2   3
ENDBRANCH   1   2
BRANCH   1  10
ATOM     10  C   UNL     1      14.726   2.089  13.872  1.00  0.00     0.000 C 
BRANCH  10  11
ATOM     11  C   UNL     1      15.432   2.990  12.844  1.00  0.00    -0.000 C 
BRANCH  11  12
ATOM     12  C   UNL     1      15.820   2.261  11.540  1.00  0.00    -0.000 C 
BRANCH  12  13
ATOM     13  C   UNL     1      17.273   1.757  11.565  1.00  0.00    -0.000 C 
BRANCH  13  14
ATOM     14  C   UNL     1      17.386   0.271  11.954  1.00  0.00    -0.000 C 
BRANCH  14  15
ATOM     15  C   UNL     1      18.277  -0.011  13.177  1.00  0.00    -0.003 C 
ATOM     16  C   UNL     1      17.477  -0.214  14.464  1.00  0.00     0.004 C 
ENDBRANCH  14  15
ENDBRANCH  13  14
ENDBRANCH  12  13
ENDBRANCH  11  12
ENDBRANCH  10  11
ENDBRANCH   1  10
TORSDOF 12
ENDMDL
MODEL 2
REMARK VINA RESULT:    -5.738      1.513      2.357
REMARK INTER + INTRA:         -10.816
REMARK INTER:                  -9.627
REMARK INTRA:                  -1.189
REMARK UNBOUND:                -1.053
REMARK SMILES CCCCCCCCCCCCCC(=O)[O-]
REMARK SMILES IDX 8 1 9 2 10 3 11 4 12 5 13 6 14 7 15 8 16 9 7 10 6 11 5 12
REMARK SMILES IDX 4 13 3 14 2 15 1 16
REMARK H PARENT
REMARK Flexibility Score: inf
ROOT
ATOM      1  C   UNL     1      13.080   3.316  16.325  1.00  0.00     0.000 C 
ENDROOT
BRANCH   1   2
ATOM      2  C   UNL     1      14.140   3.431  17.433  1.00  0.00     0.000 C 
BRANCH   2   3
ATOM      3  C   UNL     1      13.721   2.719  18.728  1.00  0.00     0.000 C 
BRANCH   3   4
ATOM      4  C   UNL     1      14.134   1.242  18.700  1.00  0.00     0.000 C 
BRANCH   4   5
ATOM      5  C   UNL     1      15.549   1.076  18.125  1.00  0.00     0.006 C 
BRANCH   5   6
ATOM      6  C   UNL     1      15.662  -0.144  17.203  1.00  0.00     0.053 C 
BRANCH   6   7
ATOM      7  C   UNL     1      15.563  -1.428  17.968  1.00  0.00     0.041 C 
ATOM      8  O   UNL     1      14.603  -2.217  17.762  1.00  0.00    -0.550 OA
ATOM      9  O   UNL     1      16.549  -1.768  18.886  1.00  0.00    -0.550 OA
ENDBRANCH   6   7
ENDBRANCH   5   6
ENDBRANCH   4   5
ENDBRANCH   3   4
ENDBRANCH   2   3
ENDBRANCH   1   2
BRANCH   1  10
ATOM     10  C   UNL     1      13.541   2.429  15.157  1.00  0.00     0.000 C 
BRANCH  10  11
ATOM     11  C   UNL     1      15.013   2.664  14.774  1.00  0.00    -0.000 C 
BRANCH  11  12
ATOM     12  C   UNL     1      15.215   3.061  13.295  1.00  0.00    -0.000 C 
BRANCH  12  13
ATOM     13  C   UNL     1      15.400   1.835  12.384  1.00  0.00    -0.000 C 
BRANCH  13  14
ATOM     14  C   UNL     1      16.470   2.051  11.297  1.00  0.00    -0.000 C 
BRANCH  14  15
ATOM     15  C   UNL     1      17.550   0.958  11.229  1.00  0.00    -0.003 C 
ATOM     16  C   UNL     1      17.737   0.219  12.553  1.00  0.00     0.004 C 
ENDBRANCH  14  15
ENDBRANCH  13  14
ENDBRANCH  12  13
ENDBRANCH  11  12
ENDBRANCH  10  11
ENDBRANCH   1  10
TORSDOF 12
ENDMDL
MODEL 3
REMARK VINA RESULT:    -5.731      2.570      6.024
REMARK INTER + INTRA:         -10.804
REMARK INTER:                  -9.463
REMARK INTRA:                  -1.341
REMARK UNBOUND:                -1.053
REMARK SMILES CCCCCCCCCCCCCC(=O)[O-]
REMARK SMILES IDX 8 1 9 2 10 3 11 4 12 5 13 6 14 7 15 8 16 9 7 10 6 11 5 12
REMARK SMILES IDX 4 13 3 14 2 15 1 16
REMARK H PARENT
REMARK Flexibility Score: inf
ROOT
ATOM      1  C   UNL     1      13.733   3.243  18.882  1.00  0.00     0.000 C 
ENDROOT
BRANCH   1   2
ATOM      2  C   UNL     1      13.595   3.560  17.384  1.00  0.00     0.000 C 
BRANCH   2   3
ATOM      3  C   UNL     1      13.516   2.295  16.517  1.00  0.00     0.000 C 
BRANCH   3   4
ATOM      4  C   UNL     1      13.598   2.646  15.026  1.00  0.00     0.000 C 
BRANCH   4   5
ATOM      5  C   UNL     1      15.047   2.940  14.608  1.00  0.00     0.006 C 
BRANCH   5   6
ATOM      6  C   UNL     1      15.186   3.136  13.093  1.00  0.00     0.053 C 
BRANCH   6   7
ATOM      7  C   UNL     1      15.735   1.915  12.423  1.00  0.00     0.041 C 
ATOM      8  O   UNL     1      15.856   1.879  11.170  1.00  0.00    -0.550 OA
ATOM      9  O   UNL     1      16.143   0.827  13.185  1.00  0.00    -0.550 OA
ENDBRANCH   6   7
ENDBRANCH   5   6
ENDBRANCH   4   5
ENDBRANCH   3   4
ENDBRANCH   2   3
ENDBRANCH   1   2
BRANCH   1  10
ATOM     10  C   UNL     1      13.930   1.742  19.152  1.00  0.00     0.000 C 
BRANCH  10  11
ATOM     11  C   UNL     1      14.925   1.467  20.293  1.00  0.00    -0.000 C 
BRANCH  11  12
ATOM     12  C   UNL     1      15.222  -0.032  20.512  1.00  0.00    -0.000 C 
BRANCH  12  13
ATOM     13  C   UNL     1      16.188  -0.594  19.455  1.00  0.00    -0.000 C 
BRANCH  13  14
ATOM     14  C   UNL     1      17.358   0.358  19.145  1.00  0.00    -0.000 C 
BRANCH  14  15
ATOM     15  C   UNL     1      17.415   0.860  17.691  1.00  0.00    -0.003 C 
ATOM     16  C   UNL     1      16.457   0.113  16.763  1.00  0.00     0.004 C 
ENDBRANCH  14  15
ENDBRANCH  13  14
ENDBRANCH  12  13
ENDBRANCH  11  12
ENDBRANCH  10  11
ENDBRANCH   1  10
TORSDOF 12
ENDMDL
MODEL 4
REMARK VINA RESULT:    -5.719      2.737      6.635
REMARK INTER + INTRA:         -10.783
REMARK INTER:                  -9.161
REMARK INTRA:                  -1.622
REMARK UNBOUND:                -1.053
REMARK SMILES CCCCCCCCCCCCCC(=O)[O-]
REMARK SMILES IDX 8 1 9 2 10 3 11 4 12 5 13 6 14 7 15 8 16 9 7 10 6 11 5 12
REMARK SMILES IDX 4 13 3 14 2 15 1 16
REMARK H PARENT
REMARK Flexibility Score: inf
ROOT
ATOM      1  C   UNL     1      17.880   0.993  17.797  1.00  0.00     0.000 C 
ENDROOT
BRANCH   1   2
ATOM      2  C   UNL     1      16.751   1.660  16.995  1.00  0.00     0.000 C 
BRANCH   2   3
ATOM      3  C   UNL     1      15.988   0.665  16.108  1.00  0.00     0.000 C 
BRANCH   3   4
ATOM      4  C   UNL     1      14.961   1.389  15.229  1.00  0.00     0.000 C 
BRANCH   4   5
ATOM      5  C   UNL     1      15.543   2.692  14.661  1.00  0.00     0.006 C 
BRANCH   5   6
ATOM      6  C   UNL     1      15.139   2.920  13.199  1.00  0.00     0.053 C 
BRANCH   6   7
ATOM      7  C   UNL     1      15.915   2.043  12.265  1.00  0.00     0.041 C 
ATOM      8  O   UNL     1      15.669   2.056  11.030  1.00  0.00    -0.550 OA
ATOM      9  O   UNL     1      16.933   1.234  12.756  1.00  0.00    -0.550 OA
ENDBRANCH   6   7
ENDBRANCH   5   6
ENDBRANCH   4   5
ENDBRANCH   3   4
ENDBRANCH   2   3
ENDBRANCH   1   2
BRANCH   1  10
ATOM     10  C   UNL     1      17.362  -0.094  18.753  1.00  0.00     0.000 C 
BRANCH  10  11
ATOM     11  C   UNL     1      16.347   0.444  19.776  1.00  0.00    -0.000 C 
BRANCH  11  12
ATOM     12  C   UNL     1      15.009  -0.327  19.791  1.00  0.00    -0.000 C 
BRANCH  12  13
ATOM     13  C   UNL     1      13.855   0.501  19.200  1.00  0.00    -0.000 C 
BRANCH  13  14
ATOM     14  C   UNL     1      14.083   2.019  19.316  1.00  0.00    -0.000 C 
BRANCH  14  15
ATOM     15  C   UNL     1      13.319   2.868  18.284  1.00  0.00    -0.003 C 
ATOM     16  C   UNL     1      14.079   4.127  17.866  1.00  0.00     0.004 C 
ENDBRANCH  14  15
ENDBRANCH  13  14
ENDBRANCH  12  13
ENDBRANCH  11  12
ENDBRANCH  10  11
ENDBRANCH   1  10
TORSDOF 12
ENDMDL
MODEL 5
REMARK VINA RESULT:    -5.713      1.444      4.589
REMARK INTER + INTRA:         -10.774
REMARK INTER:                  -9.319
REMARK INTRA:                  -1.455
REMARK UNBOUND:                -1.053
REMARK SMILES CCCCCCCCCCCCCC(=O)[O-]
REMARK SMILES IDX 8 1 9 2 10 3 11 4 12 5 13 6 14 7 15 8 16 9 7 10 6 11 5 12
REMARK SMILES IDX 4 13 3 14 2 15 1 16
REMARK H PARENT
REMARK Flexibility Score: inf
ROOT
ATOM      1  C   UNL     1      17.734   0.687  11.674  1.00  0.00     0.000 C 
ENDROOT
BRANCH   1   2
ATOM      2  C   UNL     1      17.319  -0.135  12.904  1.00  0.00     0.000 C 
BRANCH   2   3
ATOM      3  C   UNL     1      18.446  -0.255  13.942  1.00  0.00     0.000 C 
BRANCH   3   4
ATOM      4  C   UNL     1      17.908  -0.034  15.361  1.00  0.00     0.000 C 
BRANCH   4   5
ATOM      5  C   UNL     1      16.446  -0.489  15.475  1.00  0.00     0.006 C 
BRANCH   5   6
ATOM      6  C   UNL     1      16.065  -0.870  16.911  1.00  0.00     0.053 C 
BRANCH   6   7
ATOM      7  C   UNL     1      15.357   0.249  17.612  1.00  0.00     0.041 C 
ATOM      8  O   UNL     1      14.169   0.103  18.001  1.00  0.00    -0.550 OA
ATOM      9  O   UNL     1      16.022   1.442  17.864  1.00  0.00    -0.550 OA
ENDBRANCH   6   7
ENDBRANCH   5   6
ENDBRANCH   4   5
ENDBRANCH   3   4
ENDBRANCH   2   3
ENDBRANCH   1   2
BRANCH   1  10
ATOM     10  C   UNL     1      17.073   2.076  11.642  1.00  0.00     0.000 C 
BRANCH  10  11
ATOM     11  C   UNL     1      15.594   2.042  12.065  1.00  0.00    -0.000 C 
BRANCH  11  12
ATOM     12  C   UNL     1      15.199   3.176  13.036  1.00  0.00    -0.000 C 
BRANCH  12  13
ATOM     13  C   UNL     1      15.250   2.725  14.506  1.00  0.00    -0.000 C 
BRANCH  13  14
ATOM     14  C   UNL     1      13.929   2.098  14.989  1.00  0.00    -0.000 C 
BRANCH  14  15
ATOM     15  C   UNL     1      12.919   3.095  15.584  1.00  0.00    -0.003 C 
ATOM     16  C   UNL     1      13.180   3.401  17.058  1.00  0.00     0.004 C 
ENDBRANCH  14  15
ENDBRANCH  13  14
ENDBRANCH  12  13
ENDBRANCH  11  12
ENDBRANCH  10  11
ENDBRANCH   1  10
TORSDOF 12
ENDMDL
MODEL 6
REMARK VINA RESULT:    -5.696      1.836      5.258
REMARK INTER + INTRA:         -10.745
REMARK INTER:                  -9.156
REMARK INTRA:                  -1.588
REMARK UNBOUND:                -1.053
REMARK SMILES CCCCCCCCCCCCCC(=O)[O-]
REMARK SMILES IDX 8 1 9 2 10 3 11 4 12 5 13 6 14 7 15 8 16 9 7 10 6 11 5 12
REMARK SMILES IDX 4 13 3 14 2 15 1 16
REMARK H PARENT
REMARK Flexibility Score: inf
ROOT
ATOM      1  C   UNL     1      15.521   0.586  20.314  1.00  0.00     0.000 C 
ENDROOT
BRANCH   1   2
ATOM      2  C   UNL     1      15.233  -0.554  19.325  1.00  0.00     0.000 C 
BRANCH   2   3
ATOM      3  C   UNL     1      16.433  -1.495  19.141  1.00  0.00     0.000 C 
BRANCH   3   4
ATOM      4  C   UNL     1      16.679  -1.786  17.655  1.00  0.00     0.000 C 
BRANCH   4   5
ATOM      5  C   UNL     1      15.905  -0.801  16.766  1.00  0.00     0.006 C 
BRANCH   5   6
ATOM      6  C   UNL     1      16.830  -0.020  15.823  1.00  0.00     0.053 C 
BRANCH   6   7
ATOM      7  C   UNL     1      17.825   0.805  16.580  1.00  0.00     0.041 C 
ATOM      8  O   UNL     1      19.058   0.668  16.363  1.00  0.00    -0.550 OA
ATOM      9  O   UNL     1      17.389   1.748  17.502  1.00  0.00    -0.550 OA
ENDBRANCH   6   7
ENDBRANCH   5   6
ENDBRANCH   4   5
ENDBRANCH   3   4
ENDBRANCH   2   3
ENDBRANCH   1   2
BRANCH   1  10
ATOM     10  C   UNL     1      14.740   1.868  19.981  1.00  0.00     0.000 C 
BRANCH  10  11
ATOM     11  C   UNL     1      13.860   1.722  18.728  1.00  0.00    -0.000 C 
BRANCH  11  12
ATOM     12  C   UNL     1      13.311   3.062  18.192  1.00  0.00    -0.000 C 
BRANCH  12  13
ATOM     13  C   UNL     1      13.101   3.038  16.669  1.00  0.00    -0.000 C 
BRANCH  13  14
ATOM     14  C   UNL     1      14.409   2.816  15.886  1.00  0.00    -0.000 C 
BRANCH  14  15
ATOM     15  C   UNL     1      14.220   2.403  14.416  1.00  0.00    -0.003 C 
ATOM     16  C   UNL     1      15.427   2.739  13.541  1.00  0.00     0.004 C 
ENDBRANCH  14  15
ENDBRANCH  13  14
ENDBRANCH  12  13
ENDBRANCH  11  12
ENDBRANCH  10  11
ENDBRANCH   1  10
TORSDOF 12
ENDMDL
MODEL 7
REMARK VINA RESULT:    -5.654      2.704      6.530
REMARK INTER + INTRA:         -10.673
REMARK INTER:                  -8.806
REMARK INTRA:                  -1.867
REMARK UNBOUND:                -1.053
REMARK SMILES CCCCCCCCCCCCCC(=O)[O-]
REMARK SMILES IDX 8 1 9 2 10 3 11 4 12 5 13 6 14 7 15 8 16 9 7 10 6 11 5 12
REMARK SMILES IDX 4 13 3 14 2 15 1 16
REMARK H PARENT
REMARK Flexibility Score: inf
ROOT
ATOM      1  C   UNL     1      17.183  -0.703  18.444  1.00  0.00     0.000 C 
ENDROOT
BRANCH   1   2
ATOM      2  C   UNL     1      17.469   0.770  18.112  1.00  0.00     0.000 C 
BRANCH   2   3
ATOM      3  C   UNL     1      17.241   1.098  16.628  1.00  0.00     0.000 C 
BRANCH   3   4
ATOM      4  C   UNL     1      16.370   0.028  15.959  1.00  0.00     0.000 C 
BRANCH   4   5
ATOM      5  C   UNL     1      16.296   0.247  14.440  1.00  0.00     0.006 C 
BRANCH   5   6
ATOM      6  C   UNL     1      15.012   0.974  14.020  1.00  0.00     0.053 C 
BRANCH   6   7
ATOM      7  C   UNL     1      15.307   2.195  13.204  1.00  0.00     0.041 C 
ATOM      8  O   UNL     1      15.464   3.310  13.767  1.00  0.00    -0.550 OA
ATOM      9  O   UNL     1      15.440   2.094  11.825  1.00  0.00    -0.550 OA
ENDBRANCH   6   7
ENDBRANCH   5   6
ENDBRANCH   4   5
ENDBRANCH   3   4
ENDBRANCH   2   3
ENDBRANCH   1   2
BRANCH   1  10
ATOM     10  C   UNL     1      16.185  -0.864  19.602  1.00  0.00     0.000 C 
BRANCH  10  11
ATOM     11  C   UNL     1      15.890   0.461  20.325  1.00  0.00    -0.000 C 
BRANCH  11  12
ATOM     12  C   UNL     1      14.433   0.947  20.166  1.00  0.00    -0.000 C 
BRANCH  12  13
ATOM     13  C   UNL     1      13.777   0.406  18.884  1.00  0.00    -0.000 C 
BRANCH  13  14
ATOM     14  C   UNL     1      13.605   1.483  17.797  1.00  0.00    -0.000 C 
BRANCH  14  15
ATOM     15  C   UNL     1      13.809   2.929  18.282  1.00  0.00    -0.003 C 
ATOM     16  C   UNL     1      14.724   3.743  17.367  1.00  0.00     0.004 C 
ENDBRANCH  14  15
ENDBRANCH  13  14
ENDBRANCH  12  13
ENDBRANCH  11  12
ENDBRANCH  10  11
ENDBRANCH   1  10
TORSDOF 12
ENDMDL
MODEL 8
REMARK VINA RESULT:    -5.603      1.196      2.105
REMARK INTER + INTRA:         -10.587
REMARK INTER:                  -9.314
REMARK INTRA:                  -1.272
REMARK UNBOUND:                -1.053
REMARK SMILES CCCCCCCCCCCCCC(=O)[O-]
REMARK SMILES IDX 8 1 9 2 10 3 11 4 12 5 13 6 14 7 15 8 16 9 7 10 6 11 5 12
REMARK SMILES IDX 4 13 3 14 2 15 1 16
REMARK H PARENT
REMARK Flexibility Score: inf
ROOT
ATOM      1  C   UNL     1      15.438   3.027  13.246  1.00  0.00     0.000 C 
ENDROOT
BRANCH   1   2
ATOM      2  C   UNL     1      14.632   2.620  14.490  1.00  0.00     0.000 C 
BRANCH   2   3
ATOM      3  C   UNL     1      15.518   2.414  15.728  1.00  0.00     0.000 C 
BRANCH   3   4
ATOM      4  C   UNL     1      14.948   3.161  16.940  1.00  0.00     0.000 C 
BRANCH   4   5
ATOM      5  C   UNL     1      13.746   2.412  17.534  1.00  0.00     0.006 C 
BRANCH   5   6
ATOM      6  C   UNL     1      14.156   1.096  18.208  1.00  0.00     0.053 C 
BRANCH   6   7
ATOM      7  C   UNL     1      15.153   1.321  19.303  1.00  0.00     0.041 C 
ATOM      8  O   UNL     1      14.809   1.904  20.365  1.00  0.00    -0.550 OA
ATOM      9  O   UNL     1      16.456   0.860  19.162  1.00  0.00    -0.550 OA
ENDBRANCH   6   7
ENDBRANCH   5   6
ENDBRANCH   4   5
ENDBRANCH   3   4
ENDBRANCH   2   3
ENDBRANCH   1   2
BRANCH   1  10
ATOM     10  C   UNL     1      15.526   1.900  12.204  1.00  0.00     0.000 C 
BRANCH  10  11
ATOM     11  C   UNL     1      16.866   1.890  11.447  1.00  0.00    -0.000 C 
BRANCH  11  12
ATOM     12  C   UNL     1      17.762   0.678  11.783  1.00  0.00    -0.000 C 
BRANCH  12  13
ATOM     13  C   UNL     1      17.329  -0.023  13.082  1.00  0.00    -0.000 C 
BRANCH  13  14
ATOM     14  C   UNL     1      18.498  -0.255  14.057  1.00  0.00    -0.000 C 
BRANCH  14  15
ATOM     15  C   UNL     1      18.099  -0.308  15.543  1.00  0.00    -0.003 C 
ATOM     16  C   UNL     1      16.701  -0.886  15.765  1.00  0.00     0.004 C 
ENDBRANCH  14  15
ENDBRANCH  13  14
ENDBRANCH  12  13
ENDBRANCH  11  12
ENDBRANCH  10  11
ENDBRANCH   1  10
TORSDOF 12
ENDMDL
MODEL 9
REMARK VINA RESULT:    -5.594      1.813      3.974
REMARK INTER + INTRA:         -10.572
REMARK INTER:                  -9.145
REMARK INTRA:                  -1.427
REMARK UNBOUND:                -1.053
REMARK SMILES CCCCCCCCCCCCCC(=O)[O-]
REMARK SMILES IDX 8 1 9 2 10 3 11 4 12 5 13 6 14 7 15 8 16 9 7 10 6 11 5 12
REMARK SMILES IDX 4 13 3 14 2 15 1 16
REMARK H PARENT
REMARK Flexibility Score: inf
ROOT
ATOM      1  C   UNL     1      17.875  -0.596  15.103  1.00  0.00     0.000 C 
ENDROOT
BRANCH   1   2
ATOM      2  C   UNL     1      18.409  -1.415  16.288  1.00  0.00     0.000 C 
BRANCH   2   3
ATOM      3  C   UNL     1      17.296  -2.155  17.045  1.00  0.00     0.000 C 
BRANCH   3   4
ATOM      4  C   UNL     1      17.356  -1.848  18.546  1.00  0.00     0.000 C 
BRANCH   4   5
ATOM      5  C   UNL     1      16.097  -1.097  19.007  1.00  0.00     0.006 C 
BRANCH   5   6
ATOM      6  C   UNL     1      16.360   0.398  19.227  1.00  0.00     0.053 C 
BRANCH   6   7
ATOM      7  C   UNL     1      15.086   1.165  19.402  1.00  0.00     0.041 C 
ATOM      8  O   UNL     1      14.197   1.132  18.511  1.00  0.00    -0.550 OA
ATOM      9  O   UNL     1      14.866   1.892  20.566  1.00  0.00    -0.550 OA
ENDBRANCH   6   7
ENDBRANCH   5   6
ENDBRANCH   4   5
ENDBRANCH   3   4
ENDBRANCH   2   3
ENDBRANCH   1   2
BRANCH   1  10
ATOM     10  C   UNL     1      16.378  -0.271  15.237  1.00  0.00     0.000 C 
BRANCH  10  11
ATOM     11  C   UNL     1      16.113   1.219  15.516  1.00  0.00    -0.000 C 
BRANCH  11  12
ATOM     12  C   UNL     1      14.877   1.780  14.780  1.00  0.00    -0.000 C 
BRANCH  12  13
ATOM     13  C   UNL     1      14.909   1.474  13.273  1.00  0.00    -0.000 C 
BRANCH  13  14
ATOM     14  C   UNL     1      15.521   2.617  12.441  1.00  0.00    -0.000 C 
BRANCH  14  15
ATOM     15  C   UNL     1      16.535   2.168  11.375  1.00  0.00    -0.003 C 
ATOM     16  C   UNL     1      17.217   0.844  11.719  1.00  0.00     0.004 C 
ENDBRANCH  14  15
ENDBRANCH  13  14
ENDBRANCH  12  13
ENDBRANCH  11  12
ENDBRANCH  10  11
ENDBRANCH   1  10
TORSDOF 12
ENDMDL
