MODEL 1
REMARK VINA RESULT:    -3.079      0.000      0.000
REMARK INTER + INTRA:          -8.316
REMARK INTER:                  -5.779
REMARK INTRA:                  -2.537
REMARK UNBOUND:                -2.537
REMARK SMILES CCCCCCCCC=CCCCCCCCC(=O)[O-]
REMARK SMILES IDX 10 1 9 2 11 3 12 4 13 5 14 6 15 7 16 8 17 9 18 10 19 11
REMARK SMILES IDX 20 12 8 13 7 14 6 15 5 16 4 17 3 18 2 19 1 20
REMARK H PARENT
REMARK Flexibility Score: inf
ROOT
ATOM      1  C   UNL     1     146.626 165.965 153.973  1.00  0.00    -0.031 C 
ATOM      2  C   UNL     1     147.631 166.226 153.124  1.00  0.00    -0.031 C 
ENDROOT
BRANCH   1   3
ATOM      3  C   UNL     1     146.857 165.819 155.453  1.00  0.00     0.027 C 
BRANCH   3   4
ATOM      4  C   UNL     1     146.234 164.525 155.993  1.00  0.00     0.004 C 
BRANCH   4   5
ATOM      5  C   UNL     1     145.878 163.538 154.866  1.00  0.00     0.000 C 
BRANCH   5   6
ATOM      6  C   UNL     1     146.813 162.314 154.830  1.00  0.00     0.000 C 
BRANCH   6   7
ATOM      7  C   UNL     1     148.126 162.484 155.617  1.00  0.00     0.000 C 
BRANCH   7   8
ATOM      8  C   UNL     1     149.312 161.749 154.963  1.00  0.00     0.006 C 
BRANCH   8   9
ATOM      9  C   UNL     1     149.172 160.222 155.056  1.00  0.00     0.053 C 
BRANCH   9  10
ATOM     10  C   UNL     1     148.957 159.768 156.468  1.00  0.00     0.041 C 
ATOM     11  O   UNL     1     149.903 159.809 157.297  1.00  0.00    -0.550 OA
ATOM     12  O   UNL     1     147.706 159.313 156.872  1.00  0.00    -0.550 OA
ENDBRANCH   9  10
ENDBRANCH   8   9
ENDBRANCH   7   8
ENDBRANCH   6   7
ENDBRANCH   5   6
ENDBRANCH   4   5
ENDBRANCH   3   4
ENDBRANCH   1   3
BRANCH   2  13
ATOM     13  C   UNL     1     147.389 166.369 151.647  1.00  0.00     0.027 C 
BRANCH  13  14
ATOM     14  C   UNL     1     146.164 165.553 151.210  1.00  0.00     0.004 C 
BRANCH  14  15
ATOM     15  C   UNL     1     146.536 164.321 150.369  1.00  0.00     0.000 C 
BRANCH  15  16
ATOM     16  C   UNL     1     146.663 163.024 151.199  1.00  0.00     0.000 C 
BRANCH  16  17
ATOM     17  C   UNL     1     148.129 162.620 151.427  1.00  0.00    -0.000 C 
BRANCH  17  18
ATOM     18  C   UNL     1     148.271 161.092 151.501  1.00  0.00    -0.000 C 
BRANCH  18  19
ATOM     19  C   UNL     1     149.709 160.615 151.243  1.00  0.00    -0.003 C 
ATOM     20  C   UNL     1     150.755 161.690 151.544  1.00  0.00     0.004 C 
ENDBRANCH  18  19
ENDBRANCH  17  18
ENDBRANCH  16  17
ENDBRANCH  15  16
ENDBRANCH  14  15
ENDBRANCH  13  14
ENDBRANCH   2  13
TORSDOF 15
ENDMDL
MODEL 2
REMARK VINA RESULT:    -3.005      2.232      5.237
REMARK INTER + INTRA:          -8.177
REMARK INTER:                  -5.146
REMARK INTRA:                  -3.031
REMARK UNBOUND:                -2.537
REMARK SMILES CCCCCCCCC=CCCCCCCCC(=O)[O-]
REMARK SMILES IDX 10 1 9 2 11 3 12 4 13 5 14 6 15 7 16 8 17 9 18 10 19 11
REMARK SMILES IDX 20 12 8 13 7 14 6 15 5 16 4 17 3 18 2 19 1 20
REMARK H PARENT
REMARK Flexibility Score: inf
ROOT
ATOM      1  C   UNL     1     147.215 161.712 152.883  1.00  0.00    -0.031 C 
ATOM      2  C   UNL     1     147.762 161.559 154.098  1.00  0.00    -0.031 C 
ENDROOT
BRANCH   1   3
ATOM      3  C   UNL     1     147.869 161.161 151.645  1.00  0.00     0.027 C 
BRANCH   3   4
ATOM      4  C   UNL     1     149.290 160.660 151.938  1.00  0.00     0.004 C 
BRANCH   4   5
ATOM      5  C   UNL     1     150.355 161.433 151.137  1.00  0.00     0.000 C 
BRANCH   5   6
ATOM      6  C   UNL     1     149.847 162.798 150.637  1.00  0.00     0.000 C 
BRANCH   6   7
ATOM      7  C   UNL     1     150.469 164.016 151.345  1.00  0.00     0.000 C 
BRANCH   7   8
ATOM      8  C   UNL     1     149.896 164.241 152.758  1.00  0.00     0.006 C 
BRANCH   8   9
ATOM      9  C   UNL     1     150.954 164.776 153.735  1.00  0.00     0.053 C 
BRANCH   9  10
ATOM     10  C   UNL     1     151.775 163.670 154.327  1.00  0.00     0.041 C 
ATOM     11  O   UNL     1     152.970 163.880 154.662  1.00  0.00    -0.550 OA
ATOM     12  O   UNL     1     151.214 162.413 154.524  1.00  0.00    -0.550 OA
ENDBRANCH   9  10
ENDBRANCH   8   9
ENDBRANCH   7   8
ENDBRANCH   6   7
ENDBRANCH   5   6
ENDBRANCH   4   5
ENDBRANCH   3   4
ENDBRANCH   1   3
BRANCH   2  13
ATOM     13  C   UNL     1     147.101 162.114 155.330  1.00  0.00     0.027 C 
BRANCH  13  14
ATOM     14  C   UNL     1     147.648 163.509 155.663  1.00  0.00     0.004 C 
BRANCH  14  15
ATOM     15  C   UNL     1     146.543 164.573 155.771  1.00  0.00     0.000 C 
BRANCH  15  16
ATOM     16  C   UNL     1     146.071 165.112 154.402  1.00  0.00     0.000 C 
BRANCH  16  17
ATOM     17  C   UNL     1     147.053 166.136 153.809  1.00  0.00    -0.000 C 
BRANCH  17  18
ATOM     18  C   UNL     1     146.939 166.179 152.277  1.00  0.00    -0.000 C 
BRANCH  18  19
ATOM     19  C   UNL     1     145.942 165.148 151.725  1.00  0.00    -0.003 C 
ATOM     20  C   UNL     1     146.463 164.421 150.484  1.00  0.00     0.004 C 
ENDBRANCH  18  19
ENDBRANCH  17  18
ENDBRANCH  16  17
ENDBRANCH  15  16
ENDBRANCH  14  15
ENDBRANCH  13  14
ENDBRANCH   2  13
TORSDOF 15
ENDMDL
MODEL 3
REMARK VINA RESULT:    -2.987      2.806      5.652
REMARK INTER + INTRA:          -8.144
REMARK INTER:                  -5.053
REMARK INTRA:                  -3.090
REMARK UNBOUND:                -2.537
REMARK SMILES CCCCCCCCC=CCCCCCCCC(=O)[O-]
REMARK SMILES IDX 10 1 9 2 11 3 12 4 13 5 14 6 15 7 16 8 17 9 18 10 19 11
REMARK SMILES IDX 20 12 8 13 7 14 6 15 5 16 4 17 3 18 2 19 1 20
REMARK H PARENT
REMARK Flexibility Score: inf
ROOT
ATOM      1  C   UNL     1     147.007 163.382 150.785  1.00  0.00    -0.031 C 
ATOM      2  C   UNL     1     146.354 162.469 151.519  1.00  0.00    -0.031 C 
ENDROOT
BRANCH   1   3
ATOM      3  C   UNL     1     146.386 164.707 150.433  1.00  0.00     0.027 C 
BRANCH   3   4
ATOM      4  C   UNL     1     146.006 165.500 151.691  1.00  0.00     0.004 C 
BRANCH   4   5
ATOM      5  C   UNL     1     147.212 166.244 152.294  1.00  0.00     0.000 C 
BRANCH   5   6
ATOM      6  C   UNL     1     147.950 167.116 151.260  1.00  0.00     0.000 C 
BRANCH   6   7
ATOM      7  C   UNL     1     149.476 167.192 151.454  1.00  0.00     0.000 C 
BRANCH   7   8
ATOM      8  C   UNL     1     150.103 165.823 151.785  1.00  0.00     0.006 C 
BRANCH   8   9
ATOM      9  C   UNL     1     150.284 164.949 150.535  1.00  0.00     0.053 C 
BRANCH   9  10
ATOM     10  C   UNL     1     151.239 163.820 150.778  1.00  0.00     0.041 C 
ATOM     11  O   UNL     1     151.279 162.843 149.985  1.00  0.00    -0.550 OA
ATOM     12  O   UNL     1     152.097 163.855 151.873  1.00  0.00    -0.550 OA
ENDBRANCH   9  10
ENDBRANCH   8   9
ENDBRANCH   7   8
ENDBRANCH   6   7
ENDBRANCH   5   6
ENDBRANCH   4   5
ENDBRANCH   3   4
ENDBRANCH   1   3
BRANCH   2  13
ATOM     13  C   UNL     1     146.984 161.147 151.865  1.00  0.00     0.027 C 
BRANCH  13  14
ATOM     14  C   UNL     1     148.499 161.298 152.063  1.00  0.00     0.004 C 
BRANCH  14  15
ATOM     15  C   UNL     1     148.909 161.312 153.545  1.00  0.00     0.000 C 
BRANCH  15  16
ATOM     16  C   UNL     1     149.592 162.627 153.982  1.00  0.00     0.000 C 
BRANCH  16  17
ATOM     17  C   UNL     1     148.586 163.648 154.540  1.00  0.00    -0.000 C 
BRANCH  17  18
ATOM     18  C   UNL     1     147.454 162.941 155.302  1.00  0.00    -0.000 C 
BRANCH  18  19
ATOM     19  C   UNL     1     146.068 163.521 154.981  1.00  0.00    -0.003 C 
ATOM     20  C   UNL     1     145.875 164.938 155.525  1.00  0.00     0.004 C 
ENDBRANCH  18  19
ENDBRANCH  17  18
ENDBRANCH  16  17
ENDBRANCH  15  16
ENDBRANCH  14  15
ENDBRANCH  13  14
ENDBRANCH   2  13
TORSDOF 15
ENDMDL
MODEL 4
REMARK VINA RESULT:    -2.970      3.647      5.999
REMARK INTER + INTRA:          -8.111
REMARK INTER:                  -4.746
REMARK INTRA:                  -3.365
REMARK UNBOUND:                -2.537
REMARK SMILES CCCCCCCCC=CCCCCCCCC(=O)[O-]
REMARK SMILES IDX 10 1 9 2 11 3 12 4 13 5 14 6 15 7 16 8 17 9 18 10 19 11
REMARK SMILES IDX 20 12 8 13 7 14 6 15 5 16 4 17 3 18 2 19 1 20
REMARK H PARENT
REMARK Flexibility Score: inf
ROOT
ATOM      1  C   UNL     1     149.795 163.963 151.945  1.00  0.00    -0.031 C 
ATOM      2  C   UNL     1     149.463 163.121 150.955  1.00  0.00    -0.031 C 
ENDROOT
BRANCH   1   3
ATOM      3  C   UNL     1     150.451 165.289 151.671  1.00  0.00     0.027 C 
BRANCH   3   4
ATOM      4  C   UNL     1     149.632 166.450 152.252  1.00  0.00     0.004 C 
BRANCH   4   5
ATOM      5  C   UNL     1     148.440 165.956 153.091  1.00  0.00     0.000 C 
BRANCH   5   6
ATOM      6  C   UNL     1     147.086 166.459 152.554  1.00  0.00     0.000 C 
BRANCH   6   7
ATOM      7  C   UNL     1     146.115 165.347 152.114  1.00  0.00     0.000 C 
BRANCH   7   8
ATOM      8  C   UNL     1     145.899 165.315 150.589  1.00  0.00     0.006 C 
BRANCH   8   9
ATOM      9  C   UNL     1     146.692 166.414 149.866  1.00  0.00     0.053 C 
BRANCH   9  10
ATOM     10  C   UNL     1     147.745 165.840 148.966  1.00  0.00     0.041 C 
ATOM     11  O   UNL     1     147.562 164.726 148.408  1.00  0.00    -0.550 OA
ATOM     12  O   UNL     1     148.921 166.544 148.731  1.00  0.00    -0.550 OA
ENDBRANCH   9  10
ENDBRANCH   8   9
ENDBRANCH   7   8
ENDBRANCH   6   7
ENDBRANCH   5   6
ENDBRANCH   4   5
ENDBRANCH   3   4
ENDBRANCH   1   3
BRANCH   2  13
ATOM     13  C   UNL     1     148.808 161.797 151.241  1.00  0.00     0.027 C 
BRANCH  13  14
ATOM     14  C   UNL     1     147.317 161.980 151.555  1.00  0.00     0.004 C 
BRANCH  14  15
ATOM     15  C   UNL     1     146.933 161.460 152.950  1.00  0.00     0.000 C 
BRANCH  15  16
ATOM     16  C   UNL     1     146.943 162.556 154.040  1.00  0.00     0.000 C 
BRANCH  16  17
ATOM     17  C   UNL     1     147.833 162.179 155.236  1.00  0.00    -0.000 C 
BRANCH  17  18
ATOM     18  C   UNL     1     148.964 163.203 155.421  1.00  0.00    -0.000 C 
BRANCH  18  19
ATOM     19  C   UNL     1     150.361 162.576 155.297  1.00  0.00    -0.003 C 
ATOM     20  C   UNL     1     150.337 161.200 154.628  1.00  0.00     0.004 C 
ENDBRANCH  18  19
ENDBRANCH  17  18
ENDBRANCH  16  17
ENDBRANCH  15  16
ENDBRANCH  14  15
ENDBRANCH  13  14
ENDBRANCH   2  13
TORSDOF 15
ENDMDL
MODEL 5
REMARK VINA RESULT:    -2.964      4.672      8.964
REMARK INTER + INTRA:          -8.100
REMARK INTER:                  -5.347
REMARK INTRA:                  -2.753
REMARK UNBOUND:                -2.537
REMARK SMILES CCCCCCCCC=CCCCCCCCC(=O)[O-]
REMARK SMILES IDX 10 1 9 2 11 3 12 4 13 5 14 6 15 7 16 8 17 9 18 10 19 11
REMARK SMILES IDX 20 12 8 13 7 14 6 15 5 16 4 17 3 18 2 19 1 20
REMARK H PARENT
REMARK Flexibility Score: inf
ROOT
ATOM      1  C   UNL     1     146.634 158.193 162.157  1.00  0.00    -0.031 C 
ATOM      2  C   UNL     1     147.851 158.100 162.711  1.00  0.00    -0.031 C 
ENDROOT
BRANCH   1   3
ATOM      3  C   UNL     1     145.951 159.521 161.965  1.00  0.00     0.027 C 
BRANCH   3   4
ATOM      4  C   UNL     1     146.503 160.263 160.740  1.00  0.00     0.004 C 
BRANCH   4   5
ATOM      5  C   UNL     1     146.349 159.443 159.446  1.00  0.00     0.000 C 
BRANCH   5   6
ATOM      6  C   UNL     1     146.484 160.305 158.176  1.00  0.00     0.000 C 
BRANCH   6   7
ATOM      7  C   UNL     1     147.142 159.592 156.981  1.00  0.00     0.000 C 
BRANCH   7   8
ATOM      8  C   UNL     1     148.294 160.408 156.361  1.00  0.00     0.006 C 
BRANCH   8   9
ATOM      9  C   UNL     1     147.931 160.966 154.977  1.00  0.00     0.053 C 
BRANCH   9  10
ATOM     10  C   UNL     1     147.244 162.295 155.075  1.00  0.00     0.041 C 
ATOM     11  O   UNL     1     147.499 163.070 156.034  1.00  0.00    -0.550 OA
ATOM     12  O   UNL     1     146.334 162.684 154.098  1.00  0.00    -0.550 OA
ENDBRANCH   9  10
ENDBRANCH   8   9
ENDBRANCH   7   8
ENDBRANCH   6   7
ENDBRANCH   5   6
ENDBRANCH   4   5
ENDBRANCH   3   4
ENDBRANCH   1   3
BRANCH   2  13
ATOM     13  C   UNL     1     148.526 156.769 162.899  1.00  0.00     0.027 C 
BRANCH  13  14
ATOM     14  C   UNL     1     147.900 155.704 161.986  1.00  0.00     0.004 C 
BRANCH  14  15
ATOM     15  C   UNL     1     148.782 155.366 160.772  1.00  0.00     0.000 C 
BRANCH  15  16
ATOM     16  C   UNL     1     148.113 155.687 159.417  1.00  0.00     0.000 C 
BRANCH  16  17
ATOM     17  C   UNL     1     148.878 156.764 158.630  1.00  0.00    -0.000 C 
BRANCH  17  18
ATOM     18  C   UNL     1     149.954 157.423 159.509  1.00  0.00    -0.000 C 
BRANCH  18  19
ATOM     19  C   UNL     1     149.984 158.953 159.366  1.00  0.00    -0.003 C 
ATOM     20  C   UNL     1     150.399 159.663 160.655  1.00  0.00     0.004 C 
ENDBRANCH  18  19
ENDBRANCH  17  18
ENDBRANCH  16  17
ENDBRANCH  15  16
ENDBRANCH  14  15
ENDBRANCH  13  14
ENDBRANCH   2  13
TORSDOF 15
ENDMDL
MODEL 6
REMARK VINA RESULT:    -2.949      2.462      4.817
REMARK INTER + INTRA:          -8.072
REMARK INTER:                  -4.931
REMARK INTRA:                  -3.142
REMARK UNBOUND:                -2.537
REMARK SMILES CCCCCCCCC=CCCCCCCCC(=O)[O-]
REMARK SMILES IDX 10 1 9 2 11 3 12 4 13 5 14 6 15 7 16 8 17 9 18 10 19 11
REMARK SMILES IDX 20 12 8 13 7 14 6 15 5 16 4 17 3 18 2 19 1 20
REMARK H PARENT
REMARK Flexibility Score: inf
ROOT
ATOM      1  C   UNL     1     148.338 162.332 155.025  1.00  0.00    -0.031 C 
ATOM      2  C   UNL     1     148.082 162.210 153.714  1.00  0.00    -0.031 C 
ENDROOT
BRANCH   1   3
ATOM      3  C   UNL     1     149.739 162.257 155.569  1.00  0.00     0.027 C 
BRANCH   3   4
ATOM      4  C   UNL     1     150.412 163.636 155.576  1.00  0.00     0.004 C 
BRANCH   4   5
ATOM      5  C   UNL     1     151.428 163.793 154.430  1.00  0.00     0.000 C 
BRANCH   5   6
ATOM      6  C   UNL     1     150.946 164.769 153.339  1.00  0.00     0.000 C 
BRANCH   6   7
ATOM      7  C   UNL     1     150.763 164.138 151.946  1.00  0.00     0.000 C 
BRANCH   7   8
ATOM      8  C   UNL     1     151.201 162.661 151.899  1.00  0.00     0.006 C 
BRANCH   8   9
ATOM      9  C   UNL     1     150.326 161.826 150.953  1.00  0.00     0.053 C 
BRANCH   9  10
ATOM     10  C   UNL     1     150.464 160.357 151.219  1.00  0.00     0.041 C 
ATOM     11  O   UNL     1     150.260 159.901 152.375  1.00  0.00    -0.550 OA
ATOM     12  O   UNL     1     150.801 159.489 150.186  1.00  0.00    -0.550 OA
ENDBRANCH   9  10
ENDBRANCH   8   9
ENDBRANCH   7   8
ENDBRANCH   6   7
ENDBRANCH   5   6
ENDBRANCH   4   5
ENDBRANCH   3   4
ENDBRANCH   1   3
BRANCH   2  13
ATOM     13  C   UNL     1     146.678 162.285 153.180  1.00  0.00     0.027 C 
BRANCH  13  14
ATOM     14  C   UNL     1     146.672 162.247 151.646  1.00  0.00     0.004 C 
BRANCH  14  15
ATOM     15  C   UNL     1     146.227 163.577 151.016  1.00  0.00     0.000 C 
BRANCH  15  16
ATOM     16  C   UNL     1     147.343 164.645 150.978  1.00  0.00     0.000 C 
BRANCH  16  17
ATOM     17  C   UNL     1     146.924 165.949 151.676  1.00  0.00    -0.000 C 
BRANCH  17  18
ATOM     18  C   UNL     1     147.578 166.062 153.063  1.00  0.00    -0.000 C 
BRANCH  18  19
ATOM     19  C   UNL     1     146.575 165.869 154.210  1.00  0.00    -0.003 C 
ATOM     20  C   UNL     1     147.239 165.877 155.589  1.00  0.00     0.004 C 
ENDBRANCH  18  19
ENDBRANCH  17  18
ENDBRANCH  16  17
ENDBRANCH  15  16
ENDBRANCH  14  15
ENDBRANCH  13  14
ENDBRANCH   2  13
TORSDOF 15
ENDMDL
MODEL 7
REMARK VINA RESULT:    -2.933      3.912      6.174
REMARK INTER + INTRA:          -8.042
REMARK INTER:                  -4.925
REMARK INTRA:                  -3.116
REMARK UNBOUND:                -2.537
REMARK SMILES CCCCCCCCC=CCCCCCCCC(=O)[O-]
REMARK SMILES IDX 10 1 9 2 11 3 12 4 13 5 14 6 15 7 16 8 17 9 18 10 19 11
REMARK SMILES IDX 20 12 8 13 7 14 6 15 5 16 4 17 3 18 2 19 1 20
REMARK H PARENT
REMARK Flexibility Score: inf
ROOT
ATOM      1  C   UNL     1     146.561 162.877 153.730  1.00  0.00    -0.031 C 
ATOM      2  C   UNL     1     146.031 163.973 154.293  1.00  0.00    -0.031 C 
ENDROOT
BRANCH   1   3
ATOM      3  C   UNL     1     145.929 162.215 152.535  1.00  0.00     0.027 C 
BRANCH   3   4
ATOM      4  C   UNL     1     146.975 161.878 151.463  1.00  0.00     0.004 C 
BRANCH   4   5
ATOM      5  C   UNL     1     148.285 162.663 151.662  1.00  0.00     0.000 C 
BRANCH   5   6
ATOM      6  C   UNL     1     148.413 163.859 150.700  1.00  0.00     0.000 C 
BRANCH   6   7
ATOM      7  C   UNL     1     148.619 165.221 151.389  1.00  0.00     0.000 C 
BRANCH   7   8
ATOM      8  C   UNL     1     147.312 166.027 151.518  1.00  0.00     0.006 C 
BRANCH   8   9
ATOM      9  C   UNL     1     146.622 166.238 150.162  1.00  0.00     0.053 C 
BRANCH   9  10
ATOM     10  C   UNL     1     147.382 167.196 149.295  1.00  0.00     0.041 C 
ATOM     11  O   UNL     1     147.685 168.338 149.729  1.00  0.00    -0.550 OA
ATOM     12  O   UNL     1     147.768 166.821 148.012  1.00  0.00    -0.550 OA
ENDBRANCH   9  10
ENDBRANCH   8   9
ENDBRANCH   7   8
ENDBRANCH   6   7
ENDBRANCH   5   6
ENDBRANCH   4   5
ENDBRANCH   3   4
ENDBRANCH   1   3
BRANCH   2  13
ATOM     13  C   UNL     1     146.669 164.626 155.488  1.00  0.00     0.027 C 
BRANCH  13  14
ATOM     14  C   UNL     1     148.046 165.202 155.126  1.00  0.00     0.004 C 
BRANCH  14  15
ATOM     15  C   UNL     1     149.209 164.337 155.641  1.00  0.00     0.000 C 
BRANCH  15  16
ATOM     16  C   UNL     1     150.161 163.858 154.523  1.00  0.00     0.000 C 
BRANCH  16  17
ATOM     17  C   UNL     1     150.553 162.380 154.686  1.00  0.00    -0.000 C 
BRANCH  17  18
ATOM     18  C   UNL     1     149.434 161.591 155.385  1.00  0.00    -0.000 C 
BRANCH  18  19
ATOM     19  C   UNL     1     149.173 160.224 154.732  1.00  0.00    -0.003 C 
ATOM     20  C   UNL     1     150.012 159.997 153.473  1.00  0.00     0.004 C 
ENDBRANCH  18  19
ENDBRANCH  17  18
ENDBRANCH  16  17
ENDBRANCH  15  16
ENDBRANCH  14  15
ENDBRANCH  13  14
ENDBRANCH   2  13
TORSDOF 15
ENDMDL
MODEL 8
REMARK VINA RESULT:    -2.931      2.036      4.379
REMARK INTER + INTRA:          -8.039
REMARK INTER:                  -5.274
REMARK INTRA:                  -2.765
REMARK UNBOUND:                -2.537
REMARK SMILES CCCCCCCCC=CCCCCCCCC(=O)[O-]
REMARK SMILES IDX 10 1 9 2 11 3 12 4 13 5 14 6 15 7 16 8 17 9 18 10 19 11
REMARK SMILES IDX 20 12 8 13 7 14 6 15 5 16 4 17 3 18 2 19 1 20
REMARK H PARENT
REMARK Flexibility Score: inf
ROOT
ATOM      1  C   UNL     1     147.149 165.972 152.970  1.00  0.00    -0.031 C 
ATOM      2  C   UNL     1     146.216 165.538 153.830  1.00  0.00    -0.031 C 
ENDROOT
BRANCH   1   3
ATOM      3  C   UNL     1     147.134 165.576 151.518  1.00  0.00     0.027 C 
BRANCH   3   4
ATOM      4  C   UNL     1     146.472 164.205 151.318  1.00  0.00     0.004 C 
BRANCH   4   5
ATOM      5  C   UNL     1     147.506 163.092 151.066  1.00  0.00     0.000 C 
BRANCH   5   6
ATOM      6  C   UNL     1     148.782 163.612 150.377  1.00  0.00     0.000 C 
BRANCH   6   7
ATOM      7  C   UNL     1     150.049 162.782 150.658  1.00  0.00     0.000 C 
BRANCH   7   8
ATOM      8  C   UNL     1     149.734 161.410 151.285  1.00  0.00     0.006 C 
BRANCH   8   9
ATOM      9  C   UNL     1     150.760 160.339 150.884  1.00  0.00     0.053 C 
BRANCH   9  10
ATOM     10  C   UNL     1     150.982 159.342 151.981  1.00  0.00     0.041 C 
ATOM     11  O   UNL     1     150.354 159.447 153.068  1.00  0.00    -0.550 OA
ATOM     12  O   UNL     1     151.870 158.288 151.798  1.00  0.00    -0.550 OA
ENDBRANCH   9  10
ENDBRANCH   8   9
ENDBRANCH   7   8
ENDBRANCH   6   7
ENDBRANCH   5   6
ENDBRANCH   4   5
ENDBRANCH   3   4
ENDBRANCH   1   3
BRANCH   2  13
ATOM     13  C   UNL     1     146.240 165.939 155.279  1.00  0.00     0.027 C 
BRANCH  13  14
ATOM     14  C   UNL     1     146.254 164.702 156.189  1.00  0.00     0.004 C 
BRANCH  14  15
ATOM     15  C   UNL     1     145.875 163.410 155.447  1.00  0.00     0.000 C 
BRANCH  15  16
ATOM     16  C   UNL     1     146.890 162.264 155.649  1.00  0.00     0.000 C 
BRANCH  16  17
ATOM     17  C   UNL     1     147.891 162.160 154.486  1.00  0.00    -0.000 C 
BRANCH  17  18
ATOM     18  C   UNL     1     149.337 162.154 155.006  1.00  0.00    -0.000 C 
BRANCH  18  19
ATOM     19  C   UNL     1     150.193 163.275 154.396  1.00  0.00    -0.003 C 
ATOM     20  C   UNL     1     149.770 164.668 154.865  1.00  0.00     0.004 C 
ENDBRANCH  18  19
ENDBRANCH  17  18
ENDBRANCH  16  17
ENDBRANCH  15  16
ENDBRANCH  14  15
ENDBRANCH  13  14
ENDBRANCH   2  13
TORSDOF 15
ENDMDL
MODEL 9
REMARK VINA RESULT:    -2.914      2.599      3.937
REMARK INTER + INTRA:          -8.007
REMARK INTER:                  -4.984
REMARK INTRA:                  -3.023
REMARK UNBOUND:                -2.537
REMARK SMILES CCCCCCCCC=CCCCCCCCC(=O)[O-]
REMARK SMILES IDX 10 1 9 2 11 3 12 4 13 5 14 6 15 7 16 8 17 9 18 10 19 11
REMARK SMILES IDX 20 12 8 13 7 14 6 15 5 16 4 17 3 18 2 19 1 20
REMARK H PARENT
REMARK Flexibility Score: inf
ROOT
ATOM      1  C   UNL     1     148.789 164.933 154.212  1.00  0.00    -0.031 C 
ATOM      2  C   UNL     1     148.718 165.589 153.045  1.00  0.00    -0.031 C 
ENDROOT
BRANCH   1   3
ATOM      3  C   UNL     1     150.045 164.228 154.649  1.00  0.00     0.027 C 
BRANCH   3   4
ATOM      4  C   UNL     1     149.762 162.774 155.049  1.00  0.00     0.004 C 
BRANCH   4   5
ATOM      5  C   UNL     1     148.261 162.516 155.275  1.00  0.00     0.000 C 
BRANCH   5   6
ATOM      6  C   UNL     1     147.722 161.352 154.421  1.00  0.00     0.000 C 
BRANCH   6   7
ATOM      7  C   UNL     1     146.826 161.779 153.243  1.00  0.00     0.000 C 
BRANCH   7   8
ATOM      8  C   UNL     1     147.423 161.402 151.873  1.00  0.00     0.006 C 
BRANCH   8   9
ATOM      9  C   UNL     1     148.595 162.313 151.480  1.00  0.00     0.053 C 
BRANCH   9  10
ATOM     10  C   UNL     1     149.892 161.564 151.437  1.00  0.00     0.041 C 
ATOM     11  O   UNL     1     149.901 160.327 151.200  1.00  0.00    -0.550 OA
ATOM     12  O   UNL     1     151.093 162.235 151.642  1.00  0.00    -0.550 OA
ENDBRANCH   9  10
ENDBRANCH   8   9
ENDBRANCH   7   8
ENDBRANCH   6   7
ENDBRANCH   5   6
ENDBRANCH   4   5
ENDBRANCH   3   4
ENDBRANCH   1   3
BRANCH   2  13
ATOM     13  C   UNL     1     147.457 166.290 152.616  1.00  0.00     0.027 C 
BRANCH  13  14
ATOM     14  C   UNL     1     146.260 165.330 152.647  1.00  0.00     0.004 C 
BRANCH  14  15
ATOM     15  C   UNL     1     145.877 164.807 151.253  1.00  0.00     0.000 C 
BRANCH  15  16
ATOM     16  C   UNL     1     145.993 165.875 150.142  1.00  0.00     0.000 C 
BRANCH  16  17
ATOM     17  C   UNL     1     147.001 165.474 149.053  1.00  0.00    -0.000 C 
BRANCH  17  18
ATOM     18  C   UNL     1     148.175 166.466 149.001  1.00  0.00    -0.000 C 
BRANCH  18  19
ATOM     19  C   UNL     1     149.524 165.809 149.330  1.00  0.00    -0.003 C 
ATOM     20  C   UNL     1     149.643 164.388 148.776  1.00  0.00     0.004 C 
ENDBRANCH  18  19
ENDBRANCH  17  18
ENDBRANCH  16  17
ENDBRANCH  15  16
ENDBRANCH  14  15
ENDBRANCH  13  14
ENDBRANCH   2  13
TORSDOF 15
ENDMDL
