MODEL 1
REMARK VINA RESULT:    -5.078      0.000      0.000
REMARK INTER + INTRA:          -5.973
REMARK INTER:                  -5.820
REMARK INTRA:                  -0.153
REMARK UNBOUND:                -0.153
REMARK SMILES O=C([O-])C=Cc1ccc(O)cc1
REMARK SMILES IDX 6 1 7 2 12 3 8 4 11 5 9 6 5 7 4 8 2 9 1 10 3 11 10 12
REMARK H PARENT 10 13
REMARK Flexibility Score: inf
ROOT
ATOM      1  C   UNL     1      11.645 -15.768   7.478  1.00  0.00    -0.025 A 
ATOM      2  C   UNL     1      12.859 -16.456   7.271  1.00  0.00     0.012 A 
ATOM      3  C   UNL     1      11.667 -14.366   7.563  1.00  0.00     0.012 A 
ATOM      4  C   UNL     1      14.057 -15.749   7.129  1.00  0.00     0.047 A 
ATOM      5  C   UNL     1      12.867 -13.663   7.419  1.00  0.00     0.047 A 
ATOM      6  C   UNL     1      14.063 -14.350   7.200  1.00  0.00     0.115 A 
ENDROOT
BRANCH   1   7
ATOM      7  C   UNL     1      10.348 -16.470   7.648  1.00  0.00     0.010 C 
ATOM      8  C   UNL     1       9.173 -15.839   7.789  1.00  0.00     0.025 C 
BRANCH   8   9
ATOM      9  C   UNL     1       7.913 -16.577   7.967  1.00  0.00     0.064 C 
ATOM     10  O   UNL     1       7.617 -17.503   7.167  1.00  0.00    -0.545 OA
ATOM     11  O   UNL     1       7.041 -16.270   9.006  1.00  0.00    -0.545 OA
ENDBRANCH   8   9
ENDBRANCH   1   7
BRANCH   6  12
ATOM     12  O   UNL     1      15.251 -13.636   7.058  1.00  0.00    -0.508 OA
ATOM     13  H   UNL     1      15.259 -12.685   6.705  1.00  0.00     0.293 HD
ENDBRANCH   6  12
TORSDOF 3
ENDMDL
MODEL 2
REMARK VINA RESULT:    -5.012      0.492      1.481
REMARK INTER + INTRA:          -5.898
REMARK INTER:                  -5.757
REMARK INTRA:                  -0.140
REMARK UNBOUND:                -0.153
REMARK SMILES O=C([O-])C=Cc1ccc(O)cc1
REMARK SMILES IDX 6 1 7 2 12 3 8 4 11 5 9 6 5 7 4 8 2 9 1 10 3 11 10 12
REMARK H PARENT 10 13
REMARK Flexibility Score: inf
ROOT
ATOM      1  C   UNL     1      11.611 -15.804   7.417  1.00  0.00    -0.025 A 
ATOM      2  C   UNL     1      11.590 -14.397   7.523  1.00  0.00     0.012 A 
ATOM      3  C   UNL     1      12.838 -16.446   7.181  1.00  0.00     0.012 A 
ATOM      4  C   UNL     1      12.774 -13.663   7.419  1.00  0.00     0.047 A 
ATOM      5  C   UNL     1      14.020 -15.707   7.079  1.00  0.00     0.047 A 
ATOM      6  C   UNL     1      13.994 -14.316   7.199  1.00  0.00     0.115 A 
ENDROOT
BRANCH   1   7
ATOM      7  C   UNL     1      10.382 -16.631   7.507  1.00  0.00     0.010 C 
ATOM      8  C   UNL     1       9.162 -16.193   7.163  1.00  0.00     0.025 C 
BRANCH   8   9
ATOM      9  C   UNL     1       7.969 -17.045   7.281  1.00  0.00     0.064 C 
ATOM     10  O   UNL     1       7.784 -17.973   6.450  1.00  0.00    -0.545 OA
ATOM     11  O   UNL     1       7.042 -16.846   8.297  1.00  0.00    -0.545 OA
ENDBRANCH   8   9
ENDBRANCH   1   7
BRANCH   6  12
ATOM     12  O   UNL     1      15.180 -13.593   7.096  1.00  0.00    -0.508 OA
ATOM     13  H   UNL     1      15.190 -12.637   6.758  1.00  0.00     0.293 HD
ENDBRANCH   6  12
TORSDOF 3
ENDMDL
MODEL 3
REMARK VINA RESULT:    -4.598      1.769      6.015
REMARK INTER + INTRA:          -5.422
REMARK INTER:                  -5.285
REMARK INTRA:                  -0.138
REMARK UNBOUND:                -0.153
REMARK SMILES O=C([O-])C=Cc1ccc(O)cc1
REMARK SMILES IDX 6 1 7 2 12 3 8 4 11 5 9 6 5 7 4 8 2 9 1 10 3 11 10 12
REMARK H PARENT 10 13
REMARK Flexibility Score: inf
ROOT
ATOM      1  C   UNL     1       9.163 -16.349   7.615  1.00  0.00    -0.025 A 
ATOM      2  C   UNL     1       8.776 -17.385   6.740  1.00  0.00     0.012 A 
ATOM      3  C   UNL     1       8.252 -15.910   8.589  1.00  0.00     0.012 A 
ATOM      4  C   UNL     1       7.515 -17.977   6.860  1.00  0.00     0.047 A 
ATOM      5  C   UNL     1       6.992 -16.505   8.706  1.00  0.00     0.047 A 
ATOM      6  C   UNL     1       6.621 -17.540   7.845  1.00  0.00     0.115 A 
ENDROOT
BRANCH   1   7
ATOM      7  C   UNL     1      10.484 -15.678   7.524  1.00  0.00     0.010 C 
ATOM      8  C   UNL     1      11.447 -15.801   8.449  1.00  0.00     0.025 C 
BRANCH   8   9
ATOM      9  C   UNL     1      12.738 -15.107   8.323  1.00  0.00     0.064 C 
ATOM     10  O   UNL     1      13.735 -15.527   8.967  1.00  0.00    -0.545 OA
ATOM     11  O   UNL     1      12.878 -13.994   7.501  1.00  0.00    -0.545 OA
ENDBRANCH   8   9
ENDBRANCH   1   7
BRANCH   6  12
ATOM     12  O   UNL     1       5.363 -18.124   7.973  1.00  0.00    -0.508 OA
ATOM     13  H   UNL     1       4.700 -17.808   8.673  1.00  0.00     0.293 HD
ENDBRANCH   6  12
TORSDOF 3
ENDMDL
MODEL 4
REMARK VINA RESULT:    -4.583      1.452      1.745
REMARK INTER + INTRA:          -5.405
REMARK INTER:                  -5.252
REMARK INTRA:                  -0.153
REMARK UNBOUND:                -0.153
REMARK SMILES O=C([O-])C=Cc1ccc(O)cc1
REMARK SMILES IDX 6 1 7 2 12 3 8 4 11 5 9 6 5 7 4 8 2 9 1 10 3 11 10 12
REMARK H PARENT 10 13
REMARK Flexibility Score: inf
ROOT
ATOM      1  C   UNL     1      11.339 -16.702   7.659  1.00  0.00    -0.025 A 
ATOM      2  C   UNL     1      12.295 -17.319   6.826  1.00  0.00     0.012 A 
ATOM      3  C   UNL     1      11.783 -15.857   8.689  1.00  0.00     0.012 A 
ATOM      4  C   UNL     1      13.659 -17.071   7.011  1.00  0.00     0.047 A 
ATOM      5  C   UNL     1      13.147 -15.611   8.870  1.00  0.00     0.047 A 
ATOM      6  C   UNL     1      14.088 -16.214   8.033  1.00  0.00     0.115 A 
ENDROOT
BRANCH   1   7
ATOM      7  C   UNL     1       9.881 -16.940   7.514  1.00  0.00     0.010 C 
ATOM      8  C   UNL     1       8.947 -16.298   8.230  1.00  0.00     0.025 C 
BRANCH   8   9
ATOM      9  C   UNL     1       7.512 -16.575   8.060  1.00  0.00     0.064 C 
ATOM     10  O   UNL     1       6.669 -15.907   8.714  1.00  0.00    -0.545 OA
ATOM     11  O   UNL     1       7.069 -17.563   7.187  1.00  0.00    -0.545 OA
ENDBRANCH   8   9
ENDBRANCH   1   7
BRANCH   6  12
ATOM     12  O   UNL     1      15.444 -15.960   8.224  1.00  0.00    -0.508 OA
ATOM     13  H   UNL     1      16.066 -16.662   8.611  1.00  0.00     0.293 HD
ENDBRANCH   6  12
TORSDOF 3
ENDMDL
MODEL 5
REMARK VINA RESULT:    -3.877      1.671      2.511
REMARK INTER + INTRA:          -4.597
REMARK INTER:                  -4.445
REMARK INTRA:                  -0.152
REMARK UNBOUND:                -0.153
REMARK SMILES O=C([O-])C=Cc1ccc(O)cc1
REMARK SMILES IDX 6 1 7 2 12 3 8 4 11 5 9 6 5 7 4 8 2 9 1 10 3 11 10 12
REMARK H PARENT 10 13
REMARK Flexibility Score: inf
ROOT
ATOM      1  C   UNL     1      10.372 -16.413   7.697  1.00  0.00    -0.025 A 
ATOM      2  C   UNL     1      11.364 -15.412   7.759  1.00  0.00     0.012 A 
ATOM      3  C   UNL     1      10.720 -17.684   7.212  1.00  0.00     0.012 A 
ATOM      4  C   UNL     1      12.676 -15.694   7.366  1.00  0.00     0.047 A 
ATOM      5  C   UNL     1      12.034 -17.961   6.822  1.00  0.00     0.047 A 
ATOM      6  C   UNL     1      13.014 -16.970   6.898  1.00  0.00     0.115 A 
ENDROOT
BRANCH   1   7
ATOM      7  C   UNL     1       8.962 -16.164   8.090  1.00  0.00     0.010 C 
ATOM      8  C   UNL     1       8.043 -17.132   8.218  1.00  0.00     0.025 C 
BRANCH   8   9
ATOM      9  C   UNL     1       6.652 -16.838   8.599  1.00  0.00     0.064 C 
ATOM     10  O   UNL     1       5.814 -17.775   8.664  1.00  0.00    -0.545 OA
ATOM     11  O   UNL     1       6.247 -15.540   8.891  1.00  0.00    -0.545 OA
ENDBRANCH   8   9
ENDBRANCH   1   7
BRANCH   6  12
ATOM     12  O   UNL     1      14.319 -17.261   6.506  1.00  0.00    -0.508 OA
ATOM     13  H   UNL     1      15.003 -16.527   6.357  1.00  0.00     0.293 HD
ENDBRANCH   6  12
TORSDOF 3
ENDMDL
MODEL 6
REMARK VINA RESULT:    -3.526      1.187      5.846
REMARK INTER + INTRA:          -4.195
REMARK INTER:                  -4.052
REMARK INTRA:                  -0.142
REMARK UNBOUND:                -0.153
REMARK SMILES O=C([O-])C=Cc1ccc(O)cc1
REMARK SMILES IDX 6 1 7 2 12 3 8 4 11 5 9 6 5 7 4 8 2 9 1 10 3 11 10 12
REMARK H PARENT 10 13
REMARK Flexibility Score: inf
ROOT
ATOM      1  C   UNL     1      10.815 -16.492   7.567  1.00  0.00    -0.025 A 
ATOM      2  C   UNL     1       9.861 -15.546   7.137  1.00  0.00     0.012 A 
ATOM      3  C   UNL     1      10.380 -17.779   7.924  1.00  0.00     0.012 A 
ATOM      4  C   UNL     1       8.511 -15.896   7.046  1.00  0.00     0.047 A 
ATOM      5  C   UNL     1       9.029 -18.125   7.829  1.00  0.00     0.047 A 
ATOM      6  C   UNL     1       8.092 -17.188   7.390  1.00  0.00     0.115 A 
ENDROOT
BRANCH   1   7
ATOM      7  C   UNL     1      12.259 -16.169   7.694  1.00  0.00     0.010 C 
ATOM      8  C   UNL     1      12.761 -14.934   7.553  1.00  0.00     0.025 C 
BRANCH   8   9
ATOM      9  C   UNL     1      14.202 -14.663   7.676  1.00  0.00     0.064 C 
ATOM     10  O   UNL     1      14.996 -15.613   7.905  1.00  0.00    -0.545 OA
ATOM     11  O   UNL     1      14.705 -13.374   7.539  1.00  0.00    -0.545 OA
ENDBRANCH   8   9
ENDBRANCH   1   7
BRANCH   6  12
ATOM     12  O   UNL     1       6.749 -17.547   7.300  1.00  0.00    -0.508 OA
ATOM     13  H   UNL     1       6.335 -17.835   6.421  1.00  0.00     0.293 HD
ENDBRANCH   6  12
TORSDOF 3
ENDMDL
MODEL 7
REMARK VINA RESULT:    -2.472      2.448      3.308
REMARK INTER + INTRA:          -2.986
REMARK INTER:                  -2.837
REMARK INTRA:                  -0.149
REMARK UNBOUND:                -0.153
REMARK SMILES O=C([O-])C=Cc1ccc(O)cc1
REMARK SMILES IDX 6 1 7 2 12 3 8 4 11 5 9 6 5 7 4 8 2 9 1 10 3 11 10 12
REMARK H PARENT 10 13
REMARK Flexibility Score: inf
ROOT
ATOM      1  C   UNL     1       8.799 -17.241   7.988  1.00  0.00    -0.025 A 
ATOM      2  C   UNL     1       9.553 -18.095   7.157  1.00  0.00     0.012 A 
ATOM      3  C   UNL     1       9.408 -16.084   8.500  1.00  0.00     0.012 A 
ATOM      4  C   UNL     1      10.876 -17.779   6.834  1.00  0.00     0.047 A 
ATOM      5  C   UNL     1      10.731 -15.771   8.173  1.00  0.00     0.047 A 
ATOM      6  C   UNL     1      11.467 -16.615   7.339  1.00  0.00     0.115 A 
ENDROOT
BRANCH   1   7
ATOM      7  C   UNL     1       7.395 -17.534   8.372  1.00  0.00     0.010 C 
ATOM      8  C   UNL     1       6.458 -16.592   8.549  1.00  0.00     0.025 C 
BRANCH   8   9
ATOM      9  C   UNL     1       5.081 -16.929   8.943  1.00  0.00     0.064 C 
ATOM     10  O   UNL     1       4.786 -18.124   9.207  1.00  0.00    -0.545 OA
ATOM     11  O   UNL     1       4.099 -15.949   9.031  1.00  0.00    -0.545 OA
ENDBRANCH   8   9
ENDBRANCH   1   7
BRANCH   6  12
ATOM     12  O   UNL     1      12.784 -16.290   7.021  1.00  0.00    -0.508 OA
ATOM     13  H   UNL     1      13.039 -15.957   6.098  1.00  0.00     0.293 HD
ENDBRANCH   6  12
TORSDOF 3
ENDMDL
MODEL 8
REMARK VINA RESULT:    -2.184      3.109      6.490
REMARK INTER + INTRA:          -2.655
REMARK INTER:                  -2.520
REMARK INTRA:                  -0.136
REMARK UNBOUND:                -0.153
REMARK SMILES O=C([O-])C=Cc1ccc(O)cc1
REMARK SMILES IDX 6 1 7 2 12 3 8 4 11 5 9 6 5 7 4 8 2 9 1 10 3 11 10 12
REMARK H PARENT 10 13
REMARK Flexibility Score: inf
ROOT
ATOM      1  C   UNL     1       8.584 -17.451   8.292  1.00  0.00    -0.025 A 
ATOM      2  C   UNL     1       7.732 -16.752   7.412  1.00  0.00     0.012 A 
ATOM      3  C   UNL     1       8.020 -18.125   9.388  1.00  0.00     0.012 A 
ATOM      4  C   UNL     1       6.349 -16.753   7.618  1.00  0.00     0.047 A 
ATOM      5  C   UNL     1       6.637 -18.124   9.589  1.00  0.00     0.047 A 
ATOM      6  C   UNL     1       5.798 -17.441   8.706  1.00  0.00     0.115 A 
ENDROOT
BRANCH   1   7
ATOM      7  C   UNL     1      10.059 -17.473   8.128  1.00  0.00     0.010 C 
ATOM      8  C   UNL     1      10.681 -17.962   7.044  1.00  0.00     0.025 C 
BRANCH   8   9
ATOM      9  C   UNL     1      12.147 -17.974   6.930  1.00  0.00     0.064 C 
ATOM     10  O   UNL     1      12.681 -18.099   5.796  1.00  0.00    -0.545 OA
ATOM     11  O   UNL     1      12.957 -17.846   8.053  1.00  0.00    -0.545 OA
ENDBRANCH   8   9
ENDBRANCH   1   7
BRANCH   6  12
ATOM     12  O   UNL     1       4.421 -17.449   8.919  1.00  0.00    -0.508 OA
ATOM     13  H   UNL     1       3.766 -17.513   8.147  1.00  0.00     0.293 HD
ENDBRANCH   6  12
TORSDOF 3
ENDMDL
