MODEL 1
REMARK VINA RESULT:    -5.035      0.000      0.000
REMARK INTER + INTRA:         -13.105
REMARK INTER:                 -10.922
REMARK INTRA:                  -2.183
REMARK UNBOUND:                -2.183
REMARK SMILES CCCCCCCCCCCCCCCCCCCCCC(=O)[O-]
REMARK SMILES IDX 12 1 11 2 10 3 9 4 8 5 7 6 6 7 5 8 4 9 3 10 2 11 1 12 13 13
REMARK SMILES IDX 14 14 15 15 16 16 17 17 18 18 19 19 20 20 21 21 22 22 23 23
REMARK SMILES IDX 24 24
REMARK H PARENT
REMARK Flexibility Score: inf
ROOT
ATOM      1  C   UNL     1      14.136  25.912  51.793  1.00  0.00     0.000 C 
ENDROOT
BRANCH   1   2
ATOM      2  C   UNL     1      14.468  26.295  50.342  1.00  0.00     0.000 C 
BRANCH   2   3
ATOM      3  C   UNL     1      15.781  27.087  50.255  1.00  0.00     0.000 C 
BRANCH   3   4
ATOM      4  C   UNL     1      15.604  28.548  50.702  1.00  0.00    -0.000 C 
BRANCH   4   5
ATOM      5  C   UNL     1      14.998  29.432  49.597  1.00  0.00    -0.000 C 
BRANCH   5   6
ATOM      6  C   UNL     1      14.881  30.909  50.013  1.00  0.00    -0.000 C 
BRANCH   6   7
ATOM      7  C   UNL     1      15.217  31.198  51.489  1.00  0.00    -0.000 C 
BRANCH   7   8
ATOM      8  C   UNL     1      15.716  32.626  51.779  1.00  0.00    -0.000 C 
BRANCH   8   9
ATOM      9  C   UNL     1      14.626  33.713  51.769  1.00  0.00    -0.000 C 
BRANCH   9  10
ATOM     10  C   UNL     1      13.628  33.568  52.931  1.00  0.00    -0.000 C 
BRANCH  10  11
ATOM     11  C   UNL     1      12.167  33.677  52.466  1.00  0.00    -0.003 C 
ATOM     12  C   UNL     1      11.766  32.544  51.520  1.00  0.00     0.004 C 
ENDBRANCH  10  11
ENDBRANCH   9  10
ENDBRANCH   8   9
ENDBRANCH   7   8
ENDBRANCH   6   7
ENDBRANCH   5   6
ENDBRANCH   4   5
ENDBRANCH   3   4
ENDBRANCH   2   3
ENDBRANCH   1   2
BRANCH   1  13
ATOM     13  C   UNL     1      14.509  24.448  52.114  1.00  0.00     0.000 C 
BRANCH  13  14
ATOM     14  C   UNL     1      15.594  24.291  53.198  1.00  0.00     0.000 C 
BRANCH  14  15
ATOM     15  C   UNL     1      16.548  25.490  53.364  1.00  0.00     0.000 C 
BRANCH  15  16
ATOM     16  C   UNL     1      16.326  26.317  54.644  1.00  0.00     0.000 C 
BRANCH  16  17
ATOM     17  C   UNL     1      15.744  27.710  54.363  1.00  0.00     0.000 C 
BRANCH  17  18
ATOM     18  C   UNL     1      16.089  28.731  55.462  1.00  0.00     0.000 C 
BRANCH  18  19
ATOM     19  C   UNL     1      16.166  30.187  54.955  1.00  0.00     0.000 C 
BRANCH  19  20
ATOM     20  C   UNL     1      16.950  31.098  55.918  1.00  0.00     0.006 C 
BRANCH  20  21
ATOM     21  C   UNL     1      16.160  31.405  57.198  1.00  0.00     0.053 C 
BRANCH  21  22
ATOM     22  C   UNL     1      15.546  32.772  57.151  1.00  0.00     0.041 C 
ATOM     23  O   UNL     1      16.122  33.744  57.709  1.00  0.00    -0.550 OA
ATOM     24  O   UNL     1      14.365  32.982  56.453  1.00  0.00    -0.550 OA
ENDBRANCH  21  22
ENDBRANCH  20  21
ENDBRANCH  19  20
ENDBRANCH  18  19
ENDBRANCH  17  18
ENDBRANCH  16  17
ENDBRANCH  15  16
ENDBRANCH  14  15
ENDBRANCH  13  14
ENDBRANCH   1  13
TORSDOF 20
ENDMDL
MODEL 2
REMARK VINA RESULT:    -5.001      1.742      3.982
REMARK INTER + INTRA:         -13.032
REMARK INTER:                  -9.290
REMARK INTRA:                  -3.742
REMARK UNBOUND:                -2.183
REMARK SMILES CCCCCCCCCCCCCCCCCCCCCC(=O)[O-]
REMARK SMILES IDX 12 1 11 2 10 3 9 4 8 5 7 6 6 7 5 8 4 9 3 10 2 11 1 12 13 13
REMARK SMILES IDX 14 14 15 15 16 16 17 17 18 18 19 19 20 20 21 21 22 22 23 23
REMARK SMILES IDX 24 24
REMARK H PARENT
REMARK Flexibility Score: inf
ROOT
ATOM      1  C   UNL     1      15.663  26.115  54.244  1.00  0.00     0.000 C 
ENDROOT
BRANCH   1   2
ATOM      2  C   UNL     1      16.209  24.911  53.461  1.00  0.00     0.000 C 
BRANCH   2   3
ATOM      3  C   UNL     1      15.127  24.277  52.575  1.00  0.00     0.000 C 
BRANCH   3   4
ATOM      4  C   UNL     1      15.673  23.876  51.194  1.00  0.00    -0.000 C 
BRANCH   4   5
ATOM      5  C   UNL     1      17.004  24.574  50.861  1.00  0.00    -0.000 C 
BRANCH   5   6
ATOM      6  C   UNL     1      16.990  25.254  49.481  1.00  0.00    -0.000 C 
BRANCH   6   7
ATOM      7  C   UNL     1      15.783  26.175  49.222  1.00  0.00    -0.000 C 
BRANCH   7   8
ATOM      8  C   UNL     1      15.805  27.513  49.985  1.00  0.00    -0.000 C 
BRANCH   8   9
ATOM      9  C   UNL     1      14.684  27.690  51.024  1.00  0.00    -0.000 C 
BRANCH   9  10
ATOM     10  C   UNL     1      14.686  29.086  51.672  1.00  0.00    -0.000 C 
BRANCH  10  11
ATOM     11  C   UNL     1      15.307  30.154  50.757  1.00  0.00    -0.003 C 
ATOM     12  C   UNL     1      15.615  31.455  51.498  1.00  0.00     0.004 C 
ENDBRANCH  10  11
ENDBRANCH   9  10
ENDBRANCH   8   9
ENDBRANCH   7   8
ENDBRANCH   6   7
ENDBRANCH   5   6
ENDBRANCH   4   5
ENDBRANCH   3   4
ENDBRANCH   2   3
ENDBRANCH   1   2
BRANCH   1  13
ATOM     13  C   UNL     1      16.655  27.299  54.264  1.00  0.00     0.000 C 
BRANCH  13  14
ATOM     14  C   UNL     1      17.801  27.187  53.239  1.00  0.00     0.000 C 
BRANCH  14  15
ATOM     15  C   UNL     1      18.209  28.503  52.548  1.00  0.00     0.000 C 
BRANCH  15  16
ATOM     16  C   UNL     1      19.319  29.291  53.268  1.00  0.00     0.000 C 
BRANCH  16  17
ATOM     17  C   UNL     1      18.894  30.718  53.644  1.00  0.00     0.000 C 
BRANCH  17  18
ATOM     18  C   UNL     1      18.219  30.792  55.025  1.00  0.00     0.000 C 
BRANCH  18  19
ATOM     19  C   UNL     1      16.677  30.844  54.961  1.00  0.00     0.000 C 
BRANCH  19  20
ATOM     20  C   UNL     1      16.021  30.236  56.215  1.00  0.00     0.006 C 
BRANCH  20  21
ATOM     21  C   UNL     1      16.297  31.067  57.474  1.00  0.00     0.053 C 
BRANCH  21  22
ATOM     22  C   UNL     1      15.700  32.439  57.369  1.00  0.00     0.041 C 
ATOM     23  O   UNL     1      16.432  33.457  57.488  1.00  0.00    -0.550 OA
ATOM     24  O   UNL     1      14.349  32.593  57.095  1.00  0.00    -0.550 OA
ENDBRANCH  21  22
ENDBRANCH  20  21
ENDBRANCH  19  20
ENDBRANCH  18  19
ENDBRANCH  17  18
ENDBRANCH  16  17
ENDBRANCH  15  16
ENDBRANCH  14  15
ENDBRANCH  13  14
ENDBRANCH   1  13
TORSDOF 20
ENDMDL
MODEL 3
REMARK VINA RESULT:    -4.986      2.209      4.979
REMARK INTER + INTRA:         -12.998
REMARK INTER:                  -9.859
REMARK INTRA:                  -3.140
REMARK UNBOUND:                -2.183
REMARK SMILES CCCCCCCCCCCCCCCCCCCCCC(=O)[O-]
REMARK SMILES IDX 12 1 11 2 10 3 9 4 8 5 7 6 6 7 5 8 4 9 3 10 2 11 1 12 13 13
REMARK SMILES IDX 14 14 15 15 16 16 17 17 18 18 19 19 20 20 21 21 22 22 23 23
REMARK SMILES IDX 24 24
REMARK H PARENT
REMARK Flexibility Score: inf
ROOT
ATOM      1  C   UNL     1      15.449  25.586  53.841  1.00  0.00     0.000 C 
ENDROOT
BRANCH   1   2
ATOM      2  C   UNL     1      16.822  26.165  54.216  1.00  0.00     0.000 C 
BRANCH   2   3
ATOM      3  C   UNL     1      17.918  25.682  53.255  1.00  0.00     0.000 C 
BRANCH   3   4
ATOM      4  C   UNL     1      19.095  26.670  53.177  1.00  0.00    -0.000 C 
BRANCH   4   5
ATOM      5  C   UNL     1      18.802  27.862  52.249  1.00  0.00    -0.000 C 
BRANCH   5   6
ATOM      6  C   UNL     1      19.101  29.219  52.911  1.00  0.00    -0.000 C 
BRANCH   6   7
ATOM      7  C   UNL     1      17.900  30.181  52.995  1.00  0.00    -0.000 C 
BRANCH   7   8
ATOM      8  C   UNL     1      17.418  30.502  54.422  1.00  0.00    -0.000 C 
BRANCH   8   9
ATOM      9  C   UNL     1      16.442  29.478  55.028  1.00  0.00    -0.000 C 
BRANCH   9  10
ATOM     10  C   UNL     1      15.635  30.049  56.208  1.00  0.00    -0.000 C 
BRANCH  10  11
ATOM     11  C   UNL     1      16.507  30.872  57.170  1.00  0.00    -0.003 C 
ATOM     12  C   UNL     1      16.033  32.319  57.302  1.00  0.00     0.004 C 
ENDBRANCH  10  11
ENDBRANCH   9  10
ENDBRANCH   8   9
ENDBRANCH   7   8
ENDBRANCH   6   7
ENDBRANCH   5   6
ENDBRANCH   4   5
ENDBRANCH   3   4
ENDBRANCH   2   3
ENDBRANCH   1   2
BRANCH   1  13
ATOM     13  C   UNL     1      15.562  24.213  53.144  1.00  0.00     0.000 C 
BRANCH  13  14
ATOM     14  C   UNL     1      15.044  24.192  51.692  1.00  0.00     0.000 C 
BRANCH  14  15
ATOM     15  C   UNL     1      13.632  24.772  51.479  1.00  0.00     0.000 C 
BRANCH  15  16
ATOM     16  C   UNL     1      13.602  26.245  51.032  1.00  0.00     0.000 C 
BRANCH  16  17
ATOM     17  C   UNL     1      14.657  26.569  49.963  1.00  0.00     0.000 C 
BRANCH  17  18
ATOM     18  C   UNL     1      15.574  27.736  50.368  1.00  0.00     0.000 C 
BRANCH  18  19
ATOM     19  C   UNL     1      15.128  28.458  51.658  1.00  0.00     0.000 C 
BRANCH  19  20
ATOM     20  C   UNL     1      14.314  29.731  51.361  1.00  0.00     0.006 C 
BRANCH  20  21
ATOM     21  C   UNL     1      15.025  30.653  50.361  1.00  0.00     0.053 C 
BRANCH  21  22
ATOM     22  C   UNL     1      15.324  31.992  50.965  1.00  0.00     0.041 C 
ATOM     23  O   UNL     1      15.809  32.912  50.254  1.00  0.00    -0.550 OA
ATOM     24  O   UNL     1      15.026  32.239  52.298  1.00  0.00    -0.550 OA
ENDBRANCH  21  22
ENDBRANCH  20  21
ENDBRANCH  19  20
ENDBRANCH  18  19
ENDBRANCH  17  18
ENDBRANCH  16  17
ENDBRANCH  15  16
ENDBRANCH  14  15
ENDBRANCH  13  14
ENDBRANCH   1  13
TORSDOF 20
ENDMDL
MODEL 4
REMARK VINA RESULT:    -4.926      3.268      4.867
REMARK INTER + INTRA:         -12.870
REMARK INTER:                  -9.609
REMARK INTRA:                  -3.261
REMARK UNBOUND:                -2.183
REMARK SMILES CCCCCCCCCCCCCCCCCCCCCC(=O)[O-]
REMARK SMILES IDX 12 1 11 2 10 3 9 4 8 5 7 6 6 7 5 8 4 9 3 10 2 11 1 12 13 13
REMARK SMILES IDX 14 14 15 15 16 16 17 17 18 18 19 19 20 20 21 21 22 22 23 23
REMARK SMILES IDX 24 24
REMARK H PARENT
REMARK Flexibility Score: inf
ROOT
ATOM      1  C   UNL     1      16.740  25.803  53.620  1.00  0.00     0.000 C 
ENDROOT
BRANCH   1   2
ATOM      2  C   UNL     1      15.760  24.621  53.577  1.00  0.00     0.000 C 
BRANCH   2   3
ATOM      3  C   UNL     1      14.982  24.581  52.253  1.00  0.00     0.000 C 
BRANCH   3   4
ATOM      4  C   UNL     1      14.005  25.762  52.123  1.00  0.00    -0.000 C 
BRANCH   4   5
ATOM      5  C   UNL     1      14.062  26.423  50.734  1.00  0.00    -0.000 C 
BRANCH   5   6
ATOM      6  C   UNL     1      15.495  26.777  50.301  1.00  0.00    -0.000 C 
BRANCH   6   7
ATOM      7  C   UNL     1      15.995  28.156  50.773  1.00  0.00    -0.000 C 
BRANCH   7   8
ATOM      8  C   UNL     1      14.888  29.177  51.097  1.00  0.00    -0.000 C 
BRANCH   8   9
ATOM      9  C   UNL     1      15.388  30.552  51.576  1.00  0.00    -0.000 C 
BRANCH   9  10
ATOM     10  C   UNL     1      14.488  31.709  51.109  1.00  0.00    -0.000 C 
BRANCH  10  11
ATOM     11  C   UNL     1      14.933  33.065  51.681  1.00  0.00    -0.003 C 
ATOM     12  C   UNL     1      15.825  33.845  50.715  1.00  0.00     0.004 C 
ENDBRANCH  10  11
ENDBRANCH   9  10
ENDBRANCH   8   9
ENDBRANCH   7   8
ENDBRANCH   6   7
ENDBRANCH   5   6
ENDBRANCH   4   5
ENDBRANCH   3   4
ENDBRANCH   2   3
ENDBRANCH   1   2
BRANCH   1  13
ATOM     13  C   UNL     1      16.485  26.733  54.826  1.00  0.00     0.000 C 
BRANCH  13  14
ATOM     14  C   UNL     1      15.816  28.075  54.465  1.00  0.00     0.000 C 
BRANCH  14  15
ATOM     15  C   UNL     1      15.728  29.105  55.608  1.00  0.00     0.000 C 
BRANCH  15  16
ATOM     16  C   UNL     1      16.223  30.517  55.242  1.00  0.00     0.000 C 
BRANCH  16  17
ATOM     17  C   UNL     1      17.468  30.939  56.035  1.00  0.00     0.000 C 
BRANCH  17  18
ATOM     18  C   UNL     1      18.732  31.015  55.160  1.00  0.00     0.000 C 
BRANCH  18  19
ATOM     19  C   UNL     1      18.493  30.614  53.688  1.00  0.00     0.000 C 
BRANCH  19  20
ATOM     20  C   UNL     1      19.668  29.805  53.108  1.00  0.00     0.006 C 
BRANCH  20  21
ATOM     21  C   UNL     1      19.324  28.318  52.947  1.00  0.00     0.053 C 
BRANCH  21  22
ATOM     22  C   UNL     1      19.901  27.754  51.683  1.00  0.00     0.041 C 
ATOM     23  O   UNL     1      21.035  28.130  51.282  1.00  0.00    -0.550 OA
ATOM     24  O   UNL     1      19.211  26.780  50.975  1.00  0.00    -0.550 OA
ENDBRANCH  21  22
ENDBRANCH  20  21
ENDBRANCH  19  20
ENDBRANCH  18  19
ENDBRANCH  17  18
ENDBRANCH  16  17
ENDBRANCH  15  16
ENDBRANCH  14  15
ENDBRANCH  13  14
ENDBRANCH   1  13
TORSDOF 20
ENDMDL
MODEL 5
REMARK VINA RESULT:    -4.886      1.900      5.101
REMARK INTER + INTRA:         -12.782
REMARK INTER:                  -9.168
REMARK INTRA:                  -3.614
REMARK UNBOUND:                -2.183
REMARK SMILES CCCCCCCCCCCCCCCCCCCCCC(=O)[O-]
REMARK SMILES IDX 12 1 11 2 10 3 9 4 8 5 7 6 6 7 5 8 4 9 3 10 2 11 1 12 13 13
REMARK SMILES IDX 14 14 15 15 16 16 17 17 18 18 19 19 20 20 21 21 22 22 23 23
REMARK SMILES IDX 24 24
REMARK H PARENT
REMARK Flexibility Score: inf
ROOT
ATOM      1  C   UNL     1      14.358  26.699  51.965  1.00  0.00     0.000 C 
ENDROOT
BRANCH   1   2
ATOM      2  C   UNL     1      14.849  26.148  53.313  1.00  0.00     0.000 C 
BRANCH   2   3
ATOM      3  C   UNL     1      15.591  24.815  53.140  1.00  0.00     0.000 C 
BRANCH   3   4
ATOM      4  C   UNL     1      17.060  25.020  52.731  1.00  0.00    -0.000 C 
BRANCH   4   5
ATOM      5  C   UNL     1      17.798  26.002  53.658  1.00  0.00    -0.000 C 
BRANCH   5   6
ATOM      6  C   UNL     1      18.564  27.090  52.885  1.00  0.00    -0.000 C 
BRANCH   6   7
ATOM      7  C   UNL     1      17.686  28.219  52.310  1.00  0.00    -0.000 C 
BRANCH   7   8
ATOM      8  C   UNL     1      17.883  29.598  52.967  1.00  0.00    -0.000 C 
BRANCH   8   9
ATOM      9  C   UNL     1      17.636  29.639  54.486  1.00  0.00    -0.000 C 
BRANCH   9  10
ATOM     10  C   UNL     1      16.209  29.212  54.870  1.00  0.00    -0.000 C 
BRANCH  10  11
ATOM     11  C   UNL     1      15.720  29.893  56.159  1.00  0.00    -0.003 C 
ATOM     12  C   UNL     1      16.712  30.928  56.689  1.00  0.00     0.004 C 
ENDBRANCH  10  11
ENDBRANCH   9  10
ENDBRANCH   8   9
ENDBRANCH   7   8
ENDBRANCH   6   7
ENDBRANCH   5   6
ENDBRANCH   4   5
ENDBRANCH   3   4
ENDBRANCH   2   3
ENDBRANCH   1   2
BRANCH   1  13
ATOM     13  C   UNL     1      13.815  25.587  51.041  1.00  0.00     0.000 C 
BRANCH  13  14
ATOM     14  C   UNL     1      14.431  25.577  49.627  1.00  0.00     0.000 C 
BRANCH  14  15
ATOM     15  C   UNL     1      15.911  25.999  49.542  1.00  0.00     0.000 C 
BRANCH  15  16
ATOM     16  C   UNL     1      16.145  27.431  49.026  1.00  0.00     0.000 C 
BRANCH  16  17
ATOM     17  C   UNL     1      14.911  28.026  48.332  1.00  0.00     0.000 C 
BRANCH  17  18
ATOM     18  C   UNL     1      14.652  29.489  48.734  1.00  0.00     0.000 C 
BRANCH  18  19
ATOM     19  C   UNL     1      15.307  29.890  50.074  1.00  0.00     0.000 C 
BRANCH  19  20
ATOM     20  C   UNL     1      14.262  30.241  51.150  1.00  0.00     0.006 C 
BRANCH  20  21
ATOM     21  C   UNL     1      14.115  31.756  51.343  1.00  0.00     0.053 C 
BRANCH  21  22
ATOM     22  C   UNL     1      15.291  32.334  52.071  1.00  0.00     0.041 C 
ATOM     23  O   UNL     1      16.188  32.950  51.435  1.00  0.00    -0.550 OA
ATOM     24  O   UNL     1      15.374  32.235  53.453  1.00  0.00    -0.550 OA
ENDBRANCH  21  22
ENDBRANCH  20  21
ENDBRANCH  19  20
ENDBRANCH  18  19
ENDBRANCH  17  18
ENDBRANCH  16  17
ENDBRANCH  15  16
ENDBRANCH  14  15
ENDBRANCH  13  14
ENDBRANCH   1  13
TORSDOF 20
ENDMDL
MODEL 6
REMARK VINA RESULT:    -4.858      2.848      6.164
REMARK INTER + INTRA:         -12.723
REMARK INTER:                  -9.595
REMARK INTRA:                  -3.127
REMARK UNBOUND:                -2.183
REMARK SMILES CCCCCCCCCCCCCCCCCCCCCC(=O)[O-]
REMARK SMILES IDX 12 1 11 2 10 3 9 4 8 5 7 6 6 7 5 8 4 9 3 10 2 11 1 12 13 13
REMARK SMILES IDX 14 14 15 15 16 16 17 17 18 18 19 19 20 20 21 21 22 22 23 23
REMARK SMILES IDX 24 24
REMARK H PARENT
REMARK Flexibility Score: inf
ROOT
ATOM      1  C   UNL     1      16.003  26.828  54.768  1.00  0.00     0.000 C 
ENDROOT
BRANCH   1   2
ATOM      2  C   UNL     1      16.550  28.263  54.708  1.00  0.00     0.000 C 
BRANCH   2   3
ATOM      3  C   UNL     1      15.727  29.216  55.587  1.00  0.00     0.000 C 
BRANCH   3   4
ATOM      4  C   UNL     1      16.231  30.666  55.496  1.00  0.00    -0.000 C 
BRANCH   4   5
ATOM      5  C   UNL     1      17.156  31.044  56.667  1.00  0.00    -0.000 C 
BRANCH   5   6
ATOM      6  C   UNL     1      18.552  31.495  56.203  1.00  0.00    -0.000 C 
BRANCH   6   7
ATOM      7  C   UNL     1      19.022  30.886  54.868  1.00  0.00    -0.000 C 
BRANCH   7   8
ATOM      8  C   UNL     1      20.431  30.265  54.892  1.00  0.00    -0.000 C 
BRANCH   8   9
ATOM      9  C   UNL     1      20.921  29.703  53.545  1.00  0.00    -0.000 C 
BRANCH   9  10
ATOM     10  C   UNL     1      20.418  28.274  53.277  1.00  0.00    -0.000 C 
BRANCH  10  11
ATOM     11  C   UNL     1      19.266  28.241  52.259  1.00  0.00    -0.003 C 
ATOM     12  C   UNL     1      19.310  27.003  51.364  1.00  0.00     0.004 C 
ENDBRANCH  10  11
ENDBRANCH   9  10
ENDBRANCH   8   9
ENDBRANCH   7   8
ENDBRANCH   6   7
ENDBRANCH   5   6
ENDBRANCH   4   5
ENDBRANCH   3   4
ENDBRANCH   2   3
ENDBRANCH   1   2
BRANCH   1  13
ATOM     13  C   UNL     1      16.788  25.863  53.852  1.00  0.00     0.000 C 
BRANCH  13  14
ATOM     14  C   UNL     1      15.953  24.689  53.301  1.00  0.00     0.000 C 
BRANCH  14  15
ATOM     15  C   UNL     1      14.682  25.083  52.522  1.00  0.00     0.000 C 
BRANCH  15  16
ATOM     16  C   UNL     1      14.690  24.686  51.035  1.00  0.00     0.000 C 
BRANCH  16  17
ATOM     17  C   UNL     1      15.758  25.431  50.221  1.00  0.00     0.000 C 
BRANCH  17  18
ATOM     18  C   UNL     1      15.297  26.830  49.777  1.00  0.00     0.000 C 
BRANCH  18  19
ATOM     19  C   UNL     1      15.900  27.978  50.617  1.00  0.00     0.000 C 
BRANCH  19  20
ATOM     20  C   UNL     1      14.843  28.675  51.493  1.00  0.00     0.006 C 
BRANCH  20  21
ATOM     21  C   UNL     1      15.102  30.182  51.624  1.00  0.00     0.053 C 
BRANCH  21  22
ATOM     22  C   UNL     1      14.269  30.969  50.658  1.00  0.00     0.041 C 
ATOM     23  O   UNL     1      14.545  30.957  49.428  1.00  0.00    -0.550 OA
ATOM     24  O   UNL     1      13.162  31.677  51.105  1.00  0.00    -0.550 OA
ENDBRANCH  21  22
ENDBRANCH  20  21
ENDBRANCH  19  20
ENDBRANCH  18  19
ENDBRANCH  17  18
ENDBRANCH  16  17
ENDBRANCH  15  16
ENDBRANCH  14  15
ENDBRANCH  13  14
ENDBRANCH   1  13
TORSDOF 20
ENDMDL
MODEL 7
REMARK VINA RESULT:    -4.837      2.387      5.460
REMARK INTER + INTRA:         -12.675
REMARK INTER:                  -8.890
REMARK INTRA:                  -3.785
REMARK UNBOUND:                -2.183
REMARK SMILES CCCCCCCCCCCCCCCCCCCCCC(=O)[O-]
REMARK SMILES IDX 12 1 11 2 10 3 9 4 8 5 7 6 6 7 5 8 4 9 3 10 2 11 1 12 13 13
REMARK SMILES IDX 14 14 15 15 16 16 17 17 18 18 19 19 20 20 21 21 22 22 23 23
REMARK SMILES IDX 24 24
REMARK H PARENT
REMARK Flexibility Score: inf
ROOT
ATOM      1  C   UNL     1      18.988  26.106  50.105  1.00  0.00     0.000 C 
ENDROOT
BRANCH   1   2
ATOM      2  C   UNL     1      18.772  26.583  51.550  1.00  0.00     0.000 C 
BRANCH   2   3
ATOM      3  C   UNL     1      18.311  25.433  52.459  1.00  0.00     0.000 C 
BRANCH   3   4
ATOM      4  C   UNL     1      17.703  25.946  53.775  1.00  0.00    -0.000 C 
BRANCH   4   5
ATOM      5  C   UNL     1      16.174  25.773  53.823  1.00  0.00    -0.000 C 
BRANCH   5   6
ATOM      6  C   UNL     1      15.441  27.063  54.229  1.00  0.00    -0.000 C 
BRANCH   6   7
ATOM      7  C   UNL     1      16.028  27.787  55.457  1.00  0.00    -0.000 C 
BRANCH   7   8
ATOM      8  C   UNL     1      15.823  29.313  55.477  1.00  0.00    -0.000 C 
BRANCH   8   9
ATOM      9  C   UNL     1      17.112  30.147  55.362  1.00  0.00    -0.000 C 
BRANCH   9  10
ATOM     10  C   UNL     1      17.711  30.126  53.946  1.00  0.00    -0.000 C 
BRANCH  10  11
ATOM     11  C   UNL     1      19.123  29.518  53.916  1.00  0.00    -0.003 C 
ATOM     12  C   UNL     1      20.119  30.305  54.767  1.00  0.00     0.004 C 
ENDBRANCH  10  11
ENDBRANCH   9  10
ENDBRANCH   8   9
ENDBRANCH   7   8
ENDBRANCH   6   7
ENDBRANCH   5   6
ENDBRANCH   4   5
ENDBRANCH   3   4
ENDBRANCH   2   3
ENDBRANCH   1   2
BRANCH   1  13
ATOM     13  C   UNL     1      18.656  24.609  49.925  1.00  0.00     0.000 C 
BRANCH  13  14
ATOM     14  C   UNL     1      17.441  24.331  49.018  1.00  0.00     0.000 C 
BRANCH  14  15
ATOM     15  C   UNL     1      16.378  25.446  48.967  1.00  0.00     0.000 C 
BRANCH  15  16
ATOM     16  C   UNL     1      15.399  25.457  50.155  1.00  0.00     0.000 C 
BRANCH  16  17
ATOM     17  C   UNL     1      14.776  26.838  50.406  1.00  0.00     0.000 C 
BRANCH  17  18
ATOM     18  C   UNL     1      15.697  27.992  49.972  1.00  0.00     0.000 C 
BRANCH  18  19
ATOM     19  C   UNL     1      16.025  28.986  51.108  1.00  0.00     0.000 C 
BRANCH  19  20
ATOM     20  C   UNL     1      14.779  29.748  51.593  1.00  0.00     0.006 C 
BRANCH  20  21
ATOM     21  C   UNL     1      14.582  31.073  50.845  1.00  0.00     0.053 C 
BRANCH  21  22
ATOM     22  C   UNL     1      15.038  32.242  51.666  1.00  0.00     0.041 C 
ATOM     23  O   UNL     1      16.258  32.555  51.698  1.00  0.00    -0.550 OA
ATOM     24  O   UNL     1      14.113  33.012  52.357  1.00  0.00    -0.550 OA
ENDBRANCH  21  22
ENDBRANCH  20  21
ENDBRANCH  19  20
ENDBRANCH  18  19
ENDBRANCH  17  18
ENDBRANCH  16  17
ENDBRANCH  15  16
ENDBRANCH  14  15
ENDBRANCH  13  14
ENDBRANCH   1  13
TORSDOF 20
ENDMDL
MODEL 8
REMARK VINA RESULT:    -4.809      3.324      7.248
REMARK INTER + INTRA:         -12.616
REMARK INTER:                  -9.346
REMARK INTRA:                  -3.270
REMARK UNBOUND:                -2.183
REMARK SMILES CCCCCCCCCCCCCCCCCCCCCC(=O)[O-]
REMARK SMILES IDX 12 1 11 2 10 3 9 4 8 5 7 6 6 7 5 8 4 9 3 10 2 11 1 12 13 13
REMARK SMILES IDX 14 14 15 15 16 16 17 17 18 18 19 19 20 20 21 21 22 22 23 23
REMARK SMILES IDX 24 24
REMARK H PARENT
REMARK Flexibility Score: inf
ROOT
ATOM      1  C   UNL     1      16.300  30.826  55.094  1.00  0.00     0.000 C 
ENDROOT
BRANCH   1   2
ATOM      2  C   UNL     1      15.978  29.436  55.666  1.00  0.00     0.000 C 
BRANCH   2   3
ATOM      3  C   UNL     1      15.932  28.370  54.561  1.00  0.00     0.000 C 
BRANCH   3   4
ATOM      4  C   UNL     1      15.967  26.943  55.134  1.00  0.00    -0.000 C 
BRANCH   4   5
ATOM      5  C   UNL     1      16.187  25.876  54.046  1.00  0.00    -0.000 C 
BRANCH   5   6
ATOM      6  C   UNL     1      17.673  25.670  53.707  1.00  0.00    -0.000 C 
BRANCH   6   7
ATOM      7  C   UNL     1      18.006  25.692  52.202  1.00  0.00    -0.000 C 
BRANCH   7   8
ATOM      8  C   UNL     1      19.007  26.781  51.770  1.00  0.00    -0.000 C 
BRANCH   8   9
ATOM      9  C   UNL     1      18.651  28.210  52.219  1.00  0.00    -0.000 C 
BRANCH   9  10
ATOM     10  C   UNL     1      19.518  28.699  53.392  1.00  0.00    -0.000 C 
BRANCH  10  11
ATOM     11  C   UNL     1      20.505  29.799  52.972  1.00  0.00    -0.003 C 
ATOM     12  C   UNL     1      20.061  31.191  53.424  1.00  0.00     0.004 C 
ENDBRANCH  10  11
ENDBRANCH   9  10
ENDBRANCH   8   9
ENDBRANCH   7   8
ENDBRANCH   6   7
ENDBRANCH   5   6
ENDBRANCH   4   5
ENDBRANCH   3   4
ENDBRANCH   2   3
ENDBRANCH   1   2
BRANCH   1  13
ATOM     13  C   UNL     1      16.401  30.817  53.553  1.00  0.00     0.000 C 
BRANCH  13  14
ATOM     14  C   UNL     1      15.431  31.786  52.847  1.00  0.00     0.000 C 
BRANCH  14  15
ATOM     15  C   UNL     1      15.516  31.811  51.308  1.00  0.00     0.000 C 
BRANCH  15  16
ATOM     16  C   UNL     1      14.352  31.108  50.587  1.00  0.00     0.000 C 
BRANCH  16  17
ATOM     17  C   UNL     1      14.721  30.633  49.174  1.00  0.00     0.000 C 
BRANCH  17  18
ATOM     18  C   UNL     1      14.779  29.100  49.060  1.00  0.00     0.000 C 
BRANCH  18  19
ATOM     19  C   UNL     1      15.732  28.436  50.077  1.00  0.00     0.000 C 
BRANCH  19  20
ATOM     20  C   UNL     1      14.980  27.558  51.094  1.00  0.00     0.006 C 
BRANCH  20  21
ATOM     21  C   UNL     1      14.428  26.276  50.456  1.00  0.00     0.053 C 
BRANCH  21  22
ATOM     22  C   UNL     1      13.532  25.533  51.400  1.00  0.00     0.041 C 
ATOM     23  O   UNL     1      12.450  26.051  51.786  1.00  0.00    -0.550 OA
ATOM     24  O   UNL     1      13.867  24.252  51.818  1.00  0.00    -0.550 OA
ENDBRANCH  21  22
ENDBRANCH  20  21
ENDBRANCH  19  20
ENDBRANCH  18  19
ENDBRANCH  17  18
ENDBRANCH  16  17
ENDBRANCH  15  16
ENDBRANCH  14  15
ENDBRANCH  13  14
ENDBRANCH   1  13
TORSDOF 20
ENDMDL
MODEL 9
REMARK VINA RESULT:    -4.798      3.717      6.630
REMARK INTER + INTRA:         -12.590
REMARK INTER:                  -8.592
REMARK INTRA:                  -3.998
REMARK UNBOUND:                -2.183
REMARK SMILES CCCCCCCCCCCCCCCCCCCCCC(=O)[O-]
REMARK SMILES IDX 12 1 11 2 10 3 9 4 8 5 7 6 6 7 5 8 4 9 3 10 2 11 1 12 13 13
REMARK SMILES IDX 14 14 15 15 16 16 17 17 18 18 19 19 20 20 21 21 22 22 23 23
REMARK SMILES IDX 24 24
REMARK H PARENT
REMARK Flexibility Score: inf
ROOT
ATOM      1  C   UNL     1      14.642  27.613  51.476  1.00  0.00     0.000 C 
ENDROOT
BRANCH   1   2
ATOM      2  C   UNL     1      13.735  26.538  50.857  1.00  0.00     0.000 C 
BRANCH   2   3
ATOM      3  C   UNL     1      13.532  25.354  51.815  1.00  0.00     0.000 C 
BRANCH   3   4
ATOM      4  C   UNL     1      14.285  24.097  51.348  1.00  0.00    -0.000 C 
BRANCH   4   5
ATOM      5  C   UNL     1      15.597  23.876  52.121  1.00  0.00    -0.000 C 
BRANCH   5   6
ATOM      6  C   UNL     1      15.638  24.639  53.457  1.00  0.00    -0.000 C 
BRANCH   6   7
ATOM      7  C   UNL     1      16.993  25.292  53.792  1.00  0.00    -0.000 C 
BRANCH   7   8
ATOM      8  C   UNL     1      16.936  26.803  54.086  1.00  0.00    -0.000 C 
BRANCH   8   9
ATOM      9  C   UNL     1      15.949  27.216  55.193  1.00  0.00    -0.000 C 
BRANCH   9  10
ATOM     10  C   UNL     1      15.709  28.735  55.241  1.00  0.00    -0.000 C 
BRANCH  10  11
ATOM     11  C   UNL     1      16.845  29.528  54.574  1.00  0.00    -0.003 C 
ATOM     12  C   UNL     1      16.342  30.460  53.471  1.00  0.00     0.004 C 
ENDBRANCH  10  11
ENDBRANCH   9  10
ENDBRANCH   8   9
ENDBRANCH   7   8
ENDBRANCH   6   7
ENDBRANCH   5   6
ENDBRANCH   4   5
ENDBRANCH   3   4
ENDBRANCH   2   3
ENDBRANCH   1   2
BRANCH   1  13
ATOM     13  C   UNL     1      15.902  27.878  50.624  1.00  0.00     0.000 C 
BRANCH  13  14
ATOM     14  C   UNL     1      15.684  27.737  49.103  1.00  0.00     0.000 C 
BRANCH  14  15
ATOM     15  C   UNL     1      16.639  26.768  48.380  1.00  0.00     0.000 C 
BRANCH  15  16
ATOM     16  C   UNL     1      16.221  25.287  48.441  1.00  0.00     0.000 C 
BRANCH  16  17
ATOM     17  C   UNL     1      17.371  24.356  48.854  1.00  0.00     0.000 C 
BRANCH  17  18
ATOM     18  C   UNL     1      18.756  24.946  48.536  1.00  0.00     0.000 C 
BRANCH  18  19
ATOM     19  C   UNL     1      19.769  24.815  49.694  1.00  0.00     0.000 C 
BRANCH  19  20
ATOM     20  C   UNL     1      19.176  25.271  51.040  1.00  0.00     0.006 C 
BRANCH  20  21
ATOM     21  C   UNL     1      19.420  26.762  51.305  1.00  0.00     0.053 C 
BRANCH  21  22
ATOM     22  C   UNL     1      20.405  26.970  52.416  1.00  0.00     0.041 C 
ATOM     23  O   UNL     1      21.093  28.024  52.462  1.00  0.00    -0.550 OA
ATOM     24  O   UNL     1      20.530  26.024  53.424  1.00  0.00    -0.550 OA
ENDBRANCH  21  22
ENDBRANCH  20  21
ENDBRANCH  19  20
ENDBRANCH  18  19
ENDBRANCH  17  18
ENDBRANCH  16  17
ENDBRANCH  15  16
ENDBRANCH  14  15
ENDBRANCH  13  14
ENDBRANCH   1  13
TORSDOF 20
ENDMDL
