MODEL 1
REMARK VINA RESULT:    -5.790      0.000      0.000
REMARK INTER + INTRA:         -10.920
REMARK INTER:                  -9.851
REMARK INTRA:                  -1.069
REMARK UNBOUND:                -1.069
REMARK SMILES CCCCCCCCCCCCCC(=O)[O-]
REMARK SMILES IDX 8 1 9 2 10 3 11 4 12 5 13 6 14 7 15 8 16 9 7 10 6 11 5 12
REMARK SMILES IDX 4 13 3 14 2 15 1 16
REMARK H PARENT
REMARK Flexibility Score: inf
ROOT
ATOM      1  C   UNL     1       1.654  22.560  51.470  1.00  0.00     0.000 C 
ENDROOT
BRANCH   1   2
ATOM      2  C   UNL     1       0.822  23.761  50.988  1.00  0.00     0.000 C 
BRANCH   2   3
ATOM      3  C   UNL     1       1.676  25.020  50.766  1.00  0.00     0.000 C 
BRANCH   3   4
ATOM      4  C   UNL     1       1.099  25.946  49.685  1.00  0.00     0.000 C 
BRANCH   4   5
ATOM      5  C   UNL     1      -0.092  25.289  48.978  1.00  0.00     0.006 C 
BRANCH   5   6
ATOM      6  C   UNL     1      -0.155  25.702  47.505  1.00  0.00     0.053 C 
BRANCH   6   7
ATOM      7  C   UNL     1      -1.501  25.393  46.930  1.00  0.00     0.041 C 
ATOM      8  O   UNL     1      -2.541  25.859  47.463  1.00  0.00    -0.550 OA
ATOM      9  O   UNL     1      -1.609  24.546  45.834  1.00  0.00    -0.550 OA
ENDBRANCH   6   7
ENDBRANCH   5   6
ENDBRANCH   4   5
ENDBRANCH   3   4
ENDBRANCH   2   3
ENDBRANCH   1   2
BRANCH   1  10
ATOM     10  C   UNL     1       0.999  21.212  51.123  1.00  0.00     0.000 C 
BRANCH  10  11
ATOM     11  C   UNL     1      -0.213  21.369  50.189  1.00  0.00    -0.000 C 
BRANCH  11  12
ATOM     12  C   UNL     1       0.042  20.789  48.788  1.00  0.00    -0.000 C 
BRANCH  12  13
ATOM     13  C   UNL     1       0.659  19.383  48.830  1.00  0.00    -0.000 C 
BRANCH  13  14
ATOM     14  C   UNL     1       2.107  19.405  48.315  1.00  0.00    -0.000 C 
BRANCH  14  15
ATOM     15  C   UNL     1       3.104  18.820  49.327  1.00  0.00    -0.003 C 
ATOM     16  C   UNL     1       4.125  19.848  49.815  1.00  0.00     0.004 C 
ENDBRANCH  14  15
ENDBRANCH  13  14
ENDBRANCH  12  13
ENDBRANCH  11  12
ENDBRANCH  10  11
ENDBRANCH   1  10
TORSDOF 12
ENDMDL
MODEL 2
REMARK VINA RESULT:    -5.657      1.040      1.670
REMARK INTER + INTRA:         -10.695
REMARK INTER:                  -9.548
REMARK INTRA:                  -1.146
REMARK UNBOUND:                -1.069
REMARK SMILES CCCCCCCCCCCCCC(=O)[O-]
REMARK SMILES IDX 8 1 9 2 10 3 11 4 12 5 13 6 14 7 15 8 16 9 7 10 6 11 5 12
REMARK SMILES IDX 4 13 3 14 2 15 1 16
REMARK H PARENT
REMARK Flexibility Score: inf
ROOT
ATOM      1  C   UNL     1       0.035  21.313  50.745  1.00  0.00     0.000 C 
ENDROOT
BRANCH   1   2
ATOM      2  C   UNL     1       0.772  22.566  51.253  1.00  0.00     0.000 C 
BRANCH   2   3
ATOM      3  C   UNL     1       0.193  23.867  50.674  1.00  0.00     0.000 C 
BRANCH   3   4
ATOM      4  C   UNL     1       1.260  24.952  50.469  1.00  0.00     0.000 C 
BRANCH   4   5
ATOM      5  C   UNL     1       0.814  25.967  49.409  1.00  0.00     0.006 C 
BRANCH   5   6
ATOM      6  C   UNL     1      -0.559  25.600  48.840  1.00  0.00     0.053 C 
BRANCH   6   7
ATOM      7  C   UNL     1      -0.545  25.673  47.346  1.00  0.00     0.041 C 
ATOM      8  O   UNL     1       0.475  26.098  46.742  1.00  0.00    -0.550 OA
ATOM      9  O   UNL     1      -1.678  25.323  46.622  1.00  0.00    -0.550 OA
ENDBRANCH   6   7
ENDBRANCH   5   6
ENDBRANCH   4   5
ENDBRANCH   3   4
ENDBRANCH   2   3
ENDBRANCH   1   2
BRANCH   1  10
ATOM     10  C   UNL     1      -0.236  21.362  49.232  1.00  0.00     0.000 C 
BRANCH  10  11
ATOM     11  C   UNL     1      -0.255  19.963  48.591  1.00  0.00    -0.000 C 
BRANCH  11  12
ATOM     12  C   UNL     1       0.611  19.882  47.323  1.00  0.00    -0.000 C 
BRANCH  12  13
ATOM     13  C   UNL     1       2.039  19.393  47.609  1.00  0.00    -0.000 C 
BRANCH  13  14
ATOM     14  C   UNL     1       2.119  18.714  48.985  1.00  0.00    -0.000 C 
BRANCH  14  15
ATOM     15  C   UNL     1       3.510  18.837  49.625  1.00  0.00    -0.003 C 
ATOM     16  C   UNL     1       3.941  20.289  49.832  1.00  0.00     0.004 C 
ENDBRANCH  14  15
ENDBRANCH  13  14
ENDBRANCH  12  13
ENDBRANCH  11  12
ENDBRANCH  10  11
ENDBRANCH   1  10
TORSDOF 12
ENDMDL
MODEL 3
REMARK VINA RESULT:    -5.582      3.256      6.789
REMARK INTER + INTRA:         -10.567
REMARK INTER:                  -9.735
REMARK INTRA:                  -0.832
REMARK UNBOUND:                -1.069
REMARK SMILES CCCCCCCCCCCCCC(=O)[O-]
REMARK SMILES IDX 8 1 9 2 10 3 11 4 12 5 13 6 14 7 15 8 16 9 7 10 6 11 5 12
REMARK SMILES IDX 4 13 3 14 2 15 1 16
REMARK H PARENT
REMARK Flexibility Score: inf
ROOT
ATOM      1  C   UNL     1      -1.885  22.556  45.753  1.00  0.00     0.000 C 
ENDROOT
BRANCH   1   2
ATOM      2  C   UNL     1      -0.742  21.526  45.756  1.00  0.00     0.000 C 
BRANCH   2   3
ATOM      3  C   UNL     1      -0.391  21.036  47.170  1.00  0.00     0.000 C 
BRANCH   3   4
ATOM      4  C   UNL     1       0.545  19.818  47.162  1.00  0.00     0.000 C 
BRANCH   4   5
ATOM      5  C   UNL     1       0.925  19.409  48.590  1.00  0.00     0.006 C 
BRANCH   5   6
ATOM      6  C   UNL     1       2.415  19.069  48.687  1.00  0.00     0.053 C 
BRANCH   6   7
ATOM      7  C   UNL     1       3.072  19.885  49.755  1.00  0.00     0.041 C 
ATOM      8  O   UNL     1       4.325  19.870  49.883  1.00  0.00    -0.550 OA
ATOM      9  O   UNL     1       2.298  20.621  50.642  1.00  0.00    -0.550 OA
ENDBRANCH   6   7
ENDBRANCH   5   6
ENDBRANCH   4   5
ENDBRANCH   3   4
ENDBRANCH   2   3
ENDBRANCH   1   2
BRANCH   1  10
ATOM     10  C   UNL     1      -1.748  23.585  44.618  1.00  0.00     0.000 C 
BRANCH  10  11
ATOM     11  C   UNL     1      -1.328  24.974  45.130  1.00  0.00    -0.000 C 
BRANCH  11  12
ATOM     12  C   UNL     1      -1.567  25.145  46.639  1.00  0.00    -0.000 C 
BRANCH  12  13
ATOM     13  C   UNL     1      -0.295  25.545  47.401  1.00  0.00    -0.000 C 
BRANCH  13  14
ATOM     14  C   UNL     1      -0.597  25.773  48.890  1.00  0.00    -0.000 C 
BRANCH  14  15
ATOM     15  C   UNL     1       0.435  25.107  49.813  1.00  0.00    -0.003 C 
ATOM     16  C   UNL     1      -0.039  23.759  50.356  1.00  0.00     0.004 C 
ENDBRANCH  14  15
ENDBRANCH  13  14
ENDBRANCH  12  13
ENDBRANCH  11  12
ENDBRANCH  10  11
ENDBRANCH   1  10
TORSDOF 12
ENDMDL
MODEL 4
REMARK VINA RESULT:    -5.576      2.554      5.765
REMARK INTER + INTRA:         -10.556
REMARK INTER:                  -9.690
REMARK INTRA:                  -0.867
REMARK UNBOUND:                -1.069
REMARK SMILES CCCCCCCCCCCCCC(=O)[O-]
REMARK SMILES IDX 8 1 9 2 10 3 11 4 12 5 13 6 14 7 15 8 16 9 7 10 6 11 5 12
REMARK SMILES IDX 4 13 3 14 2 15 1 16
REMARK H PARENT
REMARK Flexibility Score: inf
ROOT
ATOM      1  C   UNL     1       0.772  24.056  50.926  1.00  0.00     0.000 C 
ENDROOT
BRANCH   1   2
ATOM      2  C   UNL     1       1.556  22.972  51.686  1.00  0.00     0.000 C 
BRANCH   2   3
ATOM      3  C   UNL     1       1.338  21.567  51.102  1.00  0.00     0.000 C 
BRANCH   3   4
ATOM      4  C   UNL     1      -0.069  21.380  50.512  1.00  0.00     0.000 C 
BRANCH   4   5
ATOM      5  C   UNL     1      -0.008  21.219  48.989  1.00  0.00     0.006 C 
BRANCH   5   6
ATOM      6  C   UNL     1       0.110  19.744  48.596  1.00  0.00     0.053 C 
BRANCH   6   7
ATOM      7  C   UNL     1       1.337  19.515  47.772  1.00  0.00     0.041 C 
ATOM      8  O   UNL     1       2.387  19.073  48.308  1.00  0.00    -0.550 OA
ATOM      9  O   UNL     1       1.338  19.841  46.422  1.00  0.00    -0.550 OA
ENDBRANCH   6   7
ENDBRANCH   5   6
ENDBRANCH   4   5
ENDBRANCH   3   4
ENDBRANCH   2   3
ENDBRANCH   1   2
BRANCH   1  10
ATOM     10  C   UNL     1       1.623  25.304  50.634  1.00  0.00     0.000 C 
BRANCH  10  11
ATOM     11  C   UNL     1       1.221  25.997  49.321  1.00  0.00    -0.000 C 
BRANCH  11  12
ATOM     12  C   UNL     1      -0.081  25.432  48.729  1.00  0.00    -0.000 C 
BRANCH  12  13
ATOM     13  C   UNL     1      -0.279  25.815  47.254  1.00  0.00    -0.000 C 
BRANCH  13  14
ATOM     14  C   UNL     1      -1.605  25.256  46.717  1.00  0.00    -0.000 C 
BRANCH  14  15
ATOM     15  C   UNL     1      -1.448  24.570  45.351  1.00  0.00    -0.003 C 
ATOM     16  C   UNL     1      -1.783  23.079  45.396  1.00  0.00     0.004 C 
ENDBRANCH  14  15
ENDBRANCH  13  14
ENDBRANCH  12  13
ENDBRANCH  11  12
ENDBRANCH  10  11
ENDBRANCH   1  10
TORSDOF 12
ENDMDL
MODEL 5
REMARK VINA RESULT:    -5.575      2.378      3.923
REMARK INTER + INTRA:         -10.554
REMARK INTER:                  -9.868
REMARK INTRA:                  -0.686
REMARK UNBOUND:                -1.069
REMARK SMILES CCCCCCCCCCCCCC(=O)[O-]
REMARK SMILES IDX 8 1 9 2 10 3 11 4 12 5 13 6 14 7 15 8 16 9 7 10 6 11 5 12
REMARK SMILES IDX 4 13 3 14 2 15 1 16
REMARK H PARENT
REMARK Flexibility Score: inf
ROOT
ATOM      1  C   UNL     1      -1.660  22.237  45.366  1.00  0.00     0.000 C 
ENDROOT
BRANCH   1   2
ATOM      2  C   UNL     1      -1.700  23.749  45.086  1.00  0.00     0.000 C 
BRANCH   2   3
ATOM      3  C   UNL     1      -1.555  24.591  46.365  1.00  0.00     0.000 C 
BRANCH   3   4
ATOM      4  C   UNL     1      -0.574  25.761  46.198  1.00  0.00     0.000 C 
BRANCH   4   5
ATOM      5  C   UNL     1       0.191  26.025  47.500  1.00  0.00     0.006 C 
BRANCH   5   6
ATOM      6  C   UNL     1      -0.574  25.477  48.709  1.00  0.00     0.053 C 
BRANCH   6   7
ATOM      7  C   UNL     1       0.377  25.042  49.779  1.00  0.00     0.041 C 
ATOM      8  O   UNL     1       0.081  24.083  50.539  1.00  0.00    -0.550 OA
ATOM      9  O   UNL     1       1.568  25.730  49.971  1.00  0.00    -0.550 OA
ENDBRANCH   6   7
ENDBRANCH   5   6
ENDBRANCH   4   5
ENDBRANCH   3   4
ENDBRANCH   2   3
ENDBRANCH   1   2
BRANCH   1  10
ATOM     10  C   UNL     1      -0.707  21.875  46.519  1.00  0.00     0.000 C 
BRANCH  10  11
ATOM     11  C   UNL     1       0.089  20.588  46.243  1.00  0.00    -0.000 C 
BRANCH  11  12
ATOM     12  C   UNL     1       0.304  19.744  47.510  1.00  0.00    -0.000 C 
BRANCH  12  13
ATOM     13  C   UNL     1       1.778  19.370  47.732  1.00  0.00    -0.000 C 
BRANCH  13  14
ATOM     14  C   UNL     1       1.993  18.807  49.145  1.00  0.00    -0.000 C 
BRANCH  14  15
ATOM     15  C   UNL     1       3.478  18.727  49.531  1.00  0.00    -0.003 C 
ATOM     16  C   UNL     1       4.090  20.099  49.814  1.00  0.00     0.004 C 
ENDBRANCH  14  15
ENDBRANCH  13  14
ENDBRANCH  12  13
ENDBRANCH  11  12
ENDBRANCH  10  11
ENDBRANCH   1  10
TORSDOF 12
ENDMDL
MODEL 6
REMARK VINA RESULT:    -5.541      3.125      6.335
REMARK INTER + INTRA:         -10.497
REMARK INTER:                  -9.733
REMARK INTRA:                  -0.764
REMARK UNBOUND:                -1.069
REMARK SMILES CCCCCCCCCCCCCC(=O)[O-]
REMARK SMILES IDX 8 1 9 2 10 3 11 4 12 5 13 6 14 7 15 8 16 9 7 10 6 11 5 12
REMARK SMILES IDX 4 13 3 14 2 15 1 16
REMARK H PARENT
REMARK Flexibility Score: inf
ROOT
ATOM      1  C   UNL     1       0.086  23.652  50.603  1.00  0.00     0.000 C 
ENDROOT
BRANCH   1   2
ATOM      2  C   UNL     1       0.578  22.268  51.063  1.00  0.00     0.000 C 
BRANCH   2   3
ATOM      3  C   UNL     1      -0.231  21.118  50.442  1.00  0.00     0.000 C 
BRANCH   3   4
ATOM      4  C   UNL     1       0.070  20.919  48.948  1.00  0.00     0.000 C 
BRANCH   4   5
ATOM      5  C   UNL     1       0.536  19.486  48.668  1.00  0.00     0.006 C 
BRANCH   5   6
ATOM      6  C   UNL     1       1.959  19.470  48.103  1.00  0.00     0.053 C 
BRANCH   6   7
ATOM      7  C   UNL     1       2.948  19.149  49.179  1.00  0.00     0.041 C 
ATOM      8  O   UNL     1       2.932  18.022  49.740  1.00  0.00    -0.550 OA
ATOM      9  O   UNL     1       3.855  20.114  49.599  1.00  0.00    -0.550 OA
ENDBRANCH   6   7
ENDBRANCH   5   6
ENDBRANCH   4   5
ENDBRANCH   3   4
ENDBRANCH   2   3
ENDBRANCH   1   2
BRANCH   1  10
ATOM     10  C   UNL     1       1.198  24.715  50.639  1.00  0.00     0.000 C 
BRANCH  10  11
ATOM     11  C   UNL     1       0.940  25.870  49.656  1.00  0.00    -0.000 C 
BRANCH  11  12
ATOM     12  C   UNL     1      -0.414  25.744  48.938  1.00  0.00    -0.000 C 
BRANCH  12  13
ATOM     13  C   UNL     1      -0.272  25.681  47.409  1.00  0.00    -0.000 C 
BRANCH  13  14
ATOM     14  C   UNL     1      -1.583  25.216  46.757  1.00  0.00    -0.000 C 
BRANCH  14  15
ATOM     15  C   UNL     1      -1.373  24.648  45.345  1.00  0.00    -0.003 C 
ATOM     16  C   UNL     1      -1.734  23.166  45.243  1.00  0.00     0.004 C 
ENDBRANCH  14  15
ENDBRANCH  13  14
ENDBRANCH  12  13
ENDBRANCH  11  12
ENDBRANCH  10  11
ENDBRANCH   1  10
TORSDOF 12
ENDMDL
MODEL 7
REMARK VINA RESULT:    -5.444      2.632      5.214
REMARK INTER + INTRA:         -10.333
REMARK INTER:                  -9.578
REMARK INTRA:                  -0.755
REMARK UNBOUND:                -1.069
REMARK SMILES CCCCCCCCCCCCCC(=O)[O-]
REMARK SMILES IDX 8 1 9 2 10 3 11 4 12 5 13 6 14 7 15 8 16 9 7 10 6 11 5 12
REMARK SMILES IDX 4 13 3 14 2 15 1 16
REMARK H PARENT
REMARK Flexibility Score: inf
ROOT
ATOM      1  C   UNL     1       2.231  18.985  49.069  1.00  0.00     0.000 C 
ENDROOT
BRANCH   1   2
ATOM      2  C   UNL     1       3.220  19.933  49.769  1.00  0.00     0.000 C 
BRANCH   2   3
ATOM      3  C   UNL     1       2.527  20.879  50.764  1.00  0.00     0.000 C 
BRANCH   3   4
ATOM      4  C   UNL     1       1.001  20.911  50.590  1.00  0.00     0.000 C 
BRANCH   4   5
ATOM      5  C   UNL     1       0.372  22.003  51.462  1.00  0.00     0.006 C 
BRANCH   5   6
ATOM      6  C   UNL     1       0.140  23.285  50.657  1.00  0.00     0.053 C 
BRANCH   6   7
ATOM      7  C   UNL     1       1.181  24.308  50.985  1.00  0.00     0.041 C 
ATOM      8  O   UNL     1       1.962  24.129  51.956  1.00  0.00    -0.550 OA
ATOM      9  O   UNL     1       1.253  25.485  50.251  1.00  0.00    -0.550 OA
ENDBRANCH   6   7
ENDBRANCH   5   6
ENDBRANCH   4   5
ENDBRANCH   3   4
ENDBRANCH   2   3
ENDBRANCH   1   2
BRANCH   1  10
ATOM     10  C   UNL     1       1.977  19.375  47.603  1.00  0.00     0.000 C 
BRANCH  10  11
ATOM     11  C   UNL     1       0.478  19.452  47.265  1.00  0.00    -0.000 C 
BRANCH  11  12
ATOM     12  C   UNL     1       0.173  20.479  46.162  1.00  0.00    -0.000 C 
BRANCH  12  13
ATOM     13  C   UNL     1      -0.729  21.624  46.650  1.00  0.00    -0.000 C 
BRANCH  13  14
ATOM     14  C   UNL     1      -1.459  22.285  45.471  1.00  0.00    -0.000 C 
BRANCH  14  15
ATOM     15  C   UNL     1      -1.762  23.771  45.720  1.00  0.00    -0.003 C 
ATOM     16  C   UNL     1      -1.415  24.655  44.523  1.00  0.00     0.004 C 
ENDBRANCH  14  15
ENDBRANCH  13  14
ENDBRANCH  12  13
ENDBRANCH  11  12
ENDBRANCH  10  11
ENDBRANCH   1  10
TORSDOF 12
ENDMDL
MODEL 8
REMARK VINA RESULT:    -5.441      2.822      4.634
REMARK INTER + INTRA:         -10.327
REMARK INTER:                  -9.266
REMARK INTRA:                  -1.061
REMARK UNBOUND:                -1.069
REMARK SMILES CCCCCCCCCCCCCC(=O)[O-]
REMARK SMILES IDX 8 1 9 2 10 3 11 4 12 5 13 6 14 7 15 8 16 9 7 10 6 11 5 12
REMARK SMILES IDX 4 13 3 14 2 15 1 16
REMARK H PARENT
REMARK Flexibility Score: inf
ROOT
ATOM      1  C   UNL     1      -1.699  25.268  46.590  1.00  0.00     0.000 C 
ENDROOT
BRANCH   1   2
ATOM      2  C   UNL     1      -0.446  25.683  47.381  1.00  0.00     0.000 C 
BRANCH   2   3
ATOM      3  C   UNL     1      -0.529  25.293  48.866  1.00  0.00     0.000 C 
BRANCH   3   4
ATOM      4  C   UNL     1       0.798  25.504  49.611  1.00  0.00     0.000 C 
BRANCH   4   5
ATOM      5  C   UNL     1       0.967  24.473  50.732  1.00  0.00     0.006 C 
BRANCH   5   6
ATOM      6  C   UNL     1      -0.094  23.373  50.633  1.00  0.00     0.053 C 
BRANCH   6   7
ATOM      7  C   UNL     1       0.323  22.169  51.419  1.00  0.00     0.041 C 
ATOM      8  O   UNL     1       1.521  21.785  51.401  1.00  0.00    -0.550 OA
ATOM      9  O   UNL     1      -0.624  21.442  52.128  1.00  0.00    -0.550 OA
ENDBRANCH   6   7
ENDBRANCH   5   6
ENDBRANCH   4   5
ENDBRANCH   3   4
ENDBRANCH   2   3
ENDBRANCH   1   2
BRANCH   1  10
ATOM     10  C   UNL     1      -1.373  24.317  45.426  1.00  0.00     0.000 C 
BRANCH  10  11
ATOM     11  C   UNL     1      -2.045  22.942  45.582  1.00  0.00    -0.000 C 
BRANCH  11  12
ATOM     12  C   UNL     1      -1.032  21.814  45.838  1.00  0.00    -0.000 C 
BRANCH  12  13
ATOM     13  C   UNL     1      -0.557  21.762  47.299  1.00  0.00    -0.000 C 
BRANCH  13  14
ATOM     14  C   UNL     1      -0.480  20.311  47.797  1.00  0.00    -0.000 C 
BRANCH  14  15
ATOM     15  C   UNL     1       0.744  19.560  47.249  1.00  0.00    -0.003 C 
ATOM     16  C   UNL     1       1.815  19.318  48.312  1.00  0.00     0.004 C 
ENDBRANCH  14  15
ENDBRANCH  13  14
ENDBRANCH  12  13
ENDBRANCH  11  12
ENDBRANCH  10  11
ENDBRANCH   1  10
TORSDOF 12
ENDMDL
MODEL 9
REMARK VINA RESULT:    -5.379      2.029      5.717
REMARK INTER + INTRA:         -10.222
REMARK INTER:                  -9.479
REMARK INTRA:                  -0.743
REMARK UNBOUND:                -1.069
REMARK SMILES CCCCCCCCCCCCCC(=O)[O-]
REMARK SMILES IDX 8 1 9 2 10 3 11 4 12 5 13 6 14 7 15 8 16 9 7 10 6 11 5 12
REMARK SMILES IDX 4 13 3 14 2 15 1 16
REMARK H PARENT
REMARK Flexibility Score: inf
ROOT
ATOM      1  C   UNL     1       1.480  22.266  51.670  1.00  0.00     0.000 C 
ENDROOT
BRANCH   1   2
ATOM      2  C   UNL     1       1.545  21.046  50.733  1.00  0.00     0.000 C 
BRANCH   2   3
ATOM      3  C   UNL     1       2.974  20.505  50.567  1.00  0.00     0.000 C 
BRANCH   3   4
ATOM      4  C   UNL     1       3.087  19.457  49.449  1.00  0.00     0.000 C 
BRANCH   4   5
ATOM      5  C   UNL     1       1.705  19.107  48.885  1.00  0.00     0.006 C 
BRANCH   5   6
ATOM      6  C   UNL     1       1.609  19.468  47.400  1.00  0.00     0.053 C 
BRANCH   6   7
ATOM      7  C   UNL     1       0.293  20.113  47.100  1.00  0.00     0.041 C 
ATOM      8  O   UNL     1       0.065  20.586  45.956  1.00  0.00    -0.550 OA
ATOM      9  O   UNL     1      -0.663  20.239  48.100  1.00  0.00    -0.550 OA
ENDBRANCH   6   7
ENDBRANCH   5   6
ENDBRANCH   4   5
ENDBRANCH   3   4
ENDBRANCH   2   3
ENDBRANCH   1   2
BRANCH   1  10
ATOM     10  C   UNL     1       0.846  23.494  50.995  1.00  0.00     0.000 C 
BRANCH  10  11
ATOM     11  C   UNL     1       1.808  24.694  50.934  1.00  0.00    -0.000 C 
BRANCH  11  12
ATOM     12  C   UNL     1       1.325  25.789  49.969  1.00  0.00    -0.000 C 
BRANCH  12  13
ATOM     13  C   UNL     1      -0.061  25.491  49.377  1.00  0.00    -0.000 C 
BRANCH  13  14
ATOM     14  C   UNL     1      -0.075  25.744  47.861  1.00  0.00    -0.000 C 
BRANCH  14  15
ATOM     15  C   UNL     1      -1.452  25.489  47.231  1.00  0.00    -0.003 C 
ATOM     16  C   UNL     1      -1.369  24.693  45.928  1.00  0.00     0.004 C 
ENDBRANCH  14  15
ENDBRANCH  13  14
ENDBRANCH  12  13
ENDBRANCH  11  12
ENDBRANCH  10  11
ENDBRANCH   1  10
TORSDOF 12
ENDMDL
