MODEL 1
REMARK VINA RESULT:    -4.151      0.000      0.000
REMARK INTER + INTRA:          -4.272
REMARK INTER:                  -4.272
REMARK INTRA:                   0.000
REMARK UNBOUND:                 0.000
REMARK SMILES O=c1ccc2ccc(O)cc2o1
REMARK SMILES IDX 6 1 7 2 8 3 10 4 11 5 5 6 4 7 3 8 2 9 1 10 12 11 9 12
REMARK H PARENT 9 13
REMARK Flexibility Score: inf
ROOT
ATOM      1  C   UNL     1       3.542   0.655 -17.266  1.00  0.00     0.016 A 
ATOM      2  C   UNL     1       3.020   0.995 -18.519  1.00  0.00     0.047 A 
ATOM      3  C   UNL     1       3.392   2.199 -19.137  1.00  0.00     0.119 A 
ATOM      4  C   UNL     1       4.289   3.063 -18.498  1.00  0.00     0.094 A 
ATOM      5  C   UNL     1       4.815   2.731 -17.245  1.00  0.00     0.142 A 
ATOM      6  C   UNL     1       4.440   1.519 -16.625  1.00  0.00     0.018 A 
ATOM      7  C   UNL     1       4.982   1.215 -15.373  1.00  0.00     0.019 A 
ATOM      8  C   UNL     1       5.872   2.109 -14.776  1.00  0.00     0.094 A 
ATOM      9  C   UNL     1       6.198   3.291 -15.450  1.00  0.00     0.336 A 
ATOM     10  O   UNL     1       6.999   4.110 -14.929  1.00  0.00    -0.246 OA
ATOM     11  O   UNL     1       5.667   3.556 -16.641  1.00  0.00    -0.423 OA
ENDROOT
BRANCH   3  12
ATOM     12  O   UNL     1       2.876   2.543 -20.384  1.00  0.00    -0.508 OA
ATOM     13  H   UNL     1       2.201   1.956 -20.859  1.00  0.00     0.293 HD
ENDBRANCH   3  12
TORSDOF 1
ENDMDL
MODEL 2
REMARK VINA RESULT:    -3.942      0.820      4.223
REMARK INTER + INTRA:          -4.057
REMARK INTER:                  -4.057
REMARK INTRA:                   0.000
REMARK UNBOUND:                 0.000
REMARK SMILES O=c1ccc2ccc(O)cc2o1
REMARK SMILES IDX 6 1 7 2 8 3 10 4 11 5 5 6 4 7 3 8 2 9 1 10 12 11 9 12
REMARK H PARENT 9 13
REMARK Flexibility Score: inf
ROOT
ATOM      1  C   UNL     1       5.034   0.933 -15.557  1.00  0.00     0.016 A 
ATOM      2  C   UNL     1       5.882   1.809 -14.870  1.00  0.00     0.047 A 
ATOM      3  C   UNL     1       6.154   3.083 -15.390  1.00  0.00     0.119 A 
ATOM      4  C   UNL     1       5.575   3.482 -16.600  1.00  0.00     0.094 A 
ATOM      5  C   UNL     1       4.726   2.613 -17.294  1.00  0.00     0.142 A 
ATOM      6  C   UNL     1       4.453   1.331 -16.770  1.00  0.00     0.018 A 
ATOM      7  C   UNL     1       3.600   0.485 -17.486  1.00  0.00     0.019 A 
ATOM      8  C   UNL     1       3.048   0.928 -18.688  1.00  0.00     0.094 A 
ATOM      9  C   UNL     1       3.363   2.211 -19.146  1.00  0.00     0.336 A 
ATOM     10  O   UNL     1       2.875   2.629 -20.229  1.00  0.00    -0.246 OA
ATOM     11  O   UNL     1       4.178   2.997 -18.445  1.00  0.00    -0.423 OA
ENDROOT
BRANCH   3  12
ATOM     12  O   UNL     1       6.998   3.959 -14.710  1.00  0.00    -0.508 OA
ATOM     13  H   UNL     1       6.637   4.772 -14.225  1.00  0.00     0.293 HD
ENDBRANCH   3  12
TORSDOF 1
ENDMDL
MODEL 3
REMARK VINA RESULT:    -3.754      1.891      4.783
REMARK INTER + INTRA:          -3.864
REMARK INTER:                  -3.864
REMARK INTRA:                   0.000
REMARK UNBOUND:                 0.000
REMARK SMILES O=c1ccc2ccc(O)cc2o1
REMARK SMILES IDX 6 1 7 2 8 3 10 4 11 5 5 6 4 7 3 8 2 9 1 10 12 11 9 12
REMARK H PARENT 9 13
REMARK Flexibility Score: inf
ROOT
ATOM      1  C   UNL     1       3.946   3.763 -17.129  1.00  0.00     0.016 A 
ATOM      2  C   UNL     1       4.460   3.691 -15.830  1.00  0.00     0.047 A 
ATOM      3  C   UNL     1       4.688   2.444 -15.228  1.00  0.00     0.119 A 
ATOM      4  C   UNL     1       4.403   1.267 -15.929  1.00  0.00     0.094 A 
ATOM      5  C   UNL     1       3.888   1.330 -17.229  1.00  0.00     0.142 A 
ATOM      6  C   UNL     1       3.659   2.586 -17.834  1.00  0.00     0.018 A 
ATOM      7  C   UNL     1       3.145   2.616 -19.133  1.00  0.00     0.019 A 
ATOM      8  C   UNL     1       2.875   1.416 -19.791  1.00  0.00     0.094 A 
ATOM      9  C   UNL     1       3.128   0.209 -19.130  1.00  0.00     0.336 A 
ATOM     10  O   UNL     1       2.891  -0.884 -19.707  1.00  0.00    -0.246 OA
ATOM     11  O   UNL     1       3.617   0.208 -17.893  1.00  0.00    -0.423 OA
ENDROOT
BRANCH   3  12
ATOM     12  O   UNL     1       5.200   2.366 -13.934  1.00  0.00    -0.508 OA
ATOM     13  H   UNL     1       5.161   3.155 -13.301  1.00  0.00     0.293 HD
ENDBRANCH   3  12
TORSDOF 1
ENDMDL
MODEL 4
REMARK VINA RESULT:    -3.706      1.779      2.457
REMARK INTER + INTRA:          -3.815
REMARK INTER:                  -3.815
REMARK INTRA:                   0.000
REMARK UNBOUND:                 0.000
REMARK SMILES O=c1ccc2ccc(O)cc2o1
REMARK SMILES IDX 6 1 7 2 8 3 10 4 11 5 5 6 4 7 3 8 2 9 1 10 12 11 9 12
REMARK H PARENT 9 13
REMARK Flexibility Score: inf
ROOT
ATOM      1  C   UNL     1       3.136   2.721 -18.899  1.00  0.00     0.016 A 
ATOM      2  C   UNL     1       2.882   1.518 -19.567  1.00  0.00     0.047 A 
ATOM      3  C   UNL     1       3.148   0.292 -18.941  1.00  0.00     0.119 A 
ATOM      4  C   UNL     1       3.667   0.269 -17.641  1.00  0.00     0.094 A 
ATOM      5  C   UNL     1       3.924   1.467 -16.965  1.00  0.00     0.142 A 
ATOM      6  C   UNL     1       3.656   2.701 -17.598  1.00  0.00     0.018 A 
ATOM      7  C   UNL     1       3.923   3.881 -16.897  1.00  0.00     0.019 A 
ATOM      8  C   UNL     1       4.441   3.807 -15.604  1.00  0.00     0.094 A 
ATOM      9  C   UNL     1       4.681   2.549 -15.041  1.00  0.00     0.336 A 
ATOM     10  O   UNL     1       5.148   2.461 -13.875  1.00  0.00    -0.246 OA
ATOM     11  O   UNL     1       4.418   1.441 -15.730  1.00  0.00    -0.423 OA
ENDROOT
BRANCH   3  12
ATOM     12  O   UNL     1       2.897  -0.909 -19.601  1.00  0.00    -0.508 OA
ATOM     13  H   UNL     1       3.013  -1.803 -19.138  1.00  0.00     0.293 HD
ENDBRANCH   3  12
TORSDOF 1
ENDMDL
MODEL 5
REMARK VINA RESULT:    -3.084      2.423      5.082
REMARK INTER + INTRA:          -3.174
REMARK INTER:                  -3.174
REMARK INTRA:                   0.000
REMARK UNBOUND:                 0.000
REMARK SMILES O=c1ccc2ccc(O)cc2o1
REMARK SMILES IDX 6 1 7 2 8 3 10 4 11 5 5 6 4 7 3 8 2 9 1 10 12 11 9 12
REMARK H PARENT 9 13
REMARK Flexibility Score: inf
ROOT
ATOM      1  C   UNL     1       2.935   0.107 -17.574  1.00  0.00     0.016 A 
ATOM      2  C   UNL     1       2.962   1.247 -16.763  1.00  0.00     0.047 A 
ATOM      3  C   UNL     1       2.974   2.525 -17.339  1.00  0.00     0.119 A 
ATOM      4  C   UNL     1       2.957   2.664 -18.732  1.00  0.00     0.094 A 
ATOM      5  C   UNL     1       2.931   1.531 -19.551  1.00  0.00     0.142 A 
ATOM      6  C   UNL     1       2.919   0.244 -18.969  1.00  0.00     0.018 A 
ATOM      7  C   UNL     1       2.892  -0.870 -19.815  1.00  0.00     0.019 A 
ATOM      8  C   UNL     1       2.878  -0.681 -21.196  1.00  0.00     0.094 A 
ATOM      9  C   UNL     1       2.891   0.624 -21.702  1.00  0.00     0.336 A 
ATOM     10  O   UNL     1       2.878   0.815 -22.946  1.00  0.00    -0.246 OA
ATOM     11  O   UNL     1       2.916   1.667 -20.875  1.00  0.00    -0.423 OA
ENDROOT
BRANCH   3  12
ATOM     12  O   UNL     1       3.000   3.664 -16.536  1.00  0.00    -0.508 OA
ATOM     13  H   UNL     1       2.441   3.731 -15.694  1.00  0.00     0.293 HD
ENDBRANCH   3  12
TORSDOF 1
ENDMDL
MODEL 6
REMARK VINA RESULT:    -2.866      2.562      3.409
REMARK INTER + INTRA:          -2.950
REMARK INTER:                  -2.950
REMARK INTRA:                   0.000
REMARK UNBOUND:                 0.000
REMARK SMILES O=c1ccc2ccc(O)cc2o1
REMARK SMILES IDX 6 1 7 2 8 3 10 4 11 5 5 6 4 7 3 8 2 9 1 10 12 11 9 12
REMARK H PARENT 9 13
REMARK Flexibility Score: inf
ROOT
ATOM      1  C   UNL     1       2.888  -0.882 -19.815  1.00  0.00     0.016 A 
ATOM      2  C   UNL     1       2.886  -0.666 -21.197  1.00  0.00     0.047 A 
ATOM      3  C   UNL     1       2.881   0.641 -21.709  1.00  0.00     0.119 A 
ATOM      4  C   UNL     1       2.878   1.733 -20.834  1.00  0.00     0.094 A 
ATOM      5  C   UNL     1       2.880   1.526 -19.450  1.00  0.00     0.142 A 
ATOM      6  C   UNL     1       2.885   0.210 -18.937  1.00  0.00     0.018 A 
ATOM      7  C   UNL     1       2.887   0.036 -17.549  1.00  0.00     0.019 A 
ATOM      8  C   UNL     1       2.883   1.156 -16.718  1.00  0.00     0.094 A 
ATOM      9  C   UNL     1       2.879   2.429 -17.297  1.00  0.00     0.336 A 
ATOM     10  O   UNL     1       2.876   3.453 -16.564  1.00  0.00    -0.246 OA
ATOM     11  O   UNL     1       2.877   2.568 -18.621  1.00  0.00    -0.423 OA
ENDROOT
BRANCH   3  12
ATOM     12  O   UNL     1       2.879   0.862 -23.084  1.00  0.00    -0.508 OA
ATOM     13  H   UNL     1       3.737   0.859 -23.622  1.00  0.00     0.293 HD
ENDBRANCH   3  12
TORSDOF 1
ENDMDL
MODEL 7
REMARK VINA RESULT:    -1.888      1.845      4.428
REMARK INTER + INTRA:          -1.943
REMARK INTER:                  -1.943
REMARK INTRA:                   0.000
REMARK UNBOUND:                 0.000
REMARK SMILES O=c1ccc2ccc(O)cc2o1
REMARK SMILES IDX 6 1 7 2 8 3 10 4 11 5 5 6 4 7 3 8 2 9 1 10 12 11 9 12
REMARK H PARENT 9 13
REMARK Flexibility Score: inf
ROOT
ATOM      1  C   UNL     1       4.252   3.237 -14.734  1.00  0.00     0.016 A 
ATOM      2  C   UNL     1       5.042   2.251 -14.133  1.00  0.00     0.047 A 
ATOM      3  C   UNL     1       5.540   1.182 -14.894  1.00  0.00     0.119 A 
ATOM      4  C   UNL     1       5.247   1.102 -16.261  1.00  0.00     0.094 A 
ATOM      5  C   UNL     1       4.459   2.084 -16.870  1.00  0.00     0.142 A 
ATOM      6  C   UNL     1       3.958   3.159 -16.102  1.00  0.00     0.018 A 
ATOM      7  C   UNL     1       3.172   4.125 -16.739  1.00  0.00     0.019 A 
ATOM      8  C   UNL     1       2.908   4.001 -18.103  1.00  0.00     0.094 A 
ATOM      9  C   UNL     1       3.438   2.910 -18.800  1.00  0.00     0.336 A 
ATOM     10  O   UNL     1       3.210   2.781 -20.031  1.00  0.00    -0.246 OA
ATOM     11  O   UNL     1       4.182   2.004 -18.169  1.00  0.00    -0.423 OA
ENDROOT
BRANCH   3  12
ATOM     12  O   UNL     1       6.327   0.197 -14.301  1.00  0.00    -0.508 OA
ATOM     13  H   UNL     1       7.256   0.400 -13.954  1.00  0.00     0.293 HD
ENDBRANCH   3  12
TORSDOF 1
ENDMDL
MODEL 8
REMARK VINA RESULT:    -1.347      1.978      2.228
REMARK INTER + INTRA:          -1.386
REMARK INTER:                  -1.386
REMARK INTRA:                   0.000
REMARK UNBOUND:                 0.000
REMARK SMILES O=c1ccc2ccc(O)cc2o1
REMARK SMILES IDX 6 1 7 2 8 3 10 4 11 5 5 6 4 7 3 8 2 9 1 10 12 11 9 12
REMARK H PARENT 9 13
REMARK Flexibility Score: inf
ROOT
ATOM      1  C   UNL     1       2.915   1.626 -15.982  1.00  0.00     0.016 A 
ATOM      2  C   UNL     1       3.127   0.670 -16.982  1.00  0.00     0.047 A 
ATOM      3  C   UNL     1       4.428   0.378 -17.417  1.00  0.00     0.119 A 
ATOM      4  C   UNL     1       5.520   1.044 -16.849  1.00  0.00     0.094 A 
ATOM      5  C   UNL     1       5.318   2.000 -15.848  1.00  0.00     0.142 A 
ATOM      6  C   UNL     1       4.007   2.294 -15.412  1.00  0.00     0.018 A 
ATOM      7  C   UNL     1       3.837   3.255 -14.410  1.00  0.00     0.019 A 
ATOM      8  C   UNL     1       4.957   3.891 -13.875  1.00  0.00     0.094 A 
ATOM      9  C   UNL     1       6.225   3.550 -14.356  1.00  0.00     0.336 A 
ATOM     10  O   UNL     1       7.248   4.113 -13.886  1.00  0.00    -0.246 OA
ATOM     11  O   UNL     1       6.360   2.631 -15.311  1.00  0.00    -0.423 OA
ENDROOT
BRANCH   3  12
ATOM     12  O   UNL     1       4.645  -0.572 -18.413  1.00  0.00    -0.508 OA
ATOM     13  H   UNL     1       4.446  -1.553 -18.260  1.00  0.00     0.293 HD
ENDBRANCH   3  12
TORSDOF 1
ENDMDL
