MODEL 1
REMARK VINA RESULT:    -5.266      0.000      0.000
REMARK INTER + INTRA:          -6.521
REMARK INTER:                  -6.343
REMARK INTRA:                  -0.178
REMARK UNBOUND:                -0.178
REMARK SMILES O=c1c(O)c(-c2ccc(O)c(O)c2)oc2cc(O)cc(O)c12
REMARK SMILES IDX 5 1 3 2 2 3 1 4 22 5 20 6 19 7 17 8 16 9 15 10 14 11 6 12
REMARK SMILES IDX 7 13 8 14 9 15 13 16 11 17 10 18 12 20 4 22 21 24 18 26
REMARK H PARENT 10 19 12 21 4 23 21 25 18 27
REMARK Flexibility Score: inf
ROOT
ATOM      1  C   UNL     1      15.429  10.667 -19.788  1.00  0.00     0.180 A 
ATOM      2  C   UNL     1      14.507   9.850 -20.466  1.00  0.00     0.208 A 
ATOM      3  C   UNL     1      14.841   8.509 -20.715  1.00  0.00     0.238 A 
ATOM      4  O   UNL     1      13.989   7.769 -21.273  1.00  0.00    -0.285 OA
ATOM      5  C   UNL     1      16.097   8.006 -20.300  1.00  0.00     0.111 A 
ATOM      6  C   UNL     1      16.555   6.675 -20.535  1.00  0.00     0.134 A 
ATOM      7  C   UNL     1      17.761   6.249 -19.965  1.00  0.00     0.093 A 
ATOM      8  C   UNL     1      18.556   7.122 -19.224  1.00  0.00     0.123 A 
ATOM      9  C   UNL     1      18.146   8.443 -19.037  1.00  0.00     0.094 A 
ATOM     10  C   UNL     1      16.930   8.887 -19.563  1.00  0.00     0.146 A 
ATOM     11  O   UNL     1      16.572  10.148 -19.353  1.00  0.00    -0.452 OA
ENDROOT
BRANCH   1  12
ATOM     12  C   UNL     1      15.160  12.096 -19.510  1.00  0.00     0.025 A 
ATOM     13  C   UNL     1      15.930  13.114 -20.102  1.00  0.00     0.016 A 
ATOM     14  C   UNL     1      15.674  14.455 -19.806  1.00  0.00     0.051 A 
ATOM     15  C   UNL     1      14.658  14.801 -18.908  1.00  0.00     0.157 A 
ATOM     16  C   UNL     1      14.156  12.445 -18.593  1.00  0.00     0.062 A 
ATOM     17  C   UNL     1      13.897  13.792 -18.296  1.00  0.00     0.158 A 
BRANCH  15  18
ATOM     18  O   UNL     1      14.425  16.148 -18.635  1.00  0.00    -0.504 OA
ATOM     19  H   UNL     1      14.404  16.849 -19.367  1.00  0.00     0.293 HD
ENDBRANCH  15  18
BRANCH  17  20
ATOM     20  O   UNL     1      12.888  14.128 -17.395  1.00  0.00    -0.504 OA
ATOM     21  H   UNL     1      12.976  14.923 -16.771  1.00  0.00     0.293 HD
ENDBRANCH  17  20
ENDBRANCH   1  12
BRANCH   2  22
ATOM     22  O   UNL     1      13.264  10.361 -20.848  1.00  0.00    -0.502 OA
ATOM     23  H   UNL     1      13.163  11.260 -21.304  1.00  0.00     0.293 HD
ENDBRANCH   2  22
BRANCH   6  24
ATOM     24  O   UNL     1      15.883   5.749 -21.339  1.00  0.00    -0.507 OA
ATOM     25  H   UNL     1      15.913   4.749 -21.209  1.00  0.00     0.293 HD
ENDBRANCH   6  24
BRANCH   8  26
ATOM     26  O   UNL     1      19.757   6.668 -18.684  1.00  0.00    -0.508 OA
ATOM     27  H   UNL     1      20.122   7.040 -17.816  1.00  0.00     0.293 HD
ENDBRANCH   8  26
TORSDOF 6
ENDMDL
MODEL 2
REMARK VINA RESULT:    -5.256      3.110      5.289
REMARK INTER + INTRA:          -6.510
REMARK INTER:                  -6.238
REMARK INTRA:                  -0.272
REMARK UNBOUND:                -0.178
REMARK SMILES O=c1c(O)c(-c2ccc(O)c(O)c2)oc2cc(O)cc(O)c12
REMARK SMILES IDX 5 1 3 2 2 3 1 4 22 5 20 6 19 7 17 8 16 9 15 10 14 11 6 12
REMARK SMILES IDX 7 13 8 14 9 15 13 16 11 17 10 18 12 20 4 22 21 24 18 26
REMARK H PARENT 10 19 12 21 4 23 21 25 18 27
REMARK Flexibility Score: inf
ROOT
ATOM      1  C   UNL     1      14.726   7.981 -21.050  1.00  0.00     0.180 A 
ATOM      2  C   UNL     1      15.063   9.138 -20.327  1.00  0.00     0.208 A 
ATOM      3  C   UNL     1      16.263   9.160 -19.598  1.00  0.00     0.238 A 
ATOM      4  O   UNL     1      16.585  10.219 -18.998  1.00  0.00    -0.285 OA
ATOM      5  C   UNL     1      17.103   8.021 -19.587  1.00  0.00     0.111 A 
ATOM      6  C   UNL     1      18.321   7.918 -18.851  1.00  0.00     0.134 A 
ATOM      7  C   UNL     1      19.136   6.792 -19.018  1.00  0.00     0.093 A 
ATOM      8  C   UNL     1      18.747   5.737 -19.841  1.00  0.00     0.123 A 
ATOM      9  C   UNL     1      17.529   5.800 -20.520  1.00  0.00     0.094 A 
ATOM     10  C   UNL     1      16.711   6.927 -20.402  1.00  0.00     0.146 A 
ATOM     11  O   UNL     1      15.566   6.952 -21.073  1.00  0.00    -0.452 OA
ENDROOT
BRANCH   1  12
ATOM     12  C   UNL     1      13.467   7.872 -21.822  1.00  0.00     0.025 A 
ATOM     13  C   UNL     1      13.451   8.025 -23.220  1.00  0.00     0.016 A 
ATOM     14  C   UNL     1      12.248   7.942 -23.925  1.00  0.00     0.051 A 
ATOM     15  C   UNL     1      11.044   7.719 -23.248  1.00  0.00     0.157 A 
ATOM     16  C   UNL     1      12.255   7.669 -21.143  1.00  0.00     0.062 A 
ATOM     17  C   UNL     1      11.046   7.585 -21.850  1.00  0.00     0.158 A 
BRANCH  15  18
ATOM     18  O   UNL     1       9.860   7.639 -23.979  1.00  0.00    -0.504 OA
ATOM     19  H   UNL     1       9.847   7.705 -24.991  1.00  0.00     0.293 HD
ENDBRANCH  15  18
BRANCH  17  20
ATOM     20  O   UNL     1       9.850   7.369 -21.168  1.00  0.00    -0.504 OA
ATOM     21  H   UNL     1       9.832   7.182 -20.171  1.00  0.00     0.293 HD
ENDBRANCH  17  20
ENDBRANCH   1  12
BRANCH   2  22
ATOM     22  O   UNL     1      14.231  10.260 -20.369  1.00  0.00    -0.502 OA
ATOM     23  H   UNL     1      13.509  10.374 -21.071  1.00  0.00     0.293 HD
ENDBRANCH   2  22
BRANCH   6  24
ATOM     24  O   UNL     1      18.759   8.875 -17.929  1.00  0.00    -0.507 OA
ATOM     25  H   UNL     1      19.407   8.693 -17.178  1.00  0.00     0.293 HD
ENDBRANCH   6  24
BRANCH   8  26
ATOM     26  O   UNL     1      19.576   4.624 -19.972  1.00  0.00    -0.508 OA
ATOM     27  H   UNL     1      19.777   4.217 -20.876  1.00  0.00     0.293 HD
ENDBRANCH   8  26
TORSDOF 6
ENDMDL
MODEL 3
REMARK VINA RESULT:    -5.249      1.944      3.135
REMARK INTER + INTRA:          -6.501
REMARK INTER:                  -6.189
REMARK INTRA:                  -0.312
REMARK UNBOUND:                -0.178
REMARK SMILES O=c1c(O)c(-c2ccc(O)c(O)c2)oc2cc(O)cc(O)c12
REMARK SMILES IDX 5 1 3 2 2 3 1 4 22 5 20 6 19 7 17 8 16 9 15 10 14 11 6 12
REMARK SMILES IDX 7 13 8 14 9 15 13 16 11 17 10 18 12 20 4 22 21 24 18 26
REMARK H PARENT 10 19 12 21 4 23 21 25 18 27
REMARK Flexibility Score: inf
ROOT
ATOM      1  C   UNL     1      15.702  11.091 -19.617  1.00  0.00     0.180 A 
ATOM      2  C   UNL     1      16.943  11.701 -19.869  1.00  0.00     0.208 A 
ATOM      3  C   UNL     1      18.113  10.931 -19.773  1.00  0.00     0.238 A 
ATOM      4  O   UNL     1      19.215  11.470 -20.054  1.00  0.00    -0.285 OA
ATOM      5  C   UNL     1      18.030   9.566 -19.409  1.00  0.00     0.111 A 
ATOM      6  C   UNL     1      19.154   8.702 -19.243  1.00  0.00     0.134 A 
ATOM      7  C   UNL     1      18.946   7.337 -19.009  1.00  0.00     0.093 A 
ATOM      8  C   UNL     1      17.660   6.816 -18.871  1.00  0.00     0.123 A 
ATOM      9  C   UNL     1      16.555   7.663 -18.973  1.00  0.00     0.094 A 
ATOM     10  C   UNL     1      16.729   9.023 -19.242  1.00  0.00     0.146 A 
ATOM     11  O   UNL     1      15.652   9.792 -19.342  1.00  0.00    -0.452 OA
ENDROOT
BRANCH   1  12
ATOM     12  C   UNL     1      14.427  11.842 -19.674  1.00  0.00     0.025 A 
ATOM     13  C   UNL     1      13.642  11.862 -20.840  1.00  0.00     0.016 A 
ATOM     14  C   UNL     1      12.455  12.597 -20.878  1.00  0.00     0.051 A 
ATOM     15  C   UNL     1      12.041  13.333 -19.763  1.00  0.00     0.157 A 
ATOM     16  C   UNL     1      14.020  12.599 -18.563  1.00  0.00     0.062 A 
ATOM     17  C   UNL     1      12.828  13.337 -18.600  1.00  0.00     0.158 A 
BRANCH  15  18
ATOM     18  O   UNL     1      10.850  14.055 -19.832  1.00  0.00    -0.504 OA
ATOM     19  H   UNL     1      10.106  13.931 -19.156  1.00  0.00     0.293 HD
ENDBRANCH  15  18
BRANCH  17  20
ATOM     20  O   UNL     1      12.425  14.073 -17.487  1.00  0.00    -0.504 OA
ATOM     21  H   UNL     1      12.935  14.894 -17.180  1.00  0.00     0.293 HD
ENDBRANCH  17  20
ENDBRANCH   1  12
BRANCH   2  22
ATOM     22  O   UNL     1      17.000  13.046 -20.248  1.00  0.00    -0.502 OA
ATOM     23  H   UNL     1      16.336  13.733 -19.912  1.00  0.00     0.293 HD
ENDBRANCH   2  22
BRANCH   6  24
ATOM     24  O   UNL     1      20.483   9.135 -19.270  1.00  0.00    -0.507 OA
ATOM     25  H   UNL     1      21.208   8.728 -19.840  1.00  0.00     0.293 HD
ENDBRANCH   6  24
BRANCH   8  26
ATOM     26  O   UNL     1      17.492   5.456 -18.623  1.00  0.00    -0.508 OA
ATOM     27  H   UNL     1      18.094   4.761 -19.048  1.00  0.00     0.293 HD
ENDBRANCH   8  26
TORSDOF 6
ENDMDL
MODEL 4
REMARK VINA RESULT:    -5.208     12.390     13.433
REMARK INTER + INTRA:          -6.451
REMARK INTER:                  -6.175
REMARK INTRA:                  -0.276
REMARK UNBOUND:                -0.178
REMARK SMILES O=c1c(O)c(-c2ccc(O)c(O)c2)oc2cc(O)cc(O)c12
REMARK SMILES IDX 5 1 3 2 2 3 1 4 22 5 20 6 19 7 17 8 16 9 15 10 14 11 6 12
REMARK SMILES IDX 7 13 8 14 9 15 13 16 11 17 10 18 12 20 4 22 21 24 18 26
REMARK H PARENT 10 19 12 21 4 23 21 25 18 27
REMARK Flexibility Score: inf
ROOT
ATOM      1  C   UNL     1      22.811  15.544 -28.593  1.00  0.00     0.180 A 
ATOM      2  C   UNL     1      21.514  16.083 -28.620  1.00  0.00     0.208 A 
ATOM      3  C   UNL     1      20.559  15.518 -29.481  1.00  0.00     0.238 A 
ATOM      4  O   UNL     1      19.384  15.970 -29.460  1.00  0.00    -0.285 OA
ATOM      5  C   UNL     1      20.917  14.433 -30.315  1.00  0.00     0.111 A 
ATOM      6  C   UNL     1      20.042  13.808 -31.254  1.00  0.00     0.134 A 
ATOM      7  C   UNL     1      20.464  12.659 -31.933  1.00  0.00     0.093 A 
ATOM      8  C   UNL     1      21.750  12.149 -31.757  1.00  0.00     0.123 A 
ATOM      9  C   UNL     1      22.635  12.786 -30.886  1.00  0.00     0.094 A 
ATOM     10  C   UNL     1      22.230  13.914 -30.167  1.00  0.00     0.146 A 
ATOM     11  O   UNL     1      23.098  14.484 -29.340  1.00  0.00    -0.452 OA
ENDROOT
BRANCH   1  12
ATOM     12  C   UNL     1      23.879  16.101 -27.731  1.00  0.00     0.025 A 
ATOM     13  C   UNL     1      24.233  15.487 -26.517  1.00  0.00     0.016 A 
ATOM     14  C   UNL     1      25.227  16.044 -25.708  1.00  0.00     0.051 A 
ATOM     15  C   UNL     1      25.872  17.225 -26.090  1.00  0.00     0.157 A 
ATOM     16  C   UNL     1      24.512  17.298 -28.102  1.00  0.00     0.062 A 
ATOM     17  C   UNL     1      25.512  17.858 -27.291  1.00  0.00     0.158 A 
BRANCH  15  18
ATOM     18  O   UNL     1      26.861  17.755 -25.263  1.00  0.00    -0.504 OA
ATOM     19  H   UNL     1      27.703  17.240 -25.034  1.00  0.00     0.293 HD
ENDBRANCH  15  18
BRANCH  17  20
ATOM     20  O   UNL     1      26.145  19.039 -27.675  1.00  0.00    -0.504 OA
ATOM     21  H   UNL     1      25.740  19.947 -27.478  1.00  0.00     0.293 HD
ENDBRANCH  17  20
ENDBRANCH   1  12
BRANCH   2  22
ATOM     22  O   UNL     1      21.175  17.141 -27.772  1.00  0.00    -0.502 OA
ATOM     23  H   UNL     1      20.296  17.640 -27.849  1.00  0.00     0.293 HD
ENDBRANCH   2  22
BRANCH   6  24
ATOM     24  O   UNL     1      18.769  14.290 -31.574  1.00  0.00    -0.507 OA
ATOM     25  H   UNL     1      18.244  14.025 -32.394  1.00  0.00     0.293 HD
ENDBRANCH   6  24
BRANCH   8  26
ATOM     26  O   UNL     1      22.141  11.012 -32.461  1.00  0.00    -0.508 OA
ATOM     27  H   UNL     1      22.714  10.295 -32.033  1.00  0.00     0.293 HD
ENDBRANCH   8  26
TORSDOF 6
ENDMDL
MODEL 5
REMARK VINA RESULT:    -5.158      3.484      8.375
REMARK INTER + INTRA:          -6.391
REMARK INTER:                  -6.107
REMARK INTRA:                  -0.284
REMARK UNBOUND:                -0.178
REMARK SMILES O=c1c(O)c(-c2ccc(O)c(O)c2)oc2cc(O)cc(O)c12
REMARK SMILES IDX 5 1 3 2 2 3 1 4 22 5 20 6 19 7 17 8 16 9 15 10 14 11 6 12
REMARK SMILES IDX 7 13 8 14 9 15 13 16 11 17 10 18 12 20 4 22 21 24 18 26
REMARK H PARENT 10 19 12 21 4 23 21 25 18 27
REMARK Flexibility Score: inf
ROOT
ATOM      1  C   UNL     1      20.574   6.906 -19.386  1.00  0.00     0.180 A 
ATOM      2  C   UNL     1      19.491   6.011 -19.366  1.00  0.00     0.208 A 
ATOM      3  C   UNL     1      18.184   6.523 -19.405  1.00  0.00     0.238 A 
ATOM      4  O   UNL     1      17.220   5.715 -19.443  1.00  0.00    -0.285 OA
ATOM      5  C   UNL     1      17.975   7.922 -19.444  1.00  0.00     0.111 A 
ATOM      6  C   UNL     1      16.695   8.552 -19.445  1.00  0.00     0.134 A 
ATOM      7  C   UNL     1      16.606   9.939 -19.618  1.00  0.00     0.093 A 
ATOM      8  C   UNL     1      17.752  10.726 -19.725  1.00  0.00     0.123 A 
ATOM      9  C   UNL     1      19.012  10.127 -19.666  1.00  0.00     0.094 A 
ATOM     10  C   UNL     1      19.131   8.742 -19.531  1.00  0.00     0.146 A 
ATOM     11  O   UNL     1      20.347   8.211 -19.490  1.00  0.00    -0.452 OA
ENDROOT
BRANCH   1  12
ATOM     12  C   UNL     1      21.980   6.445 -19.323  1.00  0.00     0.025 A 
ATOM     13  C   UNL     1      22.630   5.924 -20.456  1.00  0.00     0.016 A 
ATOM     14  C   UNL     1      23.949   5.472 -20.367  1.00  0.00     0.051 A 
ATOM     15  C   UNL     1      24.633   5.520 -19.148  1.00  0.00     0.157 A 
ATOM     16  C   UNL     1      22.662   6.472 -18.096  1.00  0.00     0.062 A 
ATOM     17  C   UNL     1      23.987   6.019 -18.006  1.00  0.00     0.158 A 
BRANCH  15  18
ATOM     18  O   UNL     1      25.949   5.064 -19.092  1.00  0.00    -0.504 OA
ATOM     19  H   UNL     1      26.194   4.100 -19.289  1.00  0.00     0.293 HD
ENDBRANCH  15  18
BRANCH  17  20
ATOM     20  O   UNL     1      24.660   6.064 -16.786  1.00  0.00    -0.504 OA
ATOM     21  H   UNL     1      24.195   5.839 -15.914  1.00  0.00     0.293 HD
ENDBRANCH  17  20
ENDBRANCH   1  12
BRANCH   2  22
ATOM     22  O   UNL     1      19.719   4.632 -19.349  1.00  0.00    -0.502 OA
ATOM     23  H   UNL     1      19.331   4.008 -20.046  1.00  0.00     0.293 HD
ENDBRANCH   2  22
BRANCH   6  24
ATOM     24  O   UNL     1      15.489   7.869 -19.253  1.00  0.00    -0.507 OA
ATOM     25  H   UNL     1      15.368   6.875 -19.372  1.00  0.00     0.293 HD
ENDBRANCH   6  24
BRANCH   8  26
ATOM     26  O   UNL     1      17.627  12.104 -19.881  1.00  0.00    -0.508 OA
ATOM     27  H   UNL     1      16.721  12.551 -19.941  1.00  0.00     0.293 HD
ENDBRANCH   8  26
TORSDOF 6
ENDMDL
MODEL 6
REMARK VINA RESULT:    -5.151     12.889     15.115
REMARK INTER + INTRA:          -6.383
REMARK INTER:                  -6.094
REMARK INTRA:                  -0.289
REMARK UNBOUND:                -0.178
REMARK SMILES O=c1c(O)c(-c2ccc(O)c(O)c2)oc2cc(O)cc(O)c12
REMARK SMILES IDX 5 1 3 2 2 3 1 4 22 5 20 6 19 7 17 8 16 9 15 10 14 11 6 12
REMARK SMILES IDX 7 13 8 14 9 15 13 16 11 17 10 18 12 20 4 22 21 24 18 26
REMARK H PARENT 10 19 12 21 4 23 21 25 18 27
REMARK Flexibility Score: inf
ROOT
ATOM      1  C   UNL     1      21.660   9.637 -31.786  1.00  0.00     0.180 A 
ATOM      2  C   UNL     1      20.359   9.738 -32.307  1.00  0.00     0.208 A 
ATOM      3  C   UNL     1      19.681  10.964 -32.211  1.00  0.00     0.238 A 
ATOM      4  O   UNL     1      18.537  11.063 -32.728  1.00  0.00    -0.285 OA
ATOM      5  C   UNL     1      20.304  12.067 -31.581  1.00  0.00     0.111 A 
ATOM      6  C   UNL     1      19.694  13.344 -31.393  1.00  0.00     0.134 A 
ATOM      7  C   UNL     1      20.452  14.401 -30.874  1.00  0.00     0.093 A 
ATOM      8  C   UNL     1      21.775  14.213 -30.476  1.00  0.00     0.123 A 
ATOM      9  C   UNL     1      22.363  12.953 -30.601  1.00  0.00     0.094 A 
ATOM     10  C   UNL     1      21.644  11.887 -31.149  1.00  0.00     0.146 A 
ATOM     11  O   UNL     1      22.244  10.709 -31.260  1.00  0.00    -0.452 OA
ENDROOT
BRANCH   1  12
ATOM     12  C   UNL     1      22.430   8.373 -31.828  1.00  0.00     0.025 A 
ATOM     13  C   UNL     1      22.560   7.558 -30.689  1.00  0.00     0.016 A 
ATOM     14  C   UNL     1      23.311   6.382 -30.745  1.00  0.00     0.051 A 
ATOM     15  C   UNL     1      23.954   6.007 -31.929  1.00  0.00     0.157 A 
ATOM     16  C   UNL     1      23.094   8.006 -33.009  1.00  0.00     0.062 A 
ATOM     17  C   UNL     1      23.848   6.824 -33.067  1.00  0.00     0.158 A 
BRANCH  15  18
ATOM     18  O   UNL     1      24.695   4.826 -31.954  1.00  0.00    -0.504 OA
ATOM     19  H   UNL     1      25.275   4.572 -32.745  1.00  0.00     0.293 HD
ENDBRANCH  15  18
BRANCH  17  20
ATOM     20  O   UNL     1      24.491   6.461 -34.249  1.00  0.00    -0.504 OA
ATOM     21  H   UNL     1      25.081   5.638 -34.303  1.00  0.00     0.293 HD
ENDBRANCH  17  20
ENDBRANCH   1  12
BRANCH   2  22
ATOM     22  O   UNL     1      19.770   8.642 -32.944  1.00  0.00    -0.502 OA
ATOM     23  H   UNL     1      20.282   8.047 -33.585  1.00  0.00     0.293 HD
ENDBRANCH   2  22
BRANCH   6  24
ATOM     24  O   UNL     1      18.351  13.616 -31.671  1.00  0.00    -0.507 OA
ATOM     25  H   UNL     1      17.706  14.040 -31.022  1.00  0.00     0.293 HD
ENDBRANCH   6  24
BRANCH   8  26
ATOM     26  O   UNL     1      22.494  15.283 -29.950  1.00  0.00    -0.508 OA
ATOM     27  H   UNL     1      22.079  16.201 -29.848  1.00  0.00     0.293 HD
ENDBRANCH   8  26
TORSDOF 6
ENDMDL
MODEL 7
REMARK VINA RESULT:    -5.112      1.598      7.157
REMARK INTER + INTRA:          -6.335
REMARK INTER:                  -6.052
REMARK INTRA:                  -0.284
REMARK UNBOUND:                -0.178
REMARK SMILES O=c1c(O)c(-c2ccc(O)c(O)c2)oc2cc(O)cc(O)c12
REMARK SMILES IDX 5 1 3 2 2 3 1 4 22 5 20 6 19 7 17 8 16 9 15 10 14 11 6 12
REMARK SMILES IDX 7 13 8 14 9 15 13 16 11 17 10 18 12 20 4 22 21 24 18 26
REMARK H PARENT 10 19 12 21 4 23 21 25 18 27
REMARK Flexibility Score: inf
ROOT
ATOM      1  C   UNL     1      16.087  10.869 -19.512  1.00  0.00     0.180 A 
ATOM      2  C   UNL     1      16.925  11.771 -20.188  1.00  0.00     0.208 A 
ATOM      3  C   UNL     1      16.522  13.110 -20.316  1.00  0.00     0.238 A 
ATOM      4  O   UNL     1      17.302  13.925 -20.874  1.00  0.00    -0.285 OA
ATOM      5  C   UNL     1      15.278  13.526 -19.783  1.00  0.00     0.111 A 
ATOM      6  C   UNL     1      14.752  14.848 -19.890  1.00  0.00     0.134 A 
ATOM      7  C   UNL     1      13.572  15.179 -19.211  1.00  0.00     0.093 A 
ATOM      8  C   UNL     1      12.867  14.221 -18.484  1.00  0.00     0.123 A 
ATOM      9  C   UNL     1      13.341  12.910 -18.421  1.00  0.00     0.094 A 
ATOM     10  C   UNL     1      14.534  12.558 -19.058  1.00  0.00     0.146 A 
ATOM     11  O   UNL     1      14.957  11.303 -18.965  1.00  0.00    -0.452 OA
ENDROOT
BRANCH   1  12
ATOM     12  C   UNL     1      16.431   9.436 -19.357  1.00  0.00     0.025 A 
ATOM     13  C   UNL     1      17.364   9.008 -18.396  1.00  0.00     0.016 A 
ATOM     14  C   UNL     1      17.691   7.655 -18.284  1.00  0.00     0.051 A 
ATOM     15  C   UNL     1      17.106   6.712 -19.135  1.00  0.00     0.157 A 
ATOM     16  C   UNL     1      15.861   8.491 -20.224  1.00  0.00     0.062 A 
ATOM     17  C   UNL     1      16.188   7.131 -20.112  1.00  0.00     0.158 A 
BRANCH  15  18
ATOM     18  O   UNL     1      17.451   5.368 -18.998  1.00  0.00    -0.504 OA
ATOM     19  H   UNL     1      17.027   4.773 -18.296  1.00  0.00     0.293 HD
ENDBRANCH  15  18
BRANCH  17  20
ATOM     20  O   UNL     1      15.605   6.198 -20.969  1.00  0.00    -0.504 OA
ATOM     21  H   UNL     1      15.108   5.388 -20.614  1.00  0.00     0.293 HD
ENDBRANCH  17  20
ENDBRANCH   1  12
BRANCH   2  22
ATOM     22  O   UNL     1      18.158  11.344 -20.688  1.00  0.00    -0.502 OA
ATOM     23  H   UNL     1      18.523  10.415 -20.514  1.00  0.00     0.293 HD
ENDBRANCH   2  22
BRANCH   6  24
ATOM     24  O   UNL     1      15.329  15.858 -20.666  1.00  0.00    -0.507 OA
ATOM     25  H   UNL     1      16.012  16.519 -20.331  1.00  0.00     0.293 HD
ENDBRANCH   6  24
BRANCH   8  26
ATOM     26  O   UNL     1      11.688  14.582 -17.834  1.00  0.00    -0.508 OA
ATOM     27  H   UNL     1      10.895  14.952 -18.342  1.00  0.00     0.293 HD
ENDBRANCH   8  26
TORSDOF 6
ENDMDL
MODEL 8
REMARK VINA RESULT:    -5.111      1.940      3.159
REMARK INTER + INTRA:          -6.335
REMARK INTER:                  -6.004
REMARK INTRA:                  -0.331
REMARK UNBOUND:                -0.178
REMARK SMILES O=c1c(O)c(-c2ccc(O)c(O)c2)oc2cc(O)cc(O)c12
REMARK SMILES IDX 5 1 3 2 2 3 1 4 22 5 20 6 19 7 17 8 16 9 15 10 14 11 6 12
REMARK SMILES IDX 7 13 8 14 9 15 13 16 11 17 10 18 12 20 4 22 21 24 18 26
REMARK H PARENT 10 19 12 21 4 23 21 25 18 27
REMARK Flexibility Score: inf
ROOT
ATOM      1  C   UNL     1      17.029   8.955 -19.991  1.00  0.00     0.180 A 
ATOM      2  C   UNL     1      16.619   7.611 -20.002  1.00  0.00     0.208 A 
ATOM      3  C   UNL     1      17.571   6.607 -19.766  1.00  0.00     0.238 A 
ATOM      4  O   UNL     1      17.187   5.409 -19.724  1.00  0.00    -0.285 OA
ATOM      5  C   UNL     1      18.924   6.956 -19.541  1.00  0.00     0.111 A 
ATOM      6  C   UNL     1      19.979   6.019 -19.331  1.00  0.00     0.134 A 
ATOM      7  C   UNL     1      21.256   6.482 -18.987  1.00  0.00     0.093 A 
ATOM      8  C   UNL     1      21.531   7.846 -18.909  1.00  0.00     0.123 A 
ATOM      9  C   UNL     1      20.520   8.773 -19.170  1.00  0.00     0.094 A 
ATOM     10  C   UNL     1      19.228   8.342 -19.480  1.00  0.00     0.146 A 
ATOM     11  O   UNL     1      18.293   9.255 -19.711  1.00  0.00    -0.452 OA
ENDROOT
BRANCH   1  12
ATOM     12  C   UNL     1      16.089  10.069 -20.255  1.00  0.00     0.025 A 
ATOM     13  C   UNL     1      15.869  10.547 -21.559  1.00  0.00     0.016 A 
ATOM     14  C   UNL     1      14.996  11.614 -21.781  1.00  0.00     0.051 A 
ATOM     15  C   UNL     1      14.342  12.230 -20.709  1.00  0.00     0.157 A 
ATOM     16  C   UNL     1      15.448  10.702 -19.178  1.00  0.00     0.062 A 
ATOM     17  C   UNL     1      14.570  11.774 -19.400  1.00  0.00     0.158 A 
BRANCH  15  18
ATOM     18  O   UNL     1      13.475  13.291 -20.963  1.00  0.00    -0.504 OA
ATOM     19  H   UNL     1      13.812  14.222 -21.177  1.00  0.00     0.293 HD
ENDBRANCH  15  18
BRANCH  17  20
ATOM     20  O   UNL     1      13.927  12.386 -18.325  1.00  0.00    -0.504 OA
ATOM     21  H   UNL     1      12.916  12.412 -18.255  1.00  0.00     0.293 HD
ENDBRANCH  17  20
ENDBRANCH   1  12
BRANCH   2  22
ATOM     22  O   UNL     1      15.274   7.289 -20.206  1.00  0.00    -0.502 OA
ATOM     23  H   UNL     1      14.920   6.345 -20.105  1.00  0.00     0.293 HD
ENDBRANCH   2  22
BRANCH   6  24
ATOM     24  O   UNL     1      19.835   4.636 -19.475  1.00  0.00    -0.507 OA
ATOM     25  H   UNL     1      20.515   4.030 -19.909  1.00  0.00     0.293 HD
ENDBRANCH   6  24
BRANCH   8  26
ATOM     26  O   UNL     1      22.816   8.271 -18.580  1.00  0.00    -0.508 OA
ATOM     27  H   UNL     1      23.290   7.932 -17.752  1.00  0.00     0.293 HD
ENDBRANCH   8  26
TORSDOF 6
ENDMDL
MODEL 9
REMARK VINA RESULT:    -5.051     11.927     12.708
REMARK INTER + INTRA:          -6.263
REMARK INTER:                  -5.946
REMARK INTRA:                  -0.317
REMARK UNBOUND:                -0.178
REMARK SMILES O=c1c(O)c(-c2ccc(O)c(O)c2)oc2cc(O)cc(O)c12
REMARK SMILES IDX 5 1 3 2 2 3 1 4 22 5 20 6 19 7 17 8 16 9 15 10 14 11 6 12
REMARK SMILES IDX 7 13 8 14 9 15 13 16 11 17 10 18 12 20 4 22 21 24 18 26
REMARK H PARENT 10 19 12 21 4 23 21 25 18 27
REMARK Flexibility Score: inf
ROOT
ATOM      1  C   UNL     1      22.413  15.195 -28.812  1.00  0.00     0.180 A 
ATOM      2  C   UNL     1      21.724  15.403 -30.019  1.00  0.00     0.208 A 
ATOM      3  C   UNL     1      21.483  14.307 -30.862  1.00  0.00     0.238 A 
ATOM      4  O   UNL     1      20.818  14.490 -31.915  1.00  0.00    -0.285 OA
ATOM      5  C   UNL     1      21.947  13.021 -30.498  1.00  0.00     0.111 A 
ATOM      6  C   UNL     1      21.793  11.847 -31.295  1.00  0.00     0.134 A 
ATOM      7  C   UNL     1      22.176  10.604 -30.775  1.00  0.00     0.093 A 
ATOM      8  C   UNL     1      22.766  10.500 -29.516  1.00  0.00     0.123 A 
ATOM      9  C   UNL     1      22.976  11.650 -28.752  1.00  0.00     0.094 A 
ATOM     10  C   UNL     1      22.571  12.899 -29.228  1.00  0.00     0.146 A 
ATOM     11  O   UNL     1      22.778  13.966 -28.466  1.00  0.00    -0.452 OA
ENDROOT
BRANCH   1  12
ATOM     12  C   UNL     1      22.727  16.305 -27.882  1.00  0.00     0.025 A 
ATOM     13  C   UNL     1      21.870  16.630 -26.816  1.00  0.00     0.016 A 
ATOM     14  C   UNL     1      22.175  17.695 -25.965  1.00  0.00     0.051 A 
ATOM     15  C   UNL     1      23.328  18.460 -26.173  1.00  0.00     0.157 A 
ATOM     16  C   UNL     1      23.872  17.086 -28.101  1.00  0.00     0.062 A 
ATOM     17  C   UNL     1      24.180  18.157 -27.247  1.00  0.00     0.158 A 
BRANCH  15  18
ATOM     18  O   UNL     1      23.606  19.516 -25.306  1.00  0.00    -0.504 OA
ATOM     19  H   UNL     1      23.595  19.403 -24.299  1.00  0.00     0.293 HD
ENDBRANCH  15  18
BRANCH  17  20
ATOM     20  O   UNL     1      25.328  18.918 -27.465  1.00  0.00    -0.504 OA
ATOM     21  H   UNL     1      25.534  19.321 -28.372  1.00  0.00     0.293 HD
ENDBRANCH  17  20
ENDBRANCH   1  12
BRANCH   2  22
ATOM     22  O   UNL     1      21.256  16.678 -30.350  1.00  0.00    -0.502 OA
ATOM     23  H   UNL     1      20.268  16.890 -30.430  1.00  0.00     0.293 HD
ENDBRANCH   2  22
BRANCH   6  24
ATOM     24  O   UNL     1      21.300  11.851 -32.603  1.00  0.00    -0.507 OA
ATOM     25  H   UNL     1      20.546  11.268 -32.933  1.00  0.00     0.293 HD
ENDBRANCH   6  24
BRANCH   8  26
ATOM     26  O   UNL     1      23.149   9.249 -29.037  1.00  0.00    -0.508 OA
ATOM     27  H   UNL     1      22.625   8.413 -29.262  1.00  0.00     0.293 HD
ENDBRANCH   8  26
TORSDOF 6
ENDMDL
