MODEL 1
REMARK VINA RESULT:    -3.913      0.000      0.000
REMARK INTER + INTRA:          -6.536
REMARK INTER:                  -6.201
REMARK INTRA:                  -0.335
REMARK UNBOUND:                -0.335
REMARK SMILES CCCCCCCCCCCC(=O)[O-]
REMARK SMILES IDX 7 1 8 2 9 3 10 4 11 5 12 6 13 7 14 8 6 9 5 10 4 11 3 12 2 13
REMARK SMILES IDX 1 14
REMARK H PARENT
REMARK Flexibility Score: inf
ROOT
ATOM      1  C   UNL     1      19.918 -22.741  13.532  1.00  0.00     0.000 C 
ENDROOT
BRANCH   1   2
ATOM      2  C   UNL     1      19.726 -24.189  13.065  1.00  0.00     0.000 C 
BRANCH   2   3
ATOM      3  C   UNL     1      20.850 -25.090  13.592  1.00  0.00     0.000 C 
BRANCH   3   4
ATOM      4  C   UNL     1      20.772 -26.489  12.963  1.00  0.00     0.006 C 
BRANCH   4   5
ATOM      5  C   UNL     1      21.721 -27.484  13.645  1.00  0.00     0.053 C 
BRANCH   5   6
ATOM      6  C   UNL     1      21.069 -28.816  13.855  1.00  0.00     0.041 C 
ATOM      7  O   UNL     1      20.385 -29.340  12.937  1.00  0.00    -0.550 OA
ATOM      8  O   UNL     1      21.246 -29.495  15.054  1.00  0.00    -0.550 OA
ENDBRANCH   5   6
ENDBRANCH   4   5
ENDBRANCH   3   4
ENDBRANCH   2   3
ENDBRANCH   1   2
BRANCH   1   9
ATOM      9  C   UNL     1      20.784 -22.680  14.797  1.00  0.00     0.000 C 
BRANCH   9  10
ATOM     10  C   UNL     1      20.615 -21.334  15.518  1.00  0.00    -0.000 C 
BRANCH  10  11
ATOM     11  C   UNL     1      19.607 -20.411  14.801  1.00  0.00    -0.000 C 
BRANCH  11  12
ATOM     12  C   UNL     1      20.248 -19.152  14.194  1.00  0.00    -0.000 C 
BRANCH  12  13
ATOM     13  C   UNL     1      19.913 -17.875  14.977  1.00  0.00    -0.003 C 
ATOM     14  C   UNL     1      20.007 -18.112  16.481  1.00  0.00     0.004 C 
ENDBRANCH  12  13
ENDBRANCH  11  12
ENDBRANCH  10  11
ENDBRANCH   9  10
ENDBRANCH   1   9
TORSDOF 10
ENDMDL
MODEL 2
REMARK VINA RESULT:    -3.779     14.296     16.616
REMARK INTER + INTRA:          -6.323
REMARK INTER:                  -4.988
REMARK INTRA:                  -1.335
REMARK UNBOUND:                -0.335
REMARK SMILES CCCCCCCCCCCC(=O)[O-]
REMARK SMILES IDX 7 1 8 2 9 3 10 4 11 5 12 6 13 7 14 8 6 9 5 10 4 11 3 12 2 13
REMARK SMILES IDX 1 14
REMARK H PARENT
REMARK Flexibility Score: inf
ROOT
ATOM      1  C   UNL     1       7.471 -35.583  15.542  1.00  0.00     0.000 C 
ENDROOT
BRANCH   1   2
ATOM      2  C   UNL     1       8.114 -35.066  16.835  1.00  0.00     0.000 C 
BRANCH   2   3
ATOM      3  C   UNL     1       7.079 -34.363  17.721  1.00  0.00     0.000 C 
BRANCH   3   4
ATOM      4  C   UNL     1       7.525 -32.932  18.057  1.00  0.00     0.006 C 
BRANCH   4   5
ATOM      5  C   UNL     1       8.854 -32.566  17.384  1.00  0.00     0.053 C 
BRANCH   5   6
ATOM      6  C   UNL     1       9.608 -31.536  18.168  1.00  0.00     0.041 C 
ATOM      7  O   UNL     1       9.529 -31.512  19.424  1.00  0.00    -0.550 OA
ATOM      8  O   UNL     1      10.423 -30.623  17.512  1.00  0.00    -0.550 OA
ENDBRANCH   5   6
ENDBRANCH   4   5
ENDBRANCH   3   4
ENDBRANCH   2   3
ENDBRANCH   1   2
BRANCH   1   9
ATOM      9  C   UNL     1       6.132 -34.884  15.276  1.00  0.00     0.000 C 
BRANCH   9  10
ATOM     10  C   UNL     1       6.208 -34.006  14.017  1.00  0.00    -0.000 C 
BRANCH  10  11
ATOM     11  C   UNL     1       7.304 -32.926  14.125  1.00  0.00    -0.000 C 
BRANCH  11  12
ATOM     12  C   UNL     1       8.412 -33.063  13.068  1.00  0.00    -0.000 C 
BRANCH  12  13
ATOM     13  C   UNL     1       9.814 -33.169  13.682  1.00  0.00    -0.003 C 
ATOM     14  C   UNL     1      10.415 -34.551  13.444  1.00  0.00     0.004 C 
ENDBRANCH  12  13
ENDBRANCH  11  12
ENDBRANCH  10  11
ENDBRANCH   9  10
ENDBRANCH   1   9
TORSDOF 10
ENDMDL
MODEL 3
REMARK VINA RESULT:    -3.580     14.452     16.701
REMARK INTER + INTRA:          -6.008
REMARK INTER:                  -4.988
REMARK INTRA:                  -1.020
REMARK UNBOUND:                -0.335
REMARK SMILES CCCCCCCCCCCC(=O)[O-]
REMARK SMILES IDX 7 1 8 2 9 3 10 4 11 5 12 6 13 7 14 8 6 9 5 10 4 11 3 12 2 13
REMARK SMILES IDX 1 14
REMARK H PARENT
REMARK Flexibility Score: inf
ROOT
ATOM      1  C   UNL     1       6.024 -36.018  15.094  1.00  0.00     0.000 C 
ENDROOT
BRANCH   1   2
ATOM      2  C   UNL     1       6.301 -35.371  13.731  1.00  0.00     0.000 C 
BRANCH   2   3
ATOM      3  C   UNL     1       6.174 -33.845  13.811  1.00  0.00     0.000 C 
BRANCH   3   4
ATOM      4  C   UNL     1       7.408 -33.159  13.208  1.00  0.00     0.006 C 
BRANCH   4   5
ATOM      5  C   UNL     1       8.471 -32.843  14.268  1.00  0.00     0.053 C 
BRANCH   5   6
ATOM      6  C   UNL     1       9.782 -33.496  13.951  1.00  0.00     0.041 C 
ATOM      7  O   UNL     1       9.914 -34.743  14.065  1.00  0.00    -0.550 OA
ATOM      8  O   UNL     1      10.849 -32.729  13.499  1.00  0.00    -0.550 OA
ENDBRANCH   5   6
ENDBRANCH   4   5
ENDBRANCH   3   4
ENDBRANCH   2   3
ENDBRANCH   1   2
BRANCH   1   9
ATOM      9  C   UNL     1       6.096 -34.980  16.221  1.00  0.00     0.000 C 
BRANCH   9  10
ATOM     10  C   UNL     1       7.291 -35.254  17.147  1.00  0.00    -0.000 C 
BRANCH  10  11
ATOM     11  C   UNL     1       7.342 -34.274  18.338  1.00  0.00    -0.000 C 
BRANCH  11  12
ATOM     12  C   UNL     1       7.442 -32.798  17.917  1.00  0.00    -0.000 C 
BRANCH  12  13
ATOM     13  C   UNL     1       8.890 -32.331  17.718  1.00  0.00    -0.003 C 
ATOM     14  C   UNL     1       9.337 -31.423  18.860  1.00  0.00     0.004 C 
ENDBRANCH  12  13
ENDBRANCH  11  12
ENDBRANCH  10  11
ENDBRANCH   9  10
ENDBRANCH   1   9
TORSDOF 10
ENDMDL
MODEL 4
REMARK VINA RESULT:    -3.577     14.089     16.740
REMARK INTER + INTRA:          -6.004
REMARK INTER:                  -4.926
REMARK INTRA:                  -1.078
REMARK UNBOUND:                -0.335
REMARK SMILES CCCCCCCCCCCC(=O)[O-]
REMARK SMILES IDX 7 1 8 2 9 3 10 4 11 5 12 6 13 7 14 8 6 9 5 10 4 11 3 12 2 13
REMARK SMILES IDX 1 14
REMARK H PARENT
REMARK Flexibility Score: inf
ROOT
ATOM      1  C   UNL     1       7.784 -35.738  14.827  1.00  0.00     0.000 C 
ENDROOT
BRANCH   1   2
ATOM      2  C   UNL     1       6.808 -36.225  15.906  1.00  0.00     0.000 C 
BRANCH   2   3
ATOM      3  C   UNL     1       6.319 -35.058  16.772  1.00  0.00     0.000 C 
BRANCH   3   4
ATOM      4  C   UNL     1       7.489 -34.402  17.521  1.00  0.00     0.006 C 
BRANCH   4   5
ATOM      5  C   UNL     1       7.374 -32.872  17.548  1.00  0.00     0.053 C 
BRANCH   5   6
ATOM      6  C   UNL     1       8.720 -32.216  17.616  1.00  0.00     0.041 C 
ATOM      7  O   UNL     1       9.376 -32.005  16.563  1.00  0.00    -0.550 OA
ATOM      8  O   UNL     1       9.233 -31.808  18.841  1.00  0.00    -0.550 OA
ENDBRANCH   5   6
ENDBRANCH   4   5
ENDBRANCH   3   4
ENDBRANCH   2   3
ENDBRANCH   1   2
BRANCH   1   9
ATOM      9  C   UNL     1       7.084 -35.613  13.468  1.00  0.00     0.000 C 
BRANCH   9  10
ATOM     10  C   UNL     1       6.660 -34.161  13.198  1.00  0.00    -0.000 C 
BRANCH  10  11
ATOM     11  C   UNL     1       7.625 -33.142  13.840  1.00  0.00    -0.000 C 
BRANCH  11  12
ATOM     12  C   UNL     1       8.784 -32.725  12.919  1.00  0.00    -0.000 C 
BRANCH  12  13
ATOM     13  C   UNL     1      10.121 -33.363  13.316  1.00  0.00    -0.003 C 
ATOM     14  C   UNL     1      11.195 -32.301  13.530  1.00  0.00     0.004 C 
ENDBRANCH  12  13
ENDBRANCH  11  12
ENDBRANCH  10  11
ENDBRANCH   9  10
ENDBRANCH   1   9
TORSDOF 10
ENDMDL
MODEL 5
REMARK VINA RESULT:    -3.368      2.537      4.242
REMARK INTER + INTRA:          -5.673
REMARK INTER:                  -5.465
REMARK INTRA:                  -0.208
REMARK UNBOUND:                -0.335
REMARK SMILES CCCCCCCCCCCC(=O)[O-]
REMARK SMILES IDX 7 1 8 2 9 3 10 4 11 5 12 6 13 7 14 8 6 9 5 10 4 11 3 12 2 13
REMARK SMILES IDX 1 14
REMARK H PARENT
REMARK Flexibility Score: inf
ROOT
ATOM      1  C   UNL     1      20.857 -27.180  12.890  1.00  0.00     0.000 C 
ENDROOT
BRANCH   1   2
ATOM      2  C   UNL     1      21.103 -28.533  13.568  1.00  0.00     0.000 C 
BRANCH   2   3
ATOM      3  C   UNL     1      20.309 -29.648  12.875  1.00  0.00     0.000 C 
BRANCH   3   4
ATOM      4  C   UNL     1      19.712 -30.618  13.905  1.00  0.00     0.006 C 
BRANCH   4   5
ATOM      5  C   UNL     1      18.804 -31.669  13.252  1.00  0.00     0.053 C 
BRANCH   5   6
ATOM      6  C   UNL     1      17.483 -31.772  13.951  1.00  0.00     0.041 C 
ATOM      7  O   UNL     1      17.423 -32.191  15.136  1.00  0.00    -0.550 OA
ATOM      8  O   UNL     1      16.321 -31.373  13.303  1.00  0.00    -0.550 OA
ENDBRANCH   5   6
ENDBRANCH   4   5
ENDBRANCH   3   4
ENDBRANCH   2   3
ENDBRANCH   1   2
BRANCH   1   9
ATOM      9  C   UNL     1      21.191 -26.021  13.837  1.00  0.00     0.000 C 
BRANCH   9  10
ATOM     10  C   UNL     1      20.458 -24.737  13.418  1.00  0.00    -0.000 C 
BRANCH  10  11
ATOM     11  C   UNL     1      20.255 -23.769  14.602  1.00  0.00    -0.000 C 
BRANCH  11  12
ATOM     12  C   UNL     1      19.846 -22.349  14.175  1.00  0.00    -0.000 C 
BRANCH  12  13
ATOM     13  C   UNL     1      20.692 -21.257  14.842  1.00  0.00    -0.003 C 
ATOM     14  C   UNL     1      20.055 -19.882  14.663  1.00  0.00     0.004 C 
ENDBRANCH  12  13
ENDBRANCH  11  12
ENDBRANCH  10  11
ENDBRANCH   9  10
ENDBRANCH   1   9
TORSDOF 10
ENDMDL
MODEL 6
REMARK VINA RESULT:    -3.193     14.991     17.517
REMARK INTER + INTRA:          -5.395
REMARK INTER:                  -4.176
REMARK INTRA:                  -1.219
REMARK UNBOUND:                -0.335
REMARK SMILES CCCCCCCCCCCC(=O)[O-]
REMARK SMILES IDX 7 1 8 2 9 3 10 4 11 5 12 6 13 7 14 8 6 9 5 10 4 11 3 12 2 13
REMARK SMILES IDX 1 14
REMARK H PARENT
REMARK Flexibility Score: inf
ROOT
ATOM      1  C   UNL     1       8.624 -33.205  14.703  1.00  0.00     0.000 C 
ENDROOT
BRANCH   1   2
ATOM      2  C   UNL     1       9.065 -34.301  15.681  1.00  0.00     0.000 C 
BRANCH   2   3
ATOM      3  C   UNL     1       8.122 -34.374  16.888  1.00  0.00     0.000 C 
BRANCH   3   4
ATOM      4  C   UNL     1       7.423 -33.026  17.121  1.00  0.00     0.006 C 
BRANCH   4   5
ATOM      5  C   UNL     1       7.776 -32.419  18.484  1.00  0.00     0.053 C 
BRANCH   5   6
ATOM      6  C   UNL     1       9.136 -31.790  18.477  1.00  0.00     0.041 C 
ATOM      7  O   UNL     1       9.615 -31.328  17.408  1.00  0.00    -0.550 OA
ATOM      8  O   UNL     1       9.860 -31.685  19.657  1.00  0.00    -0.550 OA
ENDBRANCH   5   6
ENDBRANCH   4   5
ENDBRANCH   3   4
ENDBRANCH   2   3
ENDBRANCH   1   2
BRANCH   1   9
ATOM      9  C   UNL     1       8.221 -33.805  13.350  1.00  0.00     0.000 C 
BRANCH   9  10
ATOM     10  C   UNL     1       6.721 -33.607  13.083  1.00  0.00    -0.000 C 
BRANCH  10  11
ATOM     11  C   UNL     1       5.877 -34.794  13.591  1.00  0.00    -0.000 C 
BRANCH  11  12
ATOM     12  C   UNL     1       6.613 -36.143  13.533  1.00  0.00    -0.000 C 
BRANCH  12  13
ATOM     13  C   UNL     1       5.929 -37.233  14.369  1.00  0.00    -0.003 C 
ATOM     14  C   UNL     1       5.875 -36.843  15.843  1.00  0.00     0.004 C 
ENDBRANCH  12  13
ENDBRANCH  11  12
ENDBRANCH  10  11
ENDBRANCH   9  10
ENDBRANCH   1   9
TORSDOF 10
ENDMDL
MODEL 7
REMARK VINA RESULT:    -1.258     14.510     17.699
REMARK INTER + INTRA:          -2.329
REMARK INTER:                  -1.721
REMARK INTRA:                  -0.608
REMARK UNBOUND:                -0.335
REMARK SMILES CCCCCCCCCCCC(=O)[O-]
REMARK SMILES IDX 7 1 8 2 9 3 10 4 11 5 12 6 13 7 14 8 6 9 5 10 4 11 3 12 2 13
REMARK SMILES IDX 1 14
REMARK H PARENT
REMARK Flexibility Score: inf
ROOT
ATOM      1  C   UNL     1       5.952 -35.463  16.018  1.00  0.00     0.000 C 
ENDROOT
BRANCH   1   2
ATOM      2  C   UNL     1       7.080 -34.537  16.490  1.00  0.00     0.000 C 
BRANCH   2   3
ATOM      3  C   UNL     1       6.572 -33.102  16.675  1.00  0.00     0.000 C 
BRANCH   3   4
ATOM      4  C   UNL     1       7.331 -32.392  17.806  1.00  0.00     0.006 C 
BRANCH   4   5
ATOM      5  C   UNL     1       8.841 -32.655  17.745  1.00  0.00     0.053 C 
BRANCH   5   6
ATOM      6  C   UNL     1       9.625 -31.536  18.360  1.00  0.00     0.041 C 
ATOM      7  O   UNL     1       9.606 -31.359  19.606  1.00  0.00    -0.550 OA
ATOM      8  O   UNL     1      10.402 -30.710  17.559  1.00  0.00    -0.550 OA
ENDBRANCH   5   6
ENDBRANCH   4   5
ENDBRANCH   3   4
ENDBRANCH   2   3
ENDBRANCH   1   2
BRANCH   1   9
ATOM      9  C   UNL     1       6.489 -36.862  15.692  1.00  0.00     0.000 C 
BRANCH   9  10
ATOM     10  C   UNL     1       6.626 -37.061  14.174  1.00  0.00    -0.000 C 
BRANCH  10  11
ATOM     11  C   UNL     1       7.933 -37.788  13.797  1.00  0.00    -0.000 C 
BRANCH  11  12
ATOM     12  C   UNL     1       8.851 -36.967  12.875  1.00  0.00    -0.000 C 
BRANCH  12  13
ATOM     13  C   UNL     1       9.394 -35.699  13.548  1.00  0.00    -0.003 C 
ATOM     14  C   UNL     1      10.917 -35.644  13.468  1.00  0.00     0.004 C 
ENDBRANCH  12  13
ENDBRANCH  11  12
ENDBRANCH  10  11
ENDBRANCH   9  10
ENDBRANCH   1   9
TORSDOF 10
ENDMDL
