MODEL 1
REMARK VINA RESULT:    -3.774      0.000      0.000
REMARK INTER + INTRA:          -9.354
REMARK INTER:                  -7.304
REMARK INTRA:                  -2.050
REMARK UNBOUND:                -2.050
REMARK SMILES CCCCCCCCCCCCCCCCCC(=O)[O-]
REMARK SMILES IDX 10 1 11 2 12 3 13 4 14 5 15 6 16 7 17 8 18 9 19 10 20 11
REMARK SMILES IDX 9 12 8 13 7 14 6 15 5 16 4 17 3 18 2 19 1 20
REMARK H PARENT
REMARK Flexibility Score: inf
ROOT
ATOM      1  C   UNL     1     157.340 154.255 163.882  1.00  0.00     0.000 C 
ENDROOT
BRANCH   1   2
ATOM      2  C   UNL     1     157.672 153.996 162.406  1.00  0.00     0.000 C 
BRANCH   2   3
ATOM      3  C   UNL     1     158.879 153.058 162.218  1.00  0.00     0.000 C 
BRANCH   3   4
ATOM      4  C   UNL     1     159.742 152.839 163.478  1.00  0.00     0.000 C 
BRANCH   4   5
ATOM      5  C   UNL     1     159.648 151.434 164.097  1.00  0.00     0.000 C 
BRANCH   5   6
ATOM      6  C   UNL     1     160.146 151.389 165.552  1.00  0.00     0.000 C 
BRANCH   6   7
ATOM      7  C   UNL     1     160.127 152.773 166.230  1.00  0.00     0.006 C 
BRANCH   7   8
ATOM      8  C   UNL     1     161.041 152.871 167.464  1.00  0.00     0.053 C 
BRANCH   8   9
ATOM      9  C   UNL     1     162.446 153.249 167.113  1.00  0.00     0.041 C 
ATOM     10  O   UNL     1     162.667 154.161 166.272  1.00  0.00    -0.550 OA
ATOM     11  O   UNL     1     163.515 152.595 167.715  1.00  0.00    -0.550 OA
ENDBRANCH   8   9
ENDBRANCH   7   8
ENDBRANCH   6   7
ENDBRANCH   5   6
ENDBRANCH   4   5
ENDBRANCH   3   4
ENDBRANCH   2   3
ENDBRANCH   1   2
BRANCH   1  12
ATOM     12  C   UNL     1     156.249 153.292 164.374  1.00  0.00     0.000 C 
BRANCH  12  13
ATOM     13  C   UNL     1     155.964 153.438 165.878  1.00  0.00    -0.000 C 
BRANCH  13  14
ATOM     14  C   UNL     1     156.271 154.849 166.404  1.00  0.00    -0.000 C 
BRANCH  14  15
ATOM     15  C   UNL     1     155.203 155.305 167.407  1.00  0.00    -0.000 C 
BRANCH  15  16
ATOM     16  C   UNL     1     153.970 155.861 166.682  1.00  0.00    -0.000 C 
BRANCH  16  17
ATOM     17  C   UNL     1     154.331 156.735 165.466  1.00  0.00    -0.000 C 
BRANCH  17  18
ATOM     18  C   UNL     1     153.524 156.435 164.188  1.00  0.00    -0.000 C 
BRANCH  18  19
ATOM     19  C   UNL     1     154.415 156.136 162.974  1.00  0.00    -0.003 C 
ATOM     20  C   UNL     1     154.472 157.330 162.027  1.00  0.00     0.004 C 
ENDBRANCH  18  19
ENDBRANCH  17  18
ENDBRANCH  16  17
ENDBRANCH  15  16
ENDBRANCH  14  15
ENDBRANCH  13  14
ENDBRANCH  12  13
ENDBRANCH   1  12
TORSDOF 16
ENDMDL
MODEL 2
REMARK VINA RESULT:    -3.753      1.388      2.085
REMARK INTER + INTRA:          -9.314
REMARK INTER:                  -7.221
REMARK INTRA:                  -2.093
REMARK UNBOUND:                -2.050
REMARK SMILES CCCCCCCCCCCCCCCCCC(=O)[O-]
REMARK SMILES IDX 10 1 11 2 12 3 13 4 14 5 15 6 16 7 17 8 18 9 19 10 20 11
REMARK SMILES IDX 9 12 8 13 7 14 6 15 5 16 4 17 3 18 2 19 1 20
REMARK H PARENT
REMARK Flexibility Score: inf
ROOT
ATOM      1  C   UNL     1     156.245 153.641 165.556  1.00  0.00     0.000 C 
ENDROOT
BRANCH   1   2
ATOM      2  C   UNL     1     156.544 154.332 164.219  1.00  0.00     0.000 C 
BRANCH   2   3
ATOM      3  C   UNL     1     157.404 153.470 163.278  1.00  0.00     0.000 C 
BRANCH   3   4
ATOM      4  C   UNL     1     157.551 151.991 163.693  1.00  0.00     0.000 C 
BRANCH   4   5
ATOM      5  C   UNL     1     158.997 151.466 163.733  1.00  0.00     0.000 C 
BRANCH   5   6
ATOM      6  C   UNL     1     159.496 151.200 165.164  1.00  0.00     0.000 C 
BRANCH   6   7
ATOM      7  C   UNL     1     159.748 152.498 165.956  1.00  0.00     0.006 C 
BRANCH   7   8
ATOM      8  C   UNL     1     161.237 152.855 166.103  1.00  0.00     0.053 C 
BRANCH   8   9
ATOM      9  C   UNL     1     161.877 152.189 167.281  1.00  0.00     0.041 C 
ATOM     10  O   UNL     1     161.691 152.639 168.443  1.00  0.00    -0.550 OA
ATOM     11  O   UNL     1     162.681 151.070 167.097  1.00  0.00    -0.550 OA
ENDBRANCH   8   9
ENDBRANCH   7   8
ENDBRANCH   6   7
ENDBRANCH   5   6
ENDBRANCH   4   5
ENDBRANCH   3   4
ENDBRANCH   2   3
ENDBRANCH   1   2
BRANCH   1  12
ATOM     12  C   UNL     1     156.664 154.529 166.737  1.00  0.00     0.000 C 
BRANCH  12  13
ATOM     13  C   UNL     1     155.498 154.834 167.693  1.00  0.00    -0.000 C 
BRANCH  13  14
ATOM     14  C   UNL     1     154.573 153.626 167.901  1.00  0.00    -0.000 C 
BRANCH  14  15
ATOM     15  C   UNL     1     153.178 153.897 167.322  1.00  0.00    -0.000 C 
BRANCH  15  16
ATOM     16  C   UNL     1     153.069 155.339 166.804  1.00  0.00    -0.000 C 
BRANCH  16  17
ATOM     17  C   UNL     1     152.875 155.415 165.278  1.00  0.00    -0.000 C 
BRANCH  17  18
ATOM     18  C   UNL     1     153.677 156.527 164.577  1.00  0.00    -0.000 C 
BRANCH  18  19
ATOM     19  C   UNL     1     154.252 157.561 165.556  1.00  0.00    -0.003 C 
ATOM     20  C   UNL     1     153.771 158.968 165.213  1.00  0.00     0.004 C 
ENDBRANCH  18  19
ENDBRANCH  17  18
ENDBRANCH  16  17
ENDBRANCH  15  16
ENDBRANCH  14  15
ENDBRANCH  13  14
ENDBRANCH  12  13
ENDBRANCH   1  12
TORSDOF 16
ENDMDL
MODEL 3
REMARK VINA RESULT:    -3.741     13.142     16.493
REMARK INTER + INTRA:          -9.290
REMARK INTER:                  -6.396
REMARK INTRA:                  -2.893
REMARK UNBOUND:                -2.050
REMARK SMILES CCCCCCCCCCCCCCCCCC(=O)[O-]
REMARK SMILES IDX 10 1 11 2 12 3 13 4 14 5 15 6 16 7 17 8 18 9 19 10 20 11
REMARK SMILES IDX 9 12 8 13 7 14 6 15 5 16 4 17 3 18 2 19 1 20
REMARK H PARENT
REMARK Flexibility Score: inf
ROOT
ATOM      1  C   UNL     1     168.089 151.888 177.032  1.00  0.00     0.000 C 
ENDROOT
BRANCH   1   2
ATOM      2  C   UNL     1     166.603 151.545 177.208  1.00  0.00     0.000 C 
BRANCH   2   3
ATOM      3  C   UNL     1     165.704 152.793 177.274  1.00  0.00     0.000 C 
BRANCH   3   4
ATOM      4  C   UNL     1     166.257 154.039 176.552  1.00  0.00     0.000 C 
BRANCH   4   5
ATOM      5  C   UNL     1     165.299 155.243 176.505  1.00  0.00     0.000 C 
BRANCH   5   6
ATOM      6  C   UNL     1     163.992 154.996 177.277  1.00  0.00     0.000 C 
BRANCH   6   7
ATOM      7  C   UNL     1     163.454 156.269 177.959  1.00  0.00     0.006 C 
BRANCH   7   8
ATOM      8  C   UNL     1     163.278 157.459 176.999  1.00  0.00     0.053 C 
BRANCH   8   9
ATOM      9  C   UNL     1     161.869 157.611 176.520  1.00  0.00     0.041 C 
ATOM     10  O   UNL     1     160.920 157.084 177.159  1.00  0.00    -0.550 OA
ATOM     11  O   UNL     1     161.600 158.337 175.365  1.00  0.00    -0.550 OA
ENDBRANCH   8   9
ENDBRANCH   7   8
ENDBRANCH   6   7
ENDBRANCH   5   6
ENDBRANCH   4   5
ENDBRANCH   3   4
ENDBRANCH   2   3
ENDBRANCH   1   2
BRANCH   1  12
ATOM     12  C   UNL     1     168.764 152.112 178.393  1.00  0.00     0.000 C 
BRANCH  12  13
ATOM     13  C   UNL     1     168.258 151.141 179.473  1.00  0.00    -0.000 C 
BRANCH  13  14
ATOM     14  C   UNL     1     167.536 151.860 180.623  1.00  0.00    -0.000 C 
BRANCH  14  15
ATOM     15  C   UNL     1     167.803 153.370 180.580  1.00  0.00    -0.000 C 
BRANCH  15  16
ATOM     16  C   UNL     1     166.486 154.161 180.567  1.00  0.00    -0.000 C 
BRANCH  16  17
ATOM     17  C   UNL     1     166.648 155.587 180.011  1.00  0.00    -0.000 C 
BRANCH  17  18
ATOM     18  C   UNL     1     167.961 155.842 179.247  1.00  0.00    -0.000 C 
BRANCH  18  19
ATOM     19  C   UNL     1     167.979 157.194 178.520  1.00  0.00    -0.003 C 
ATOM     20  C   UNL     1     166.660 157.938 178.711  1.00  0.00     0.004 C 
ENDBRANCH  18  19
ENDBRANCH  17  18
ENDBRANCH  16  17
ENDBRANCH  15  16
ENDBRANCH  14  15
ENDBRANCH  13  14
ENDBRANCH  12  13
ENDBRANCH   1  12
TORSDOF 16
ENDMDL
MODEL 4
REMARK VINA RESULT:    -3.723      1.608      3.409
REMARK INTER + INTRA:          -9.255
REMARK INTER:                  -7.764
REMARK INTRA:                  -1.490
REMARK UNBOUND:                -2.050
REMARK SMILES CCCCCCCCCCCCCCCCCC(=O)[O-]
REMARK SMILES IDX 10 1 11 2 12 3 13 4 14 5 15 6 16 7 17 8 18 9 19 10 20 11
REMARK SMILES IDX 9 12 8 13 7 14 6 15 5 16 4 17 3 18 2 19 1 20
REMARK H PARENT
REMARK Flexibility Score: inf
ROOT
ATOM      1  C   UNL     1     157.787 154.193 163.343  1.00  0.00     0.000 C 
ENDROOT
BRANCH   1   2
ATOM      2  C   UNL     1     157.929 152.670 163.205  1.00  0.00     0.000 C 
BRANCH   2   3
ATOM      3  C   UNL     1     157.865 151.938 164.557  1.00  0.00     0.000 C 
BRANCH   3   4
ATOM      4  C   UNL     1     159.228 151.489 165.126  1.00  0.00     0.000 C 
BRANCH   4   5
ATOM      5  C   UNL     1     159.933 152.524 166.020  1.00  0.00     0.000 C 
BRANCH   5   6
ATOM      6  C   UNL     1     161.237 153.057 165.400  1.00  0.00     0.000 C 
BRANCH   6   7
ATOM      7  C   UNL     1     162.348 153.275 166.446  1.00  0.00     0.006 C 
BRANCH   7   8
ATOM      8  C   UNL     1     161.872 153.107 167.899  1.00  0.00     0.053 C 
BRANCH   8   9
ATOM      9  C   UNL     1     162.728 152.159 168.681  1.00  0.00     0.041 C 
ATOM     10  O   UNL     1     162.305 151.665 169.759  1.00  0.00    -0.550 OA
ATOM     11  O   UNL     1     163.994 151.820 168.219  1.00  0.00    -0.550 OA
ENDBRANCH   8   9
ENDBRANCH   7   8
ENDBRANCH   6   7
ENDBRANCH   5   6
ENDBRANCH   4   5
ENDBRANCH   3   4
ENDBRANCH   2   3
ENDBRANCH   1   2
BRANCH   1  12
ATOM     12  C   UNL     1     156.365 154.645 162.975  1.00  0.00     0.000 C 
BRANCH  12  13
ATOM     13  C   UNL     1     155.377 154.503 164.144  1.00  0.00    -0.000 C 
BRANCH  13  14
ATOM     14  C   UNL     1     155.001 155.855 164.769  1.00  0.00    -0.000 C 
BRANCH  14  15
ATOM     15  C   UNL     1     155.876 156.156 165.993  1.00  0.00    -0.000 C 
BRANCH  15  16
ATOM     16  C   UNL     1     156.372 154.858 166.646  1.00  0.00    -0.000 C 
BRANCH  16  17
ATOM     17  C   UNL     1     155.744 154.603 168.029  1.00  0.00    -0.000 C 
BRANCH  17  18
ATOM     18  C   UNL     1     154.470 153.738 168.015  1.00  0.00    -0.000 C 
BRANCH  18  19
ATOM     19  C   UNL     1     153.564 153.985 169.229  1.00  0.00    -0.003 C 
ATOM     20  C   UNL     1     154.278 154.821 170.287  1.00  0.00     0.004 C 
ENDBRANCH  18  19
ENDBRANCH  17  18
ENDBRANCH  16  17
ENDBRANCH  15  16
ENDBRANCH  14  15
ENDBRANCH  13  14
ENDBRANCH  12  13
ENDBRANCH   1  12
TORSDOF 16
ENDMDL
MODEL 5
REMARK VINA RESULT:    -3.673     13.353     16.608
REMARK INTER + INTRA:          -9.160
REMARK INTER:                  -6.121
REMARK INTRA:                  -3.039
REMARK UNBOUND:                -2.050
REMARK SMILES CCCCCCCCCCCCCCCCCC(=O)[O-]
REMARK SMILES IDX 10 1 11 2 12 3 13 4 14 5 15 6 16 7 17 8 18 9 19 10 20 11
REMARK SMILES IDX 9 12 8 13 7 14 6 15 5 16 4 17 3 18 2 19 1 20
REMARK H PARENT
REMARK Flexibility Score: inf
ROOT
ATOM      1  C   UNL     1     168.713 153.614 179.477  1.00  0.00     0.000 C 
ENDROOT
BRANCH   1   2
ATOM      2  C   UNL     1     167.802 153.512 180.709  1.00  0.00     0.000 C 
BRANCH   2   3
ATOM      3  C   UNL     1     166.413 154.134 180.480  1.00  0.00     0.000 C 
BRANCH   3   4
ATOM      4  C   UNL     1     166.411 155.475 179.717  1.00  0.00     0.000 C 
BRANCH   4   5
ATOM      5  C   UNL     1     165.086 155.826 179.018  1.00  0.00     0.000 C 
BRANCH   5   6
ATOM      6  C   UNL     1     165.101 157.228 178.383  1.00  0.00     0.000 C 
BRANCH   6   7
ATOM      7  C   UNL     1     165.361 157.190 176.865  1.00  0.00     0.006 C 
BRANCH   7   8
ATOM      8  C   UNL     1     164.155 156.705 176.041  1.00  0.00     0.053 C 
BRANCH   8   9
ATOM      9  C   UNL     1     162.878 157.380 176.434  1.00  0.00     0.041 C 
ATOM     10  O   UNL     1     161.960 156.724 176.994  1.00  0.00    -0.550 OA
ATOM     11  O   UNL     1     162.700 158.735 176.184  1.00  0.00    -0.550 OA
ENDBRANCH   8   9
ENDBRANCH   7   8
ENDBRANCH   6   7
ENDBRANCH   5   6
ENDBRANCH   4   5
ENDBRANCH   3   4
ENDBRANCH   2   3
ENDBRANCH   1   2
BRANCH   1  12
ATOM     12  C   UNL     1     169.109 152.218 178.973  1.00  0.00     0.000 C 
BRANCH  12  13
ATOM     13  C   UNL     1     167.892 151.320 178.696  1.00  0.00    -0.000 C 
BRANCH  13  14
ATOM     14  C   UNL     1     167.369 151.460 177.258  1.00  0.00    -0.000 C 
BRANCH  14  15
ATOM     15  C   UNL     1     166.077 152.285 177.221  1.00  0.00    -0.000 C 
BRANCH  15  16
ATOM     16  C   UNL     1     166.307 153.637 176.529  1.00  0.00    -0.000 C 
BRANCH  16  17
ATOM     17  C   UNL     1     167.694 153.745 175.869  1.00  0.00    -0.000 C 
BRANCH  17  18
ATOM     18  C   UNL     1     168.148 155.180 175.542  1.00  0.00    -0.000 C 
BRANCH  18  19
ATOM     19  C   UNL     1     169.376 155.618 176.351  1.00  0.00    -0.003 C 
ATOM     20  C   UNL     1     169.016 156.723 177.340  1.00  0.00     0.004 C 
ENDBRANCH  18  19
ENDBRANCH  17  18
ENDBRANCH  16  17
ENDBRANCH  15  16
ENDBRANCH  14  15
ENDBRANCH  13  14
ENDBRANCH  12  13
ENDBRANCH   1  12
TORSDOF 16
ENDMDL
MODEL 6
REMARK VINA RESULT:    -3.657     14.107     16.483
REMARK INTER + INTRA:          -9.127
REMARK INTER:                  -6.063
REMARK INTRA:                  -3.064
REMARK UNBOUND:                -2.050
REMARK SMILES CCCCCCCCCCCCCCCCCC(=O)[O-]
REMARK SMILES IDX 10 1 11 2 12 3 13 4 14 5 15 6 16 7 17 8 18 9 19 10 20 11
REMARK SMILES IDX 9 12 8 13 7 14 6 15 5 16 4 17 3 18 2 19 1 20
REMARK H PARENT
REMARK Flexibility Score: inf
ROOT
ATOM      1  C   UNL     1     167.495 152.128 179.862  1.00  0.00     0.000 C 
ENDROOT
BRANCH   1   2
ATOM      2  C   UNL     1     168.626 153.165 179.807  1.00  0.00     0.000 C 
BRANCH   2   3
ATOM      3  C   UNL     1     168.109 154.611 179.699  1.00  0.00     0.000 C 
BRANCH   3   4
ATOM      4  C   UNL     1     166.783 154.891 180.436  1.00  0.00     0.000 C 
BRANCH   4   5
ATOM      5  C   UNL     1     165.614 155.321 179.533  1.00  0.00     0.000 C 
BRANCH   5   6
ATOM      6  C   UNL     1     165.905 156.619 178.759  1.00  0.00     0.000 C 
BRANCH   6   7
ATOM      7  C   UNL     1     164.968 156.814 177.551  1.00  0.00     0.006 C 
BRANCH   7   8
ATOM      8  C   UNL     1     163.717 155.919 177.585  1.00  0.00     0.053 C 
BRANCH   8   9
ATOM      9  C   UNL     1     162.485 156.665 177.993  1.00  0.00     0.041 C 
ATOM     10  O   UNL     1     162.300 156.972 179.201  1.00  0.00    -0.550 OA
ATOM     11  O   UNL     1     161.539 157.023 177.040  1.00  0.00    -0.550 OA
ENDBRANCH   8   9
ENDBRANCH   7   8
ENDBRANCH   6   7
ENDBRANCH   5   6
ENDBRANCH   4   5
ENDBRANCH   3   4
ENDBRANCH   2   3
ENDBRANCH   1   2
BRANCH   1  12
ATOM     12  C   UNL     1     167.737 151.002 178.845  1.00  0.00     0.000 C 
BRANCH  12  13
ATOM     13  C   UNL     1     167.429 151.430 177.401  1.00  0.00    -0.000 C 
BRANCH  13  14
ATOM     14  C   UNL     1     166.114 152.215 177.284  1.00  0.00    -0.000 C 
BRANCH  14  15
ATOM     15  C   UNL     1     166.330 153.538 176.538  1.00  0.00    -0.000 C 
BRANCH  15  16
ATOM     16  C   UNL     1     167.796 153.695 176.109  1.00  0.00    -0.000 C 
BRANCH  16  17
ATOM     17  C   UNL     1     168.074 155.032 175.397  1.00  0.00    -0.000 C 
BRANCH  17  18
ATOM     18  C   UNL     1     168.709 156.119 176.283  1.00  0.00    -0.000 C 
BRANCH  18  19
ATOM     19  C   UNL     1     168.301 157.541 175.872  1.00  0.00    -0.003 C 
ATOM     20  C   UNL     1     167.297 157.514 174.723  1.00  0.00     0.004 C 
ENDBRANCH  18  19
ENDBRANCH  17  18
ENDBRANCH  16  17
ENDBRANCH  15  16
ENDBRANCH  14  15
ENDBRANCH  13  14
ENDBRANCH  12  13
ENDBRANCH   1  12
TORSDOF 16
ENDMDL
MODEL 7
REMARK VINA RESULT:    -3.612      1.309      3.096
REMARK INTER + INTRA:          -9.040
REMARK INTER:                  -7.021
REMARK INTRA:                  -2.019
REMARK UNBOUND:                -2.050
REMARK SMILES CCCCCCCCCCCCCCCCCC(=O)[O-]
REMARK SMILES IDX 10 1 11 2 12 3 13 4 14 5 15 6 16 7 17 8 18 9 19 10 20 11
REMARK SMILES IDX 9 12 8 13 7 14 6 15 5 16 4 17 3 18 2 19 1 20
REMARK H PARENT
REMARK Flexibility Score: inf
ROOT
ATOM      1  C   UNL     1     156.233 154.628 164.090  1.00  0.00     0.000 C 
ENDROOT
BRANCH   1   2
ATOM      2  C   UNL     1     155.814 153.210 164.501  1.00  0.00     0.000 C 
BRANCH   2   3
ATOM      3  C   UNL     1     156.873 152.148 164.156  1.00  0.00     0.000 C 
BRANCH   3   4
ATOM      4  C   UNL     1     157.867 152.548 163.046  1.00  0.00     0.000 C 
BRANCH   4   5
ATOM      5  C   UNL     1     159.312 152.062 163.258  1.00  0.00     0.000 C 
BRANCH   5   6
ATOM      6  C   UNL     1     160.044 152.837 164.368  1.00  0.00     0.000 C 
BRANCH   6   7
ATOM      7  C   UNL     1     160.304 151.978 165.620  1.00  0.00     0.006 C 
BRANCH   7   8
ATOM      8  C   UNL     1     160.554 152.801 166.896  1.00  0.00     0.053 C 
BRANCH   8   9
ATOM      9  C   UNL     1     162.008 153.057 167.142  1.00  0.00     0.041 C 
ATOM     10  O   UNL     1     162.665 152.303 167.907  1.00  0.00    -0.550 OA
ATOM     11  O   UNL     1     162.641 154.131 166.526  1.00  0.00    -0.550 OA
ENDBRANCH   8   9
ENDBRANCH   7   8
ENDBRANCH   6   7
ENDBRANCH   5   6
ENDBRANCH   4   5
ENDBRANCH   3   4
ENDBRANCH   2   3
ENDBRANCH   1   2
BRANCH   1  12
ATOM     12  C   UNL     1     155.185 155.262 163.163  1.00  0.00     0.000 C 
BRANCH  12  13
ATOM     13  C   UNL     1     153.847 155.526 163.874  1.00  0.00    -0.000 C 
BRANCH  13  14
ATOM     14  C   UNL     1     153.723 156.970 164.383  1.00  0.00    -0.000 C 
BRANCH  14  15
ATOM     15  C   UNL     1     154.233 157.088 165.825  1.00  0.00    -0.000 C 
BRANCH  15  16
ATOM     16  C   UNL     1     153.678 155.954 166.700  1.00  0.00    -0.000 C 
BRANCH  16  17
ATOM     17  C   UNL     1     154.777 155.193 167.464  1.00  0.00    -0.000 C 
BRANCH  17  18
ATOM     18  C   UNL     1     154.401 153.761 167.887  1.00  0.00    -0.000 C 
BRANCH  18  19
ATOM     19  C   UNL     1     153.160 153.227 167.158  1.00  0.00    -0.003 C 
ATOM     20  C   UNL     1     153.321 151.750 166.809  1.00  0.00     0.004 C 
ENDBRANCH  18  19
ENDBRANCH  17  18
ENDBRANCH  16  17
ENDBRANCH  15  16
ENDBRANCH  14  15
ENDBRANCH  13  14
ENDBRANCH  12  13
ENDBRANCH   1  12
TORSDOF 16
ENDMDL
MODEL 8
REMARK VINA RESULT:    -3.581     12.942     16.432
REMARK INTER + INTRA:          -8.980
REMARK INTER:                  -6.282
REMARK INTRA:                  -2.699
REMARK UNBOUND:                -2.050
REMARK SMILES CCCCCCCCCCCCCCCCCC(=O)[O-]
REMARK SMILES IDX 10 1 11 2 12 3 13 4 14 5 15 6 16 7 17 8 18 9 19 10 20 11
REMARK SMILES IDX 9 12 8 13 7 14 6 15 5 16 4 17 3 18 2 19 1 20
REMARK H PARENT
REMARK Flexibility Score: inf
ROOT
ATOM      1  C   UNL     1     166.224 154.630 180.504  1.00  0.00     0.000 C 
ENDROOT
BRANCH   1   2
ATOM      2  C   UNL     1     166.808 155.781 179.675  1.00  0.00     0.000 C 
BRANCH   2   3
ATOM      3  C   UNL     1     165.730 156.605 178.949  1.00  0.00     0.000 C 
BRANCH   3   4
ATOM      4  C   UNL     1     164.283 156.103 179.138  1.00  0.00     0.000 C 
BRANCH   4   5
ATOM      5  C   UNL     1     163.463 155.976 177.842  1.00  0.00     0.000 C 
BRANCH   5   6
ATOM      6  C   UNL     1     164.173 156.594 176.624  1.00  0.00     0.000 C 
BRANCH   6   7
ATOM      7  C   UNL     1     163.327 157.679 175.930  1.00  0.00     0.006 C 
BRANCH   7   8
ATOM      8  C   UNL     1     161.842 157.660 176.332  1.00  0.00     0.053 C 
BRANCH   8   9
ATOM      9  C   UNL     1     161.190 159.001 176.197  1.00  0.00     0.041 C 
ATOM     10  O   UNL     1     161.187 159.805 177.167  1.00  0.00    -0.550 OA
ATOM     11  O   UNL     1     160.585 159.364 175.000  1.00  0.00    -0.550 OA
ENDBRANCH   8   9
ENDBRANCH   7   8
ENDBRANCH   6   7
ENDBRANCH   5   6
ENDBRANCH   4   5
ENDBRANCH   3   4
ENDBRANCH   2   3
ENDBRANCH   1   2
BRANCH   1  12
ATOM     12  C   UNL     1     167.204 153.449 180.567  1.00  0.00     0.000 C 
BRANCH  12  13
ATOM     13  C   UNL     1     168.503 153.714 179.789  1.00  0.00    -0.000 C 
BRANCH  13  14
ATOM     14  C   UNL     1     169.000 152.475 179.028  1.00  0.00    -0.000 C 
BRANCH  14  15
ATOM     15  C   UNL     1     167.868 151.456 178.841  1.00  0.00    -0.000 C 
BRANCH  15  16
ATOM     16  C   UNL     1     167.418 151.396 177.374  1.00  0.00    -0.000 C 
BRANCH  16  17
ATOM     17  C   UNL     1     166.099 152.150 177.119  1.00  0.00    -0.000 C 
BRANCH  17  18
ATOM     18  C   UNL     1     166.259 153.644 176.784  1.00  0.00    -0.000 C 
BRANCH  18  19
ATOM     19  C   UNL     1     167.436 153.924 175.839  1.00  0.00    -0.003 C 
ATOM     20  C   UNL     1     168.285 155.086 176.346  1.00  0.00     0.004 C 
ENDBRANCH  18  19
ENDBRANCH  17  18
ENDBRANCH  16  17
ENDBRANCH  15  16
ENDBRANCH  14  15
ENDBRANCH  13  14
ENDBRANCH  12  13
ENDBRANCH   1  12
TORSDOF 16
ENDMDL
MODEL 9
REMARK VINA RESULT:    -3.572     13.411     16.803
REMARK INTER + INTRA:          -8.963
REMARK INTER:                  -5.537
REMARK INTRA:                  -3.426
REMARK UNBOUND:                -2.050
REMARK SMILES CCCCCCCCCCCCCCCCCC(=O)[O-]
REMARK SMILES IDX 10 1 11 2 12 3 13 4 14 5 15 6 16 7 17 8 18 9 19 10 20 11
REMARK SMILES IDX 9 12 8 13 7 14 6 15 5 16 4 17 3 18 2 19 1 20
REMARK H PARENT
REMARK Flexibility Score: inf
ROOT
ATOM      1  C   UNL     1     169.346 153.133 179.906  1.00  0.00     0.000 C 
ENDROOT
BRANCH   1   2
ATOM      2  C   UNL     1     167.956 153.401 180.500  1.00  0.00     0.000 C 
BRANCH   2   3
ATOM      3  C   UNL     1     167.410 154.794 180.143  1.00  0.00     0.000 C 
BRANCH   3   4
ATOM      4  C   UNL     1     165.872 154.906 180.104  1.00  0.00     0.000 C 
BRANCH   4   5
ATOM      5  C   UNL     1     165.326 156.132 179.351  1.00  0.00     0.000 C 
BRANCH   5   6
ATOM      6  C   UNL     1     166.439 156.996 178.733  1.00  0.00     0.000 C 
BRANCH   6   7
ATOM      7  C   UNL     1     165.951 157.824 177.529  1.00  0.00     0.006 C 
BRANCH   7   8
ATOM      8  C   UNL     1     164.992 157.060 176.599  1.00  0.00     0.053 C 
BRANCH   8   9
ATOM      9  C   UNL     1     165.323 157.242 175.151  1.00  0.00     0.041 C 
ATOM     10  O   UNL     1     166.275 157.993 174.808  1.00  0.00    -0.550 OA
ATOM     11  O   UNL     1     164.583 156.582 174.178  1.00  0.00    -0.550 OA
ENDBRANCH   8   9
ENDBRANCH   7   8
ENDBRANCH   6   7
ENDBRANCH   5   6
ENDBRANCH   4   5
ENDBRANCH   3   4
ENDBRANCH   2   3
ENDBRANCH   1   2
BRANCH   1  12
ATOM     12  C   UNL     1     169.325 151.893 179.000  1.00  0.00     0.000 C 
BRANCH  12  13
ATOM     13  C   UNL     1     167.904 151.351 178.770  1.00  0.00    -0.000 C 
BRANCH  13  14
ATOM     14  C   UNL     1     167.423 151.548 177.324  1.00  0.00    -0.000 C 
BRANCH  14  15
ATOM     15  C   UNL     1     166.131 152.373 177.284  1.00  0.00    -0.000 C 
BRANCH  15  16
ATOM     16  C   UNL     1     166.359 153.718 176.578  1.00  0.00    -0.000 C 
BRANCH  16  17
ATOM     17  C   UNL     1     167.770 153.848 175.976  1.00  0.00    -0.000 C 
BRANCH  17  18
ATOM     18  C   UNL     1     168.411 155.241 176.119  1.00  0.00    -0.000 C 
BRANCH  18  19
ATOM     19  C   UNL     1     169.612 155.252 177.076  1.00  0.00    -0.003 C 
ATOM     20  C   UNL     1     169.904 156.665 177.574  1.00  0.00     0.004 C 
ENDBRANCH  18  19
ENDBRANCH  17  18
ENDBRANCH  16  17
ENDBRANCH  15  16
ENDBRANCH  14  15
ENDBRANCH  13  14
ENDBRANCH  12  13
ENDBRANCH   1  12
TORSDOF 16
ENDMDL
