MODEL 1
REMARK VINA RESULT:     3.373      0.000      0.000
REMARK INTER + INTRA:           6.416
REMARK INTER:                   8.501
REMARK INTRA:                  -2.084
REMARK UNBOUND:                -2.084
REMARK SMILES CCCCCCCCCCCCCCCCCCCCCCCCCCCC(=O)[O-]
REMARK SMILES IDX 15 1 16 2 17 3 18 4 19 5 20 6 21 7 22 8 23 9 24 10 25 11
REMARK SMILES IDX 26 12 27 13 28 14 29 15 30 16 14 17 13 18 12 19 11 20 10 21
REMARK SMILES IDX 9 22 8 23 7 24 6 25 5 26 4 27 3 28 2 29 1 30
REMARK H PARENT
REMARK Flexibility Score: inf
ROOT
ATOM      1  C   UNL     1      32.546  23.238  59.956  1.00  0.00     0.000 C 
ENDROOT
BRANCH   1   2
ATOM      2  C   UNL     1      32.719  24.097  58.691  1.00  0.00     0.000 C 
BRANCH   2   3
ATOM      3  C   UNL     1      33.256  23.297  57.493  1.00  0.00     0.000 C 
BRANCH   3   4
ATOM      4  C   UNL     1      34.794  23.210  57.473  1.00  0.00     0.000 C 
BRANCH   4   5
ATOM      5  C   UNL     1      35.422  23.092  56.073  1.00  0.00     0.000 C 
BRANCH   5   6
ATOM      6  C   UNL     1      35.283  24.382  55.246  1.00  0.00     0.000 C 
BRANCH   6   7
ATOM      7  C   UNL     1      35.257  24.117  53.731  1.00  0.00     0.000 C 
BRANCH   7   8
ATOM      8  C   UNL     1      36.022  25.183  52.925  1.00  0.00     0.000 C 
BRANCH   8   9
ATOM      9  C   UNL     1      37.538  24.920  52.894  1.00  0.00     0.000 C 
BRANCH   9  10
ATOM     10  C   UNL     1      37.867  23.434  52.670  1.00  0.00     0.000 C 
BRANCH  10  11
ATOM     11  C   UNL     1      38.850  22.880  53.712  1.00  0.00     0.000 C 
BRANCH  11  12
ATOM     12  C   UNL     1      39.255  23.925  54.763  1.00  0.00     0.006 C 
BRANCH  12  13
ATOM     13  C   UNL     1      38.917  23.441  56.176  1.00  0.00     0.053 C 
BRANCH  13  14
ATOM     14  C   UNL     1      40.020  23.776  57.130  1.00  0.00     0.041 C 
ATOM     15  O   UNL     1      41.007  23.002  57.254  1.00  0.00    -0.550 OA
ATOM     16  O   UNL     1      39.953  24.936  57.895  1.00  0.00    -0.550 OA
ENDBRANCH  13  14
ENDBRANCH  12  13
ENDBRANCH  11  12
ENDBRANCH  10  11
ENDBRANCH   9  10
ENDBRANCH   8   9
ENDBRANCH   7   8
ENDBRANCH   6   7
ENDBRANCH   5   6
ENDBRANCH   4   5
ENDBRANCH   3   4
ENDBRANCH   2   3
ENDBRANCH   1   2
BRANCH   1  17
ATOM     17  C   UNL     1      31.772  23.950  61.086  1.00  0.00     0.000 C 
BRANCH  17  18
ATOM     18  C   UNL     1      30.672  23.058  61.689  1.00  0.00     0.000 C 
BRANCH  18  19
ATOM     19  C   UNL     1      29.388  23.838  62.018  1.00  0.00     0.000 C 
BRANCH  19  20
ATOM     20  C   UNL     1      29.257  24.151  63.518  1.00  0.00     0.000 C 
BRANCH  20  21
ATOM     21  C   UNL     1      29.813  23.030  64.413  1.00  0.00     0.000 C 
BRANCH  21  22
ATOM     22  C   UNL     1      29.197  22.944  65.825  1.00  0.00    -0.000 C 
BRANCH  22  23
ATOM     23  C   UNL     1      30.208  22.910  66.984  1.00  0.00    -0.000 C 
BRANCH  23  24
ATOM     24  C   UNL     1      31.669  22.914  66.503  1.00  0.00    -0.000 C 
BRANCH  24  25
ATOM     25  C   UNL     1      32.420  24.204  66.879  1.00  0.00    -0.000 C 
BRANCH  25  26
ATOM     26  C   UNL     1      33.761  24.419  66.148  1.00  0.00    -0.000 C 
BRANCH  26  27
ATOM     27  C   UNL     1      33.701  25.359  64.928  1.00  0.00    -0.000 C 
BRANCH  27  28
ATOM     28  C   UNL     1      35.049  25.986  64.528  1.00  0.00    -0.000 C 
BRANCH  28  29
ATOM     29  C   UNL     1      36.197  25.570  65.458  1.00  0.00    -0.003 C 
ATOM     30  C   UNL     1      36.444  26.625  66.534  1.00  0.00     0.004 C 
ENDBRANCH  28  29
ENDBRANCH  27  28
ENDBRANCH  26  27
ENDBRANCH  25  26
ENDBRANCH  24  25
ENDBRANCH  23  24
ENDBRANCH  22  23
ENDBRANCH  21  22
ENDBRANCH  20  21
ENDBRANCH  19  20
ENDBRANCH  18  19
ENDBRANCH  17  18
ENDBRANCH   1  17
TORSDOF 26
ENDMDL
MODEL 2
REMARK VINA RESULT:     4.160      3.030      4.926
REMARK INTER + INTRA:           8.399
REMARK INTER:                   7.083
REMARK INTRA:                   1.316
REMARK UNBOUND:                -2.084
REMARK SMILES CCCCCCCCCCCCCCCCCCCCCCCCCCCC(=O)[O-]
REMARK SMILES IDX 15 1 16 2 17 3 18 4 19 5 20 6 21 7 22 8 23 9 24 10 25 11
REMARK SMILES IDX 26 12 27 13 28 14 29 15 30 16 14 17 13 18 12 19 11 20 10 21
REMARK SMILES IDX 9 22 8 23 7 24 6 25 5 26 4 27 3 28 2 29 1 30
REMARK H PARENT
REMARK Flexibility Score: inf
ROOT
ATOM      1  C   UNL     1      34.881  24.633  56.505  1.00  0.00     0.000 C 
ENDROOT
BRANCH   1   2
ATOM      2  C   UNL     1      35.254  23.147  56.374  1.00  0.00     0.000 C 
BRANCH   2   3
ATOM      3  C   UNL     1      36.772  22.906  56.393  1.00  0.00     0.000 C 
BRANCH   3   4
ATOM      4  C   UNL     1      37.584  24.205  56.240  1.00  0.00     0.000 C 
BRANCH   4   5
ATOM      5  C   UNL     1      39.081  24.083  56.582  1.00  0.00     0.000 C 
BRANCH   5   6
ATOM      6  C   UNL     1      39.881  23.339  55.499  1.00  0.00     0.000 C 
BRANCH   6   7
ATOM      7  C   UNL     1      39.035  23.007  54.257  1.00  0.00     0.000 C 
BRANCH   7   8
ATOM      8  C   UNL     1      38.288  24.231  53.699  1.00  0.00     0.000 C 
BRANCH   8   9
ATOM      9  C   UNL     1      38.141  24.182  52.167  1.00  0.00     0.000 C 
BRANCH   9  10
ATOM     10  C   UNL     1      37.482  22.877  51.687  1.00  0.00     0.000 C 
BRANCH  10  11
ATOM     11  C   UNL     1      36.048  23.087  51.179  1.00  0.00     0.000 C 
BRANCH  11  12
ATOM     12  C   UNL     1      35.936  22.977  49.650  1.00  0.00     0.006 C 
BRANCH  12  13
ATOM     13  C   UNL     1      34.574  23.482  49.162  1.00  0.00     0.053 C 
BRANCH  13  14
ATOM     14  C   UNL     1      34.237  24.794  49.797  1.00  0.00     0.041 C 
ATOM     15  O   UNL     1      34.729  25.101  50.916  1.00  0.00    -0.550 OA
ATOM     16  O   UNL     1      33.367  25.674  49.162  1.00  0.00    -0.550 OA
ENDBRANCH  13  14
ENDBRANCH  12  13
ENDBRANCH  11  12
ENDBRANCH  10  11
ENDBRANCH   9  10
ENDBRANCH   8   9
ENDBRANCH   7   8
ENDBRANCH   6   7
ENDBRANCH   5   6
ENDBRANCH   4   5
ENDBRANCH   3   4
ENDBRANCH   2   3
ENDBRANCH   1   2
BRANCH   1  17
ATOM     17  C   UNL     1      33.376  24.914  56.303  1.00  0.00     0.000 C 
BRANCH  17  18
ATOM     18  C   UNL     1      32.490  23.933  57.092  1.00  0.00     0.000 C 
BRANCH  18  19
ATOM     19  C   UNL     1      32.966  23.734  58.540  1.00  0.00     0.000 C 
BRANCH  19  20
ATOM     20  C   UNL     1      31.956  22.945  59.390  1.00  0.00     0.000 C 
BRANCH  20  21
ATOM     21  C   UNL     1      31.739  23.559  60.784  1.00  0.00     0.000 C 
BRANCH  21  22
ATOM     22  C   UNL     1      30.399  23.204  61.461  1.00  0.00    -0.000 C 
BRANCH  22  23
ATOM     23  C   UNL     1      30.018  24.080  62.668  1.00  0.00    -0.000 C 
BRANCH  23  24
ATOM     24  C   UNL     1      29.591  23.254  63.893  1.00  0.00    -0.000 C 
BRANCH  24  25
ATOM     25  C   UNL     1      30.509  23.471  65.110  1.00  0.00    -0.000 C 
BRANCH  25  26
ATOM     26  C   UNL     1      31.730  24.378  64.858  1.00  0.00    -0.000 C 
BRANCH  26  27
ATOM     27  C   UNL     1      32.635  24.618  66.081  1.00  0.00    -0.000 C 
BRANCH  27  28
ATOM     28  C   UNL     1      34.136  24.379  65.833  1.00  0.00    -0.000 C 
BRANCH  28  29
ATOM     29  C   UNL     1      34.726  25.341  64.791  1.00  0.00    -0.003 C 
ATOM     30  C   UNL     1      35.829  26.203  65.399  1.00  0.00     0.004 C 
ENDBRANCH  28  29
ENDBRANCH  27  28
ENDBRANCH  26  27
ENDBRANCH  25  26
ENDBRANCH  24  25
ENDBRANCH  23  24
ENDBRANCH  22  23
ENDBRANCH  21  22
ENDBRANCH  20  21
ENDBRANCH  19  20
ENDBRANCH  18  19
ENDBRANCH  17  18
ENDBRANCH   1  17
TORSDOF 26
ENDMDL
MODEL 3
REMARK VINA RESULT:     5.218      2.855      4.129
REMARK INTER + INTRA:          11.065
REMARK INTER:                  12.366
REMARK INTRA:                  -1.300
REMARK UNBOUND:                -2.084
REMARK SMILES CCCCCCCCCCCCCCCCCCCCCCCCCCCC(=O)[O-]
REMARK SMILES IDX 15 1 16 2 17 3 18 4 19 5 20 6 21 7 22 8 23 9 24 10 25 11
REMARK SMILES IDX 26 12 27 13 28 14 29 15 30 16 14 17 13 18 12 19 11 20 10 21
REMARK SMILES IDX 9 22 8 23 7 24 6 25 5 26 4 27 3 28 2 29 1 30
REMARK H PARENT
REMARK Flexibility Score: inf
ROOT
ATOM      1  C   UNL     1      33.099  24.472  57.371  1.00  0.00     0.000 C 
ENDROOT
BRANCH   1   2
ATOM      2  C   UNL     1      33.562  23.453  56.317  1.00  0.00     0.000 C 
BRANCH   2   3
ATOM      3  C   UNL     1      35.092  23.321  56.242  1.00  0.00     0.000 C 
BRANCH   3   4
ATOM      4  C   UNL     1      35.824  24.609  56.662  1.00  0.00     0.000 C 
BRANCH   4   5
ATOM      5  C   UNL     1      37.348  24.470  56.826  1.00  0.00     0.000 C 
BRANCH   5   6
ATOM      6  C   UNL     1      37.878  23.109  56.343  1.00  0.00     0.000 C 
BRANCH   6   7
ATOM      7  C   UNL     1      39.412  23.072  56.233  1.00  0.00     0.000 C 
BRANCH   7   8
ATOM      8  C   UNL     1      39.906  23.101  54.775  1.00  0.00     0.000 C 
BRANCH   8   9
ATOM      9  C   UNL     1      38.748  23.075  53.761  1.00  0.00     0.000 C 
BRANCH   9  10
ATOM     10  C   UNL     1      38.267  24.489  53.390  1.00  0.00     0.000 C 
BRANCH  10  11
ATOM     11  C   UNL     1      37.445  24.515  52.093  1.00  0.00     0.000 C 
BRANCH  11  12
ATOM     12  C   UNL     1      36.162  23.675  52.184  1.00  0.00     0.006 C 
BRANCH  12  13
ATOM     13  C   UNL     1      35.934  22.880  50.895  1.00  0.00     0.053 C 
BRANCH  13  14
ATOM     14  C   UNL     1      35.331  23.747  49.836  1.00  0.00     0.041 C 
ATOM     15  O   UNL     1      35.460  23.443  48.619  1.00  0.00    -0.550 OA
ATOM     16  O   UNL     1      34.638  24.900  50.188  1.00  0.00    -0.550 OA
ENDBRANCH  13  14
ENDBRANCH  12  13
ENDBRANCH  11  12
ENDBRANCH  10  11
ENDBRANCH   9  10
ENDBRANCH   8   9
ENDBRANCH   7   8
ENDBRANCH   6   7
ENDBRANCH   5   6
ENDBRANCH   4   5
ENDBRANCH   3   4
ENDBRANCH   2   3
ENDBRANCH   1   2
BRANCH   1  17
ATOM     17  C   UNL     1      31.880  24.002  58.194  1.00  0.00     0.000 C 
BRANCH  17  18
ATOM     18  C   UNL     1      32.283  23.062  59.345  1.00  0.00     0.000 C 
BRANCH  18  19
ATOM     19  C   UNL     1      32.039  23.681  60.731  1.00  0.00     0.000 C 
BRANCH  19  20
ATOM     20  C   UNL     1      30.686  23.263  61.334  1.00  0.00     0.000 C 
BRANCH  20  21
ATOM     21  C   UNL     1      30.719  23.175  62.869  1.00  0.00     0.000 C 
BRANCH  21  22
ATOM     22  C   UNL     1      29.340  23.157  63.559  1.00  0.00    -0.000 C 
BRANCH  22  23
ATOM     23  C   UNL     1      28.956  24.451  64.299  1.00  0.00    -0.000 C 
BRANCH  23  24
ATOM     24  C   UNL     1      29.123  24.339  65.823  1.00  0.00    -0.000 C 
BRANCH  24  25
ATOM     25  C   UNL     1      30.581  24.087  66.249  1.00  0.00    -0.000 C 
BRANCH  25  26
ATOM     26  C   UNL     1      31.642  24.875  65.452  1.00  0.00    -0.000 C 
BRANCH  26  27
ATOM     27  C   UNL     1      32.991  24.155  65.267  1.00  0.00    -0.000 C 
BRANCH  27  28
ATOM     28  C   UNL     1      34.010  24.389  66.397  1.00  0.00    -0.000 C 
BRANCH  28  29
ATOM     29  C   UNL     1      35.183  25.280  65.964  1.00  0.00    -0.003 C 
ATOM     30  C   UNL     1      35.130  25.572  64.466  1.00  0.00     0.004 C 
ENDBRANCH  28  29
ENDBRANCH  27  28
ENDBRANCH  26  27
ENDBRANCH  25  26
ENDBRANCH  24  25
ENDBRANCH  23  24
ENDBRANCH  22  23
ENDBRANCH  21  22
ENDBRANCH  20  21
ENDBRANCH  19  20
ENDBRANCH  18  19
ENDBRANCH  17  18
ENDBRANCH   1  17
TORSDOF 26
ENDMDL
MODEL 4
REMARK VINA RESULT:     5.249      1.822      3.375
REMARK INTER + INTRA:          11.142
REMARK INTER:                  10.767
REMARK INTRA:                   0.375
REMARK UNBOUND:                -2.084
REMARK SMILES CCCCCCCCCCCCCCCCCCCCCCCCCCCC(=O)[O-]
REMARK SMILES IDX 15 1 16 2 17 3 18 4 19 5 20 6 21 7 22 8 23 9 24 10 25 11
REMARK SMILES IDX 26 12 27 13 28 14 29 15 30 16 14 17 13 18 12 19 11 20 10 21
REMARK SMILES IDX 9 22 8 23 7 24 6 25 5 26 4 27 3 28 2 29 1 30
REMARK H PARENT
REMARK Flexibility Score: inf
ROOT
ATOM      1  C   UNL     1      33.637  24.409  57.005  1.00  0.00     0.000 C 
ENDROOT
BRANCH   1   2
ATOM      2  C   UNL     1      34.082  23.424  55.911  1.00  0.00     0.000 C 
BRANCH   2   3
ATOM      3  C   UNL     1      35.610  23.342  55.764  1.00  0.00     0.000 C 
BRANCH   3   4
ATOM      4  C   UNL     1      36.344  24.472  56.510  1.00  0.00     0.000 C 
BRANCH   4   5
ATOM      5  C   UNL     1      37.851  24.242  56.723  1.00  0.00     0.000 C 
BRANCH   5   6
ATOM      6  C   UNL     1      38.329  22.884  56.181  1.00  0.00     0.000 C 
BRANCH   6   7
ATOM      7  C   UNL     1      39.791  22.916  55.702  1.00  0.00     0.000 C 
BRANCH   7   8
ATOM      8  C   UNL     1      39.915  22.945  54.168  1.00  0.00     0.000 C 
BRANCH   8   9
ATOM      9  C   UNL     1      38.548  22.881  53.465  1.00  0.00     0.000 C 
BRANCH   9  10
ATOM     10  C   UNL     1      38.655  23.156  51.955  1.00  0.00     0.000 C 
BRANCH  10  11
ATOM     11  C   UNL     1      37.321  22.960  51.219  1.00  0.00     0.000 C 
BRANCH  11  12
ATOM     12  C   UNL     1      36.112  23.428  52.044  1.00  0.00     0.006 C 
BRANCH  12  13
ATOM     13  C   UNL     1      35.899  24.938  51.897  1.00  0.00     0.053 C 
BRANCH  13  14
ATOM     14  C   UNL     1      36.777  25.692  52.845  1.00  0.00     0.041 C 
ATOM     15  O   UNL     1      36.950  25.270  54.020  1.00  0.00    -0.550 OA
ATOM     16  O   UNL     1      37.394  26.871  52.438  1.00  0.00    -0.550 OA
ENDBRANCH  13  14
ENDBRANCH  12  13
ENDBRANCH  11  12
ENDBRANCH  10  11
ENDBRANCH   9  10
ENDBRANCH   8   9
ENDBRANCH   7   8
ENDBRANCH   6   7
ENDBRANCH   5   6
ENDBRANCH   4   5
ENDBRANCH   3   4
ENDBRANCH   2   3
ENDBRANCH   1   2
BRANCH   1  17
ATOM     17  C   UNL     1      32.348  23.980  57.738  1.00  0.00     0.000 C 
BRANCH  17  18
ATOM     18  C   UNL     1      32.643  23.110  58.973  1.00  0.00     0.000 C 
BRANCH  18  19
ATOM     19  C   UNL     1      32.514  23.889  60.293  1.00  0.00     0.000 C 
BRANCH  19  20
ATOM     20  C   UNL     1      31.336  23.402  61.153  1.00  0.00     0.000 C 
BRANCH  20  21
ATOM     21  C   UNL     1      31.715  23.212  62.632  1.00  0.00     0.000 C 
BRANCH  21  22
ATOM     22  C   UNL     1      30.534  23.232  63.625  1.00  0.00    -0.000 C 
BRANCH  22  23
ATOM     23  C   UNL     1      30.622  24.297  64.732  1.00  0.00    -0.000 C 
BRANCH  23  24
ATOM     24  C   UNL     1      31.313  23.779  66.004  1.00  0.00    -0.000 C 
BRANCH  24  25
ATOM     25  C   UNL     1      32.793  23.420  65.778  1.00  0.00    -0.000 C 
BRANCH  25  26
ATOM     26  C   UNL     1      33.784  24.590  65.940  1.00  0.00    -0.000 C 
BRANCH  26  27
ATOM     27  C   UNL     1      34.489  25.038  64.646  1.00  0.00    -0.000 C 
BRANCH  27  28
ATOM     28  C   UNL     1      35.212  26.395  64.738  1.00  0.00    -0.000 C 
BRANCH  28  29
ATOM     29  C   UNL     1      36.444  26.350  65.652  1.00  0.00    -0.003 C 
ATOM     30  C   UNL     1      36.038  26.309  67.124  1.00  0.00     0.004 C 
ENDBRANCH  28  29
ENDBRANCH  27  28
ENDBRANCH  26  27
ENDBRANCH  25  26
ENDBRANCH  24  25
ENDBRANCH  23  24
ENDBRANCH  22  23
ENDBRANCH  21  22
ENDBRANCH  20  21
ENDBRANCH  19  20
ENDBRANCH  18  19
ENDBRANCH  17  18
ENDBRANCH   1  17
TORSDOF 26
ENDMDL
MODEL 5
REMARK VINA RESULT:     5.295      2.970      3.794
REMARK INTER + INTRA:          11.260
REMARK INTER:                  11.633
REMARK INTRA:                  -0.374
REMARK UNBOUND:                -2.084
REMARK SMILES CCCCCCCCCCCCCCCCCCCCCCCCCCCC(=O)[O-]
REMARK SMILES IDX 15 1 16 2 17 3 18 4 19 5 20 6 21 7 22 8 23 9 24 10 25 11
REMARK SMILES IDX 26 12 27 13 28 14 29 15 30 16 14 17 13 18 12 19 11 20 10 21
REMARK SMILES IDX 9 22 8 23 7 24 6 25 5 26 4 27 3 28 2 29 1 30
REMARK H PARENT
REMARK Flexibility Score: inf
ROOT
ATOM      1  C   UNL     1      32.883  23.725  59.943  1.00  0.00     0.000 C 
ENDROOT
BRANCH   1   2
ATOM      2  C   UNL     1      32.440  24.072  58.512  1.00  0.00     0.000 C 
BRANCH   2   3
ATOM      3  C   UNL     1      33.181  23.255  57.441  1.00  0.00     0.000 C 
BRANCH   3   4
ATOM      4  C   UNL     1      34.686  23.576  57.379  1.00  0.00     0.000 C 
BRANCH   4   5
ATOM      5  C   UNL     1      35.456  22.876  56.244  1.00  0.00     0.000 C 
BRANCH   5   6
ATOM      6  C   UNL     1      36.606  23.732  55.687  1.00  0.00     0.000 C 
BRANCH   6   7
ATOM      7  C   UNL     1      37.619  22.910  54.872  1.00  0.00     0.000 C 
BRANCH   7   8
ATOM      8  C   UNL     1      38.909  23.690  54.561  1.00  0.00     0.000 C 
BRANCH   8   9
ATOM      9  C   UNL     1      38.774  24.573  53.308  1.00  0.00     0.000 C 
BRANCH   9  10
ATOM     10  C   UNL     1      37.418  25.296  53.247  1.00  0.00     0.000 C 
BRANCH  10  11
ATOM     11  C   UNL     1      36.694  25.092  51.908  1.00  0.00     0.000 C 
BRANCH  11  12
ATOM     12  C   UNL     1      37.040  23.750  51.243  1.00  0.00     0.006 C 
BRANCH  12  13
ATOM     13  C   UNL     1      35.770  22.964  50.901  1.00  0.00     0.053 C 
BRANCH  13  14
ATOM     14  C   UNL     1      35.265  23.338  49.544  1.00  0.00     0.041 C 
ATOM     15  O   UNL     1      35.822  22.875  48.512  1.00  0.00    -0.550 OA
ATOM     16  O   UNL     1      34.189  24.210  49.414  1.00  0.00    -0.550 OA
ENDBRANCH  13  14
ENDBRANCH  12  13
ENDBRANCH  11  12
ENDBRANCH  10  11
ENDBRANCH   9  10
ENDBRANCH   8   9
ENDBRANCH   7   8
ENDBRANCH   6   7
ENDBRANCH   5   6
ENDBRANCH   4   5
ENDBRANCH   3   4
ENDBRANCH   2   3
ENDBRANCH   1   2
BRANCH   1  17
ATOM     17  C   UNL     1      31.916  24.237  61.032  1.00  0.00     0.000 C 
BRANCH  17  18
ATOM     18  C   UNL     1      31.283  23.087  61.836  1.00  0.00     0.000 C 
BRANCH  18  19
ATOM     19  C   UNL     1      29.884  23.435  62.371  1.00  0.00     0.000 C 
BRANCH  19  20
ATOM     20  C   UNL     1      29.925  24.498  63.481  1.00  0.00     0.000 C 
BRANCH  20  21
ATOM     21  C   UNL     1      31.188  24.401  64.355  1.00  0.00     0.000 C 
BRANCH  21  22
ATOM     22  C   UNL     1      31.045  23.544  65.629  1.00  0.00    -0.000 C 
BRANCH  22  23
ATOM     23  C   UNL     1      31.389  24.260  66.947  1.00  0.00    -0.000 C 
BRANCH  23  24
ATOM     24  C   UNL     1      32.898  24.497  67.122  1.00  0.00    -0.000 C 
BRANCH  24  25
ATOM     25  C   UNL     1      33.700  24.221  65.837  1.00  0.00    -0.000 C 
BRANCH  25  26
ATOM     26  C   UNL     1      34.359  25.460  65.197  1.00  0.00    -0.000 C 
BRANCH  26  27
ATOM     27  C   UNL     1      35.895  25.401  65.080  1.00  0.00    -0.000 C 
BRANCH  27  28
ATOM     28  C   UNL     1      36.646  26.492  65.866  1.00  0.00    -0.000 C 
BRANCH  28  29
ATOM     29  C   UNL     1      36.562  27.870  65.196  1.00  0.00    -0.003 C 
ATOM     30  C   UNL     1      37.772  28.730  65.550  1.00  0.00     0.004 C 
ENDBRANCH  28  29
ENDBRANCH  27  28
ENDBRANCH  26  27
ENDBRANCH  25  26
ENDBRANCH  24  25
ENDBRANCH  23  24
ENDBRANCH  22  23
ENDBRANCH  21  22
ENDBRANCH  20  21
ENDBRANCH  19  20
ENDBRANCH  18  19
ENDBRANCH  17  18
ENDBRANCH   1  17
TORSDOF 26
ENDMDL
MODEL 6
REMARK VINA RESULT:     6.341      1.319      2.263
REMARK INTER + INTRA:          13.895
REMARK INTER:                  15.002
REMARK INTRA:                  -1.107
REMARK UNBOUND:                -2.084
REMARK SMILES CCCCCCCCCCCCCCCCCCCCCCCCCCCC(=O)[O-]
REMARK SMILES IDX 15 1 16 2 17 3 18 4 19 5 20 6 21 7 22 8 23 9 24 10 25 11
REMARK SMILES IDX 26 12 27 13 28 14 29 15 30 16 14 17 13 18 12 19 11 20 10 21
REMARK SMILES IDX 9 22 8 23 7 24 6 25 5 26 4 27 3 28 2 29 1 30
REMARK H PARENT
REMARK Flexibility Score: inf
ROOT
ATOM      1  C   UNL     1      33.300  24.947  57.987  1.00  0.00     0.000 C 
ENDROOT
BRANCH   1   2
ATOM      2  C   UNL     1      33.297  24.355  56.567  1.00  0.00     0.000 C 
BRANCH   2   3
ATOM      3  C   UNL     1      34.103  23.050  56.461  1.00  0.00     0.000 C 
BRANCH   3   4
ATOM      4  C   UNL     1      35.428  23.226  55.696  1.00  0.00     0.000 C 
BRANCH   4   5
ATOM      5  C   UNL     1      35.363  24.185  54.493  1.00  0.00     0.000 C 
BRANCH   5   6
ATOM      6  C   UNL     1      35.327  23.448  53.143  1.00  0.00     0.000 C 
BRANCH   6   7
ATOM      7  C   UNL     1      35.432  24.401  51.941  1.00  0.00     0.000 C 
BRANCH   7   8
ATOM      8  C   UNL     1      36.561  25.436  52.096  1.00  0.00     0.000 C 
BRANCH   8   9
ATOM      9  C   UNL     1      37.754  24.888  52.901  1.00  0.00     0.000 C 
BRANCH   9  10
ATOM     10  C   UNL     1      38.490  23.761  52.157  1.00  0.00     0.000 C 
BRANCH  10  11
ATOM     11  C   UNL     1      39.324  22.875  53.096  1.00  0.00     0.000 C 
BRANCH  11  12
ATOM     12  C   UNL     1      38.839  22.930  54.553  1.00  0.00     0.006 C 
BRANCH  12  13
ATOM     13  C   UNL     1      39.504  24.085  55.309  1.00  0.00     0.053 C 
BRANCH  13  14
ATOM     14  C   UNL     1      39.453  23.851  56.785  1.00  0.00     0.041 C 
ATOM     15  O   UNL     1      40.377  24.282  57.526  1.00  0.00    -0.550 OA
ATOM     16  O   UNL     1      38.394  23.144  57.344  1.00  0.00    -0.550 OA
ENDBRANCH  13  14
ENDBRANCH  12  13
ENDBRANCH  11  12
ENDBRANCH  10  11
ENDBRANCH   9  10
ENDBRANCH   8   9
ENDBRANCH   7   8
ENDBRANCH   6   7
ENDBRANCH   5   6
ENDBRANCH   4   5
ENDBRANCH   3   4
ENDBRANCH   2   3
ENDBRANCH   1   2
BRANCH   1  17
ATOM     17  C   UNL     1      33.448  23.887  59.100  1.00  0.00     0.000 C 
BRANCH  17  18
ATOM     18  C   UNL     1      32.120  23.626  59.835  1.00  0.00     0.000 C 
BRANCH  18  19
ATOM     19  C   UNL     1      32.259  23.719  61.363  1.00  0.00     0.000 C 
BRANCH  19  20
ATOM     20  C   UNL     1      30.907  23.932  62.066  1.00  0.00     0.000 C 
BRANCH  20  21
ATOM     21  C   UNL     1      31.042  24.059  63.593  1.00  0.00     0.000 C 
BRANCH  21  22
ATOM     22  C   UNL     1      32.415  23.661  64.171  1.00  0.00    -0.000 C 
BRANCH  22  23
ATOM     23  C   UNL     1      32.636  24.018  65.651  1.00  0.00    -0.000 C 
BRANCH  23  24
ATOM     24  C   UNL     1      33.972  24.739  65.898  1.00  0.00    -0.000 C 
BRANCH  24  25
ATOM     25  C   UNL     1      34.988  24.523  64.761  1.00  0.00    -0.000 C 
BRANCH  25  26
ATOM     26  C   UNL     1      35.745  25.788  64.309  1.00  0.00    -0.000 C 
BRANCH  26  27
ATOM     27  C   UNL     1      35.496  27.044  65.166  1.00  0.00    -0.000 C 
BRANCH  27  28
ATOM     28  C   UNL     1      36.717  27.967  65.332  1.00  0.00    -0.000 C 
BRANCH  28  29
ATOM     29  C   UNL     1      37.836  27.327  66.165  1.00  0.00    -0.003 C 
ATOM     30  C   UNL     1      38.864  28.368  66.601  1.00  0.00     0.004 C 
ENDBRANCH  28  29
ENDBRANCH  27  28
ENDBRANCH  26  27
ENDBRANCH  25  26
ENDBRANCH  24  25
ENDBRANCH  23  24
ENDBRANCH  22  23
ENDBRANCH  21  22
ENDBRANCH  20  21
ENDBRANCH  19  20
ENDBRANCH  18  19
ENDBRANCH  17  18
ENDBRANCH   1  17
TORSDOF 26
ENDMDL
