MODEL 1
REMARK VINA RESULT:    -4.128      0.000      0.000
REMARK INTER + INTRA:         -16.259
REMARK INTER:                 -10.884
REMARK INTRA:                  -5.375
REMARK UNBOUND:                -5.375
REMARK SMILES CCCCCCCCCCCCCCCCCCCCCCCCCCCCCC(=O)[O-]
REMARK SMILES IDX 16 1 17 2 18 3 19 4 20 5 21 6 22 7 23 8 24 9 25 10 26 11
REMARK SMILES IDX 27 12 28 13 29 14 30 15 31 16 32 17 15 18 14 19 13 20 12 21
REMARK SMILES IDX 11 22 10 23 9 24 8 25 7 26 6 27 5 28 4 29 3 30 2 31 1 32
REMARK H PARENT
REMARK Flexibility Score: inf
ROOT
ATOM      1  C   UNL     1     -27.594  14.261  21.566  1.00  0.00     0.000 C 
ENDROOT
BRANCH   1   2
ATOM      2  C   UNL     1     -26.679  14.409  20.336  1.00  0.00     0.000 C 
BRANCH   2   3
ATOM      3  C   UNL     1     -25.295  15.022  20.623  1.00  0.00     0.000 C 
BRANCH   3   4
ATOM      4  C   UNL     1     -24.971  16.313  19.844  1.00  0.00     0.000 C 
BRANCH   4   5
ATOM      5  C   UNL     1     -24.718  17.543  20.742  1.00  0.00     0.000 C 
BRANCH   5   6
ATOM      6  C   UNL     1     -24.213  17.159  22.144  1.00  0.00     0.000 C 
BRANCH   6   7
ATOM      7  C   UNL     1     -25.108  17.711  23.265  1.00  0.00     0.000 C 
BRANCH   7   8
ATOM      8  C   UNL     1     -26.135  16.678  23.763  1.00  0.00     0.000 C 
BRANCH   8   9
ATOM      9  C   UNL     1     -25.590  15.810  24.907  1.00  0.00     0.000 C 
BRANCH   9  10
ATOM     10  C   UNL     1     -26.136  14.371  24.873  1.00  0.00     0.000 C 
BRANCH  10  11
ATOM     11  C   UNL     1     -26.970  14.026  26.117  1.00  0.00     0.000 C 
BRANCH  11  12
ATOM     12  C   UNL     1     -28.245  13.236  25.773  1.00  0.00     0.000 C 
BRANCH  12  13
ATOM     13  C   UNL     1     -29.300  13.295  26.896  1.00  0.00     0.006 C 
BRANCH  13  14
ATOM     14  C   UNL     1     -30.724  13.575  26.391  1.00  0.00     0.053 C 
BRANCH  14  15
ATOM     15  C   UNL     1     -31.137  14.998  26.608  1.00  0.00     0.041 C 
ATOM     16  O   UNL     1     -32.295  15.377  26.291  1.00  0.00    -0.550 OA
ATOM     17  O   UNL     1     -30.247  15.903  27.173  1.00  0.00    -0.550 OA
ENDBRANCH  14  15
ENDBRANCH  13  14
ENDBRANCH  12  13
ENDBRANCH  11  12
ENDBRANCH  10  11
ENDBRANCH   9  10
ENDBRANCH   8   9
ENDBRANCH   7   8
ENDBRANCH   6   7
ENDBRANCH   5   6
ENDBRANCH   4   5
ENDBRANCH   3   4
ENDBRANCH   2   3
ENDBRANCH   1   2
BRANCH   1  18
ATOM     18  C   UNL     1     -29.011  13.790  21.206  1.00  0.00     0.000 C 
BRANCH  18  19
ATOM     19  C   UNL     1     -30.066  14.684  21.869  1.00  0.00     0.000 C 
BRANCH  19  20
ATOM     20  C   UNL     1     -29.557  15.247  23.205  1.00  0.00     0.000 C 
BRANCH  20  21
ATOM     21  C   UNL     1     -30.127  16.639  23.520  1.00  0.00     0.000 C 
BRANCH  21  22
ATOM     22  C   UNL     1     -30.308  17.557  22.297  1.00  0.00     0.000 C 
BRANCH  22  23
ATOM     23  C   UNL     1     -29.105  18.487  22.033  1.00  0.00     0.000 C 
BRANCH  23  24
ATOM     24  C   UNL     1     -28.154  17.921  20.963  1.00  0.00    -0.000 C 
BRANCH  24  25
ATOM     25  C   UNL     1     -28.761  17.975  19.552  1.00  0.00    -0.000 C 
BRANCH  25  26
ATOM     26  C   UNL     1     -29.183  16.586  19.039  1.00  0.00    -0.000 C 
BRANCH  26  27
ATOM     27  C   UNL     1     -28.644  16.288  17.629  1.00  0.00    -0.000 C 
BRANCH  27  28
ATOM     28  C   UNL     1     -28.821  14.812  17.232  1.00  0.00    -0.000 C 
BRANCH  28  29
ATOM     29  C   UNL     1     -30.270  14.318  17.387  1.00  0.00    -0.000 C 
BRANCH  29  30
ATOM     30  C   UNL     1     -31.037  14.113  16.069  1.00  0.00    -0.000 C 
BRANCH  30  31
ATOM     31  C   UNL     1     -30.345  14.765  14.863  1.00  0.00    -0.003 C 
ATOM     32  C   UNL     1     -31.350  15.091  13.762  1.00  0.00     0.004 C 
ENDBRANCH  30  31
ENDBRANCH  29  30
ENDBRANCH  28  29
ENDBRANCH  27  28
ENDBRANCH  26  27
ENDBRANCH  25  26
ENDBRANCH  24  25
ENDBRANCH  23  24
ENDBRANCH  22  23
ENDBRANCH  21  22
ENDBRANCH  20  21
ENDBRANCH  19  20
ENDBRANCH  18  19
ENDBRANCH   1  18
TORSDOF 28
ENDMDL
MODEL 2
REMARK VINA RESULT:    -4.028      2.732      6.407
REMARK INTER + INTRA:         -15.996
REMARK INTER:                  -9.889
REMARK INTRA:                  -6.106
REMARK UNBOUND:                -5.375
REMARK SMILES CCCCCCCCCCCCCCCCCCCCCCCCCCCCCC(=O)[O-]
REMARK SMILES IDX 16 1 17 2 18 3 19 4 20 5 21 6 22 7 23 8 24 9 25 10 26 11
REMARK SMILES IDX 27 12 28 13 29 14 30 15 31 16 32 17 15 18 14 19 13 20 12 21
REMARK SMILES IDX 11 22 10 23 9 24 8 25 7 26 6 27 5 28 4 29 3 30 2 31 1 32
REMARK H PARENT
REMARK Flexibility Score: inf
ROOT
ATOM      1  C   UNL     1     -26.615  14.216  21.029  1.00  0.00     0.000 C 
ENDROOT
BRANCH   1   2
ATOM      2  C   UNL     1     -25.781  15.263  20.267  1.00  0.00     0.000 C 
BRANCH   2   3
ATOM      3  C   UNL     1     -26.441  15.821  18.992  1.00  0.00     0.000 C 
BRANCH   3   4
ATOM      4  C   UNL     1     -27.912  15.411  18.777  1.00  0.00     0.000 C 
BRANCH   4   5
ATOM      5  C   UNL     1     -28.866  16.597  18.525  1.00  0.00     0.000 C 
BRANCH   5   6
ATOM      6  C   UNL     1     -28.599  17.783  19.468  1.00  0.00     0.000 C 
BRANCH   6   7
ATOM      7  C   UNL     1     -29.262  17.604  20.843  1.00  0.00     0.000 C 
BRANCH   7   8
ATOM      8  C   UNL     1     -28.411  18.183  21.988  1.00  0.00     0.000 C 
BRANCH   8   9
ATOM      9  C   UNL     1     -26.983  18.532  21.541  1.00  0.00     0.000 C 
BRANCH   9  10
ATOM     10  C   UNL     1     -26.177  19.249  22.638  1.00  0.00     0.000 C 
BRANCH  10  11
ATOM     11  C   UNL     1     -25.136  18.334  23.301  1.00  0.00     0.000 C 
BRANCH  11  12
ATOM     12  C   UNL     1     -24.751  18.803  24.715  1.00  0.00     0.000 C 
BRANCH  12  13
ATOM     13  C   UNL     1     -23.630  17.948  25.340  1.00  0.00     0.006 C 
BRANCH  13  14
ATOM     14  C   UNL     1     -24.093  17.096  26.531  1.00  0.00     0.053 C 
BRANCH  14  15
ATOM     15  C   UNL     1     -23.327  15.816  26.650  1.00  0.00     0.041 C 
ATOM     16  O   UNL     1     -22.264  15.650  25.994  1.00  0.00    -0.550 OA
ATOM     17  O   UNL     1     -23.779  14.809  27.494  1.00  0.00    -0.550 OA
ENDBRANCH  14  15
ENDBRANCH  13  14
ENDBRANCH  12  13
ENDBRANCH  11  12
ENDBRANCH  10  11
ENDBRANCH   9  10
ENDBRANCH   8   9
ENDBRANCH   7   8
ENDBRANCH   6   7
ENDBRANCH   5   6
ENDBRANCH   4   5
ENDBRANCH   3   4
ENDBRANCH   2   3
ENDBRANCH   1   2
BRANCH   1  18
ATOM     18  C   UNL     1     -27.260  14.776  22.306  1.00  0.00     0.000 C 
BRANCH  18  19
ATOM     19  C   UNL     1     -26.203  15.008  23.392  1.00  0.00     0.000 C 
BRANCH  19  20
ATOM     20  C   UNL     1     -26.856  15.374  24.734  1.00  0.00     0.000 C 
BRANCH  20  21
ATOM     21  C   UNL     1     -26.765  14.242  25.769  1.00  0.00     0.000 C 
BRANCH  21  22
ATOM     22  C   UNL     1     -28.077  13.943  26.519  1.00  0.00     0.000 C 
BRANCH  22  23
ATOM     23  C   UNL     1     -28.801  12.673  26.024  1.00  0.00     0.000 C 
BRANCH  23  24
ATOM     24  C   UNL     1     -28.098  12.033  24.815  1.00  0.00    -0.000 C 
BRANCH  24  25
ATOM     25  C   UNL     1     -29.064  11.756  23.653  1.00  0.00    -0.000 C 
BRANCH  25  26
ATOM     26  C   UNL     1     -30.380  12.545  23.780  1.00  0.00    -0.000 C 
BRANCH  26  27
ATOM     27  C   UNL     1     -30.790  13.228  22.464  1.00  0.00    -0.000 C 
BRANCH  27  28
ATOM     28  C   UNL     1     -30.797  14.762  22.575  1.00  0.00    -0.000 C 
BRANCH  28  29
ATOM     29  C   UNL     1     -30.436  15.265  23.984  1.00  0.00    -0.000 C 
BRANCH  29  30
ATOM     30  C   UNL     1     -31.626  15.746  24.832  1.00  0.00    -0.000 C 
BRANCH  30  31
ATOM     31  C   UNL     1     -31.669  15.107  26.228  1.00  0.00    -0.003 C 
ATOM     32  C   UNL     1     -32.701  13.985  26.287  1.00  0.00     0.004 C 
ENDBRANCH  30  31
ENDBRANCH  29  30
ENDBRANCH  28  29
ENDBRANCH  27  28
ENDBRANCH  26  27
ENDBRANCH  25  26
ENDBRANCH  24  25
ENDBRANCH  23  24
ENDBRANCH  22  23
ENDBRANCH  21  22
ENDBRANCH  20  21
ENDBRANCH  19  20
ENDBRANCH  18  19
ENDBRANCH   1  18
TORSDOF 28
ENDMDL
MODEL 3
REMARK VINA RESULT:    -3.948      1.621      4.161
REMARK INTER + INTRA:         -15.786
REMARK INTER:                 -10.600
REMARK INTRA:                  -5.186
REMARK UNBOUND:                -5.375
REMARK SMILES CCCCCCCCCCCCCCCCCCCCCCCCCCCCCC(=O)[O-]
REMARK SMILES IDX 16 1 17 2 18 3 19 4 20 5 21 6 22 7 23 8 24 9 25 10 26 11
REMARK SMILES IDX 27 12 28 13 29 14 30 15 31 16 32 17 15 18 14 19 13 20 12 21
REMARK SMILES IDX 11 22 10 23 9 24 8 25 7 26 6 27 5 28 4 29 3 30 2 31 1 32
REMARK H PARENT
REMARK Flexibility Score: inf
ROOT
ATOM      1  C   UNL     1     -30.725  16.698  21.943  1.00  0.00     0.000 C 
ENDROOT
BRANCH   1   2
ATOM      2  C   UNL     1     -30.618  15.179  22.174  1.00  0.00     0.000 C 
BRANCH   2   3
ATOM      3  C   UNL     1     -31.059  14.305  20.985  1.00  0.00     0.000 C 
BRANCH   3   4
ATOM      4  C   UNL     1     -30.045  13.230  20.545  1.00  0.00     0.000 C 
BRANCH   4   5
ATOM      5  C   UNL     1     -28.571  13.681  20.629  1.00  0.00     0.000 C 
BRANCH   5   6
ATOM      6  C   UNL     1     -27.652  12.595  21.214  1.00  0.00     0.000 C 
BRANCH   6   7
ATOM      7  C   UNL     1     -26.613  13.164  22.192  1.00  0.00     0.000 C 
BRANCH   7   8
ATOM      8  C   UNL     1     -26.701  14.696  22.320  1.00  0.00     0.000 C 
BRANCH   8   9
ATOM      9  C   UNL     1     -25.971  15.226  23.563  1.00  0.00     0.000 C 
BRANCH   9  10
ATOM     10  C   UNL     1     -26.803  16.257  24.346  1.00  0.00     0.000 C 
BRANCH  10  11
ATOM     11  C   UNL     1     -28.085  15.653  24.940  1.00  0.00     0.000 C 
BRANCH  11  12
ATOM     12  C   UNL     1     -27.815  14.377  25.756  1.00  0.00     0.000 C 
BRANCH  12  13
ATOM     13  C   UNL     1     -28.900  13.300  25.550  1.00  0.00     0.006 C 
BRANCH  13  14
ATOM     14  C   UNL     1     -30.326  13.799  25.836  1.00  0.00     0.053 C 
BRANCH  14  15
ATOM     15  C   UNL     1     -30.511  14.211  27.263  1.00  0.00     0.041 C 
ATOM     16  O   UNL     1     -30.461  15.428  27.583  1.00  0.00    -0.550 OA
ATOM     17  O   UNL     1     -30.751  13.252  28.239  1.00  0.00    -0.550 OA
ENDBRANCH  14  15
ENDBRANCH  13  14
ENDBRANCH  12  13
ENDBRANCH  11  12
ENDBRANCH  10  11
ENDBRANCH   9  10
ENDBRANCH   8   9
ENDBRANCH   7   8
ENDBRANCH   6   7
ENDBRANCH   5   6
ENDBRANCH   4   5
ENDBRANCH   3   4
ENDBRANCH   2   3
ENDBRANCH   1   2
BRANCH   1  18
ATOM     18  C   UNL     1     -29.396  17.435  22.167  1.00  0.00     0.000 C 
BRANCH  18  19
ATOM     19  C   UNL     1     -28.961  18.170  20.893  1.00  0.00     0.000 C 
BRANCH  19  20
ATOM     20  C   UNL     1     -28.272  17.214  19.908  1.00  0.00     0.000 C 
BRANCH  20  21
ATOM     21  C   UNL     1     -29.042  17.064  18.586  1.00  0.00     0.000 C 
BRANCH  21  22
ATOM     22  C   UNL     1     -28.485  15.994  17.629  1.00  0.00     0.000 C 
BRANCH  22  23
ATOM     23  C   UNL     1     -29.572  15.259  16.816  1.00  0.00     0.000 C 
BRANCH  23  24
ATOM     24  C   UNL     1     -29.406  13.730  16.869  1.00  0.00    -0.000 C 
BRANCH  24  25
ATOM     25  C   UNL     1     -30.755  12.993  16.848  1.00  0.00    -0.000 C 
BRANCH  25  26
ATOM     26  C   UNL     1     -31.903  13.850  17.410  1.00  0.00    -0.000 C 
BRANCH  26  27
ATOM     27  C   UNL     1     -33.258  13.525  16.759  1.00  0.00    -0.000 C 
BRANCH  27  28
ATOM     28  C   UNL     1     -33.115  12.612  15.529  1.00  0.00    -0.000 C 
BRANCH  28  29
ATOM     29  C   UNL     1     -33.997  13.054  14.347  1.00  0.00    -0.000 C 
BRANCH  29  30
ATOM     30  C   UNL     1     -33.275  13.873  13.262  1.00  0.00    -0.000 C 
BRANCH  30  31
ATOM     31  C   UNL     1     -31.746  13.744  13.329  1.00  0.00    -0.003 C 
ATOM     32  C   UNL     1     -31.094  15.094  13.614  1.00  0.00     0.004 C 
ENDBRANCH  30  31
ENDBRANCH  29  30
ENDBRANCH  28  29
ENDBRANCH  27  28
ENDBRANCH  26  27
ENDBRANCH  25  26
ENDBRANCH  24  25
ENDBRANCH  23  24
ENDBRANCH  22  23
ENDBRANCH  21  22
ENDBRANCH  20  21
ENDBRANCH  19  20
ENDBRANCH  18  19
ENDBRANCH   1  18
TORSDOF 28
ENDMDL
MODEL 4
REMARK VINA RESULT:    -3.938      1.896      4.706
REMARK INTER + INTRA:         -15.759
REMARK INTER:                  -9.158
REMARK INTRA:                  -6.602
REMARK UNBOUND:                -5.375
REMARK SMILES CCCCCCCCCCCCCCCCCCCCCCCCCCCCCC(=O)[O-]
REMARK SMILES IDX 16 1 17 2 18 3 19 4 20 5 21 6 22 7 23 8 24 9 25 10 26 11
REMARK SMILES IDX 27 12 28 13 29 14 30 15 31 16 32 17 15 18 14 19 13 20 12 21
REMARK SMILES IDX 11 22 10 23 9 24 8 25 7 26 6 27 5 28 4 29 3 30 2 31 1 32
REMARK H PARENT
REMARK Flexibility Score: inf
ROOT
ATOM      1  C   UNL     1     -29.125  15.441  24.809  1.00  0.00     0.000 C 
ENDROOT
BRANCH   1   2
ATOM      2  C   UNL     1     -27.822  16.246  24.967  1.00  0.00     0.000 C 
BRANCH   2   3
ATOM      3  C   UNL     1     -26.685  15.843  24.010  1.00  0.00     0.000 C 
BRANCH   3   4
ATOM      4  C   UNL     1     -25.854  17.013  23.443  1.00  0.00     0.000 C 
BRANCH   4   5
ATOM      5  C   UNL     1     -26.624  18.347  23.352  1.00  0.00     0.000 C 
BRANCH   5   6
ATOM      6  C   UNL     1     -27.374  18.508  22.018  1.00  0.00     0.000 C 
BRANCH   6   7
ATOM      7  C   UNL     1     -28.901  18.485  22.192  1.00  0.00     0.000 C 
BRANCH   7   8
ATOM      8  C   UNL     1     -29.575  17.397  21.337  1.00  0.00     0.000 C 
BRANCH   8   9
ATOM      9  C   UNL     1     -30.966  17.012  21.863  1.00  0.00     0.000 C 
BRANCH   9  10
ATOM     10  C   UNL     1     -31.368  17.811  23.116  1.00  0.00     0.000 C 
BRANCH  10  11
ATOM     11  C   UNL     1     -32.707  17.345  23.709  1.00  0.00     0.000 C 
BRANCH  11  12
ATOM     12  C   UNL     1     -32.730  15.835  24.003  1.00  0.00     0.000 C 
BRANCH  12  13
ATOM     13  C   UNL     1     -33.068  15.521  25.474  1.00  0.00     0.006 C 
BRANCH  13  14
ATOM     14  C   UNL     1     -32.643  14.113  25.918  1.00  0.00     0.053 C 
BRANCH  14  15
ATOM     15  C   UNL     1     -31.804  14.134  27.158  1.00  0.00     0.041 C 
ATOM     16  O   UNL     1     -30.965  13.219  27.371  1.00  0.00    -0.550 OA
ATOM     17  O   UNL     1     -31.939  15.170  28.073  1.00  0.00    -0.550 OA
ENDBRANCH  14  15
ENDBRANCH  13  14
ENDBRANCH  12  13
ENDBRANCH  11  12
ENDBRANCH  10  11
ENDBRANCH   9  10
ENDBRANCH   8   9
ENDBRANCH   7   8
ENDBRANCH   6   7
ENDBRANCH   5   6
ENDBRANCH   4   5
ENDBRANCH   3   4
ENDBRANCH   2   3
ENDBRANCH   1   2
BRANCH   1  18
ATOM     18  C   UNL     1     -29.059  14.409  23.673  1.00  0.00     0.000 C 
BRANCH  18  19
ATOM     19  C   UNL     1     -29.760  13.107  24.080  1.00  0.00     0.000 C 
BRANCH  19  20
ATOM     20  C   UNL     1     -30.699  12.611  22.970  1.00  0.00     0.000 C 
BRANCH  20  21
ATOM     21  C   UNL     1     -30.674  13.510  21.723  1.00  0.00     0.000 C 
BRANCH  21  22
ATOM     22  C   UNL     1     -30.235  12.806  20.426  1.00  0.00     0.000 C 
BRANCH  22  23
ATOM     23  C   UNL     1     -30.851  13.414  19.148  1.00  0.00     0.000 C 
BRANCH  23  24
ATOM     24  C   UNL     1     -30.221  14.770  18.784  1.00  0.00    -0.000 C 
BRANCH  24  25
ATOM     25  C   UNL     1     -29.119  14.639  17.722  1.00  0.00    -0.000 C 
BRANCH  25  26
ATOM     26  C   UNL     1     -28.139  15.826  17.741  1.00  0.00    -0.000 C 
BRANCH  26  27
ATOM     27  C   UNL     1     -26.697  15.398  18.063  1.00  0.00    -0.000 C 
BRANCH  27  28
ATOM     28  C   UNL     1     -26.253  15.839  19.468  1.00  0.00    -0.000 C 
BRANCH  28  29
ATOM     29  C   UNL     1     -27.009  15.111  20.594  1.00  0.00    -0.000 C 
BRANCH  29  30
ATOM     30  C   UNL     1     -26.920  13.575  20.556  1.00  0.00    -0.000 C 
BRANCH  30  31
ATOM     31  C   UNL     1     -26.280  12.977  21.817  1.00  0.00    -0.003 C 
ATOM     32  C   UNL     1     -26.956  11.666  22.207  1.00  0.00     0.004 C 
ENDBRANCH  30  31
ENDBRANCH  29  30
ENDBRANCH  28  29
ENDBRANCH  27  28
ENDBRANCH  26  27
ENDBRANCH  25  26
ENDBRANCH  24  25
ENDBRANCH  23  24
ENDBRANCH  22  23
ENDBRANCH  21  22
ENDBRANCH  20  21
ENDBRANCH  19  20
ENDBRANCH  18  19
ENDBRANCH   1  18
TORSDOF 28
ENDMDL
MODEL 5
REMARK VINA RESULT:    -3.937      3.009      6.466
REMARK INTER + INTRA:         -15.757
REMARK INTER:                 -10.117
REMARK INTRA:                  -5.639
REMARK UNBOUND:                -5.375
REMARK SMILES CCCCCCCCCCCCCCCCCCCCCCCCCCCCCC(=O)[O-]
REMARK SMILES IDX 16 1 17 2 18 3 19 4 20 5 21 6 22 7 23 8 24 9 25 10 26 11
REMARK SMILES IDX 27 12 28 13 29 14 30 15 31 16 32 17 15 18 14 19 13 20 12 21
REMARK SMILES IDX 11 22 10 23 9 24 8 25 7 26 6 27 5 28 4 29 3 30 2 31 1 32
REMARK H PARENT
REMARK Flexibility Score: inf
ROOT
ATOM      1  C   UNL     1     -29.770  16.803  21.292  1.00  0.00     0.000 C 
ENDROOT
BRANCH   1   2
ATOM      2  C   UNL     1     -28.880  17.904  20.685  1.00  0.00     0.000 C 
BRANCH   2   3
ATOM      3  C   UNL     1     -28.863  17.955  19.146  1.00  0.00     0.000 C 
BRANCH   3   4
ATOM      4  C   UNL     1     -29.103  16.606  18.438  1.00  0.00     0.000 C 
BRANCH   4   5
ATOM      5  C   UNL     1     -27.833  15.742  18.281  1.00  0.00     0.000 C 
BRANCH   5   6
ATOM      6  C   UNL     1     -27.906  14.432  19.084  1.00  0.00     0.000 C 
BRANCH   6   7
ATOM      7  C   UNL     1     -26.918  14.405  20.260  1.00  0.00     0.000 C 
BRANCH   7   8
ATOM      8  C   UNL     1     -25.877  15.537  20.182  1.00  0.00     0.000 C 
BRANCH   8   9
ATOM      9  C   UNL     1     -25.742  16.305  21.505  1.00  0.00     0.000 C 
BRANCH   9  10
ATOM     10  C   UNL     1     -26.256  15.502  22.713  1.00  0.00     0.000 C 
BRANCH  10  11
ATOM     11  C   UNL     1     -27.206  16.317  23.604  1.00  0.00     0.000 C 
BRANCH  11  12
ATOM     12  C   UNL     1     -26.608  16.611  24.991  1.00  0.00     0.000 C 
BRANCH  12  13
ATOM     13  C   UNL     1     -25.246  15.921  25.209  1.00  0.00     0.006 C 
BRANCH  13  14
ATOM     14  C   UNL     1     -24.058  16.895  25.237  1.00  0.00     0.053 C 
BRANCH  14  15
ATOM     15  C   UNL     1     -22.811  16.291  24.669  1.00  0.00     0.041 C 
ATOM     16  O   UNL     1     -22.708  16.100  23.428  1.00  0.00    -0.550 OA
ATOM     17  O   UNL     1     -21.758  15.949  25.508  1.00  0.00    -0.550 OA
ENDBRANCH  14  15
ENDBRANCH  13  14
ENDBRANCH  12  13
ENDBRANCH  11  12
ENDBRANCH  10  11
ENDBRANCH   9  10
ENDBRANCH   8   9
ENDBRANCH   7   8
ENDBRANCH   6   7
ENDBRANCH   5   6
ENDBRANCH   4   5
ENDBRANCH   3   4
ENDBRANCH   2   3
ENDBRANCH   1   2
BRANCH   1  18
ATOM     18  C   UNL     1     -30.740  17.335  22.358  1.00  0.00     0.000 C 
BRANCH  18  19
ATOM     19  C   UNL     1     -32.091  16.613  22.272  1.00  0.00     0.000 C 
BRANCH  19  20
ATOM     20  C   UNL     1     -33.126  17.258  23.207  1.00  0.00     0.000 C 
BRANCH  20  21
ATOM     21  C   UNL     1     -34.061  16.228  23.861  1.00  0.00     0.000 C 
BRANCH  21  22
ATOM     22  C   UNL     1     -33.699  15.853  25.310  1.00  0.00     0.000 C 
BRANCH  22  23
ATOM     23  C   UNL     1     -33.304  14.371  25.490  1.00  0.00     0.000 C 
BRANCH  23  24
ATOM     24  C   UNL     1     -31.784  14.156  25.393  1.00  0.00    -0.000 C 
BRANCH  24  25
ATOM     25  C   UNL     1     -30.991  15.450  25.638  1.00  0.00    -0.000 C 
BRANCH  25  26
ATOM     26  C   UNL     1     -30.135  15.382  26.916  1.00  0.00    -0.000 C 
BRANCH  26  27
ATOM     27  C   UNL     1     -29.625  13.962  27.212  1.00  0.00    -0.000 C 
BRANCH  27  28
ATOM     28  C   UNL     1     -28.278  13.666  26.530  1.00  0.00    -0.000 C 
BRANCH  28  29
ATOM     29  C   UNL     1     -28.316  12.408  25.645  1.00  0.00    -0.000 C 
BRANCH  29  30
ATOM     30  C   UNL     1     -27.460  12.479  24.368  1.00  0.00    -0.000 C 
BRANCH  30  31
ATOM     31  C   UNL     1     -28.278  12.281  23.083  1.00  0.00    -0.003 C 
ATOM     32  C   UNL     1     -29.335  13.371  22.932  1.00  0.00     0.004 C 
ENDBRANCH  30  31
ENDBRANCH  29  30
ENDBRANCH  28  29
ENDBRANCH  27  28
ENDBRANCH  26  27
ENDBRANCH  25  26
ENDBRANCH  24  25
ENDBRANCH  23  24
ENDBRANCH  22  23
ENDBRANCH  21  22
ENDBRANCH  20  21
ENDBRANCH  19  20
ENDBRANCH  18  19
ENDBRANCH   1  18
TORSDOF 28
ENDMDL
MODEL 6
REMARK VINA RESULT:    -3.902      2.514      6.867
REMARK INTER + INTRA:         -15.664
REMARK INTER:                 -10.343
REMARK INTRA:                  -5.320
REMARK UNBOUND:                -5.375
REMARK SMILES CCCCCCCCCCCCCCCCCCCCCCCCCCCCCC(=O)[O-]
REMARK SMILES IDX 16 1 17 2 18 3 19 4 20 5 21 6 22 7 23 8 24 9 25 10 26 11
REMARK SMILES IDX 27 12 28 13 29 14 30 15 31 16 32 17 15 18 14 19 13 20 12 21
REMARK SMILES IDX 11 22 10 23 9 24 8 25 7 26 6 27 5 28 4 29 3 30 2 31 1 32
REMARK H PARENT
REMARK Flexibility Score: inf
ROOT
ATOM      1  C   UNL     1     -31.700  17.822  22.981  1.00  0.00     0.000 C 
ENDROOT
BRANCH   1   2
ATOM      2  C   UNL     1     -32.611  16.601  22.755  1.00  0.00     0.000 C 
BRANCH   2   3
ATOM      3  C   UNL     1     -33.955  16.641  23.506  1.00  0.00     0.000 C 
BRANCH   3   4
ATOM      4  C   UNL     1     -34.065  15.689  24.715  1.00  0.00     0.000 C 
BRANCH   4   5
ATOM      5  C   UNL     1     -32.725  15.428  25.435  1.00  0.00     0.000 C 
BRANCH   5   6
ATOM      6  C   UNL     1     -32.745  14.138  26.273  1.00  0.00     0.000 C 
BRANCH   6   7
ATOM      7  C   UNL     1     -31.793  14.202  27.478  1.00  0.00     0.000 C 
BRANCH   7   8
ATOM      8  C   UNL     1     -30.567  13.286  27.309  1.00  0.00     0.000 C 
BRANCH   8   9
ATOM      9  C   UNL     1     -29.247  14.072  27.265  1.00  0.00     0.000 C 
BRANCH   9  10
ATOM     10  C   UNL     1     -28.829  14.449  25.832  1.00  0.00     0.000 C 
BRANCH  10  11
ATOM     11  C   UNL     1     -28.141  13.291  25.093  1.00  0.00     0.000 C 
BRANCH  11  12
ATOM     12  C   UNL     1     -28.888  12.881  23.812  1.00  0.00     0.000 C 
BRANCH  12  13
ATOM     13  C   UNL     1     -30.000  13.878  23.428  1.00  0.00     0.006 C 
BRANCH  13  14
ATOM     14  C   UNL     1     -31.088  13.273  22.527  1.00  0.00     0.053 C 
BRANCH  14  15
ATOM     15  C   UNL     1     -30.739  13.358  21.074  1.00  0.00     0.041 C 
ATOM     16  O   UNL     1     -29.942  12.527  20.563  1.00  0.00    -0.550 OA
ATOM     17  O   UNL     1     -31.303  14.349  20.279  1.00  0.00    -0.550 OA
ENDBRANCH  14  15
ENDBRANCH  13  14
ENDBRANCH  12  13
ENDBRANCH  11  12
ENDBRANCH  10  11
ENDBRANCH   9  10
ENDBRANCH   8   9
ENDBRANCH   7   8
ENDBRANCH   6   7
ENDBRANCH   5   6
ENDBRANCH   4   5
ENDBRANCH   3   4
ENDBRANCH   2   3
ENDBRANCH   1   2
BRANCH   1  18
ATOM     18  C   UNL     1     -30.217  17.447  23.123  1.00  0.00     0.000 C 
BRANCH  18  19
ATOM     19  C   UNL     1     -29.397  18.027  21.964  1.00  0.00     0.000 C 
BRANCH  19  20
ATOM     20  C   UNL     1     -29.363  17.062  20.769  1.00  0.00     0.000 C 
BRANCH  20  21
ATOM     21  C   UNL     1     -28.879  17.734  19.474  1.00  0.00     0.000 C 
BRANCH  21  22
ATOM     22  C   UNL     1     -28.971  16.854  18.214  1.00  0.00     0.000 C 
BRANCH  22  23
ATOM     23  C   UNL     1     -28.361  15.448  18.391  1.00  0.00     0.000 C 
BRANCH  23  24
ATOM     24  C   UNL     1     -26.837  15.442  18.181  1.00  0.00    -0.000 C 
BRANCH  24  25
ATOM     25  C   UNL     1     -26.065  15.223  19.491  1.00  0.00    -0.000 C 
BRANCH  25  26
ATOM     26  C   UNL     1     -26.846  14.358  20.497  1.00  0.00    -0.000 C 
BRANCH  26  27
ATOM     27  C   UNL     1     -26.413  14.605  21.952  1.00  0.00    -0.000 C 
BRANCH  27  28
ATOM     28  C   UNL     1     -26.196  16.098  22.255  1.00  0.00    -0.000 C 
BRANCH  28  29
ATOM     29  C   UNL     1     -26.549  16.473  23.706  1.00  0.00    -0.000 C 
BRANCH  29  30
ATOM     30  C   UNL     1     -25.592  15.921  24.776  1.00  0.00    -0.000 C 
BRANCH  30  31
ATOM     31  C   UNL     1     -24.392  16.843  25.044  1.00  0.00    -0.003 C 
ATOM     32  C   UNL     1     -23.836  16.626  26.448  1.00  0.00     0.004 C 
ENDBRANCH  30  31
ENDBRANCH  29  30
ENDBRANCH  28  29
ENDBRANCH  27  28
ENDBRANCH  26  27
ENDBRANCH  25  26
ENDBRANCH  24  25
ENDBRANCH  23  24
ENDBRANCH  22  23
ENDBRANCH  21  22
ENDBRANCH  20  21
ENDBRANCH  19  20
ENDBRANCH  18  19
ENDBRANCH   1  18
TORSDOF 28
ENDMDL
MODEL 7
REMARK VINA RESULT:    -3.898      2.758      6.029
REMARK INTER + INTRA:         -15.654
REMARK INTER:                  -9.727
REMARK INTRA:                  -5.927
REMARK UNBOUND:                -5.375
REMARK SMILES CCCCCCCCCCCCCCCCCCCCCCCCCCCCCC(=O)[O-]
REMARK SMILES IDX 16 1 17 2 18 3 19 4 20 5 21 6 22 7 23 8 24 9 25 10 26 11
REMARK SMILES IDX 27 12 28 13 29 14 30 15 31 16 32 17 15 18 14 19 13 20 12 21
REMARK SMILES IDX 11 22 10 23 9 24 8 25 7 26 6 27 5 28 4 29 3 30 2 31 1 32
REMARK H PARENT
REMARK Flexibility Score: inf
ROOT
ATOM      1  C   UNL     1     -32.479  13.696  25.206  1.00  0.00     0.000 C 
ENDROOT
BRANCH   1   2
ATOM      2  C   UNL     1     -32.673  14.422  26.550  1.00  0.00     0.000 C 
BRANCH   2   3
ATOM      3  C   UNL     1     -31.514  14.262  27.552  1.00  0.00     0.000 C 
BRANCH   3   4
ATOM      4  C   UNL     1     -30.194  14.950  27.149  1.00  0.00     0.000 C 
BRANCH   4   5
ATOM      5  C   UNL     1     -28.976  14.003  27.111  1.00  0.00     0.000 C 
BRANCH   5   6
ATOM      6  C   UNL     1     -29.318  12.621  26.527  1.00  0.00     0.000 C 
BRANCH   6   7
ATOM      7  C   UNL     1     -28.755  12.423  25.111  1.00  0.00     0.000 C 
BRANCH   7   8
ATOM      8  C   UNL     1     -27.502  11.528  25.095  1.00  0.00     0.000 C 
BRANCH   8   9
ATOM      9  C   UNL     1     -26.656  11.722  23.828  1.00  0.00     0.000 C 
BRANCH   9  10
ATOM     10  C   UNL     1     -25.190  11.294  24.022  1.00  0.00     0.000 C 
BRANCH  10  11
ATOM     11  C   UNL     1     -24.245  11.941  22.998  1.00  0.00     0.000 C 
BRANCH  11  12
ATOM     12  C   UNL     1     -23.061  12.666  23.661  1.00  0.00     0.000 C 
BRANCH  12  13
ATOM     13  C   UNL     1     -23.230  12.805  25.188  1.00  0.00     0.006 C 
BRANCH  13  14
ATOM     14  C   UNL     1     -23.265  14.261  25.676  1.00  0.00     0.053 C 
BRANCH  14  15
ATOM     15  C   UNL     1     -24.123  14.436  26.890  1.00  0.00     0.041 C 
ATOM     16  O   UNL     1     -23.650  14.970  27.929  1.00  0.00    -0.550 OA
ATOM     17  O   UNL     1     -25.448  14.022  26.872  1.00  0.00    -0.550 OA
ENDBRANCH  14  15
ENDBRANCH  13  14
ENDBRANCH  12  13
ENDBRANCH  11  12
ENDBRANCH  10  11
ENDBRANCH   9  10
ENDBRANCH   8   9
ENDBRANCH   7   8
ENDBRANCH   6   7
ENDBRANCH   5   6
ENDBRANCH   4   5
ENDBRANCH   3   4
ENDBRANCH   2   3
ENDBRANCH   1   2
BRANCH   1  18
ATOM     18  C   UNL     1     -32.668  14.619  23.993  1.00  0.00     0.000 C 
BRANCH  18  19
ATOM     19  C   UNL     1     -32.339  16.071  24.359  1.00  0.00     0.000 C 
BRANCH  19  20
ATOM     20  C   UNL     1     -31.073  16.554  23.633  1.00  0.00     0.000 C 
BRANCH  20  21
ATOM     21  C   UNL     1     -30.369  15.432  22.854  1.00  0.00     0.000 C 
BRANCH  21  22
ATOM     22  C   UNL     1     -28.887  15.221  23.218  1.00  0.00     0.000 C 
BRANCH  22  23
ATOM     23  C   UNL     1     -28.342  16.251  24.231  1.00  0.00     0.000 C 
BRANCH  23  24
ATOM     24  C   UNL     1     -26.807  16.225  24.321  1.00  0.00    -0.000 C 
BRANCH  24  25
ATOM     25  C   UNL     1     -26.185  15.135  23.433  1.00  0.00    -0.000 C 
BRANCH  25  26
ATOM     26  C   UNL     1     -24.949  15.636  22.665  1.00  0.00    -0.000 C 
BRANCH  26  27
ATOM     27  C   UNL     1     -24.924  15.154  21.205  1.00  0.00    -0.000 C 
BRANCH  27  28
ATOM     28  C   UNL     1     -26.331  15.071  20.588  1.00  0.00    -0.000 C 
BRANCH  28  29
ATOM     29  C   UNL     1     -26.680  16.294  19.721  1.00  0.00    -0.000 C 
BRANCH  29  30
ATOM     30  C   UNL     1     -28.146  16.374  19.262  1.00  0.00    -0.000 C 
BRANCH  30  31
ATOM     31  C   UNL     1     -28.867  17.633  19.765  1.00  0.00    -0.003 C 
ATOM     32  C   UNL     1     -28.229  18.156  21.049  1.00  0.00     0.004 C 
ENDBRANCH  30  31
ENDBRANCH  29  30
ENDBRANCH  28  29
ENDBRANCH  27  28
ENDBRANCH  26  27
ENDBRANCH  25  26
ENDBRANCH  24  25
ENDBRANCH  23  24
ENDBRANCH  22  23
ENDBRANCH  21  22
ENDBRANCH  20  21
ENDBRANCH  19  20
ENDBRANCH  18  19
ENDBRANCH   1  18
TORSDOF 28
ENDMDL
MODEL 8
REMARK VINA RESULT:    -3.888      4.177      9.306
REMARK INTER + INTRA:         -15.629
REMARK INTER:                 -10.713
REMARK INTRA:                  -4.915
REMARK UNBOUND:                -5.375
REMARK SMILES CCCCCCCCCCCCCCCCCCCCCCCCCCCCCC(=O)[O-]
REMARK SMILES IDX 16 1 17 2 18 3 19 4 20 5 21 6 22 7 23 8 24 9 25 10 26 11
REMARK SMILES IDX 27 12 28 13 29 14 30 15 31 16 32 17 15 18 14 19 13 20 12 21
REMARK SMILES IDX 11 22 10 23 9 24 8 25 7 26 6 27 5 28 4 29 3 30 2 31 1 32
REMARK H PARENT
REMARK Flexibility Score: inf
ROOT
ATOM      1  C   UNL     1     -28.137  13.897  20.020  1.00  0.00     0.000 C 
ENDROOT
BRANCH   1   2
ATOM      2  C   UNL     1     -28.205  15.433  19.932  1.00  0.00     0.000 C 
BRANCH   2   3
ATOM      3  C   UNL     1     -27.801  16.027  18.569  1.00  0.00     0.000 C 
BRANCH   3   4
ATOM      4  C   UNL     1     -28.949  16.186  17.552  1.00  0.00     0.000 C 
BRANCH   4   5
ATOM      5  C   UNL     1     -28.858  15.229  16.344  1.00  0.00     0.000 C 
BRANCH   5   6
ATOM      6  C   UNL     1     -29.638  13.921  16.566  1.00  0.00     0.000 C 
BRANCH   6   7
ATOM      7  C   UNL     1     -31.126  14.164  16.864  1.00  0.00     0.000 C 
BRANCH   7   8
ATOM      8  C   UNL     1     -31.989  12.913  16.617  1.00  0.00     0.000 C 
BRANCH   8   9
ATOM      9  C   UNL     1     -33.263  13.225  15.818  1.00  0.00     0.000 C 
BRANCH   9  10
ATOM     10  C   UNL     1     -33.088  12.989  14.307  1.00  0.00     0.000 C 
BRANCH  10  11
ATOM     11  C   UNL     1     -32.720  14.272  13.547  1.00  0.00     0.000 C 
BRANCH  11  12
ATOM     12  C   UNL     1     -31.250  14.289  13.091  1.00  0.00     0.000 C 
BRANCH  12  13
ATOM     13  C   UNL     1     -30.769  12.912  12.589  1.00  0.00     0.006 C 
BRANCH  13  14
ATOM     14  C   UNL     1     -29.518  12.394  13.315  1.00  0.00     0.053 C 
BRANCH  14  15
ATOM     15  C   UNL     1     -29.414  10.901  13.279  1.00  0.00     0.041 C 
ATOM     16  O   UNL     1     -28.353  10.348  12.886  1.00  0.00    -0.550 OA
ATOM     17  O   UNL     1     -30.486  10.118  13.689  1.00  0.00    -0.550 OA
ENDBRANCH  14  15
ENDBRANCH  13  14
ENDBRANCH  12  13
ENDBRANCH  11  12
ENDBRANCH  10  11
ENDBRANCH   9  10
ENDBRANCH   8   9
ENDBRANCH   7   8
ENDBRANCH   6   7
ENDBRANCH   5   6
ENDBRANCH   4   5
ENDBRANCH   3   4
ENDBRANCH   2   3
ENDBRANCH   1   2
BRANCH   1  18
ATOM     18  C   UNL     1     -29.516  13.245  20.205  1.00  0.00     0.000 C 
BRANCH  18  19
ATOM     19  C   UNL     1     -30.610  14.313  20.327  1.00  0.00     0.000 C 
BRANCH  19  20
ATOM     20  C   UNL     1     -32.003  13.673  20.430  1.00  0.00     0.000 C 
BRANCH  20  21
ATOM     21  C   UNL     1     -33.099  14.687  20.794  1.00  0.00     0.000 C 
BRANCH  21  22
ATOM     22  C   UNL     1     -33.252  14.963  22.301  1.00  0.00     0.000 C 
BRANCH  22  23
ATOM     23  C   UNL     1     -33.161  16.459  22.672  1.00  0.00     0.000 C 
BRANCH  23  24
ATOM     24  C   UNL     1     -31.723  16.999  22.574  1.00  0.00    -0.000 C 
BRANCH  24  25
ATOM     25  C   UNL     1     -30.864  16.603  23.785  1.00  0.00    -0.000 C 
BRANCH  25  26
ATOM     26  C   UNL     1     -29.401  16.319  23.401  1.00  0.00    -0.000 C 
BRANCH  26  27
ATOM     27  C   UNL     1     -29.013  14.844  23.599  1.00  0.00    -0.000 C 
BRANCH  27  28
ATOM     28  C   UNL     1     -28.284  14.601  24.931  1.00  0.00    -0.000 C 
BRANCH  28  29
ATOM     29  C   UNL     1     -29.020  13.606  25.846  1.00  0.00    -0.000 C 
BRANCH  29  30
ATOM     30  C   UNL     1     -29.503  14.184  27.187  1.00  0.00    -0.000 C 
BRANCH  30  31
ATOM     31  C   UNL     1     -30.892  14.834  27.098  1.00  0.00    -0.003 C 
ATOM     32  C   UNL     1     -31.879  13.924  26.373  1.00  0.00     0.004 C 
ENDBRANCH  30  31
ENDBRANCH  29  30
ENDBRANCH  28  29
ENDBRANCH  27  28
ENDBRANCH  26  27
ENDBRANCH  25  26
ENDBRANCH  24  25
ENDBRANCH  23  24
ENDBRANCH  22  23
ENDBRANCH  21  22
ENDBRANCH  20  21
ENDBRANCH  19  20
ENDBRANCH  18  19
ENDBRANCH   1  18
TORSDOF 28
ENDMDL
MODEL 9
REMARK VINA RESULT:    -3.871      3.681      8.001
REMARK INTER + INTRA:         -15.582
REMARK INTER:                 -10.676
REMARK INTRA:                  -4.906
REMARK UNBOUND:                -5.375
REMARK SMILES CCCCCCCCCCCCCCCCCCCCCCCCCCCCCC(=O)[O-]
REMARK SMILES IDX 16 1 17 2 18 3 19 4 20 5 21 6 22 7 23 8 24 9 25 10 26 11
REMARK SMILES IDX 27 12 28 13 29 14 30 15 31 16 32 17 15 18 14 19 13 20 12 21
REMARK SMILES IDX 11 22 10 23 9 24 8 25 7 26 6 27 5 28 4 29 3 30 2 31 1 32
REMARK H PARENT
REMARK Flexibility Score: inf
ROOT
ATOM      1  C   UNL     1     -33.739  16.267  22.731  1.00  0.00     0.000 C 
ENDROOT
BRANCH   1   2
ATOM      2  C   UNL     1     -33.574  14.777  22.378  1.00  0.00     0.000 C 
BRANCH   2   3
ATOM      3  C   UNL     1     -32.900  14.498  21.021  1.00  0.00     0.000 C 
BRANCH   3   4
ATOM      4  C   UNL     1     -31.512  15.142  20.829  1.00  0.00     0.000 C 
BRANCH   4   5
ATOM      5  C   UNL     1     -30.516  14.846  21.971  1.00  0.00     0.000 C 
BRANCH   5   6
ATOM      6  C   UNL     1     -29.813  16.113  22.487  1.00  0.00     0.000 C 
BRANCH   6   7
ATOM      7  C   UNL     1     -30.094  17.343  21.609  1.00  0.00     0.000 C 
BRANCH   7   8
ATOM      8  C   UNL     1     -28.828  17.868  20.907  1.00  0.00     0.000 C 
BRANCH   8   9
ATOM      9  C   UNL     1     -28.864  17.646  19.387  1.00  0.00     0.000 C 
BRANCH   9  10
ATOM     10  C   UNL     1     -27.979  16.470  18.938  1.00  0.00     0.000 C 
BRANCH  10  11
ATOM     11  C   UNL     1     -28.416  15.883  17.587  1.00  0.00     0.000 C 
BRANCH  11  12
ATOM     12  C   UNL     1     -29.918  15.554  17.543  1.00  0.00     0.000 C 
BRANCH  12  13
ATOM     13  C   UNL     1     -30.286  14.610  16.381  1.00  0.00     0.006 C 
BRANCH  13  14
ATOM     14  C   UNL     1     -29.480  14.868  15.098  1.00  0.00     0.053 C 
BRANCH  14  15
ATOM     15  C   UNL     1     -29.919  13.995  13.963  1.00  0.00     0.041 C 
ATOM     16  O   UNL     1     -30.673  14.455  13.065  1.00  0.00    -0.550 OA
ATOM     17  O   UNL     1     -29.486  12.677  13.890  1.00  0.00    -0.550 OA
ENDBRANCH  14  15
ENDBRANCH  13  14
ENDBRANCH  12  13
ENDBRANCH  11  12
ENDBRANCH  10  11
ENDBRANCH   9  10
ENDBRANCH   8   9
ENDBRANCH   7   8
ENDBRANCH   6   7
ENDBRANCH   5   6
ENDBRANCH   4   5
ENDBRANCH   3   4
ENDBRANCH   2   3
ENDBRANCH   1   2
BRANCH   1  18
ATOM     18  C   UNL     1     -33.539  16.555  24.226  1.00  0.00     0.000 C 
BRANCH  18  19
ATOM     19  C   UNL     1     -33.371  15.250  25.013  1.00  0.00     0.000 C 
BRANCH  19  20
ATOM     20  C   UNL     1     -31.996  15.186  25.696  1.00  0.00     0.000 C 
BRANCH  20  21
ATOM     21  C   UNL     1     -32.083  14.779  27.175  1.00  0.00     0.000 C 
BRANCH  21  22
ATOM     22  C   UNL     1     -30.807  14.135  27.747  1.00  0.00     0.000 C 
BRANCH  22  23
ATOM     23  C   UNL     1     -30.313  12.912  26.944  1.00  0.00     0.000 C 
BRANCH  23  24
ATOM     24  C   UNL     1     -28.840  13.048  26.520  1.00  0.00    -0.000 C 
BRANCH  24  25
ATOM     25  C   UNL     1     -28.686  13.705  25.139  1.00  0.00    -0.000 C 
BRANCH  25  26
ATOM     26  C   UNL     1     -27.951  15.055  25.209  1.00  0.00    -0.000 C 
BRANCH  26  27
ATOM     27  C   UNL     1     -26.425  14.906  25.079  1.00  0.00    -0.000 C 
BRANCH  27  28
ATOM     28  C   UNL     1     -25.792  16.035  24.248  1.00  0.00    -0.000 C 
BRANCH  28  29
ATOM     29  C   UNL     1     -26.168  15.968  22.757  1.00  0.00    -0.000 C 
BRANCH  29  30
ATOM     30  C   UNL     1     -25.784  14.660  22.044  1.00  0.00    -0.000 C 
BRANCH  30  31
ATOM     31  C   UNL     1     -26.987  13.944  21.411  1.00  0.00    -0.003 C 
ATOM     32  C   UNL     1     -27.136  12.528  21.962  1.00  0.00     0.004 C 
ENDBRANCH  30  31
ENDBRANCH  29  30
ENDBRANCH  28  29
ENDBRANCH  27  28
ENDBRANCH  26  27
ENDBRANCH  25  26
ENDBRANCH  24  25
ENDBRANCH  23  24
ENDBRANCH  22  23
ENDBRANCH  21  22
ENDBRANCH  20  21
ENDBRANCH  19  20
ENDBRANCH  18  19
ENDBRANCH   1  18
TORSDOF 28
ENDMDL
