MODEL 1
REMARK VINA RESULT:    -5.026      0.000      0.000
REMARK INTER + INTRA:         -10.962
REMARK INTER:                  -9.140
REMARK INTRA:                  -1.823
REMARK UNBOUND:                -1.823
REMARK SMILES CCCCCCCCCCCCCCCC(=O)[O-]
REMARK SMILES IDX 9 1 10 2 11 3 12 4 13 5 14 6 15 7 16 8 17 9 18 10 8 11 7 12
REMARK SMILES IDX 6 13 5 14 4 15 3 16 2 17 1 18
REMARK H PARENT
REMARK Flexibility Score: inf
ROOT
ATOM      1  C   UNL     1      -3.246  10.837 -10.558  1.00  0.00     0.000 C 
ENDROOT
BRANCH   1   2
ATOM      2  C   UNL     1      -3.054   9.977  -9.300  1.00  0.00     0.000 C 
BRANCH   2   3
ATOM      3  C   UNL     1      -2.839  10.859  -8.061  1.00  0.00     0.000 C 
BRANCH   3   4
ATOM      4  C   UNL     1      -2.103  12.170  -8.385  1.00  0.00     0.000 C 
BRANCH   4   5
ATOM      5  C   UNL     1      -0.738  12.271  -7.682  1.00  0.00     0.000 C 
BRANCH   5   6
ATOM      6  C   UNL     1       0.407  11.698  -8.533  1.00  0.00     0.006 C 
BRANCH   6   7
ATOM      7  C   UNL     1       0.890  10.330  -8.033  1.00  0.00     0.053 C 
BRANCH   7   8
ATOM      8  C   UNL     1       2.320  10.110  -8.417  1.00  0.00     0.041 C 
ATOM      9  O   UNL     1       2.604   9.511  -9.487  1.00  0.00    -0.550 OA
ATOM     10  O   UNL     1       3.338  10.610  -7.615  1.00  0.00    -0.550 OA
ENDBRANCH   7   8
ENDBRANCH   6   7
ENDBRANCH   5   6
ENDBRANCH   4   5
ENDBRANCH   3   4
ENDBRANCH   2   3
ENDBRANCH   1   2
BRANCH   1  11
ATOM     11  C   UNL     1      -4.651  10.699 -11.174  1.00  0.00     0.000 C 
BRANCH  11  12
ATOM     12  C   UNL     1      -5.776  11.397 -10.388  1.00  0.00    -0.000 C 
BRANCH  12  13
ATOM     13  C   UNL     1      -6.940  10.456 -10.044  1.00  0.00    -0.000 C 
BRANCH  13  14
ATOM     14  C   UNL     1      -6.719   9.783  -8.682  1.00  0.00    -0.000 C 
BRANCH  14  15
ATOM     15  C   UNL     1      -6.333   8.307  -8.855  1.00  0.00    -0.000 C 
BRANCH  15  16
ATOM     16  C   UNL     1      -7.020   7.653 -10.064  1.00  0.00    -0.000 C 
BRANCH  16  17
ATOM     17  C   UNL     1      -6.199   6.499 -10.659  1.00  0.00    -0.003 C 
ATOM     18  C   UNL     1      -4.906   7.012 -11.287  1.00  0.00     0.004 C 
ENDBRANCH  16  17
ENDBRANCH  15  16
ENDBRANCH  14  15
ENDBRANCH  13  14
ENDBRANCH  12  13
ENDBRANCH  11  12
ENDBRANCH   1  11
TORSDOF 14
ENDMDL
MODEL 2
REMARK VINA RESULT:    -4.979      1.705      2.922
REMARK INTER + INTRA:         -10.876
REMARK INTER:                  -8.857
REMARK INTRA:                  -2.019
REMARK UNBOUND:                -1.823
REMARK SMILES CCCCCCCCCCCCCCCC(=O)[O-]
REMARK SMILES IDX 9 1 10 2 11 3 12 4 13 5 14 6 15 7 16 8 17 9 18 10 8 11 7 12
REMARK SMILES IDX 6 13 5 14 4 15 3 16 2 17 1 18
REMARK H PARENT
REMARK Flexibility Score: inf
ROOT
ATOM      1  C   UNL     1      -4.551   9.453 -10.974  1.00  0.00     0.000 C 
ENDROOT
BRANCH   1   2
ATOM      2  C   UNL     1      -3.359   9.281 -10.021  1.00  0.00     0.000 C 
BRANCH   2   3
ATOM      3  C   UNL     1      -2.597  10.604  -9.852  1.00  0.00     0.000 C 
BRANCH   3   4
ATOM      4  C   UNL     1      -1.611  10.575  -8.673  1.00  0.00     0.000 C 
BRANCH   4   5
ATOM      5  C   UNL     1      -0.799  11.877  -8.548  1.00  0.00     0.000 C 
BRANCH   5   6
ATOM      6  C   UNL     1       0.692  11.618  -8.282  1.00  0.00     0.006 C 
BRANCH   6   7
ATOM      7  C   UNL     1       1.103  10.168  -8.573  1.00  0.00     0.053 C 
BRANCH   7   8
ATOM      8  C   UNL     1       2.584  10.074  -8.762  1.00  0.00     0.041 C 
ATOM      9  O   UNL     1       3.365  10.630  -7.945  1.00  0.00    -0.550 OA
ATOM     10  O   UNL     1       3.104   9.332  -9.815  1.00  0.00    -0.550 OA
ENDBRANCH   7   8
ENDBRANCH   6   7
ENDBRANCH   5   6
ENDBRANCH   4   5
ENDBRANCH   3   4
ENDBRANCH   2   3
ENDBRANCH   1   2
BRANCH   1  11
ATOM     11  C   UNL     1      -4.979  10.924 -11.144  1.00  0.00     0.000 C 
BRANCH  11  12
ATOM     12  C   UNL     1      -6.441  11.223 -10.769  1.00  0.00    -0.000 C 
BRANCH  12  13
ATOM     13  C   UNL     1      -6.572  12.256  -9.640  1.00  0.00    -0.000 C 
BRANCH  13  14
ATOM     14  C   UNL     1      -5.230  12.949  -9.372  1.00  0.00    -0.000 C 
BRANCH  14  15
ATOM     15  C   UNL     1      -4.825  12.811  -7.897  1.00  0.00    -0.000 C 
BRANCH  15  16
ATOM     16  C   UNL     1      -5.459  11.584  -7.222  1.00  0.00    -0.000 C 
BRANCH  16  17
ATOM     17  C   UNL     1      -4.413  10.632  -6.622  1.00  0.00    -0.003 C 
ATOM     18  C   UNL     1      -4.944   9.204  -6.555  1.00  0.00     0.004 C 
ENDBRANCH  16  17
ENDBRANCH  15  16
ENDBRANCH  14  15
ENDBRANCH  13  14
ENDBRANCH  12  13
ENDBRANCH  11  12
ENDBRANCH   1  11
TORSDOF 14
ENDMDL
MODEL 3
REMARK VINA RESULT:    -4.885      1.253      2.099
REMARK INTER + INTRA:         -10.706
REMARK INTER:                  -9.062
REMARK INTRA:                  -1.644
REMARK UNBOUND:                -1.823
REMARK SMILES CCCCCCCCCCCCCCCC(=O)[O-]
REMARK SMILES IDX 9 1 10 2 11 3 12 4 13 5 14 6 15 7 16 8 17 9 18 10 8 11 7 12
REMARK SMILES IDX 6 13 5 14 4 15 3 16 2 17 1 18
REMARK H PARENT
REMARK Flexibility Score: inf
ROOT
ATOM      1  C   UNL     1      -4.606  12.656  -8.002  1.00  0.00     0.000 C 
ENDROOT
BRANCH   1   2
ATOM      2  C   UNL     1      -4.884  11.364  -7.220  1.00  0.00     0.000 C 
BRANCH   2   3
ATOM      3  C   UNL     1      -3.718  10.374  -7.363  1.00  0.00     0.000 C 
BRANCH   3   4
ATOM      4  C   UNL     1      -2.344  11.062  -7.300  1.00  0.00     0.000 C 
BRANCH   4   5
ATOM      5  C   UNL     1      -1.491  10.795  -8.553  1.00  0.00     0.000 C 
BRANCH   5   6
ATOM      6  C   UNL     1      -0.003  11.108  -8.330  1.00  0.00     0.006 C 
BRANCH   6   7
ATOM      7  C   UNL     1       0.855   9.843  -8.190  1.00  0.00     0.053 C 
BRANCH   7   8
ATOM      8  C   UNL     1       2.298  10.164  -8.420  1.00  0.00     0.041 C 
ATOM      9  O   UNL     1       2.940  10.839  -7.573  1.00  0.00    -0.550 OA
ATOM     10  O   UNL     1       2.947   9.675  -9.547  1.00  0.00    -0.550 OA
ENDBRANCH   7   8
ENDBRANCH   6   7
ENDBRANCH   5   6
ENDBRANCH   4   5
ENDBRANCH   3   4
ENDBRANCH   2   3
ENDBRANCH   1   2
BRANCH   1  11
ATOM     11  C   UNL     1      -5.173  12.627  -9.434  1.00  0.00     0.000 C 
BRANCH  11  12
ATOM     12  C   UNL     1      -6.362  11.672  -9.643  1.00  0.00    -0.000 C 
BRANCH  12  13
ATOM     13  C   UNL     1      -6.171  10.730 -10.841  1.00  0.00    -0.000 C 
BRANCH  13  14
ATOM     14  C   UNL     1      -4.694  10.647 -11.244  1.00  0.00    -0.000 C 
BRANCH  14  15
ATOM     15  C   UNL     1      -4.097   9.283 -10.867  1.00  0.00    -0.000 C 
BRANCH  15  16
ATOM     16  C   UNL     1      -5.173   8.243 -10.516  1.00  0.00    -0.000 C 
BRANCH  16  17
ATOM     17  C   UNL     1      -5.202   7.066 -11.503  1.00  0.00    -0.003 C 
ATOM     18  C   UNL     1      -6.225   6.017 -11.076  1.00  0.00     0.004 C 
ENDBRANCH  16  17
ENDBRANCH  15  16
ENDBRANCH  14  15
ENDBRANCH  13  14
ENDBRANCH  12  13
ENDBRANCH  11  12
ENDBRANCH   1  11
TORSDOF 14
ENDMDL
MODEL 4
REMARK VINA RESULT:    -4.830      1.551      3.122
REMARK INTER + INTRA:         -10.605
REMARK INTER:                  -8.571
REMARK INTRA:                  -2.034
REMARK UNBOUND:                -1.823
REMARK SMILES CCCCCCCCCCCCCCCC(=O)[O-]
REMARK SMILES IDX 9 1 10 2 11 3 12 4 13 5 14 6 15 7 16 8 17 9 18 10 8 11 7 12
REMARK SMILES IDX 6 13 5 14 4 15 3 16 2 17 1 18
REMARK H PARENT
REMARK Flexibility Score: inf
ROOT
ATOM      1  C   UNL     1      -3.031  10.181  -9.103  1.00  0.00     0.000 C 
ENDROOT
BRANCH   1   2
ATOM      2  C   UNL     1      -2.352  11.504  -9.489  1.00  0.00     0.000 C 
BRANCH   2   3
ATOM      3  C   UNL     1      -2.443  12.522  -8.342  1.00  0.00     0.000 C 
BRANCH   3   4
ATOM      4  C   UNL     1      -1.320  12.353  -7.306  1.00  0.00     0.000 C 
BRANCH   4   5
ATOM      5  C   UNL     1       0.067  12.203  -7.956  1.00  0.00     0.000 C 
BRANCH   5   6
ATOM      6  C   UNL     1       0.805  10.940  -7.486  1.00  0.00     0.006 C 
BRANCH   6   7
ATOM      7  C   UNL     1       1.098   9.963  -8.632  1.00  0.00     0.053 C 
BRANCH   7   8
ATOM      8  C   UNL     1       2.572   9.865  -8.869  1.00  0.00     0.041 C 
ATOM      9  O   UNL     1       3.010   9.361  -9.937  1.00  0.00    -0.550 OA
ATOM     10  O   UNL     1       3.462  10.374  -7.932  1.00  0.00    -0.550 OA
ENDBRANCH   7   8
ENDBRANCH   6   7
ENDBRANCH   5   6
ENDBRANCH   4   5
ENDBRANCH   3   4
ENDBRANCH   2   3
ENDBRANCH   1   2
BRANCH   1  11
ATOM     11  C   UNL     1      -3.587   9.413 -10.317  1.00  0.00     0.000 C 
BRANCH  11  12
ATOM     12  C   UNL     1      -5.118   9.458 -10.468  1.00  0.00    -0.000 C 
BRANCH  12  13
ATOM     13  C   UNL     1      -5.630  10.810 -10.986  1.00  0.00    -0.000 C 
BRANCH  13  14
ATOM     14  C   UNL     1      -6.543  11.484  -9.954  1.00  0.00    -0.000 C 
BRANCH  14  15
ATOM     15  C   UNL     1      -5.922  12.793  -9.443  1.00  0.00    -0.000 C 
BRANCH  15  16
ATOM     16  C   UNL     1      -6.073  12.966  -7.924  1.00  0.00    -0.000 C 
BRANCH  16  17
ATOM     17  C   UNL     1      -5.899  11.645  -7.158  1.00  0.00    -0.003 C 
ATOM     18  C   UNL     1      -5.131  11.861  -5.858  1.00  0.00     0.004 C 
ENDBRANCH  16  17
ENDBRANCH  15  16
ENDBRANCH  14  15
ENDBRANCH  13  14
ENDBRANCH  12  13
ENDBRANCH  11  12
ENDBRANCH   1  11
TORSDOF 14
ENDMDL
MODEL 5
REMARK VINA RESULT:    -4.828      3.224      6.728
REMARK INTER + INTRA:         -10.602
REMARK INTER:                  -8.770
REMARK INTRA:                  -1.832
REMARK UNBOUND:                -1.823
REMARK SMILES CCCCCCCCCCCCCCCC(=O)[O-]
REMARK SMILES IDX 9 1 10 2 11 3 12 4 13 5 14 6 15 7 16 8 17 9 18 10 8 11 7 12
REMARK SMILES IDX 6 13 5 14 4 15 3 16 2 17 1 18
REMARK H PARENT
REMARK Flexibility Score: inf
ROOT
ATOM      1  C   UNL     1      -5.028  11.767  -7.210  1.00  0.00     0.000 C 
ENDROOT
BRANCH   1   2
ATOM      2  C   UNL     1      -5.555  12.991  -7.973  1.00  0.00     0.000 C 
BRANCH   2   3
ATOM      3  C   UNL     1      -5.172  12.917  -9.459  1.00  0.00     0.000 C 
BRANCH   3   4
ATOM      4  C   UNL     1      -5.678  11.635 -10.140  1.00  0.00     0.000 C 
BRANCH   4   5
ATOM      5  C   UNL     1      -4.584  10.929 -10.960  1.00  0.00     0.000 C 
BRANCH   5   6
ATOM      6  C   UNL     1      -4.821   9.415 -11.079  1.00  0.00     0.006 C 
BRANCH   6   7
ATOM      7  C   UNL     1      -6.070   8.950 -10.318  1.00  0.00     0.053 C 
BRANCH   7   8
ATOM      8  C   UNL     1      -5.699   7.945  -9.274  1.00  0.00     0.041 C 
ATOM      9  O   UNL     1      -5.877   8.203  -8.054  1.00  0.00    -0.550 OA
ATOM     10  O   UNL     1      -5.201   6.703  -9.650  1.00  0.00    -0.550 OA
ENDBRANCH   7   8
ENDBRANCH   6   7
ENDBRANCH   5   6
ENDBRANCH   4   5
ENDBRANCH   3   4
ENDBRANCH   2   3
ENDBRANCH   1   2
BRANCH   1  11
ATOM     11  C   UNL     1      -3.493  11.644  -7.254  1.00  0.00     0.000 C 
BRANCH  11  12
ATOM     12  C   UNL     1      -2.963  10.268  -7.695  1.00  0.00    -0.000 C 
BRANCH  12  13
ATOM     13  C   UNL     1      -1.760  10.365  -8.644  1.00  0.00    -0.000 C 
BRANCH  13  14
ATOM     14  C   UNL     1      -1.153  11.774  -8.620  1.00  0.00    -0.000 C 
BRANCH  14  15
ATOM     15  C   UNL     1       0.347  11.721  -8.291  1.00  0.00    -0.000 C 
BRANCH  15  16
ATOM     16  C   UNL     1       0.930  10.305  -8.419  1.00  0.00    -0.000 C 
BRANCH  16  17
ATOM     17  C   UNL     1       2.465  10.288  -8.344  1.00  0.00    -0.003 C 
ATOM     18  C   UNL     1       3.064   9.543  -9.532  1.00  0.00     0.004 C 
ENDBRANCH  16  17
ENDBRANCH  15  16
ENDBRANCH  14  15
ENDBRANCH  13  14
ENDBRANCH  12  13
ENDBRANCH  11  12
ENDBRANCH   1  11
TORSDOF 14
ENDMDL
MODEL 6
REMARK VINA RESULT:    -4.761      1.460      2.496
REMARK INTER + INTRA:         -10.481
REMARK INTER:                  -8.452
REMARK INTRA:                  -2.029
REMARK UNBOUND:                -1.823
REMARK SMILES CCCCCCCCCCCCCCCC(=O)[O-]
REMARK SMILES IDX 9 1 10 2 11 3 12 4 13 5 14 6 15 7 16 8 17 9 18 10 8 11 7 12
REMARK SMILES IDX 6 13 5 14 4 15 3 16 2 17 1 18
REMARK H PARENT
REMARK Flexibility Score: inf
ROOT
ATOM      1  C   UNL     1      -4.988  12.716  -9.214  1.00  0.00     0.000 C 
ENDROOT
BRANCH   1   2
ATOM      2  C   UNL     1      -4.796  12.507  -7.705  1.00  0.00     0.000 C 
BRANCH   2   3
ATOM      3  C   UNL     1      -3.494  11.744  -7.419  1.00  0.00     0.000 C 
BRANCH   3   4
ATOM      4  C   UNL     1      -2.519  11.765  -8.608  1.00  0.00     0.000 C 
BRANCH   4   5
ATOM      5  C   UNL     1      -1.807  10.416  -8.813  1.00  0.00     0.000 C 
BRANCH   5   6
ATOM      6  C   UNL     1      -0.709  10.164  -7.767  1.00  0.00     0.006 C 
BRANCH   6   7
ATOM      7  C   UNL     1       0.686  10.035  -8.392  1.00  0.00     0.053 C 
BRANCH   7   8
ATOM      8  C   UNL     1       1.632  11.007  -7.760  1.00  0.00     0.041 C 
ATOM      9  O   UNL     1       1.200  12.078  -7.259  1.00  0.00    -0.550 OA
ATOM     10  O   UNL     1       2.987  10.706  -7.682  1.00  0.00    -0.550 OA
ENDBRANCH   7   8
ENDBRANCH   6   7
ENDBRANCH   5   6
ENDBRANCH   4   5
ENDBRANCH   3   4
ENDBRANCH   2   3
ENDBRANCH   1   2
BRANCH   1  11
ATOM     11  C   UNL     1      -6.331  12.167  -9.732  1.00  0.00     0.000 C 
BRANCH  11  12
ATOM     12  C   UNL     1      -6.216  11.139 -10.872  1.00  0.00    -0.000 C 
BRANCH  12  13
ATOM     13  C   UNL     1      -4.768  10.705 -11.145  1.00  0.00    -0.000 C 
BRANCH  13  14
ATOM     14  C   UNL     1      -4.598   9.195 -10.934  1.00  0.00    -0.000 C 
BRANCH  14  15
ATOM     15  C   UNL     1      -5.949   8.526 -10.639  1.00  0.00    -0.000 C 
BRANCH  15  16
ATOM     16  C   UNL     1      -6.011   7.915  -9.230  1.00  0.00    -0.000 C 
BRANCH  16  17
ATOM     17  C   UNL     1      -5.265   8.760  -8.186  1.00  0.00    -0.003 C 
ATOM     18  C   UNL     1      -5.837   8.537  -6.789  1.00  0.00     0.004 C 
ENDBRANCH  16  17
ENDBRANCH  15  16
ENDBRANCH  14  15
ENDBRANCH  13  14
ENDBRANCH  12  13
ENDBRANCH  11  12
ENDBRANCH   1  11
TORSDOF 14
ENDMDL
MODEL 7
REMARK VINA RESULT:    -4.732      2.011      3.534
REMARK INTER + INTRA:         -10.427
REMARK INTER:                  -8.282
REMARK INTRA:                  -2.145
REMARK UNBOUND:                -1.823
REMARK SMILES CCCCCCCCCCCCCCCC(=O)[O-]
REMARK SMILES IDX 9 1 10 2 11 3 12 4 13 5 14 6 15 7 16 8 17 9 18 10 8 11 7 12
REMARK SMILES IDX 6 13 5 14 4 15 3 16 2 17 1 18
REMARK H PARENT
REMARK Flexibility Score: inf
ROOT
ATOM      1  C   UNL     1      -4.154   9.388 -10.899  1.00  0.00     0.000 C 
ENDROOT
BRANCH   1   2
ATOM      2  C   UNL     1      -3.315   9.764  -9.669  1.00  0.00     0.000 C 
BRANCH   2   3
ATOM      3  C   UNL     1      -2.605  11.109  -9.881  1.00  0.00     0.000 C 
BRANCH   3   4
ATOM      4  C   UNL     1      -1.449  11.334  -8.891  1.00  0.00     0.000 C 
BRANCH   4   5
ATOM      5  C   UNL     1      -0.827  10.015  -8.400  1.00  0.00     0.000 C 
BRANCH   5   6
ATOM      6  C   UNL     1       0.576  10.212  -7.804  1.00  0.00     0.006 C 
BRANCH   6   7
ATOM      7  C   UNL     1       1.087  11.651  -7.953  1.00  0.00     0.053 C 
BRANCH   7   8
ATOM      8  C   UNL     1       1.374  12.243  -6.609  1.00  0.00     0.041 C 
ATOM      9  O   UNL     1       0.561  13.048  -6.084  1.00  0.00    -0.550 OA
ATOM     10  O   UNL     1       2.518  11.869  -5.916  1.00  0.00    -0.550 OA
ENDBRANCH   7   8
ENDBRANCH   6   7
ENDBRANCH   5   6
ENDBRANCH   4   5
ENDBRANCH   3   4
ENDBRANCH   2   3
ENDBRANCH   1   2
BRANCH   1  11
ATOM     11  C   UNL     1      -5.663   9.623 -10.694  1.00  0.00     0.000 C 
BRANCH  11  12
ATOM     12  C   UNL     1      -6.119  11.085 -10.845  1.00  0.00    -0.000 C 
BRANCH  12  13
ATOM     13  C   UNL     1      -6.595  11.705  -9.523  1.00  0.00    -0.000 C 
BRANCH  13  14
ATOM     14  C   UNL     1      -5.785  12.962  -9.182  1.00  0.00    -0.000 C 
BRANCH  14  15
ATOM     15  C   UNL     1      -4.980  12.764  -7.889  1.00  0.00    -0.000 C 
BRANCH  15  16
ATOM     16  C   UNL     1      -5.410  11.510  -7.111  1.00  0.00    -0.000 C 
BRANCH  16  17
ATOM     17  C   UNL     1      -4.269  10.913  -6.274  1.00  0.00    -0.003 C 
ATOM     18  C   UNL     1      -3.283  11.994  -5.840  1.00  0.00     0.004 C 
ENDBRANCH  16  17
ENDBRANCH  15  16
ENDBRANCH  14  15
ENDBRANCH  13  14
ENDBRANCH  12  13
ENDBRANCH  11  12
ENDBRANCH   1  11
TORSDOF 14
ENDMDL
MODEL 8
REMARK VINA RESULT:    -4.647      2.944      6.402
REMARK INTER + INTRA:         -10.273
REMARK INTER:                  -8.660
REMARK INTRA:                  -1.612
REMARK UNBOUND:                -1.823
REMARK SMILES CCCCCCCCCCCCCCCC(=O)[O-]
REMARK SMILES IDX 9 1 10 2 11 3 12 4 13 5 14 6 15 7 16 8 17 9 18 10 8 11 7 12
REMARK SMILES IDX 6 13 5 14 4 15 3 16 2 17 1 18
REMARK H PARENT
REMARK Flexibility Score: inf
ROOT
ATOM      1  C   UNL     1      -4.163   9.826 -11.005  1.00  0.00     0.000 C 
ENDROOT
BRANCH   1   2
ATOM      2  C   UNL     1      -5.667   9.737 -10.710  1.00  0.00     0.000 C 
BRANCH   2   3
ATOM      3  C   UNL     1      -6.332  11.116 -10.836  1.00  0.00     0.000 C 
BRANCH   3   4
ATOM      4  C   UNL     1      -6.700  11.726  -9.474  1.00  0.00     0.000 C 
BRANCH   4   5
ATOM      5  C   UNL     1      -5.856  12.967  -9.134  1.00  0.00     0.000 C 
BRANCH   5   6
ATOM      6  C   UNL     1      -4.959  12.752  -7.905  1.00  0.00     0.006 C 
BRANCH   6   7
ATOM      7  C   UNL     1      -5.267  11.440  -7.169  1.00  0.00     0.053 C 
BRANCH   7   8
ATOM      8  C   UNL     1      -4.146  11.087  -6.243  1.00  0.00     0.041 C 
ATOM      9  O   UNL     1      -3.505  11.994  -5.649  1.00  0.00    -0.550 OA
ATOM     10  O   UNL     1      -3.841   9.754  -5.997  1.00  0.00    -0.550 OA
ENDBRANCH   7   8
ENDBRANCH   6   7
ENDBRANCH   5   6
ENDBRANCH   4   5
ENDBRANCH   3   4
ENDBRANCH   2   3
ENDBRANCH   1   2
BRANCH   1  11
ATOM     11  C   UNL     1      -3.293   9.709  -9.738  1.00  0.00     0.000 C 
BRANCH  11  12
ATOM     12  C   UNL     1      -2.273  10.846  -9.544  1.00  0.00    -0.000 C 
BRANCH  12  13
ATOM     13  C   UNL     1      -1.278  10.571  -8.406  1.00  0.00    -0.000 C 
BRANCH  13  14
ATOM     14  C   UNL     1      -0.280  11.726  -8.258  1.00  0.00    -0.000 C 
BRANCH  14  15
ATOM     15  C   UNL     1       1.013  11.250  -7.577  1.00  0.00    -0.000 C 
BRANCH  15  16
ATOM     16  C   UNL     1       1.627  10.022  -8.266  1.00  0.00    -0.000 C 
BRANCH  16  17
ATOM     17  C   UNL     1       3.022  10.305  -8.846  1.00  0.00    -0.003 C 
ATOM     18  C   UNL     1       3.378   9.298  -9.935  1.00  0.00     0.004 C 
ENDBRANCH  16  17
ENDBRANCH  15  16
ENDBRANCH  14  15
ENDBRANCH  13  14
ENDBRANCH  12  13
ENDBRANCH  11  12
ENDBRANCH   1  11
TORSDOF 14
ENDMDL
MODEL 9
REMARK VINA RESULT:    -4.593      1.707      3.291
REMARK INTER + INTRA:         -10.175
REMARK INTER:                  -8.220
REMARK INTRA:                  -1.955
REMARK UNBOUND:                -1.823
REMARK SMILES CCCCCCCCCCCCCCCC(=O)[O-]
REMARK SMILES IDX 9 1 10 2 11 3 12 4 13 5 14 6 15 7 16 8 17 9 18 10 8 11 7 12
REMARK SMILES IDX 6 13 5 14 4 15 3 16 2 17 1 18
REMARK H PARENT
REMARK Flexibility Score: inf
ROOT
ATOM      1  C   UNL     1      -2.312  11.975  -8.952  1.00  0.00     0.000 C 
ENDROOT
BRANCH   1   2
ATOM      2  C   UNL     1      -3.036  11.807  -7.608  1.00  0.00     0.000 C 
BRANCH   2   3
ATOM      3  C   UNL     1      -2.155  12.291  -6.446  1.00  0.00     0.000 C 
BRANCH   3   4
ATOM      4  C   UNL     1      -1.166  13.390  -6.868  1.00  0.00     0.000 C 
BRANCH   4   5
ATOM      5  C   UNL     1       0.286  13.059  -6.481  1.00  0.00     0.000 C 
BRANCH   5   6
ATOM      6  C   UNL     1       0.615  11.566  -6.649  1.00  0.00     0.006 C 
BRANCH   6   7
ATOM      7  C   UNL     1       1.890  11.329  -7.470  1.00  0.00     0.053 C 
BRANCH   7   8
ATOM      8  C   UNL     1       1.673  10.229  -8.461  1.00  0.00     0.041 C 
ATOM      9  O   UNL     1       2.649   9.738  -9.087  1.00  0.00    -0.550 OA
ATOM     10  O   UNL     1       0.399   9.713  -8.659  1.00  0.00    -0.550 OA
ENDBRANCH   7   8
ENDBRANCH   6   7
ENDBRANCH   5   6
ENDBRANCH   4   5
ENDBRANCH   3   4
ENDBRANCH   2   3
ENDBRANCH   1   2
BRANCH   1  11
ATOM     11  C   UNL     1      -2.642  10.855  -9.957  1.00  0.00     0.000 C 
BRANCH  11  12
ATOM     12  C   UNL     1      -3.556   9.742  -9.414  1.00  0.00    -0.000 C 
BRANCH  12  13
ATOM     13  C   UNL     1      -4.799   9.508 -10.284  1.00  0.00    -0.000 C 
BRANCH  13  14
ATOM     14  C   UNL     1      -5.165  10.773 -11.071  1.00  0.00    -0.000 C 
BRANCH  14  15
ATOM     15  C   UNL     1      -6.347  11.504 -10.417  1.00  0.00    -0.000 C 
BRANCH  15  16
ATOM     16  C   UNL     1      -5.907  12.737  -9.611  1.00  0.00    -0.000 C 
BRANCH  16  17
ATOM     17  C   UNL     1      -6.694  12.900  -8.302  1.00  0.00    -0.003 C 
ATOM     18  C   UNL     1      -6.756  11.584  -7.532  1.00  0.00     0.004 C 
ENDBRANCH  16  17
ENDBRANCH  15  16
ENDBRANCH  14  15
ENDBRANCH  13  14
ENDBRANCH  12  13
ENDBRANCH  11  12
ENDBRANCH   1  11
TORSDOF 14
ENDMDL
