MODEL 1
REMARK VINA RESULT:    -7.242      0.000      0.000
REMARK INTER + INTRA:          -8.017
REMARK INTER:                  -7.877
REMARK INTRA:                  -0.140
REMARK UNBOUND:                -0.140
REMARK SMILES CC1(C)CC[C@@]2(C(=O)[O-])CC[C@]3(C)C(=CC[C@H]4[C@@]5(C)CC[C@@H](O)C(C)(C)[C@H]5CC[C@]43C)[C@H]2C1
REMARK SMILES IDX 6 1 5 2 10 3 32 4 4 5 11 6 14 7 33 8 2 9 12 10 15 11 1 12
REMARK SMILES IDX 3 13 13 14 30 15 16 16 17 17 29 18 31 19 18 20 28 21 27 22
REMARK SMILES IDX 20 23 19 24 24 25 21 26 22 27 25 28 26 29 7 30 8 31 9 32
REMARK SMILES IDX 23 33
REMARK H PARENT 23 34
REMARK Flexibility Score: inf
ROOT
ATOM      1  C   UNL     1     -10.030  -9.104  91.357  1.00  0.00     0.017 C 
ATOM      2  C   UNL     1      -8.598  -9.029  90.746  1.00  0.00     0.014 C 
ATOM      3  C   UNL     1     -10.122 -10.405  92.226  1.00  0.00     0.014 C 
ATOM      4  C   UNL     1     -10.329  -7.827  92.262  1.00  0.00     0.028 C 
ATOM      5  C   UNL     1      -8.324  -7.660  90.092  1.00  0.00     0.007 C 
ATOM      6  C   UNL     1     -11.485 -10.602  92.968  1.00  0.00     0.013 C 
ATOM      7  C   UNL     1     -11.016  -8.250  93.587  1.00  0.00    -0.064 C 
ATOM      8  C   UNL     1      -9.077  -6.920  92.445  1.00  0.00     0.015 C 
ATOM      9  C   UNL     1      -8.435  -6.470  91.101  1.00  0.00    -0.035 C 
ATOM     10  C   UNL     1     -12.156  -9.267  93.481  1.00  0.00    -0.006 C 
ATOM     11  C   UNL     1     -10.390  -8.064  94.766  1.00  0.00    -0.027 C 
ATOM     12  C   UNL     1      -9.272  -5.328  90.478  1.00  0.00     0.011 C 
ATOM     13  C   UNL     1      -7.019  -5.916  91.402  1.00  0.00     0.011 C 
ATOM     14  C   UNL     1     -13.211  -8.775  92.406  1.00  0.00     0.017 C 
ATOM     15  C   UNL     1     -12.912  -9.437  94.895  1.00  0.00    -0.020 C 
ATOM     16  C   UNL     1     -10.654  -8.848  96.014  1.00  0.00     0.032 C 
ATOM     17  C   UNL     1     -11.917  -9.775  96.074  1.00  0.00     0.006 C 
ATOM     18  C   UNL     1     -13.666  -8.091  95.235  1.00  0.00     0.008 C 
ATOM     19  C   UNL     1     -13.941 -10.608  94.730  1.00  0.00     0.012 C 
ATOM     20  C   UNL     1     -12.582  -9.805  97.544  1.00  0.00    -0.025 C 
ATOM     21  C   UNL     1     -13.423  -7.491  96.627  1.00  0.00     0.005 C 
ATOM     22  C   UNL     1     -13.551  -8.539  97.765  1.00  0.00     0.003 C 
ATOM     23  C   UNL     1     -11.431  -9.978  98.623  1.00  0.00     0.010 C 
ATOM     24  C   UNL     1     -13.432 -11.110  97.730  1.00  0.00     0.012 C 
ATOM     25  C   UNL     1     -13.608  -7.911  99.232  1.00  0.00    -0.006 C 
ATOM     26  C   UNL     1     -11.785  -9.507 100.022  1.00  0.00     0.033 C 
ATOM     27  C   UNL     1     -12.254  -8.051  99.973  1.00  0.00     0.120 C 
ATOM     28  C   UNL     1     -13.988  -6.396  99.240  1.00  0.00     0.014 C 
ATOM     29  C   UNL     1     -14.728  -8.620 100.053  1.00  0.00     0.014 C 
ENDROOT
BRANCH   1  30
ATOM     30  C   UNL     1     -11.007  -9.220  90.185  1.00  0.00     0.048 C 
ATOM     31  O   UNL     1     -11.554  -8.197  89.691  1.00  0.00    -0.550 OA
ATOM     32  O   UNL     1     -11.245 -10.451  89.586  1.00  0.00    -0.550 OA
ENDBRANCH   1  30
BRANCH  27  33
ATOM     33  O   UNL     1     -11.275  -7.248  99.357  1.00  0.00    -0.393 OA
ATOM     34  H   UNL     1     -11.746  -6.698  98.681  1.00  0.00     0.210 HD
ENDBRANCH  27  33
TORSDOF 2
ENDMDL
MODEL 2
REMARK VINA RESULT:    -7.178      1.675      2.240
REMARK INTER + INTRA:          -7.948
REMARK INTER:                  -7.811
REMARK INTRA:                  -0.137
REMARK UNBOUND:                -0.140
REMARK SMILES CC1(C)CC[C@@]2(C(=O)[O-])CC[C@]3(C)C(=CC[C@H]4[C@@]5(C)CC[C@@H](O)C(C)(C)[C@H]5CC[C@]43C)[C@H]2C1
REMARK SMILES IDX 6 1 5 2 10 3 32 4 4 5 11 6 14 7 33 8 2 9 12 10 15 11 1 12
REMARK SMILES IDX 3 13 13 14 30 15 16 16 17 17 29 18 31 19 18 20 28 21 27 22
REMARK SMILES IDX 20 23 19 24 24 25 21 26 22 27 25 28 26 29 7 30 8 31 9 32
REMARK SMILES IDX 23 33
REMARK H PARENT 23 34
REMARK Flexibility Score: inf
ROOT
ATOM      1  C   UNL     1      -9.841  -8.356  90.652  1.00  0.00     0.017 C 
ATOM      2  C   UNL     1      -9.002  -7.270  89.910  1.00  0.00     0.014 C 
ATOM      3  C   UNL     1      -9.035  -8.814  91.915  1.00  0.00     0.014 C 
ATOM      4  C   UNL     1     -11.257  -7.775  91.095  1.00  0.00     0.028 C 
ATOM      5  C   UNL     1      -9.820  -6.570  88.806  1.00  0.00     0.007 C 
ATOM      6  C   UNL     1      -9.768  -9.864  92.814  1.00  0.00     0.013 C 
ATOM      7  C   UNL     1     -11.590  -8.207  92.547  1.00  0.00    -0.064 C 
ATOM      8  C   UNL     1     -11.383  -6.245  90.831  1.00  0.00     0.015 C 
ATOM      9  C   UNL     1     -11.091  -5.844  89.357  1.00  0.00    -0.035 C 
ATOM     10  C   UNL     1     -11.333  -9.673  92.909  1.00  0.00    -0.006 C 
ATOM     11  C   UNL     1     -11.695  -7.284  93.523  1.00  0.00    -0.027 C 
ATOM     12  C   UNL     1     -12.315  -6.179  88.471  1.00  0.00     0.011 C 
ATOM     13  C   UNL     1     -10.871  -4.310  89.308  1.00  0.00     0.011 C 
ATOM     14  C   UNL     1     -12.032 -10.614  91.842  1.00  0.00     0.017 C 
ATOM     15  C   UNL     1     -11.931 -10.022  94.365  1.00  0.00    -0.020 C 
ATOM     16  C   UNL     1     -11.492  -7.547  94.983  1.00  0.00     0.032 C 
ATOM     17  C   UNL     1     -11.413  -9.032  95.482  1.00  0.00     0.006 C 
ATOM     18  C   UNL     1     -13.507  -9.941  94.303  1.00  0.00     0.008 C 
ATOM     19  C   UNL     1     -11.476 -11.481  94.713  1.00  0.00     0.012 C 
ATOM     20  C   UNL     1     -12.091  -9.223  96.934  1.00  0.00    -0.025 C 
ATOM     21  C   UNL     1     -14.202  -9.092  95.377  1.00  0.00     0.005 C 
ATOM     22  C   UNL     1     -13.686  -9.393  96.809  1.00  0.00     0.003 C 
ATOM     23  C   UNL     1     -11.602  -8.051  97.885  1.00  0.00     0.010 C 
ATOM     24  C   UNL     1     -11.517 -10.504  97.636  1.00  0.00     0.012 C 
ATOM     25  C   UNL     1     -14.580  -8.765  97.973  1.00  0.00    -0.006 C 
ATOM     26  C   UNL     1     -12.508  -7.765  99.070  1.00  0.00     0.033 C 
ATOM     27  C   UNL     1     -13.931  -7.494  98.578  1.00  0.00     0.120 C 
ATOM     28  C   UNL     1     -16.018  -8.376  97.505  1.00  0.00     0.014 C 
ATOM     29  C   UNL     1     -14.787  -9.828  99.095  1.00  0.00     0.014 C 
ENDROOT
BRANCH   1  30
ATOM     30  C   UNL     1      -9.979  -9.540  89.694  1.00  0.00     0.048 C 
ATOM     31  O   UNL     1     -11.008  -9.682  88.979  1.00  0.00    -0.550 OA
ATOM     32  O   UNL     1      -8.932 -10.439  89.531  1.00  0.00    -0.550 OA
ENDBRANCH   1  30
BRANCH  27  33
ATOM     33  O   UNL     1     -13.925  -6.452  97.630  1.00  0.00    -0.393 OA
ATOM     34  H   UNL     1     -14.595  -6.693  96.942  1.00  0.00     0.210 HD
ENDBRANCH  27  33
TORSDOF 2
ENDMDL
MODEL 3
REMARK VINA RESULT:    -7.158      2.758      7.272
REMARK INTER + INTRA:          -7.926
REMARK INTER:                  -7.788
REMARK INTRA:                  -0.138
REMARK UNBOUND:                -0.140
REMARK SMILES CC1(C)CC[C@@]2(C(=O)[O-])CC[C@]3(C)C(=CC[C@H]4[C@@]5(C)CC[C@@H](O)C(C)(C)[C@H]5CC[C@]43C)[C@H]2C1
REMARK SMILES IDX 6 1 5 2 10 3 32 4 4 5 11 6 14 7 33 8 2 9 12 10 15 11 1 12
REMARK SMILES IDX 3 13 13 14 30 15 16 16 17 17 29 18 31 19 18 20 28 21 27 22
REMARK SMILES IDX 20 23 19 24 24 25 21 26 22 27 25 28 26 29 7 30 8 31 9 32
REMARK SMILES IDX 23 33
REMARK H PARENT 23 34
REMARK Flexibility Score: inf
ROOT
ATOM      1  C   UNL     1     -12.525  -8.726  93.697  1.00  0.00     0.017 C 
ATOM      2  C   UNL     1     -13.842  -8.510  94.505  1.00  0.00     0.014 C 
ATOM      3  C   UNL     1     -12.166  -7.379  92.982  1.00  0.00     0.014 C 
ATOM      4  C   UNL     1     -11.333  -9.162  94.659  1.00  0.00     0.028 C 
ATOM      5  C   UNL     1     -14.135  -9.692  95.449  1.00  0.00     0.007 C 
ATOM      6  C   UNL     1     -10.829  -7.404  92.171  1.00  0.00     0.013 C 
ATOM      7  C   UNL     1     -10.038  -8.387  94.303  1.00  0.00    -0.064 C 
ATOM      8  C   UNL     1     -11.729  -9.101  96.164  1.00  0.00     0.015 C 
ATOM      9  C   UNL     1     -13.004  -9.925  96.504  1.00  0.00    -0.035 C 
ATOM     10  C   UNL     1      -9.683  -8.279  92.817  1.00  0.00    -0.006 C 
ATOM     11  C   UNL     1      -9.498  -7.524  95.185  1.00  0.00    -0.027 C 
ATOM     12  C   UNL     1     -12.651 -11.430  96.575  1.00  0.00     0.011 C 
ATOM     13  C   UNL     1     -13.506  -9.485  97.904  1.00  0.00     0.011 C 
ATOM     14  C   UNL     1      -9.703  -9.721  92.159  1.00  0.00     0.017 C 
ATOM     15  C   UNL     1      -8.212  -7.650  92.618  1.00  0.00    -0.020 C 
ATOM     16  C   UNL     1      -8.615  -6.368  94.830  1.00  0.00     0.032 C 
ATOM     17  C   UNL     1      -8.037  -6.275  93.376  1.00  0.00     0.006 C 
ATOM     18  C   UNL     1      -7.140  -8.674  93.167  1.00  0.00     0.008 C 
ATOM     19  C   UNL     1      -8.010  -7.426  91.080  1.00  0.00     0.012 C 
ATOM     20  C   UNL     1      -6.543  -5.664  93.351  1.00  0.00    -0.025 C 
ATOM     21  C   UNL     1      -6.098  -8.126  94.152  1.00  0.00     0.005 C 
ATOM     22  C   UNL     1      -5.450  -6.802  93.668  1.00  0.00     0.003 C 
ATOM     23  C   UNL     1      -6.496  -4.390  94.295  1.00  0.00     0.010 C 
ATOM     24  C   UNL     1      -6.226  -5.062  91.937  1.00  0.00     0.012 C 
ATOM     25  C   UNL     1      -4.160  -6.361  94.499  1.00  0.00    -0.006 C 
ATOM     26  C   UNL     1      -5.114  -4.018  94.803  1.00  0.00     0.033 C 
ATOM     27  C   UNL     1      -4.478  -5.222  95.500  1.00  0.00     0.120 C 
ATOM     28  C   UNL     1      -3.521  -7.531  95.313  1.00  0.00     0.014 C 
ATOM     29  C   UNL     1      -3.047  -5.891  93.512  1.00  0.00     0.014 C 
ENDROOT
BRANCH   1  30
ATOM     30  C   UNL     1     -12.827  -9.787  92.636  1.00  0.00     0.048 C 
ATOM     31  O   UNL     1     -12.564 -11.003  92.840  1.00  0.00    -0.550 OA
ATOM     32  O   UNL     1     -13.474  -9.439  91.457  1.00  0.00    -0.550 OA
ENDBRANCH   1  30
BRANCH  27  33
ATOM     33  O   UNL     1      -5.326  -5.694  96.521  1.00  0.00    -0.393 OA
ATOM     34  H   UNL     1      -5.317  -5.008  97.235  1.00  0.00     0.210 HD
ENDBRANCH  27  33
TORSDOF 2
ENDMDL
MODEL 4
REMARK VINA RESULT:    -7.067      1.570      2.126
REMARK INTER + INTRA:          -7.827
REMARK INTER:                  -7.693
REMARK INTRA:                  -0.135
REMARK UNBOUND:                -0.140
REMARK SMILES CC1(C)CC[C@@]2(C(=O)[O-])CC[C@]3(C)C(=CC[C@H]4[C@@]5(C)CC[C@@H](O)C(C)(C)[C@H]5CC[C@]43C)[C@H]2C1
REMARK SMILES IDX 6 1 5 2 10 3 32 4 4 5 11 6 14 7 33 8 2 9 12 10 15 11 1 12
REMARK SMILES IDX 3 13 13 14 30 15 16 16 17 17 29 18 31 19 18 20 28 21 27 22
REMARK SMILES IDX 20 23 19 24 24 25 21 26 22 27 25 28 26 29 7 30 8 31 9 32
REMARK SMILES IDX 23 33
REMARK H PARENT 23 34
REMARK Flexibility Score: inf
ROOT
ATOM      1  C   UNL     1      -8.114  -7.360  91.842  1.00  0.00     0.017 C 
ATOM      2  C   UNL     1      -6.701  -6.698  91.829  1.00  0.00     0.014 C 
ATOM      3  C   UNL     1      -8.008  -8.719  92.614  1.00  0.00     0.014 C 
ATOM      4  C   UNL     1      -9.178  -6.413  92.556  1.00  0.00     0.028 C 
ATOM      5  C   UNL     1      -6.756  -5.242  91.325  1.00  0.00     0.007 C 
ATOM      6  C   UNL     1      -9.359  -9.488  92.775  1.00  0.00     0.013 C 
ATOM      7  C   UNL     1     -10.077  -7.236  93.516  1.00  0.00    -0.064 C 
ATOM      8  C   UNL     1      -8.521  -5.159  93.203  1.00  0.00     0.015 C 
ATOM      9  C   UNL     1      -7.664  -4.324  92.207  1.00  0.00    -0.035 C 
ATOM     10  C   UNL     1     -10.623  -8.564  92.984  1.00  0.00    -0.006 C 
ATOM     11  C   UNL     1     -10.035  -7.012  94.844  1.00  0.00    -0.027 C 
ATOM     12  C   UNL     1      -8.590  -3.475  91.305  1.00  0.00     0.011 C 
ATOM     13  C   UNL     1      -6.775  -3.356  93.028  1.00  0.00     0.011 C 
ATOM     14  C   UNL     1     -11.326  -8.327  91.583  1.00  0.00     0.017 C 
ATOM     15  C   UNL     1     -11.710  -9.189  93.998  1.00  0.00    -0.020 C 
ATOM     16  C   UNL     1     -10.408  -8.008  95.899  1.00  0.00     0.032 C 
ATOM     17  C   UNL     1     -11.154  -9.319  95.472  1.00  0.00     0.006 C 
ATOM     18  C   UNL     1     -12.987  -8.259  94.016  1.00  0.00     0.008 C 
ATOM     19  C   UNL     1     -12.082 -10.612  93.456  1.00  0.00     0.012 C 
ATOM     20  C   UNL     1     -12.235  -9.791  96.573  1.00  0.00    -0.025 C 
ATOM     21  C   UNL     1     -13.506  -7.818  95.392  1.00  0.00     0.005 C 
ATOM     22  C   UNL     1     -13.623  -8.994  96.397  1.00  0.00     0.003 C 
ATOM     23  C   UNL     1     -11.574  -9.700  98.012  1.00  0.00     0.010 C 
ATOM     24  C   UNL     1     -12.530 -11.325  96.422  1.00  0.00     0.012 C 
ATOM     25  C   UNL     1     -14.435  -8.643  97.726  1.00  0.00    -0.006 C 
ATOM     26  C   UNL     1     -12.555  -9.588  99.165  1.00  0.00     0.033 C 
ATOM     27  C   UNL     1     -13.492  -8.401  98.933  1.00  0.00     0.120 C 
ATOM     28  C   UNL     1     -15.338  -7.377  97.581  1.00  0.00     0.014 C 
ATOM     29  C   UNL     1     -15.414  -9.811  98.056  1.00  0.00     0.014 C 
ENDROOT
BRANCH   1  30
ATOM     30  C   UNL     1      -8.483  -7.644  90.385  1.00  0.00     0.048 C 
ATOM     31  O   UNL     1      -9.220  -6.854  89.734  1.00  0.00    -0.550 OA
ATOM     32  O   UNL     1      -7.942  -8.740  89.723  1.00  0.00    -0.550 OA
ENDBRANCH   1  30
BRANCH  27  33
ATOM     33  O   UNL     1     -12.743  -7.224  98.737  1.00  0.00    -0.393 OA
ATOM     34  H   UNL     1     -11.811  -7.438  98.993  1.00  0.00     0.210 HD
ENDBRANCH  27  33
TORSDOF 2
ENDMDL
MODEL 5
REMARK VINA RESULT:    -7.042      2.071      7.630
REMARK INTER + INTRA:          -7.800
REMARK INTER:                  -7.683
REMARK INTRA:                  -0.117
REMARK UNBOUND:                -0.140
REMARK SMILES CC1(C)CC[C@@]2(C(=O)[O-])CC[C@]3(C)C(=CC[C@H]4[C@@]5(C)CC[C@@H](O)C(C)(C)[C@H]5CC[C@]43C)[C@H]2C1
REMARK SMILES IDX 6 1 5 2 10 3 32 4 4 5 11 6 14 7 33 8 2 9 12 10 15 11 1 12
REMARK SMILES IDX 3 13 13 14 30 15 16 16 17 17 29 18 31 19 18 20 28 21 27 22
REMARK SMILES IDX 20 23 19 24 24 25 21 26 22 27 25 28 26 29 7 30 8 31 9 32
REMARK SMILES IDX 23 33
REMARK H PARENT 23 34
REMARK Flexibility Score: inf
ROOT
ATOM      1  C   UNL     1     -13.491  -8.684  98.004  1.00  0.00     0.017 C 
ATOM      2  C   UNL     1     -13.784  -7.474  98.944  1.00  0.00     0.014 C 
ATOM      3  C   UNL     1     -14.631  -8.755  96.932  1.00  0.00     0.014 C 
ATOM      4  C   UNL     1     -12.080  -8.515  97.283  1.00  0.00     0.028 C 
ATOM      5  C   UNL     1     -12.588  -7.161  99.865  1.00  0.00     0.007 C 
ATOM      6  C   UNL     1     -14.457  -9.884  95.864  1.00  0.00     0.013 C 
ATOM      7  C   UNL     1     -12.192  -8.884  95.781  1.00  0.00    -0.064 C 
ATOM      8  C   UNL     1     -11.431  -7.127  97.560  1.00  0.00     0.015 C 
ATOM      9  C   UNL     1     -11.287  -6.801  99.075  1.00  0.00    -0.035 C 
ATOM     10  C   UNL     1     -12.961 -10.164  95.438  1.00  0.00    -0.006 C 
ATOM     11  C   UNL     1     -11.996  -7.946  94.834  1.00  0.00    -0.027 C 
ATOM     12  C   UNL     1     -10.082  -7.572  99.663  1.00  0.00     0.011 C 
ATOM     13  C   UNL     1     -11.001  -5.284  99.218  1.00  0.00     0.011 C 
ATOM     14  C   UNL     1     -12.398 -11.370  96.298  1.00  0.00     0.017 C 
ATOM     15  C   UNL     1     -12.802 -10.533  93.877  1.00  0.00    -0.020 C 
ATOM     16  C   UNL     1     -12.554  -7.993  93.445  1.00  0.00     0.032 C 
ATOM     17  C   UNL     1     -13.191  -9.330  92.930  1.00  0.00     0.006 C 
ATOM     18  C   UNL     1     -11.299 -10.936  93.599  1.00  0.00     0.008 C 
ATOM     19  C   UNL     1     -13.751 -11.748  93.591  1.00  0.00     0.012 C 
ATOM     20  C   UNL     1     -12.906  -9.575  91.360  1.00  0.00    -0.025 C 
ATOM     21  C   UNL     1     -10.598 -10.235  92.426  1.00  0.00     0.005 C 
ATOM     22  C   UNL     1     -11.453 -10.227  91.131  1.00  0.00     0.003 C 
ATOM     23  C   UNL     1     -13.179  -8.224  90.574  1.00  0.00     0.010 C 
ATOM     24  C   UNL     1     -13.979 -10.550  90.760  1.00  0.00     0.012 C 
ATOM     25  C   UNL     1     -10.654  -9.787  89.821  1.00  0.00    -0.006 C 
ATOM     26  C   UNL     1     -12.480  -8.110  89.231  1.00  0.00     0.033 C 
ATOM     27  C   UNL     1     -10.977  -8.327  89.411  1.00  0.00     0.120 C 
ATOM     28  C   UNL     1      -9.104  -9.894  89.978  1.00  0.00     0.014 C 
ATOM     29  C   UNL     1     -11.016 -10.749  88.648  1.00  0.00     0.014 C 
ENDROOT
BRANCH   1  30
ATOM     30  C   UNL     1     -13.547  -9.942  98.873  1.00  0.00     0.048 C 
ATOM     31  O   UNL     1     -14.631 -10.558  99.056  1.00  0.00    -0.550 OA
ATOM     32  O   UNL     1     -12.383 -10.479  99.409  1.00  0.00    -0.550 OA
ENDBRANCH   1  30
BRANCH  27  33
ATOM     33  O   UNL     1     -10.469  -7.429  90.369  1.00  0.00    -0.393 OA
ATOM     34  H   UNL     1      -9.599  -7.107  90.022  1.00  0.00     0.210 HD
ENDBRANCH  27  33
TORSDOF 2
ENDMDL
MODEL 6
REMARK VINA RESULT:    -6.907      2.380      3.526
REMARK INTER + INTRA:          -7.653
REMARK INTER:                  -7.515
REMARK INTRA:                  -0.138
REMARK UNBOUND:                -0.140
REMARK SMILES CC1(C)CC[C@@]2(C(=O)[O-])CC[C@]3(C)C(=CC[C@H]4[C@@]5(C)CC[C@@H](O)C(C)(C)[C@H]5CC[C@]43C)[C@H]2C1
REMARK SMILES IDX 6 1 5 2 10 3 32 4 4 5 11 6 14 7 33 8 2 9 12 10 15 11 1 12
REMARK SMILES IDX 3 13 13 14 30 15 16 16 17 17 29 18 31 19 18 20 28 21 27 22
REMARK SMILES IDX 20 23 19 24 24 25 21 26 22 27 25 28 26 29 7 30 8 31 9 32
REMARK SMILES IDX 23 33
REMARK H PARENT 23 34
REMARK Flexibility Score: inf
ROOT
ATOM      1  C   UNL     1     -12.803  -8.568  89.626  1.00  0.00     0.017 C 
ATOM      2  C   UNL     1     -12.376  -7.389  88.697  1.00  0.00     0.014 C 
ATOM      3  C   UNL     1     -11.527  -9.087  90.371  1.00  0.00     0.014 C 
ATOM      4  C   UNL     1     -13.892  -8.090  90.686  1.00  0.00     0.028 C 
ATOM      5  C   UNL     1     -13.596  -6.642  88.122  1.00  0.00     0.007 C 
ATOM      6  C   UNL     1     -11.790 -10.238  91.397  1.00  0.00     0.013 C 
ATOM      7  C   UNL     1     -13.560  -8.650  92.094  1.00  0.00    -0.064 C 
ATOM      8  C   UNL     1     -14.131  -6.551  90.643  1.00  0.00     0.015 C 
ATOM      9  C   UNL     1     -14.509  -6.021  89.230  1.00  0.00    -0.035 C 
ATOM     10  C   UNL     1     -13.162 -10.127  92.174  1.00  0.00    -0.006 C 
ATOM     11  C   UNL     1     -13.239  -7.814  93.100  1.00  0.00    -0.027 C 
ATOM     12  C   UNL     1     -15.993  -6.342  88.931  1.00  0.00     0.011 C 
ATOM     13  C   UNL     1     -14.343  -4.480  89.232  1.00  0.00     0.011 C 
ATOM     14  C   UNL     1     -14.247 -11.012  91.431  1.00  0.00     0.017 C 
ATOM     15  C   UNL     1     -13.068 -10.618  93.706  1.00  0.00    -0.020 C 
ATOM     16  C   UNL     1     -12.422  -8.182  94.300  1.00  0.00     0.032 C 
ATOM     17  C   UNL     1     -12.125  -9.696  94.577  1.00  0.00     0.006 C 
ATOM     18  C   UNL     1     -14.516 -10.605  94.337  1.00  0.00     0.008 C 
ATOM     19  C   UNL     1     -12.496 -12.078  93.690  1.00  0.00     0.012 C 
ATOM     20  C   UNL     1     -12.106 -10.034  96.156  1.00  0.00    -0.025 C 
ATOM     21  C   UNL     1     -14.684  -9.877  95.678  1.00  0.00     0.005 C 
ATOM     22  C   UNL     1     -13.597 -10.266  96.715  1.00  0.00     0.003 C 
ATOM     23  C   UNL     1     -11.262  -8.920  96.907  1.00  0.00     0.010 C 
ATOM     24  C   UNL     1     -11.275 -11.338  96.422  1.00  0.00     0.012 C 
ATOM     25  C   UNL     1     -13.903  -9.774  98.202  1.00  0.00    -0.006 C 
ATOM     26  C   UNL     1     -11.568  -8.770  98.387  1.00  0.00     0.033 C 
ATOM     27  C   UNL     1     -13.066  -8.527  98.582  1.00  0.00     0.120 C 
ATOM     28  C   UNL     1     -15.405  -9.416  98.437  1.00  0.00     0.014 C 
ATOM     29  C   UNL     1     -13.596 -10.932  99.202  1.00  0.00     0.014 C 
ENDROOT
BRANCH   1  30
ATOM     30  C   UNL     1     -13.334  -9.678  88.716  1.00  0.00     0.048 C 
ATOM     31  O   UNL     1     -14.564  -9.772  88.455  1.00  0.00    -0.550 OA
ATOM     32  O   UNL     1     -12.456 -10.555  88.091  1.00  0.00    -0.550 OA
ENDBRANCH   1  30
BRANCH  27  33
ATOM     33  O   UNL     1     -13.478  -7.414  97.824  1.00  0.00    -0.393 OA
ATOM     34  H   UNL     1     -14.305  -7.074  98.249  1.00  0.00     0.210 HD
ENDBRANCH  27  33
TORSDOF 2
ENDMDL
MODEL 7
REMARK VINA RESULT:    -6.824      2.017      4.143
REMARK INTER + INTRA:          -7.562
REMARK INTER:                  -7.423
REMARK INTRA:                  -0.139
REMARK UNBOUND:                -0.140
REMARK SMILES CC1(C)CC[C@@]2(C(=O)[O-])CC[C@]3(C)C(=CC[C@H]4[C@@]5(C)CC[C@@H](O)C(C)(C)[C@H]5CC[C@]43C)[C@H]2C1
REMARK SMILES IDX 6 1 5 2 10 3 32 4 4 5 11 6 14 7 33 8 2 9 12 10 15 11 1 12
REMARK SMILES IDX 3 13 13 14 30 15 16 16 17 17 29 18 31 19 18 20 28 21 27 22
REMARK SMILES IDX 20 23 19 24 24 25 21 26 22 27 25 28 26 29 7 30 8 31 9 32
REMARK SMILES IDX 23 33
REMARK H PARENT 23 34
REMARK Flexibility Score: inf
ROOT
ATOM      1  C   UNL     1     -12.000  -8.214  90.423  1.00  0.00     0.017 C 
ATOM      2  C   UNL     1     -12.849  -7.695  89.221  1.00  0.00     0.014 C 
ATOM      3  C   UNL     1     -11.773  -7.020  91.411  1.00  0.00     0.014 C 
ATOM      4  C   UNL     1     -12.747  -9.404  91.174  1.00  0.00     0.028 C 
ATOM      5  C   UNL     1     -13.346  -8.850  88.330  1.00  0.00     0.007 C 
ATOM      6  C   UNL     1     -10.986  -7.386  92.711  1.00  0.00     0.013 C 
ATOM      7  C   UNL     1     -12.656  -9.216  92.711  1.00  0.00    -0.064 C 
ATOM      8  C   UNL     1     -14.190  -9.636  90.637  1.00  0.00     0.015 C 
ATOM      9  C   UNL     1     -14.249  -9.870  89.100  1.00  0.00    -0.035 C 
ATOM     10  C   UNL     1     -11.288  -8.828  93.281  1.00  0.00    -0.006 C 
ATOM     11  C   UNL     1     -13.770  -8.997  93.436  1.00  0.00    -0.027 C 
ATOM     12  C   UNL     1     -13.808 -11.316  88.773  1.00  0.00     0.011 C 
ATOM     13  C   UNL     1     -15.721  -9.703  88.641  1.00  0.00     0.011 C 
ATOM     14  C   UNL     1     -10.185  -9.834  92.747  1.00  0.00     0.017 C 
ATOM     15  C   UNL     1     -11.294  -8.889  94.892  1.00  0.00    -0.020 C 
ATOM     16  C   UNL     1     -13.813  -8.305  94.764  1.00  0.00     0.032 C 
ATOM     17  C   UNL     1     -12.467  -8.039  95.522  1.00  0.00     0.006 C 
ATOM     18  C   UNL     1     -11.456 -10.394  95.346  1.00  0.00     0.008 C 
ATOM     19  C   UNL     1      -9.918  -8.320  95.381  1.00  0.00     0.012 C 
ATOM     20  C   UNL     1     -12.631  -8.178  97.122  1.00  0.00    -0.025 C 
ATOM     21  C   UNL     1     -12.555 -10.695  96.374  1.00  0.00     0.005 C 
ATOM     22  C   UNL     1     -12.536  -9.718  97.579  1.00  0.00     0.003 C 
ATOM     23  C   UNL     1     -13.947  -7.414  97.570  1.00  0.00     0.010 C 
ATOM     24  C   UNL     1     -11.497  -7.380  97.856  1.00  0.00     0.012 C 
ATOM     25  C   UNL     1     -13.451 -10.172  98.806  1.00  0.00    -0.006 C 
ATOM     26  C   UNL     1     -14.534  -7.866  98.895  1.00  0.00     0.033 C 
ATOM     27  C   UNL     1     -14.780  -9.376  98.861  1.00  0.00     0.120 C 
ATOM     28  C   UNL     1     -13.819 -11.690  98.773  1.00  0.00     0.014 C 
ATOM     29  C   UNL     1     -12.666  -9.968 100.139  1.00  0.00     0.014 C 
ENDROOT
BRANCH   1  30
ATOM     30  C   UNL     1     -10.649  -8.651  89.853  1.00  0.00     0.048 C 
ATOM     31  O   UNL     1     -10.429  -9.856  89.552  1.00  0.00    -0.550 OA
ATOM     32  O   UNL     1      -9.664  -7.711  89.578  1.00  0.00    -0.550 OA
ENDBRANCH   1  30
BRANCH  27  33
ATOM     33  O   UNL     1     -15.593  -9.710  97.761  1.00  0.00    -0.393 OA
ATOM     34  H   UNL     1     -15.005 -10.155  97.100  1.00  0.00     0.210 HD
ENDBRANCH  27  33
TORSDOF 2
ENDMDL
MODEL 8
REMARK VINA RESULT:    -6.811      2.364      7.415
REMARK INTER + INTRA:          -7.549
REMARK INTER:                  -7.411
REMARK INTRA:                  -0.138
REMARK UNBOUND:                -0.140
REMARK SMILES CC1(C)CC[C@@]2(C(=O)[O-])CC[C@]3(C)C(=CC[C@H]4[C@@]5(C)CC[C@@H](O)C(C)(C)[C@H]5CC[C@]43C)[C@H]2C1
REMARK SMILES IDX 6 1 5 2 10 3 32 4 4 5 11 6 14 7 33 8 2 9 12 10 15 11 1 12
REMARK SMILES IDX 3 13 13 14 30 15 16 16 17 17 29 18 31 19 18 20 28 21 27 22
REMARK SMILES IDX 20 23 19 24 24 25 21 26 22 27 25 28 26 29 7 30 8 31 9 32
REMARK SMILES IDX 23 33
REMARK H PARENT 23 34
REMARK Flexibility Score: inf
ROOT
ATOM      1  C   UNL     1     -13.187  -9.829  95.086  1.00  0.00     0.017 C 
ATOM      2  C   UNL     1     -14.462  -9.593  95.954  1.00  0.00     0.014 C 
ATOM      3  C   UNL     1     -13.389  -9.097  93.716  1.00  0.00     0.014 C 
ATOM      4  C   UNL     1     -11.889  -9.263  95.817  1.00  0.00     0.028 C 
ATOM      5  C   UNL     1     -14.255 -10.049  97.412  1.00  0.00     0.007 C 
ATOM      6  C   UNL     1     -12.168  -9.182  92.742  1.00  0.00     0.013 C 
ATOM      7  C   UNL     1     -10.997  -8.488  94.813  1.00  0.00    -0.064 C 
ATOM      8  C   UNL     1     -12.233  -8.476  97.116  1.00  0.00     0.015 C 
ATOM      9  C   UNL     1     -13.088  -9.293  98.128  1.00  0.00    -0.035 C 
ATOM     10  C   UNL     1     -10.756  -9.146  93.451  1.00  0.00    -0.006 C 
ATOM     11  C   UNL     1     -10.798  -7.164  94.962  1.00  0.00    -0.027 C 
ATOM     12  C   UNL     1     -12.188 -10.302  98.879  1.00  0.00     0.011 C 
ATOM     13  C   UNL     1     -13.676  -8.307  99.170  1.00  0.00     0.011 C 
ATOM     14  C   UNL     1     -10.248 -10.633  93.660  1.00  0.00     0.017 C 
ATOM     15  C   UNL     1      -9.641  -8.342  92.610  1.00  0.00    -0.020 C 
ATOM     16  C   UNL     1     -10.431  -6.218  93.860  1.00  0.00     0.032 C 
ATOM     17  C   UNL     1      -9.978  -6.804  92.479  1.00  0.00     0.006 C 
ATOM     18  C   UNL     1      -8.244  -8.497  93.333  1.00  0.00     0.008 C 
ATOM     19  C   UNL     1      -9.586  -8.985  91.181  1.00  0.00     0.012 C 
ATOM     20  C   UNL     1      -8.829  -5.907  91.785  1.00  0.00    -0.025 C 
ATOM     21  C   UNL     1      -7.457  -7.208  93.609  1.00  0.00     0.005 C 
ATOM     22  C   UNL     1      -7.376  -6.276  92.371  1.00  0.00     0.003 C 
ATOM     23  C   UNL     1      -9.239  -4.378  91.890  1.00  0.00     0.010 C 
ATOM     24  C   UNL     1      -8.808  -6.156  90.235  1.00  0.00     0.012 C 
ATOM     25  C   UNL     1      -6.325  -5.083  92.517  1.00  0.00    -0.006 C 
ATOM     26  C   UNL     1      -8.087  -3.395  91.783  1.00  0.00     0.033 C 
ATOM     27  C   UNL     1      -7.021  -3.734  92.827  1.00  0.00     0.120 C 
ATOM     28  C   UNL     1      -5.265  -5.329  93.637  1.00  0.00     0.014 C 
ATOM     29  C   UNL     1      -5.504  -4.955  91.196  1.00  0.00     0.014 C 
ENDROOT
BRANCH   1  30
ATOM     30  C   UNL     1     -13.096 -11.336  94.836  1.00  0.00     0.048 C 
ATOM     31  O   UNL     1     -12.369 -12.072  95.557  1.00  0.00    -0.550 OA
ATOM     32  O   UNL     1     -13.880 -11.935  93.858  1.00  0.00    -0.550 OA
ENDBRANCH   1  30
BRANCH  27  33
ATOM     33  O   UNL     1      -7.594  -3.766  94.113  1.00  0.00    -0.393 OA
ATOM     34  H   UNL     1      -7.615  -4.716  94.389  1.00  0.00     0.210 HD
ENDBRANCH  27  33
TORSDOF 2
ENDMDL
MODEL 9
REMARK VINA RESULT:    -6.657      1.946      7.961
REMARK INTER + INTRA:          -7.381
REMARK INTER:                  -7.242
REMARK INTRA:                  -0.139
REMARK UNBOUND:                -0.140
REMARK SMILES CC1(C)CC[C@@]2(C(=O)[O-])CC[C@]3(C)C(=CC[C@H]4[C@@]5(C)CC[C@@H](O)C(C)(C)[C@H]5CC[C@]43C)[C@H]2C1
REMARK SMILES IDX 6 1 5 2 10 3 32 4 4 5 11 6 14 7 33 8 2 9 12 10 15 11 1 12
REMARK SMILES IDX 3 13 13 14 30 15 16 16 17 17 29 18 31 19 18 20 28 21 27 22
REMARK SMILES IDX 20 23 19 24 24 25 21 26 22 27 25 28 26 29 7 30 8 31 9 32
REMARK SMILES IDX 23 33
REMARK H PARENT 23 34
REMARK Flexibility Score: inf
ROOT
ATOM      1  C   UNL     1     -11.424  -8.473  96.925  1.00  0.00     0.017 C 
ATOM      2  C   UNL     1     -11.087  -9.445  98.098  1.00  0.00     0.014 C 
ATOM      3  C   UNL     1     -10.201  -8.449  95.946  1.00  0.00     0.014 C 
ATOM      4  C   UNL     1     -12.730  -8.952  96.148  1.00  0.00     0.028 C 
ATOM      5  C   UNL     1     -12.323  -9.739  98.972  1.00  0.00     0.007 C 
ATOM      6  C   UNL     1     -10.400  -7.564  94.672  1.00  0.00     0.013 C 
ATOM      7  C   UNL     1     -12.517  -8.849  94.615  1.00  0.00    -0.064 C 
ATOM      8  C   UNL     1     -13.239 -10.340  96.637  1.00  0.00     0.015 C 
ATOM      9  C   UNL     1     -13.491 -10.403  98.171  1.00  0.00    -0.035 C 
ATOM     10  C   UNL     1     -11.869  -7.563  94.092  1.00  0.00    -0.006 C 
ATOM     11  C   UNL     1     -12.511  -9.961  93.854  1.00  0.00    -0.027 C 
ATOM     12  C   UNL     1     -14.828  -9.702  98.511  1.00  0.00     0.011 C 
ATOM     13  C   UNL     1     -13.614 -11.893  98.581  1.00  0.00     0.011 C 
ATOM     14  C   UNL     1     -12.647  -6.305  94.661  1.00  0.00     0.017 C 
ATOM     15  C   UNL     1     -11.919  -7.506  92.482  1.00  0.00    -0.020 C 
ATOM     16  C   UNL     1     -11.831 -10.092  92.526  1.00  0.00     0.032 C 
ATOM     17  C   UNL     1     -11.305  -8.799  91.813  1.00  0.00     0.006 C 
ATOM     18  C   UNL     1     -13.423  -7.360  92.021  1.00  0.00     0.008 C 
ATOM     19  C   UNL     1     -11.092  -6.249  92.039  1.00  0.00     0.012 C 
ATOM     20  C   UNL     1     -11.462  -8.881  90.209  1.00  0.00    -0.025 C 
ATOM     21  C   UNL     1     -13.923  -8.346  90.957  1.00  0.00     0.005 C 
ATOM     22  C   UNL     1     -12.951  -8.476  89.753  1.00  0.00     0.003 C 
ATOM     23  C   UNL     1     -10.962 -10.304  89.718  1.00  0.00     0.010 C 
ATOM     24  C   UNL     1     -10.455  -7.899  89.514  1.00  0.00     0.012 C 
ATOM     25  C   UNL     1     -13.564  -9.247  88.496  1.00  0.00    -0.006 C 
ATOM     26  C   UNL     1     -11.509 -10.750  88.374  1.00  0.00     0.033 C 
ATOM     27  C   UNL     1     -13.039 -10.701  88.398  1.00  0.00     0.120 C 
ATOM     28  C   UNL     1     -15.124  -9.316  88.516  1.00  0.00     0.014 C 
ATOM     29  C   UNL     1     -13.203  -8.473  87.191  1.00  0.00     0.014 C 
ENDROOT
BRANCH   1  30
ATOM     30  C   UNL     1     -11.597  -7.082  97.539  1.00  0.00     0.048 C 
ATOM     31  O   UNL     1     -12.739  -6.644  97.844  1.00  0.00    -0.550 OA
ATOM     32  O   UNL     1     -10.487  -6.307  97.850  1.00  0.00    -0.550 OA
ENDBRANCH   1  30
BRANCH  27  33
ATOM     33  O   UNL     1     -13.530 -11.471  89.470  1.00  0.00    -0.393 OA
ATOM     34  H   UNL     1     -12.803 -12.092  89.729  1.00  0.00     0.210 HD
ENDBRANCH  27  33
TORSDOF 2
ENDMDL
