MODEL 1
REMARK VINA RESULT:    -4.530      0.000      0.000
REMARK INTER + INTRA:          -5.483
REMARK INTER:                  -5.456
REMARK INTRA:                  -0.027
REMARK UNBOUND:                -0.027
REMARK SMILES O=c1c(O)c(-c2ccc(O)c(O)c2)oc2cc(O)cc(O)c12
REMARK SMILES IDX 5 1 3 2 2 3 1 4 22 5 20 6 19 7 17 8 16 9 15 10 14 11 6 12
REMARK SMILES IDX 7 13 8 14 9 15 13 16 11 17 10 18 12 20 4 22 21 24 18 26
REMARK H PARENT 10 19 12 21 4 23 21 25 18 27
REMARK Flexibility Score: inf
ROOT
ATOM      1  C   UNL     1       1.968  22.897   4.428  1.00  0.00     0.180 A 
ATOM      2  C   UNL     1       2.289  22.227   5.622  1.00  0.00     0.208 A 
ATOM      3  C   UNL     1       3.588  22.346   6.141  1.00  0.00     0.238 A 
ATOM      4  O   UNL     1       3.853  21.787   7.238  1.00  0.00    -0.285 OA
ATOM      5  C   UNL     1       4.553  23.119   5.454  1.00  0.00     0.111 A 
ATOM      6  C   UNL     1       5.910  23.276   5.868  1.00  0.00     0.134 A 
ATOM      7  C   UNL     1       6.743  24.170   5.183  1.00  0.00     0.093 A 
ATOM      8  C   UNL     1       6.285  24.863   4.060  1.00  0.00     0.123 A 
ATOM      9  C   UNL     1       4.980  24.672   3.612  1.00  0.00     0.094 A 
ATOM     10  C   UNL     1       4.115  23.814   4.296  1.00  0.00     0.146 A 
ATOM     11  O   UNL     1       2.876  23.668   3.843  1.00  0.00    -0.452 OA
ENDROOT
BRANCH   1  12
ATOM     12  C   UNL     1       0.627  22.800   3.806  1.00  0.00     0.025 A 
ATOM     13  C   UNL     1       0.015  21.555   3.577  1.00  0.00     0.016 A 
ATOM     14  C   UNL     1      -1.239  21.487   2.967  1.00  0.00     0.051 A 
ATOM     15  C   UNL     1      -1.895  22.658   2.564  1.00  0.00     0.157 A 
ATOM     16  C   UNL     1      -0.024  23.970   3.381  1.00  0.00     0.062 A 
ATOM     17  C   UNL     1      -1.282  23.905   2.770  1.00  0.00     0.158 A 
BRANCH  15  18
ATOM     18  O   UNL     1      -3.147  22.586   1.956  1.00  0.00    -0.504 OA
ATOM     19  H   UNL     1      -3.610  21.699   1.797  1.00  0.00     0.293 HD
ENDBRANCH  15  18
BRANCH  17  20
ATOM     20  O   UNL     1      -1.903  25.088   2.374  1.00  0.00    -0.504 OA
ATOM     21  H   UNL     1      -2.727  25.091   1.783  1.00  0.00     0.293 HD
ENDBRANCH  17  20
ENDBRANCH   1  12
BRANCH   2  22
ATOM     22  O   UNL     1       1.314  21.486   6.295  1.00  0.00    -0.502 OA
ATOM     23  H   UNL     1       1.117  20.517   6.074  1.00  0.00     0.293 HD
ENDBRANCH   2  22
BRANCH   6  24
ATOM     24  O   UNL     1       6.492  22.562   6.920  1.00  0.00    -0.507 OA
ATOM     25  H   UNL     1       6.590  22.906   7.863  1.00  0.00     0.293 HD
ENDBRANCH   6  24
BRANCH   8  26
ATOM     26  O   UNL     1       7.124  25.739   3.374  1.00  0.00    -0.508 OA
ATOM     27  H   UNL     1       6.763  26.561   2.906  1.00  0.00     0.293 HD
ENDBRANCH   8  26
TORSDOF 6
ENDMDL
MODEL 2
REMARK VINA RESULT:    -4.415      1.821      3.277
REMARK INTER + INTRA:          -5.345
REMARK INTER:                  -5.745
REMARK INTRA:                   0.401
REMARK UNBOUND:                -0.027
REMARK SMILES O=c1c(O)c(-c2ccc(O)c(O)c2)oc2cc(O)cc(O)c12
REMARK SMILES IDX 5 1 3 2 2 3 1 4 22 5 20 6 19 7 17 8 16 9 15 10 14 11 6 12
REMARK SMILES IDX 7 13 8 14 9 15 13 16 11 17 10 18 12 20 4 22 21 24 18 26
REMARK H PARENT 10 19 12 21 4 23 21 25 18 27
REMARK Flexibility Score: inf
ROOT
ATOM      1  C   UNL     1       2.317  22.989   4.722  1.00  0.00     0.180 A 
ATOM      2  C   UNL     1       2.835  23.517   3.526  1.00  0.00     0.208 A 
ATOM      3  C   UNL     1       4.127  24.066   3.527  1.00  0.00     0.238 A 
ATOM      4  O   UNL     1       4.605  24.487   2.442  1.00  0.00    -0.285 OA
ATOM      5  C   UNL     1       4.879  24.095   4.726  1.00  0.00     0.111 A 
ATOM      6  C   UNL     1       6.183  24.662   4.851  1.00  0.00     0.134 A 
ATOM      7  C   UNL     1       6.886  24.519   6.054  1.00  0.00     0.093 A 
ATOM      8  C   UNL     1       6.306  23.884   7.156  1.00  0.00     0.123 A 
ATOM      9  C   UNL     1       5.011  23.379   7.062  1.00  0.00     0.094 A 
ATOM     10  C   UNL     1       4.299  23.476   5.864  1.00  0.00     0.146 A 
ATOM     11  O   UNL     1       3.071  22.972   5.814  1.00  0.00    -0.452 OA
ENDROOT
BRANCH   1  12
ATOM     12  C   UNL     1       0.953  22.417   4.805  1.00  0.00     0.025 A 
ATOM     13  C   UNL     1       0.252  22.024   3.652  1.00  0.00     0.016 A 
ATOM     14  C   UNL     1      -1.042  21.509   3.753  1.00  0.00     0.051 A 
ATOM     15  C   UNL     1      -1.661  21.392   5.004  1.00  0.00     0.157 A 
ATOM     16  C   UNL     1       0.320  22.317   6.055  1.00  0.00     0.062 A 
ATOM     17  C   UNL     1      -0.976  21.801   6.160  1.00  0.00     0.158 A 
BRANCH  15  18
ATOM     18  O   UNL     1      -2.953  20.876   5.101  1.00  0.00    -0.504 OA
ATOM     19  H   UNL     1      -3.740  21.326   4.649  1.00  0.00     0.293 HD
ENDBRANCH  15  18
BRANCH  17  20
ATOM     20  O   UNL     1      -1.567  21.704   7.420  1.00  0.00    -0.504 OA
ATOM     21  H   UNL     1      -1.308  20.981   8.081  1.00  0.00     0.293 HD
ENDBRANCH  17  20
ENDBRANCH   1  12
BRANCH   2  22
ATOM     22  O   UNL     1       2.083  23.458   2.349  1.00  0.00    -0.502 OA
ATOM     23  H   UNL     1       1.071  23.487   2.348  1.00  0.00     0.293 HD
ENDBRANCH   2  22
BRANCH   6  24
ATOM     24  O   UNL     1       6.814  25.395   3.843  1.00  0.00    -0.507 OA
ATOM     25  H   UNL     1       7.246  26.298   3.973  1.00  0.00     0.293 HD
ENDBRANCH   6  24
BRANCH   8  26
ATOM     26  O   UNL     1       7.006  23.760   8.354  1.00  0.00    -0.508 OA
ATOM     27  H   UNL     1       6.934  22.927   8.925  1.00  0.00     0.293 HD
ENDBRANCH   8  26
TORSDOF 6
ENDMDL
MODEL 3
REMARK VINA RESULT:    -4.162      2.233      6.479
REMARK INTER + INTRA:          -5.040
REMARK INTER:                  -4.966
REMARK INTRA:                  -0.074
REMARK UNBOUND:                -0.027
REMARK SMILES O=c1c(O)c(-c2ccc(O)c(O)c2)oc2cc(O)cc(O)c12
REMARK SMILES IDX 5 1 3 2 2 3 1 4 22 5 20 6 19 7 17 8 16 9 15 10 14 11 6 12
REMARK SMILES IDX 7 13 8 14 9 15 13 16 11 17 10 18 12 20 4 22 21 24 18 26
REMARK H PARENT 10 19 12 21 4 23 21 25 18 27
REMARK Flexibility Score: inf
ROOT
ATOM      1  C   UNL     1       2.029  23.016   4.067  1.00  0.00     0.180 A 
ATOM      2  C   UNL     1       0.908  22.823   3.241  1.00  0.00     0.208 A 
ATOM      3  C   UNL     1      -0.261  22.277   3.795  1.00  0.00     0.238 A 
ATOM      4  O   UNL     1      -1.277  22.157   3.062  1.00  0.00    -0.285 OA
ATOM      5  C   UNL     1      -0.289  21.915   5.163  1.00  0.00     0.111 A 
ATOM      6  C   UNL     1      -1.406  21.317   5.820  1.00  0.00     0.134 A 
ATOM      7  C   UNL     1      -1.369  21.122   7.206  1.00  0.00     0.093 A 
ATOM      8  C   UNL     1      -0.229  21.444   7.948  1.00  0.00     0.123 A 
ATOM      9  C   UNL     1       0.888  21.973   7.307  1.00  0.00     0.094 A 
ATOM     10  C   UNL     1       0.867  22.213   5.930  1.00  0.00     0.146 A 
ATOM     11  O   UNL     1       1.950  22.728   5.360  1.00  0.00    -0.452 OA
ENDROOT
BRANCH   1  12
ATOM     12  C   UNL     1       3.305  23.564   3.549  1.00  0.00     0.025 A 
ATOM     13  C   UNL     1       4.512  22.856   3.680  1.00  0.00     0.016 A 
ATOM     14  C   UNL     1       5.706  23.403   3.206  1.00  0.00     0.051 A 
ATOM     15  C   UNL     1       5.715  24.670   2.607  1.00  0.00     0.157 A 
ATOM     16  C   UNL     1       3.322  24.842   2.968  1.00  0.00     0.062 A 
ATOM     17  C   UNL     1       4.517  25.393   2.491  1.00  0.00     0.158 A 
BRANCH  15  18
ATOM     18  O   UNL     1       6.910  25.212   2.134  1.00  0.00    -0.504 OA
ATOM     19  H   UNL     1       6.955  26.153   1.762  1.00  0.00     0.293 HD
ENDBRANCH  15  18
BRANCH  17  20
ATOM     20  O   UNL     1       4.494  26.659   1.907  1.00  0.00    -0.504 OA
ATOM     21  H   UNL     1       4.525  27.507   2.461  1.00  0.00     0.293 HD
ENDBRANCH  17  20
ENDBRANCH   1  12
BRANCH   2  22
ATOM     22  O   UNL     1       0.951  23.208   1.897  1.00  0.00    -0.502 OA
ATOM     23  H   UNL     1       1.380  24.073   1.593  1.00  0.00     0.293 HD
ENDBRANCH   2  22
BRANCH   6  24
ATOM     24  O   UNL     1      -2.555  20.875   5.158  1.00  0.00    -0.507 OA
ATOM     25  H   UNL     1      -3.473  21.278   5.269  1.00  0.00     0.293 HD
ENDBRANCH   6  24
BRANCH   8  26
ATOM     26  O   UNL     1      -0.194  21.231   9.325  1.00  0.00    -0.508 OA
ATOM     27  H   UNL     1       0.118  21.952   9.964  1.00  0.00     0.293 HD
ENDBRANCH   8  26
TORSDOF 6
ENDMDL
MODEL 4
REMARK VINA RESULT:    -4.028     23.436     25.046
REMARK INTER + INTRA:          -4.879
REMARK INTER:                  -5.413
REMARK INTRA:                   0.534
REMARK UNBOUND:                -0.027
REMARK SMILES O=c1c(O)c(-c2ccc(O)c(O)c2)oc2cc(O)cc(O)c12
REMARK SMILES IDX 5 1 3 2 2 3 1 4 22 5 20 6 19 7 17 8 16 9 15 10 14 11 6 12
REMARK SMILES IDX 7 13 8 14 9 15 13 16 11 17 10 18 12 20 4 22 21 24 18 26
REMARK H PARENT 10 19 12 21 4 23 21 25 18 27
REMARK Flexibility Score: inf
ROOT
ATOM      1  C   UNL     1      -6.086  40.962  18.267  1.00  0.00     0.180 A 
ATOM      2  C   UNL     1      -6.828  41.041  19.458  1.00  0.00     0.208 A 
ATOM      3  C   UNL     1      -8.230  40.996  19.391  1.00  0.00     0.238 A 
ATOM      4  O   UNL     1      -8.886  41.014  20.465  1.00  0.00    -0.285 OA
ATOM      5  C   UNL     1      -8.872  40.890  18.134  1.00  0.00     0.111 A 
ATOM      6  C   UNL     1     -10.287  40.876  17.946  1.00  0.00     0.134 A 
ATOM      7  C   UNL     1     -10.812  40.635  16.670  1.00  0.00     0.093 A 
ATOM      8  C   UNL     1      -9.972  40.471  15.565  1.00  0.00     0.123 A 
ATOM      9  C   UNL     1      -8.591  40.542  15.729  1.00  0.00     0.094 A 
ATOM     10  C   UNL     1      -8.037  40.746  16.996  1.00  0.00     0.146 A 
ATOM     11  O   UNL     1      -6.715  40.796  17.110  1.00  0.00    -0.452 OA
ENDROOT
BRANCH   1  12
ATOM     12  C   UNL     1      -4.606  41.027  18.254  1.00  0.00     0.025 A 
ATOM     13  C   UNL     1      -3.886  41.088  17.049  1.00  0.00     0.016 A 
ATOM     14  C   UNL     1      -2.490  41.125  17.061  1.00  0.00     0.051 A 
ATOM     15  C   UNL     1      -1.792  41.087  18.276  1.00  0.00     0.157 A 
ATOM     16  C   UNL     1      -3.901  40.968  19.468  1.00  0.00     0.062 A 
ATOM     17  C   UNL     1      -2.502  41.005  19.485  1.00  0.00     0.158 A 
BRANCH  15  18
ATOM     18  O   UNL     1      -0.398  41.125  18.284  1.00  0.00    -0.504 OA
ATOM     19  H   UNL     1       0.127  41.529  17.517  1.00  0.00     0.293 HD
ENDBRANCH  15  18
BRANCH  17  20
ATOM     20  O   UNL     1      -1.838  40.959  20.709  1.00  0.00    -0.504 OA
ATOM     21  H   UNL     1      -1.602  40.082  21.160  1.00  0.00     0.293 HD
ENDBRANCH  17  20
ENDBRANCH   1  12
BRANCH   2  22
ATOM     22  O   UNL     1      -6.173  41.125  20.690  1.00  0.00    -0.502 OA
ATOM     23  H   UNL     1      -6.210  40.382  21.377  1.00  0.00     0.293 HD
ENDBRANCH   2  22
BRANCH   6  24
ATOM     24  O   UNL     1     -11.212  41.120  18.965  1.00  0.00    -0.507 OA
ATOM     25  H   UNL     1     -12.015  40.543  19.162  1.00  0.00     0.293 HD
ENDBRANCH   6  24
BRANCH   8  26
ATOM     26  O   UNL     1     -10.502  40.247  14.297  1.00  0.00    -0.508 OA
ATOM     27  H   UNL     1     -11.495  40.104  14.155  1.00  0.00     0.293 HD
ENDBRANCH   8  26
TORSDOF 6
ENDMDL
MODEL 5
REMARK VINA RESULT:    -3.917      2.620      3.721
REMARK INTER + INTRA:          -4.745
REMARK INTER:                  -4.497
REMARK INTRA:                  -0.247
REMARK UNBOUND:                -0.027
REMARK SMILES O=c1c(O)c(-c2ccc(O)c(O)c2)oc2cc(O)cc(O)c12
REMARK SMILES IDX 5 1 3 2 2 3 1 4 22 5 20 6 19 7 17 8 16 9 15 10 14 11 6 12
REMARK SMILES IDX 7 13 8 14 9 15 13 16 11 17 10 18 12 20 4 22 21 24 18 26
REMARK H PARENT 10 19 12 21 4 23 21 25 18 27
REMARK Flexibility Score: inf
ROOT
ATOM      1  C   UNL     1       1.382  23.202   3.043  1.00  0.00     0.180 A 
ATOM      2  C   UNL     1       1.477  24.566   2.716  1.00  0.00     0.208 A 
ATOM      3  C   UNL     1       2.729  25.096   2.365  1.00  0.00     0.238 A 
ATOM      4  O   UNL     1       2.798  26.305   2.022  1.00  0.00    -0.285 OA
ATOM      5  C   UNL     1       3.871  24.260   2.359  1.00  0.00     0.111 A 
ATOM      6  C   UNL     1       5.196  24.700   2.057  1.00  0.00     0.134 A 
ATOM      7  C   UNL     1       6.229  23.760   1.955  1.00  0.00     0.093 A 
ATOM      8  C   UNL     1       5.997  22.405   2.206  1.00  0.00     0.123 A 
ATOM      9  C   UNL     1       4.721  21.975   2.559  1.00  0.00     0.094 A 
ATOM     10  C   UNL     1       3.662  22.884   2.635  1.00  0.00     0.146 A 
ATOM     11  O   UNL     1       2.459  22.430   2.964  1.00  0.00    -0.452 OA
ENDROOT
BRANCH   1  12
ATOM     12  C   UNL     1       0.101  22.576   3.447  1.00  0.00     0.025 A 
ATOM     13  C   UNL     1      -0.916  22.319   2.511  1.00  0.00     0.016 A 
ATOM     14  C   UNL     1      -2.124  21.750   2.921  1.00  0.00     0.051 A 
ATOM     15  C   UNL     1      -2.340  21.444   4.270  1.00  0.00     0.157 A 
ATOM     16  C   UNL     1      -0.129  22.287   4.803  1.00  0.00     0.062 A 
ATOM     17  C   UNL     1      -1.338  21.717   5.216  1.00  0.00     0.158 A 
BRANCH  15  18
ATOM     18  O   UNL     1      -3.548  20.875   4.675  1.00  0.00    -0.504 OA
ATOM     19  H   UNL     1      -3.935  20.062   4.209  1.00  0.00     0.293 HD
ENDBRANCH  15  18
BRANCH  17  20
ATOM     20  O   UNL     1      -1.525  21.431   6.567  1.00  0.00    -0.504 OA
ATOM     21  H   UNL     1      -0.763  21.467   7.235  1.00  0.00     0.293 HD
ENDBRANCH  17  20
ENDBRANCH   1  12
BRANCH   2  22
ATOM     22  O   UNL     1       0.333  25.368   2.707  1.00  0.00    -0.502 OA
ATOM     23  H   UNL     1      -0.598  24.987   2.585  1.00  0.00     0.293 HD
ENDBRANCH   2  22
BRANCH   6  24
ATOM     24  O   UNL     1       5.551  26.040   1.880  1.00  0.00    -0.507 OA
ATOM     25  H   UNL     1       6.490  26.368   1.714  1.00  0.00     0.293 HD
ENDBRANCH   6  24
BRANCH   8  26
ATOM     26  O   UNL     1       7.034  21.479   2.117  1.00  0.00    -0.508 OA
ATOM     27  H   UNL     1       8.001  21.771   2.047  1.00  0.00     0.293 HD
ENDBRANCH   8  26
TORSDOF 6
ENDMDL
MODEL 6
REMARK VINA RESULT:    -3.845      1.723      6.409
REMARK INTER + INTRA:          -4.658
REMARK INTER:                  -4.694
REMARK INTRA:                   0.036
REMARK UNBOUND:                -0.027
REMARK SMILES O=c1c(O)c(-c2ccc(O)c(O)c2)oc2cc(O)cc(O)c12
REMARK SMILES IDX 5 1 3 2 2 3 1 4 22 5 20 6 19 7 17 8 16 9 15 10 14 11 6 12
REMARK SMILES IDX 7 13 8 14 9 15 13 16 11 17 10 18 12 20 4 22 21 24 18 26
REMARK H PARENT 10 19 12 21 4 23 21 25 18 27
REMARK Flexibility Score: inf
ROOT
ATOM      1  C   UNL     1       2.343  22.982   4.421  1.00  0.00     0.180 A 
ATOM      2  C   UNL     1       2.114  22.674   5.773  1.00  0.00     0.208 A 
ATOM      3  C   UNL     1       0.894  22.085   6.141  1.00  0.00     0.238 A 
ATOM      4  O   UNL     1       0.717  21.764   7.345  1.00  0.00    -0.285 OA
ATOM      5  C   UNL     1      -0.088  21.826   5.155  1.00  0.00     0.111 A 
ATOM      6  C   UNL     1      -1.375  21.269   5.420  1.00  0.00     0.134 A 
ATOM      7  C   UNL     1      -2.216  20.934   4.351  1.00  0.00     0.093 A 
ATOM      8  C   UNL     1      -1.842  21.196   3.031  1.00  0.00     0.123 A 
ATOM      9  C   UNL     1      -0.613  21.794   2.765  1.00  0.00     0.094 A 
ATOM     10  C   UNL     1       0.263  22.107   3.808  1.00  0.00     0.146 A 
ATOM     11  O   UNL     1       1.429  22.666   3.511  1.00  0.00    -0.452 OA
ENDROOT
BRANCH   1  12
ATOM     12  C   UNL     1       3.595  23.627   3.960  1.00  0.00     0.025 A 
ATOM     13  C   UNL     1       4.855  23.145   4.356  1.00  0.00     0.016 A 
ATOM     14  C   UNL     1       6.021  23.783   3.928  1.00  0.00     0.051 A 
ATOM     15  C   UNL     1       5.947  24.920   3.112  1.00  0.00     0.157 A 
ATOM     16  C   UNL     1       3.525  24.779   3.160  1.00  0.00     0.062 A 
ATOM     17  C   UNL     1       4.692  25.421   2.729  1.00  0.00     0.158 A 
BRANCH  15  18
ATOM     18  O   UNL     1       7.113  25.554   2.687  1.00  0.00    -0.504 OA
ATOM     19  H   UNL     1       7.795  25.079   2.107  1.00  0.00     0.293 HD
ENDBRANCH  15  18
BRANCH  17  20
ATOM     20  O   UNL     1       4.583  26.554   1.925  1.00  0.00    -0.504 OA
ATOM     21  H   UNL     1       4.399  27.473   2.311  1.00  0.00     0.293 HD
ENDBRANCH  17  20
ENDBRANCH   1  12
BRANCH   2  22
ATOM     22  O   UNL     1       3.106  22.920   6.727  1.00  0.00    -0.502 OA
ATOM     23  H   UNL     1       3.115  22.464   7.632  1.00  0.00     0.293 HD
ENDBRANCH   2  22
BRANCH   6  24
ATOM     24  O   UNL     1      -1.882  21.053   6.704  1.00  0.00    -0.507 OA
ATOM     25  H   UNL     1      -2.837  20.799   6.910  1.00  0.00     0.293 HD
ENDBRANCH   6  24
BRANCH   8  26
ATOM     26  O   UNL     1      -2.692  20.875   1.974  1.00  0.00    -0.508 OA
ATOM     27  H   UNL     1      -3.221  21.587   1.485  1.00  0.00     0.293 HD
ENDBRANCH   8  26
TORSDOF 6
ENDMDL
MODEL 7
REMARK VINA RESULT:    -3.380     23.408     25.107
REMARK INTER + INTRA:          -4.098
REMARK INTER:                  -4.559
REMARK INTRA:                   0.461
REMARK UNBOUND:                -0.027
REMARK SMILES O=c1c(O)c(-c2ccc(O)c(O)c2)oc2cc(O)cc(O)c12
REMARK SMILES IDX 5 1 3 2 2 3 1 4 22 5 20 6 19 7 17 8 16 9 15 10 14 11 6 12
REMARK SMILES IDX 7 13 8 14 9 15 13 16 11 17 10 18 12 20 4 22 21 24 18 26
REMARK H PARENT 10 19 12 21 4 23 21 25 18 27
REMARK Flexibility Score: inf
ROOT
ATOM      1  C   UNL     1      -6.531  40.542  18.040  1.00  0.00     0.180 A 
ATOM      2  C   UNL     1      -7.324  40.715  16.893  1.00  0.00     0.208 A 
ATOM      3  C   UNL     1      -8.710  40.508  16.985  1.00  0.00     0.238 A 
ATOM      4  O   UNL     1      -9.421  40.717  15.967  1.00  0.00    -0.285 OA
ATOM      5  C   UNL     1      -9.283  40.114  18.218  1.00  0.00     0.111 A 
ATOM      6  C   UNL     1     -10.669  39.839  18.416  1.00  0.00     0.134 A 
ATOM      7  C   UNL     1     -11.145  39.584  19.708  1.00  0.00     0.093 A 
ATOM      8  C   UNL     1     -10.274  39.533  20.799  1.00  0.00     0.123 A 
ATOM      9  C   UNL     1      -8.911  39.742  20.607  1.00  0.00     0.094 A 
ATOM     10  C   UNL     1      -8.411  40.033  19.335  1.00  0.00     0.146 A 
ATOM     11  O   UNL     1      -7.107  40.237  19.197  1.00  0.00    -0.452 OA
ENDROOT
BRANCH   1  12
ATOM     12  C   UNL     1      -5.060  40.718  18.016  1.00  0.00     0.025 A 
ATOM     13  C   UNL     1      -4.375  40.986  16.818  1.00  0.00     0.016 A 
ATOM     14  C   UNL     1      -2.985  41.124  16.816  1.00  0.00     0.051 A 
ATOM     15  C   UNL     1      -2.258  40.984  18.005  1.00  0.00     0.157 A 
ATOM     16  C   UNL     1      -4.325  40.557  19.202  1.00  0.00     0.062 A 
ATOM     17  C   UNL     1      -2.932  40.695  19.203  1.00  0.00     0.158 A 
BRANCH  15  18
ATOM     18  O   UNL     1      -0.871  41.124  17.998  1.00  0.00    -0.504 OA
ATOM     19  H   UNL     1      -0.353  41.242  17.136  1.00  0.00     0.293 HD
ENDBRANCH  15  18
BRANCH  17  20
ATOM     20  O   UNL     1      -2.238  40.542  20.402  1.00  0.00    -0.504 OA
ATOM     21  H   UNL     1      -2.715  40.401  21.285  1.00  0.00     0.293 HD
ENDBRANCH  17  20
ENDBRANCH   1  12
BRANCH   2  22
ATOM     22  O   UNL     1      -6.740  41.125  15.691  1.00  0.00    -0.502 OA
ATOM     23  H   UNL     1      -6.101  40.538  15.169  1.00  0.00     0.293 HD
ENDBRANCH   2  22
BRANCH   6  24
ATOM     24  O   UNL     1     -11.607  39.775  17.381  1.00  0.00    -0.507 OA
ATOM     25  H   UNL     1     -12.598  39.638  17.512  1.00  0.00     0.293 HD
ENDBRANCH   6  24
BRANCH   8  26
ATOM     26  O   UNL     1     -10.753  39.263  22.079  1.00  0.00    -0.508 OA
ATOM     27  H   UNL     1     -10.535  39.864  22.864  1.00  0.00     0.293 HD
ENDBRANCH   8  26
TORSDOF 6
ENDMDL
MODEL 8
REMARK VINA RESULT:    -3.322      2.648      4.064
REMARK INTER + INTRA:          -4.028
REMARK INTER:                  -4.499
REMARK INTRA:                   0.471
REMARK UNBOUND:                -0.027
REMARK SMILES O=c1c(O)c(-c2ccc(O)c(O)c2)oc2cc(O)cc(O)c12
REMARK SMILES IDX 5 1 3 2 2 3 1 4 22 5 20 6 19 7 17 8 16 9 15 10 14 11 6 12
REMARK SMILES IDX 7 13 8 14 9 15 13 16 11 17 10 18 12 20 4 22 21 24 18 26
REMARK H PARENT 10 19 12 21 4 23 21 25 18 27
REMARK Flexibility Score: inf
ROOT
ATOM      1  C   UNL     1       1.580  22.294   5.773  1.00  0.00     0.180 A 
ATOM      2  C   UNL     1       1.592  22.197   4.371  1.00  0.00     0.208 A 
ATOM      3  C   UNL     1       2.735  22.613   3.669  1.00  0.00     0.238 A 
ATOM      4  O   UNL     1       2.760  22.474   2.419  1.00  0.00    -0.285 OA
ATOM      5  C   UNL     1       3.844  23.135   4.377  1.00  0.00     0.111 A 
ATOM      6  C   UNL     1       5.038  23.623   3.765  1.00  0.00     0.134 A 
ATOM      7  C   UNL     1       6.123  23.996   4.569  1.00  0.00     0.093 A 
ATOM      8  C   UNL     1       6.033  23.958   5.963  1.00  0.00     0.123 A 
ATOM      9  C   UNL     1       4.852  23.540   6.569  1.00  0.00     0.094 A 
ATOM     10  C   UNL     1       3.765  23.128   5.794  1.00  0.00     0.146 A 
ATOM     11  O   UNL     1       2.660  22.726   6.412  1.00  0.00    -0.452 OA
ENDROOT
BRANCH   1  12
ATOM     12  C   UNL     1       0.402  21.899   6.580  1.00  0.00     0.025 A 
ATOM     13  C   UNL     1      -0.734  21.325   5.984  1.00  0.00     0.016 A 
ATOM     14  C   UNL     1      -1.842  20.982   6.762  1.00  0.00     0.051 A 
ATOM     15  C   UNL     1      -1.838  21.220   8.143  1.00  0.00     0.157 A 
ATOM     16  C   UNL     1       0.393  22.155   7.961  1.00  0.00     0.062 A 
ATOM     17  C   UNL     1      -0.716  21.812   8.744  1.00  0.00     0.158 A 
BRANCH  15  18
ATOM     18  O   UNL     1      -2.947  20.875   8.916  1.00  0.00    -0.504 OA
ATOM     19  H   UNL     1      -2.860  20.283   9.733  1.00  0.00     0.293 HD
ENDBRANCH  15  18
BRANCH  17  20
ATOM     20  O   UNL     1      -0.683  22.069  10.114  1.00  0.00    -0.504 OA
ATOM     21  H   UNL     1      -1.494  22.411  10.616  1.00  0.00     0.293 HD
ENDBRANCH  17  20
ENDBRANCH   1  12
BRANCH   2  22
ATOM     22  O   UNL     1       0.494  21.659   3.694  1.00  0.00    -0.502 OA
ATOM     23  H   UNL     1       0.592  20.960   2.967  1.00  0.00     0.293 HD
ENDBRANCH   2  22
BRANCH   6  24
ATOM     24  O   UNL     1       5.198  23.787   2.387  1.00  0.00    -0.507 OA
ATOM     25  H   UNL     1       6.071  24.004   1.931  1.00  0.00     0.293 HD
ENDBRANCH   6  24
BRANCH   8  26
ATOM     26  O   UNL     1       7.112  24.346   6.755  1.00  0.00    -0.508 OA
ATOM     27  H   UNL     1       7.834  23.689   7.025  1.00  0.00     0.293 HD
ENDBRANCH   8  26
TORSDOF 6
ENDMDL
