MODEL 1
REMARK VINA RESULT:    -7.593      0.000      0.000
REMARK INTER + INTRA:          -9.694
REMARK INTER:                  -9.369
REMARK INTRA:                  -0.325
REMARK UNBOUND:                -0.325
REMARK SMILES Oc1cc(O)c2cc(O)c(-c3cc(O)c(O)c(O)c3)[o+]c2c1
REMARK SMILES IDX 10 1 20 2 21 3 22 4 2 5 3 6 4 7 6 8 7 9 8 10 11 11 12 12
REMARK SMILES IDX 13 13 19 14 15 15 17 16 14 17 16 19 18 21 9 23 1 25 5 27
REMARK H PARENT 14 18 16 20 18 22 9 24 1 26 5 28
REMARK Flexibility Score: inf
ROOT
ATOM      1  C   UNL     1     -53.139  34.546  21.786  1.00  0.00     0.402 A 
ATOM      2  O   UNL     1     -52.195  35.484  21.778  1.00  0.00    -0.202 OA
ATOM      3  C   UNL     1     -52.090  36.421  22.716  1.00  0.00     0.368 A 
ATOM      4  C   UNL     1     -51.065  37.365  22.619  1.00  0.00     0.162 A 
ATOM      5  C   UNL     1     -50.932  38.363  23.586  1.00  0.00     0.128 A 
ATOM      6  C   UNL     1     -51.830  38.417  24.659  1.00  0.00     0.093 A 
ATOM      7  C   UNL     1     -52.865  37.481  24.778  1.00  0.00     0.136 A 
ATOM      8  C   UNL     1     -53.002  36.465  23.797  1.00  0.00     0.125 A 
ATOM      9  C   UNL     1     -54.000  35.478  23.843  1.00  0.00     0.078 A 
ATOM     10  C   UNL     1     -54.069  34.504  22.842  1.00  0.00     0.223 A 
ENDROOT
BRANCH   1  11
ATOM     11  C   UNL     1     -53.157  33.562  20.680  1.00  0.00     0.091 A 
ATOM     12  C   UNL     1     -54.146  33.603  19.681  1.00  0.00     0.068 A 
ATOM     13  C   UNL     1     -54.135  32.677  18.630  1.00  0.00     0.162 A 
ATOM     14  C   UNL     1     -52.137  32.605  20.590  1.00  0.00     0.068 A 
ATOM     15  C   UNL     1     -53.121  31.706  18.561  1.00  0.00     0.200 A 
ATOM     16  C   UNL     1     -52.118  31.675  19.546  1.00  0.00     0.162 A 
BRANCH  13  17
ATOM     17  O   UNL     1     -55.125  32.721  17.648  1.00  0.00    -0.504 OA
ATOM     18  H   UNL     1     -56.109  32.758  17.888  1.00  0.00     0.293 HD
ENDBRANCH  13  17
BRANCH  15  19
ATOM     19  O   UNL     1     -53.096  30.773  17.523  1.00  0.00    -0.502 OA
ATOM     20  H   UNL     1     -52.365  30.765  16.823  1.00  0.00     0.293 HD
ENDBRANCH  15  19
BRANCH  16  21
ATOM     21  O   UNL     1     -51.094  30.730  19.501  1.00  0.00    -0.504 OA
ATOM     22  H   UNL     1     -50.314  30.809  18.859  1.00  0.00     0.293 HD
ENDBRANCH  16  21
ENDBRANCH   1  11
BRANCH  10  23
ATOM     23  O   UNL     1     -55.029  33.495  22.912  1.00  0.00    -0.500 OA
ATOM     24  H   UNL     1     -55.458  33.228  23.791  1.00  0.00     0.294 HD
ENDBRANCH  10  23
BRANCH   5  25
ATOM     25  O   UNL     1     -49.904  39.296  23.474  1.00  0.00    -0.507 OA
ATOM     26  H   UNL     1     -49.150  39.177  22.807  1.00  0.00     0.293 HD
ENDBRANCH   5  25
BRANCH   7  27
ATOM     27  O   UNL     1     -53.721  37.606  25.875  1.00  0.00    -0.507 OA
ATOM     28  H   UNL     1     -53.520  38.157  26.696  1.00  0.00     0.293 HD
ENDBRANCH   7  27
TORSDOF 7
ENDMDL
MODEL 2
REMARK VINA RESULT:    -7.535      1.135      7.090
REMARK INTER + INTRA:          -9.622
REMARK INTER:                  -9.252
REMARK INTRA:                  -0.369
REMARK UNBOUND:                -0.325
REMARK SMILES Oc1cc(O)c2cc(O)c(-c3cc(O)c(O)c(O)c3)[o+]c2c1
REMARK SMILES IDX 10 1 20 2 21 3 22 4 2 5 3 6 4 7 6 8 7 9 8 10 11 11 12 12
REMARK SMILES IDX 13 13 19 14 15 15 17 16 14 17 16 19 18 21 9 23 1 25 5 27
REMARK H PARENT 14 18 16 20 18 22 9 24 1 26 5 28
REMARK Flexibility Score: inf
ROOT
ATOM      1  C   UNL     1     -53.166  35.574  21.734  1.00  0.00     0.402 A 
ATOM      2  O   UNL     1     -52.400  34.506  21.531  1.00  0.00    -0.202 OA
ATOM      3  C   UNL     1     -52.655  33.591  20.601  1.00  0.00     0.368 A 
ATOM      4  C   UNL     1     -51.792  32.501  20.466  1.00  0.00     0.162 A 
ATOM      5  C   UNL     1     -52.036  31.523  19.500  1.00  0.00     0.128 A 
ATOM      6  C   UNL     1     -53.152  31.634  18.663  1.00  0.00     0.093 A 
ATOM      7  C   UNL     1     -54.032  32.719  18.779  1.00  0.00     0.136 A 
ATOM      8  C   UNL     1     -53.785  33.715  19.758  1.00  0.00     0.125 A 
ATOM      9  C   UNL     1     -54.605  34.841  19.936  1.00  0.00     0.078 A 
ATOM     10  C   UNL     1     -54.295  35.785  20.920  1.00  0.00     0.223 A 
ENDROOT
BRANCH   1  11
ATOM     11  C   UNL     1     -52.782  36.517  22.809  1.00  0.00     0.091 A 
ATOM     12  C   UNL     1     -53.412  36.491  24.065  1.00  0.00     0.068 A 
ATOM     13  C   UNL     1     -53.020  37.377  25.077  1.00  0.00     0.162 A 
ATOM     14  C   UNL     1     -51.729  37.418  22.593  1.00  0.00     0.068 A 
ATOM     15  C   UNL     1     -51.979  38.292  24.844  1.00  0.00     0.200 A 
ATOM     16  C   UNL     1     -51.331  38.308  23.596  1.00  0.00     0.162 A 
BRANCH  13  17
ATOM     17  O   UNL     1     -53.656  37.347  26.318  1.00  0.00    -0.504 OA
ATOM     18  H   UNL     1     -53.214  36.936  27.131  1.00  0.00     0.293 HD
ENDBRANCH  13  17
BRANCH  15  19
ATOM     19  O   UNL     1     -51.578  39.185  25.839  1.00  0.00    -0.502 OA
ATOM     20  H   UNL     1     -51.053  40.026  25.630  1.00  0.00     0.293 HD
ENDBRANCH  15  19
BRANCH  16  21
ATOM     21  O   UNL     1     -50.291  39.198  23.336  1.00  0.00    -0.504 OA
ATOM     22  H   UNL     1     -49.849  39.740  24.069  1.00  0.00     0.293 HD
ENDBRANCH  16  21
ENDBRANCH   1  11
BRANCH  10  23
ATOM     23  O   UNL     1     -55.080  36.929  21.066  1.00  0.00    -0.500 OA
ATOM     24  H   UNL     1     -54.915  37.762  20.512  1.00  0.00     0.294 HD
ENDBRANCH  10  23
BRANCH   5  25
ATOM     25  O   UNL     1     -51.164  30.443  19.380  1.00  0.00    -0.507 OA
ATOM     26  H   UNL     1     -50.317  30.505  18.828  1.00  0.00     0.293 HD
ENDBRANCH   5  25
BRANCH   7  27
ATOM     27  O   UNL     1     -55.125  32.755  17.908  1.00  0.00    -0.507 OA
ATOM     28  H   UNL     1     -55.386  33.557  17.353  1.00  0.00     0.293 HD
ENDBRANCH   7  27
TORSDOF 7
ENDMDL
MODEL 3
REMARK VINA RESULT:    -7.482      1.112      7.148
REMARK INTER + INTRA:          -9.557
REMARK INTER:                  -9.213
REMARK INTRA:                  -0.344
REMARK UNBOUND:                -0.325
REMARK SMILES Oc1cc(O)c2cc(O)c(-c3cc(O)c(O)c(O)c3)[o+]c2c1
REMARK SMILES IDX 10 1 20 2 21 3 22 4 2 5 3 6 4 7 6 8 7 9 8 10 11 11 12 12
REMARK SMILES IDX 13 13 19 14 15 15 17 16 14 17 16 19 18 21 9 23 1 25 5 27
REMARK H PARENT 14 18 16 20 18 22 9 24 1 26 5 28
REMARK Flexibility Score: inf
ROOT
ATOM      1  C   UNL     1     -53.074  35.572  21.774  1.00  0.00     0.402 A 
ATOM      2  O   UNL     1     -52.338  34.484  21.563  1.00  0.00    -0.202 OA
ATOM      3  C   UNL     1     -52.623  33.581  20.628  1.00  0.00     0.368 A 
ATOM      4  C   UNL     1     -51.791  32.469  20.484  1.00  0.00     0.162 A 
ATOM      5  C   UNL     1     -52.066  31.504  19.514  1.00  0.00     0.128 A 
ATOM      6  C   UNL     1     -53.181  31.651  18.681  1.00  0.00     0.093 A 
ATOM      7  C   UNL     1     -54.031  32.758  18.807  1.00  0.00     0.136 A 
ATOM      8  C   UNL     1     -53.752  33.742  19.790  1.00  0.00     0.125 A 
ATOM      9  C   UNL     1     -54.540  34.890  19.978  1.00  0.00     0.078 A 
ATOM     10  C   UNL     1     -54.200  35.819  20.966  1.00  0.00     0.223 A 
ENDROOT
BRANCH   1  11
ATOM     11  C   UNL     1     -52.659  36.498  22.853  1.00  0.00     0.091 A 
ATOM     12  C   UNL     1     -51.622  37.428  22.661  1.00  0.00     0.068 A 
ATOM     13  C   UNL     1     -51.259  38.311  23.686  1.00  0.00     0.162 A 
ATOM     14  C   UNL     1     -53.350  36.490  24.073  1.00  0.00     0.068 A 
ATOM     15  C   UNL     1     -51.942  38.280  24.914  1.00  0.00     0.200 A 
ATOM     16  C   UNL     1     -52.994  37.366  25.103  1.00  0.00     0.162 A 
BRANCH  13  17
ATOM     17  O   UNL     1     -50.224  39.225  23.487  1.00  0.00    -0.504 OA
ATOM     18  H   UNL     1     -49.653  39.206  22.651  1.00  0.00     0.293 HD
ENDBRANCH  13  17
BRANCH  15  19
ATOM     19  O   UNL     1     -51.591  39.149  25.947  1.00  0.00    -0.502 OA
ATOM     20  H   UNL     1     -51.777  38.935  26.920  1.00  0.00     0.293 HD
ENDBRANCH  15  19
BRANCH  16  21
ATOM     21  O   UNL     1     -53.696  37.316  26.306  1.00  0.00    -0.504 OA
ATOM     22  H   UNL     1     -54.085  38.145  26.739  1.00  0.00     0.293 HD
ENDBRANCH  16  21
ENDBRANCH   1  11
BRANCH  10  23
ATOM     23  O   UNL     1     -54.952  36.983  21.122  1.00  0.00    -0.500 OA
ATOM     24  H   UNL     1     -55.958  36.988  20.992  1.00  0.00     0.294 HD
ENDBRANCH  10  23
BRANCH   5  25
ATOM     25  O   UNL     1     -51.225  30.401  19.384  1.00  0.00    -0.507 OA
ATOM     26  H   UNL     1     -51.444  29.638  18.755  1.00  0.00     0.293 HD
ENDBRANCH   5  25
BRANCH   7  27
ATOM     27  O   UNL     1     -55.125  32.830  17.941  1.00  0.00    -0.507 OA
ATOM     28  H   UNL     1     -55.071  33.122  16.976  1.00  0.00     0.293 HD
ENDBRANCH   7  27
TORSDOF 7
ENDMDL
MODEL 4
REMARK VINA RESULT:    -7.284      1.943      7.181
REMARK INTER + INTRA:          -9.312
REMARK INTER:                  -9.512
REMARK INTRA:                   0.199
REMARK UNBOUND:                -0.325
REMARK SMILES Oc1cc(O)c2cc(O)c(-c3cc(O)c(O)c(O)c3)[o+]c2c1
REMARK SMILES IDX 10 1 20 2 21 3 22 4 2 5 3 6 4 7 6 8 7 9 8 10 11 11 12 12
REMARK SMILES IDX 13 13 19 14 15 15 17 16 14 17 16 19 18 21 9 23 1 25 5 27
REMARK H PARENT 14 18 16 20 18 22 9 24 1 26 5 28
REMARK Flexibility Score: inf
ROOT
ATOM      1  C   UNL     1     -51.463  36.141  22.470  1.00  0.00     0.402 A 
ATOM      2  O   UNL     1     -51.111  34.925  22.060  1.00  0.00    -0.202 OA
ATOM      3  C   UNL     1     -51.862  34.182  21.253  1.00  0.00     0.368 A 
ATOM      4  C   UNL     1     -51.407  32.915  20.879  1.00  0.00     0.162 A 
ATOM      5  C   UNL     1     -52.175  32.110  20.036  1.00  0.00     0.128 A 
ATOM      6  C   UNL     1     -53.407  32.575  19.561  1.00  0.00     0.093 A 
ATOM      7  C   UNL     1     -53.884  33.842  19.921  1.00  0.00     0.136 A 
ATOM      8  C   UNL     1     -53.105  34.663  20.777  1.00  0.00     0.125 A 
ATOM      9  C   UNL     1     -53.497  35.950  21.179  1.00  0.00     0.078 A 
ATOM     10  C   UNL     1     -52.673  36.703  22.021  1.00  0.00     0.223 A 
ENDROOT
BRANCH   1  11
ATOM     11  C   UNL     1     -50.545  36.866  23.377  1.00  0.00     0.091 A 
ATOM     12  C   UNL     1     -50.451  38.269  23.354  1.00  0.00     0.068 A 
ATOM     13  C   UNL     1     -49.593  38.940  24.235  1.00  0.00     0.162 A 
ATOM     14  C   UNL     1     -49.795  36.148  24.320  1.00  0.00     0.068 A 
ATOM     15  C   UNL     1     -48.828  38.209  25.161  1.00  0.00     0.200 A 
ATOM     16  C   UNL     1     -48.935  36.808  25.202  1.00  0.00     0.162 A 
BRANCH  13  17
ATOM     17  O   UNL     1     -49.502  40.331  24.199  1.00  0.00    -0.504 OA
ATOM     18  H   UNL     1     -50.211  40.898  23.749  1.00  0.00     0.293 HD
ENDBRANCH  13  17
BRANCH  15  19
ATOM     19  O   UNL     1     -47.965  38.860  26.044  1.00  0.00    -0.502 OA
ATOM     20  H   UNL     1     -47.454  38.364  26.764  1.00  0.00     0.293 HD
ENDBRANCH  15  19
BRANCH  16  21
ATOM     21  O   UNL     1     -48.195  36.056  26.114  1.00  0.00    -0.504 OA
ATOM     22  H   UNL     1     -47.213  36.231  26.286  1.00  0.00     0.293 HD
ENDBRANCH  16  21
ENDBRANCH   1  11
BRANCH  10  23
ATOM     23  O   UNL     1     -53.039  38.000  22.382  1.00  0.00    -0.500 OA
ATOM     24  H   UNL     1     -52.432  38.587  22.944  1.00  0.00     0.294 HD
ENDBRANCH  10  23
BRANCH   5  25
ATOM     25  O   UNL     1     -51.705  30.850  19.673  1.00  0.00    -0.507 OA
ATOM     26  H   UNL     1     -52.264  30.016  19.810  1.00  0.00     0.293 HD
ENDBRANCH   5  25
BRANCH   7  27
ATOM     27  O   UNL     1     -55.125  34.231  19.410  1.00  0.00    -0.507 OA
ATOM     28  H   UNL     1     -56.008  33.828  19.687  1.00  0.00     0.293 HD
ENDBRANCH   7  27
TORSDOF 7
ENDMDL
MODEL 5
REMARK VINA RESULT:    -7.138      2.071      3.609
REMARK INTER + INTRA:          -9.133
REMARK INTER:                  -8.762
REMARK INTRA:                  -0.371
REMARK UNBOUND:                -0.325
REMARK SMILES Oc1cc(O)c2cc(O)c(-c3cc(O)c(O)c(O)c3)[o+]c2c1
REMARK SMILES IDX 10 1 20 2 21 3 22 4 2 5 3 6 4 7 6 8 7 9 8 10 11 11 12 12
REMARK SMILES IDX 13 13 19 14 15 15 17 16 14 17 16 19 18 21 9 23 1 25 5 27
REMARK H PARENT 14 18 16 20 18 22 9 24 1 26 5 28
REMARK Flexibility Score: inf
ROOT
ATOM      1  C   UNL     1     -51.488  35.895  22.531  1.00  0.00     0.402 A 
ATOM      2  O   UNL     1     -50.735  35.751  23.618  1.00  0.00    -0.202 OA
ATOM      3  C   UNL     1     -50.078  36.757  24.188  1.00  0.00     0.368 A 
ATOM      4  C   UNL     1     -49.310  36.506  25.328  1.00  0.00     0.162 A 
ATOM      5  C   UNL     1     -48.607  37.541  25.946  1.00  0.00     0.128 A 
ATOM      6  C   UNL     1     -48.671  38.838  25.422  1.00  0.00     0.093 A 
ATOM      7  C   UNL     1     -49.435  39.114  24.280  1.00  0.00     0.136 A 
ATOM      8  C   UNL     1     -50.152  38.064  23.650  1.00  0.00     0.125 A 
ATOM      9  C   UNL     1     -50.953  38.251  22.512  1.00  0.00     0.078 A 
ATOM     10  C   UNL     1     -51.635  37.168  21.949  1.00  0.00     0.223 A 
ENDROOT
BRANCH   1  11
ATOM     11  C   UNL     1     -52.163  34.696  21.984  1.00  0.00     0.091 A 
ATOM     12  C   UNL     1     -51.636  33.998  20.882  1.00  0.00     0.068 A 
ATOM     13  C   UNL     1     -52.277  32.852  20.392  1.00  0.00     0.162 A 
ATOM     14  C   UNL     1     -53.320  34.209  22.609  1.00  0.00     0.068 A 
ATOM     15  C   UNL     1     -53.450  32.386  21.011  1.00  0.00     0.200 A 
ATOM     16  C   UNL     1     -53.968  33.068  22.126  1.00  0.00     0.162 A 
BRANCH  13  17
ATOM     17  O   UNL     1     -51.750  32.172  19.295  1.00  0.00    -0.504 OA
ATOM     18  H   UNL     1     -51.524  31.185  19.341  1.00  0.00     0.293 HD
ENDBRANCH  13  17
BRANCH  15  19
ATOM     19  O   UNL     1     -54.103  31.249  20.534  1.00  0.00    -0.502 OA
ATOM     20  H   UNL     1     -53.879  30.318  20.865  1.00  0.00     0.293 HD
ENDBRANCH  15  19
BRANCH  16  21
ATOM     21  O   UNL     1     -55.125  32.625  22.767  1.00  0.00    -0.504 OA
ATOM     22  H   UNL     1     -55.708  31.892  22.381  1.00  0.00     0.293 HD
ENDBRANCH  16  21
ENDBRANCH   1  11
BRANCH  10  23
ATOM     23  O   UNL     1     -52.469  37.362  20.848  1.00  0.00    -0.500 OA
ATOM     24  H   UNL     1     -53.446  37.091  20.866  1.00  0.00     0.294 HD
ENDBRANCH  10  23
BRANCH   5  25
ATOM     25  O   UNL     1     -47.847  37.273  27.082  1.00  0.00    -0.507 OA
ATOM     26  H   UNL     1     -48.279  37.010  27.959  1.00  0.00     0.293 HD
ENDBRANCH   5  25
BRANCH   7  27
ATOM     27  O   UNL     1     -49.444  40.432  23.816  1.00  0.00    -0.507 OA
ATOM     28  H   UNL     1     -49.694  40.705  22.877  1.00  0.00     0.293 HD
ENDBRANCH   7  27
TORSDOF 7
ENDMDL
MODEL 6
REMARK VINA RESULT:    -6.768      3.696      8.752
REMARK INTER + INTRA:          -8.675
REMARK INTER:                  -8.300
REMARK INTRA:                  -0.375
REMARK UNBOUND:                -0.325
REMARK SMILES Oc1cc(O)c2cc(O)c(-c3cc(O)c(O)c(O)c3)[o+]c2c1
REMARK SMILES IDX 10 1 20 2 21 3 22 4 2 5 3 6 4 7 6 8 7 9 8 10 11 11 12 12
REMARK SMILES IDX 13 13 19 14 15 15 17 16 14 17 16 19 18 21 9 23 1 25 5 27
REMARK H PARENT 14 18 16 20 18 22 9 24 1 26 5 28
REMARK Flexibility Score: inf
ROOT
ATOM      1  C   UNL     1     -50.551  38.247  25.758  1.00  0.00     0.402 A 
ATOM      2  O   UNL     1     -50.232  37.357  24.822  1.00  0.00    -0.202 OA
ATOM      3  C   UNL     1     -51.030  37.050  23.804  1.00  0.00     0.368 A 
ATOM      4  C   UNL     1     -50.606  36.100  22.872  1.00  0.00     0.162 A 
ATOM      5  C   UNL     1     -51.424  35.755  21.795  1.00  0.00     0.128 A 
ATOM      6  C   UNL     1     -52.676  36.363  21.648  1.00  0.00     0.093 A 
ATOM      7  C   UNL     1     -53.123  37.319  22.570  1.00  0.00     0.136 A 
ATOM      8  C   UNL     1     -52.293  37.674  23.665  1.00  0.00     0.125 A 
ATOM      9  C   UNL     1     -52.653  38.630  24.628  1.00  0.00     0.078 A 
ATOM     10  C   UNL     1     -51.779  38.931  25.678  1.00  0.00     0.223 A 
ENDROOT
BRANCH   1  11
ATOM     11  C   UNL     1     -49.581  38.496  26.848  1.00  0.00     0.091 A 
ATOM     12  C   UNL     1     -49.716  37.877  28.104  1.00  0.00     0.068 A 
ATOM     13  C   UNL     1     -48.775  38.108  29.116  1.00  0.00     0.162 A 
ATOM     14  C   UNL     1     -48.471  39.320  26.610  1.00  0.00     0.068 A 
ATOM     15  C   UNL     1     -47.678  38.954  28.875  1.00  0.00     0.200 A 
ATOM     16  C   UNL     1     -47.528  39.557  27.614  1.00  0.00     0.162 A 
BRANCH  13  17
ATOM     17  O   UNL     1     -48.922  37.494  30.360  1.00  0.00    -0.504 OA
ATOM     18  H   UNL     1     -49.254  38.007  31.168  1.00  0.00     0.293 HD
ENDBRANCH  13  17
BRANCH  15  19
ATOM     19  O   UNL     1     -46.734  39.198  29.873  1.00  0.00    -0.502 OA
ATOM     20  H   UNL     1     -46.151  38.463  30.256  1.00  0.00     0.293 HD
ENDBRANCH  15  19
BRANCH  16  21
ATOM     21  O   UNL     1     -46.447  40.395  27.342  1.00  0.00    -0.504 OA
ATOM     22  H   UNL     1     -45.490  40.115  27.518  1.00  0.00     0.293 HD
ENDBRANCH  16  21
ENDBRANCH   1  11
BRANCH  10  23
ATOM     23  O   UNL     1     -52.114  39.915  26.607  1.00  0.00    -0.500 OA
ATOM     24  H   UNL     1     -51.576  40.770  26.695  1.00  0.00     0.294 HD
ENDBRANCH  10  23
BRANCH   5  25
ATOM     25  O   UNL     1     -50.985  34.806  20.875  1.00  0.00    -0.507 OA
ATOM     26  H   UNL     1     -51.500  34.614  20.025  1.00  0.00     0.293 HD
ENDBRANCH   5  25
BRANCH   7  27
ATOM     27  O   UNL     1     -54.386  37.877  22.356  1.00  0.00    -0.507 OA
ATOM     28  H   UNL     1     -54.595  38.862  22.430  1.00  0.00     0.293 HD
ENDBRANCH   7  27
TORSDOF 7
ENDMDL
MODEL 7
REMARK VINA RESULT:    -6.706      1.847      3.028
REMARK INTER + INTRA:          -8.599
REMARK INTER:                  -8.300
REMARK INTRA:                  -0.299
REMARK UNBOUND:                -0.325
REMARK SMILES Oc1cc(O)c2cc(O)c(-c3cc(O)c(O)c(O)c3)[o+]c2c1
REMARK SMILES IDX 10 1 20 2 21 3 22 4 2 5 3 6 4 7 6 8 7 9 8 10 11 11 12 12
REMARK SMILES IDX 13 13 19 14 15 15 17 16 14 17 16 19 18 21 9 23 1 25 5 27
REMARK H PARENT 14 18 16 20 18 22 9 24 1 26 5 28
REMARK Flexibility Score: inf
ROOT
ATOM      1  C   UNL     1     -52.621  35.597  22.605  1.00  0.00     0.402 A 
ATOM      2  O   UNL     1     -53.217  36.037  23.710  1.00  0.00    -0.202 OA
ATOM      3  C   UNL     1     -52.703  36.983  24.490  1.00  0.00     0.368 A 
ATOM      4  C   UNL     1     -53.405  37.377  25.632  1.00  0.00     0.162 A 
ATOM      5  C   UNL     1     -52.888  38.366  26.470  1.00  0.00     0.128 A 
ATOM      6  C   UNL     1     -51.661  38.967  26.166  1.00  0.00     0.093 A 
ATOM      7  C   UNL     1     -50.939  38.589  25.026  1.00  0.00     0.136 A 
ATOM      8  C   UNL     1     -51.463  37.586  24.170  1.00  0.00     0.125 A 
ATOM      9  C   UNL     1     -50.816  37.154  23.001  1.00  0.00     0.078 A 
ATOM     10  C   UNL     1     -51.396  36.163  22.204  1.00  0.00     0.223 A 
ENDROOT
BRANCH   1  11
ATOM     11  C   UNL     1     -53.290  34.531  21.826  1.00  0.00     0.091 A 
ATOM     12  C   UNL     1     -53.904  34.802  20.591  1.00  0.00     0.068 A 
ATOM     13  C   UNL     1     -54.513  33.776  19.857  1.00  0.00     0.162 A 
ATOM     14  C   UNL     1     -53.262  33.210  22.298  1.00  0.00     0.068 A 
ATOM     15  C   UNL     1     -54.500  32.459  20.349  1.00  0.00     0.200 A 
ATOM     16  C   UNL     1     -53.869  32.179  21.574  1.00  0.00     0.162 A 
BRANCH  13  17
ATOM     17  O   UNL     1     -55.125  34.058  18.636  1.00  0.00    -0.504 OA
ATOM     18  H   UNL     1     -56.076  34.403  18.586  1.00  0.00     0.293 HD
ENDBRANCH  13  17
BRANCH  15  19
ATOM     19  O   UNL     1     -55.105  31.425  19.634  1.00  0.00    -0.502 OA
ATOM     20  H   UNL     1     -55.881  30.892  20.008  1.00  0.00     0.293 HD
ENDBRANCH  15  19
BRANCH  16  21
ATOM     21  O   UNL     1     -53.833  30.882  22.085  1.00  0.00    -0.504 OA
ATOM     22  H   UNL     1     -53.434  30.671  22.991  1.00  0.00     0.293 HD
ENDBRANCH  16  21
ENDBRANCH   1  11
BRANCH  10  23
ATOM     23  O   UNL     1     -50.779  35.768  21.017  1.00  0.00    -0.500 OA
ATOM     24  H   UNL     1     -50.241  36.419  20.455  1.00  0.00     0.294 HD
ENDBRANCH  10  23
BRANCH   5  25
ATOM     25  O   UNL     1     -53.602  38.746  27.605  1.00  0.00    -0.507 OA
ATOM     26  H   UNL     1     -53.343  38.420  28.528  1.00  0.00     0.293 HD
ENDBRANCH   5  25
BRANCH   7  27
ATOM     27  O   UNL     1     -49.721  39.233  24.794  1.00  0.00    -0.507 OA
ATOM     28  H   UNL     1     -49.088  39.535  25.520  1.00  0.00     0.293 HD
ENDBRANCH   7  27
TORSDOF 7
ENDMDL
MODEL 8
REMARK VINA RESULT:    -6.620      6.286      9.599
REMARK INTER + INTRA:          -8.493
REMARK INTER:                  -8.108
REMARK INTRA:                  -0.384
REMARK UNBOUND:                -0.325
REMARK SMILES Oc1cc(O)c2cc(O)c(-c3cc(O)c(O)c(O)c3)[o+]c2c1
REMARK SMILES IDX 10 1 20 2 21 3 22 4 2 5 3 6 4 7 6 8 7 9 8 10 11 11 12 12
REMARK SMILES IDX 13 13 19 14 15 15 17 16 14 17 16 19 18 21 9 23 1 25 5 27
REMARK H PARENT 14 18 16 20 18 22 9 24 1 26 5 28
REMARK Flexibility Score: inf
ROOT
ATOM      1  C   UNL     1     -48.239  39.527  28.187  1.00  0.00     0.402 A 
ATOM      2  O   UNL     1     -47.711  40.711  27.890  1.00  0.00    -0.202 OA
ATOM      3  C   UNL     1     -46.919  41.385  28.718  1.00  0.00     0.368 A 
ATOM      4  C   UNL     1     -46.414  42.624  28.317  1.00  0.00     0.162 A 
ATOM      5  C   UNL     1     -45.583  43.356  29.166  1.00  0.00     0.128 A 
ATOM      6  C   UNL     1     -45.252  42.845  30.427  1.00  0.00     0.093 A 
ATOM      7  C   UNL     1     -45.745  41.604  30.851  1.00  0.00     0.136 A 
ATOM      8  C   UNL     1     -46.589  40.858  29.990  1.00  0.00     0.125 A 
ATOM      9  C   UNL     1     -47.117  39.601  30.326  1.00  0.00     0.078 A 
ATOM     10  C   UNL     1     -47.939  38.921  29.422  1.00  0.00     0.223 A 
ENDROOT
BRANCH   1  11
ATOM     11  C   UNL     1     -49.115  38.880  27.184  1.00  0.00     0.091 A 
ATOM     12  C   UNL     1     -50.504  39.101  27.174  1.00  0.00     0.068 A 
ATOM     13  C   UNL     1     -51.314  38.497  26.204  1.00  0.00     0.162 A 
ATOM     14  C   UNL     1     -48.546  38.074  26.187  1.00  0.00     0.068 A 
ATOM     15  C   UNL     1     -50.737  37.673  25.222  1.00  0.00     0.200 A 
ATOM     16  C   UNL     1     -49.347  37.465  25.216  1.00  0.00     0.162 A 
BRANCH  13  17
ATOM     17  O   UNL     1     -52.691  38.719  26.207  1.00  0.00    -0.504 OA
ATOM     18  H   UNL     1     -53.164  39.110  27.013  1.00  0.00     0.293 HD
ENDBRANCH  13  17
BRANCH  15  19
ATOM     19  O   UNL     1     -51.530  37.060  24.251  1.00  0.00    -0.502 OA
ATOM     20  H   UNL     1     -51.504  37.341  23.278  1.00  0.00     0.293 HD
ENDBRANCH  15  19
BRANCH  16  21
ATOM     21  O   UNL     1     -48.744  36.659  24.251  1.00  0.00    -0.504 OA
ATOM     22  H   UNL     1     -49.269  36.243  23.491  1.00  0.00     0.293 HD
ENDBRANCH  16  21
ENDBRANCH   1  11
BRANCH  10  23
ATOM     23  O   UNL     1     -48.425  37.652  29.735  1.00  0.00    -0.500 OA
ATOM     24  H   UNL     1     -48.470  37.320  30.692  1.00  0.00     0.294 HD
ENDBRANCH  10  23
BRANCH   5  25
ATOM     25  O   UNL     1     -45.089  44.590  28.749  1.00  0.00    -0.507 OA
ATOM     26  H   UNL     1     -44.798  45.297  29.413  1.00  0.00     0.293 HD
ENDBRANCH   5  25
BRANCH   7  27
ATOM     27  O   UNL     1     -45.371  41.167  32.125  1.00  0.00    -0.507 OA
ATOM     28  H   UNL     1     -45.878  40.480  32.664  1.00  0.00     0.293 HD
ENDBRANCH   7  27
TORSDOF 7
ENDMDL
MODEL 9
REMARK VINA RESULT:    -6.504      4.135      7.132
REMARK INTER + INTRA:          -8.350
REMARK INTER:                  -7.994
REMARK INTRA:                  -0.356
REMARK UNBOUND:                -0.325
REMARK SMILES Oc1cc(O)c2cc(O)c(-c3cc(O)c(O)c(O)c3)[o+]c2c1
REMARK SMILES IDX 10 1 20 2 21 3 22 4 2 5 3 6 4 7 6 8 7 9 8 10 11 11 12 12
REMARK SMILES IDX 13 13 19 14 15 15 17 16 14 17 16 19 18 21 9 23 1 25 5 27
REMARK H PARENT 14 18 16 20 18 22 9 24 1 26 5 28
REMARK Flexibility Score: inf
ROOT
ATOM      1  C   UNL     1     -49.774  38.319  25.829  1.00  0.00     0.402 A 
ATOM      2  O   UNL     1     -50.075  38.022  27.090  1.00  0.00    -0.202 OA
ATOM      3  C   UNL     1     -49.331  38.398  28.126  1.00  0.00     0.368 A 
ATOM      4  C   UNL     1     -49.729  38.035  29.415  1.00  0.00     0.162 A 
ATOM      5  C   UNL     1     -48.966  38.413  30.521  1.00  0.00     0.128 A 
ATOM      6  C   UNL     1     -47.796  39.159  30.339  1.00  0.00     0.093 A 
ATOM      7  C   UNL     1     -47.376  39.535  29.056  1.00  0.00     0.136 A 
ATOM      8  C   UNL     1     -48.151  39.154  27.929  1.00  0.00     0.125 A 
ATOM      9  C   UNL     1     -47.814  39.498  26.610  1.00  0.00     0.078 A 
ATOM     10  C   UNL     1     -48.630  39.090  25.550  1.00  0.00     0.223 A 
ENDROOT
BRANCH   1  11
ATOM     11  C   UNL     1     -50.677  37.834  24.761  1.00  0.00     0.091 A 
ATOM     12  C   UNL     1     -51.858  38.522  24.432  1.00  0.00     0.068 A 
ATOM     13  C   UNL     1     -52.689  38.060  23.403  1.00  0.00     0.162 A 
ATOM     14  C   UNL     1     -50.322  36.697  24.020  1.00  0.00     0.068 A 
ATOM     15  C   UNL     1     -52.337  36.906  22.682  1.00  0.00     0.200 A 
ATOM     16  C   UNL     1     -51.146  36.227  22.993  1.00  0.00     0.162 A 
BRANCH  13  17
ATOM     17  O   UNL     1     -53.862  38.747  23.090  1.00  0.00    -0.504 OA
ATOM     18  H   UNL     1     -54.766  38.434  23.425  1.00  0.00     0.293 HD
ENDBRANCH  13  17
BRANCH  15  19
ATOM     19  O   UNL     1     -53.155  36.429  21.657  1.00  0.00    -0.502 OA
ATOM     20  H   UNL     1     -53.504  37.031  20.921  1.00  0.00     0.293 HD
ENDBRANCH  15  19
BRANCH  16  21
ATOM     21  O   UNL     1     -50.765  35.084  22.290  1.00  0.00    -0.504 OA
ATOM     22  H   UNL     1     -50.159  35.126  21.481  1.00  0.00     0.293 HD
ENDBRANCH  16  21
ENDBRANCH   1  11
BRANCH  10  23
ATOM     23  O   UNL     1     -48.324  39.472  24.244  1.00  0.00    -0.500 OA
ATOM     24  H   UNL     1     -48.822  39.091  23.447  1.00  0.00     0.294 HD
ENDBRANCH  10  23
BRANCH   5  25
ATOM     25  O   UNL     1     -49.379  38.042  31.799  1.00  0.00    -0.507 OA
ATOM     26  H   UNL     1     -49.842  38.698  32.417  1.00  0.00     0.293 HD
ENDBRANCH   5  25
BRANCH   7  27
ATOM     27  O   UNL     1     -46.195  40.276  28.957  1.00  0.00    -0.507 OA
ATOM     28  H   UNL     1     -46.148  41.237  28.652  1.00  0.00     0.293 HD
ENDBRANCH   7  27
TORSDOF 7
ENDMDL
