MODEL 1
REMARK VINA RESULT:    -2.305      0.000      0.000
REMARK INTER + INTRA:         -10.688
REMARK INTER:                  -6.079
REMARK INTRA:                  -4.610
REMARK UNBOUND:                -4.610
REMARK SMILES CCCCCCCCCCCCCCCCCCCCCCCCCCCCCC(=O)[O-]
REMARK SMILES IDX 16 1 17 2 18 3 19 4 20 5 21 6 22 7 23 8 24 9 25 10 26 11
REMARK SMILES IDX 27 12 28 13 29 14 30 15 31 16 32 17 15 18 14 19 13 20 12 21
REMARK SMILES IDX 11 22 10 23 9 24 8 25 7 26 6 27 5 28 4 29 3 30 2 31 1 32
REMARK H PARENT
REMARK Flexibility Score: inf
ROOT
ATOM      1  C   UNL     1     -11.003   6.454   8.341  1.00  0.00     0.000 C 
ENDROOT
BRANCH   1   2
ATOM      2  C   UNL     1     -11.438   7.549   7.349  1.00  0.00     0.000 C 
BRANCH   2   3
ATOM      3  C   UNL     1     -12.550   7.071   6.390  1.00  0.00     0.000 C 
BRANCH   3   4
ATOM      4  C   UNL     1     -12.654   7.884   5.088  1.00  0.00     0.000 C 
BRANCH   4   5
ATOM      5  C   UNL     1     -14.074   7.891   4.502  1.00  0.00     0.000 C 
BRANCH   5   6
ATOM      6  C   UNL     1     -14.786   9.251   4.638  1.00  0.00     0.000 C 
BRANCH   6   7
ATOM      7  C   UNL     1     -14.988   9.757   6.080  1.00  0.00     0.000 C 
BRANCH   7   8
ATOM      8  C   UNL     1     -14.168  11.012   6.410  1.00  0.00     0.000 C 
BRANCH   8   9
ATOM      9  C   UNL     1     -13.065  10.695   7.430  1.00  0.00     0.000 C 
BRANCH   9  10
ATOM     10  C   UNL     1     -11.677  11.184   6.984  1.00  0.00     0.000 C 
BRANCH  10  11
ATOM     11  C   UNL     1     -11.748  12.125   5.770  1.00  0.00     0.000 C 
BRANCH  11  12
ATOM     12  C   UNL     1     -11.412  11.409   4.451  1.00  0.00     0.000 C 
BRANCH  12  13
ATOM     13  C   UNL     1     -12.036  12.089   3.211  1.00  0.00     0.006 C 
BRANCH  13  14
ATOM     14  C   UNL     1     -12.122  11.132   2.015  1.00  0.00     0.053 C 
BRANCH  14  15
ATOM     15  C   UNL     1     -13.548  10.887   1.637  1.00  0.00     0.041 C 
ATOM     16  O   UNL     1     -14.431  11.747   1.902  1.00  0.00    -0.550 OA
ATOM     17  O   UNL     1     -13.912   9.692   1.032  1.00  0.00    -0.550 OA
ENDBRANCH  14  15
ENDBRANCH  13  14
ENDBRANCH  12  13
ENDBRANCH  11  12
ENDBRANCH  10  11
ENDBRANCH   9  10
ENDBRANCH   8   9
ENDBRANCH   7   8
ENDBRANCH   6   7
ENDBRANCH   5   6
ENDBRANCH   4   5
ENDBRANCH   3   4
ENDBRANCH   2   3
ENDBRANCH   1   2
BRANCH   1  18
ATOM     18  C   UNL     1     -11.953   5.244   8.328  1.00  0.00     0.000 C 
BRANCH  18  19
ATOM     19  C   UNL     1     -11.201   3.915   8.488  1.00  0.00     0.000 C 
BRANCH  19  20
ATOM     20  C   UNL     1     -10.290   3.645   7.284  1.00  0.00     0.000 C 
BRANCH  20  21
ATOM     21  C   UNL     1     -11.053   3.842   5.966  1.00  0.00     0.000 C 
BRANCH  21  22
ATOM     22  C   UNL     1     -10.387   4.879   5.050  1.00  0.00     0.000 C 
BRANCH  22  23
ATOM     23  C   UNL     1      -9.082   5.439   5.643  1.00  0.00     0.000 C 
BRANCH  23  24
ATOM     24  C   UNL     1      -8.610   6.711   4.908  1.00  0.00    -0.000 C 
BRANCH  24  25
ATOM     25  C   UNL     1      -8.296   7.889   5.850  1.00  0.00    -0.000 C 
BRANCH  25  26
ATOM     26  C   UNL     1      -8.756   9.243   5.287  1.00  0.00    -0.000 C 
BRANCH  26  27
ATOM     27  C   UNL     1      -7.789  10.395   5.618  1.00  0.00    -0.000 C 
BRANCH  27  28
ATOM     28  C   UNL     1      -7.245  10.398   7.057  1.00  0.00    -0.000 C 
BRANCH  28  29
ATOM     29  C   UNL     1      -6.023  11.315   7.235  1.00  0.00    -0.000 C 
BRANCH  29  30
ATOM     30  C   UNL     1      -5.203  11.466   5.944  1.00  0.00    -0.000 C 
BRANCH  30  31
ATOM     31  C   UNL     1      -3.740  11.032   6.122  1.00  0.00    -0.003 C 
ATOM     32  C   UNL     1      -2.818  11.795   5.176  1.00  0.00     0.004 C 
ENDBRANCH  30  31
ENDBRANCH  29  30
ENDBRANCH  28  29
ENDBRANCH  27  28
ENDBRANCH  26  27
ENDBRANCH  25  26
ENDBRANCH  24  25
ENDBRANCH  23  24
ENDBRANCH  22  23
ENDBRANCH  21  22
ENDBRANCH  20  21
ENDBRANCH  19  20
ENDBRANCH  18  19
ENDBRANCH   1  18
TORSDOF 28
ENDMDL
MODEL 2
REMARK VINA RESULT:    -2.222      3.008      7.003
REMARK INTER + INTRA:         -10.469
REMARK INTER:                  -7.327
REMARK INTRA:                  -3.142
REMARK UNBOUND:                -4.610
REMARK SMILES CCCCCCCCCCCCCCCCCCCCCCCCCCCCCC(=O)[O-]
REMARK SMILES IDX 16 1 17 2 18 3 19 4 20 5 21 6 22 7 23 8 24 9 25 10 26 11
REMARK SMILES IDX 27 12 28 13 29 14 30 15 31 16 32 17 15 18 14 19 13 20 12 21
REMARK SMILES IDX 11 22 10 23 9 24 8 25 7 26 6 27 5 28 4 29 3 30 2 31 1 32
REMARK H PARENT
REMARK Flexibility Score: inf
ROOT
ATOM      1  C   UNL     1     -12.830   6.259   5.173  1.00  0.00     0.000 C 
ENDROOT
BRANCH   1   2
ATOM      2  C   UNL     1     -13.217   5.412   6.399  1.00  0.00     0.000 C 
BRANCH   2   3
ATOM      3  C   UNL     1     -12.463   4.066   6.450  1.00  0.00     0.000 C 
BRANCH   3   4
ATOM      4  C   UNL     1     -10.971   4.190   6.805  1.00  0.00     0.000 C 
BRANCH   4   5
ATOM      5  C   UNL     1     -10.737   4.579   8.273  1.00  0.00     0.000 C 
BRANCH   5   6
ATOM      6  C   UNL     1     -10.107   5.975   8.444  1.00  0.00     0.000 C 
BRANCH   6   7
ATOM      7  C   UNL     1     -10.125   6.873   7.192  1.00  0.00     0.000 C 
BRANCH   7   8
ATOM      8  C   UNL     1      -8.724   7.205   6.657  1.00  0.00     0.000 C 
BRANCH   8   9
ATOM      9  C   UNL     1      -8.807   7.850   5.265  1.00  0.00     0.000 C 
BRANCH   9  10
ATOM     10  C   UNL     1      -8.026   9.172   5.170  1.00  0.00     0.000 C 
BRANCH  10  11
ATOM     11  C   UNL     1      -7.181   9.446   6.425  1.00  0.00     0.000 C 
BRANCH  11  12
ATOM     12  C   UNL     1      -7.458  10.832   7.029  1.00  0.00     0.000 C 
BRANCH  12  13
ATOM     13  C   UNL     1      -6.283  11.822   6.854  1.00  0.00     0.006 C 
BRANCH  13  14
ATOM     14  C   UNL     1      -4.925  11.110   6.878  1.00  0.00     0.053 C 
BRANCH  14  15
ATOM     15  C   UNL     1      -4.115  11.479   5.676  1.00  0.00     0.041 C 
ATOM     16  O   UNL     1      -4.639  11.466   4.530  1.00  0.00    -0.550 OA
ATOM     17  O   UNL     1      -2.770  11.796   5.813  1.00  0.00    -0.550 OA
ENDBRANCH  14  15
ENDBRANCH  13  14
ENDBRANCH  12  13
ENDBRANCH  11  12
ENDBRANCH  10  11
ENDBRANCH   9  10
ENDBRANCH   8   9
ENDBRANCH   7   8
ENDBRANCH   6   7
ENDBRANCH   5   6
ENDBRANCH   4   5
ENDBRANCH   3   4
ENDBRANCH   2   3
ENDBRANCH   1   2
BRANCH   1  18
ATOM     18  C   UNL     1     -13.983   7.160   4.698  1.00  0.00     0.000 C 
BRANCH  18  19
ATOM     19  C   UNL     1     -14.243   8.326   5.662  1.00  0.00     0.000 C 
BRANCH  19  20
ATOM     20  C   UNL     1     -14.713   9.576   4.907  1.00  0.00     0.000 C 
BRANCH  20  21
ATOM     21  C   UNL     1     -14.477  10.841   5.744  1.00  0.00     0.000 C 
BRANCH  21  22
ATOM     22  C   UNL     1     -15.118  10.754   7.137  1.00  0.00     0.000 C 
BRANCH  22  23
ATOM     23  C   UNL     1     -14.086  10.892   8.271  1.00  0.00     0.000 C 
BRANCH  23  24
ATOM     24  C   UNL     1     -12.774  11.545   7.785  1.00  0.00    -0.000 C 
BRANCH  24  25
ATOM     25  C   UNL     1     -11.748  10.537   7.235  1.00  0.00    -0.000 C 
BRANCH  25  26
ATOM     26  C   UNL     1     -11.006  11.056   5.993  1.00  0.00    -0.000 C 
BRANCH  26  27
ATOM     27  C   UNL     1     -11.801  12.123   5.217  1.00  0.00    -0.000 C 
BRANCH  27  28
ATOM     28  C   UNL     1     -11.578  12.125   3.695  1.00  0.00    -0.000 C 
BRANCH  28  29
ATOM     29  C   UNL     1     -12.036  10.821   3.019  1.00  0.00    -0.000 C 
BRANCH  29  30
ATOM     30  C   UNL     1     -13.047  11.063   1.887  1.00  0.00    -0.000 C 
BRANCH  30  31
ATOM     31  C   UNL     1     -12.483  11.965   0.778  1.00  0.00    -0.003 C 
ATOM     32  C   UNL     1     -11.456  11.222  -0.070  1.00  0.00     0.004 C 
ENDBRANCH  30  31
ENDBRANCH  29  30
ENDBRANCH  28  29
ENDBRANCH  27  28
ENDBRANCH  26  27
ENDBRANCH  25  26
ENDBRANCH  24  25
ENDBRANCH  23  24
ENDBRANCH  22  23
ENDBRANCH  21  22
ENDBRANCH  20  21
ENDBRANCH  19  20
ENDBRANCH  18  19
ENDBRANCH   1  18
TORSDOF 28
ENDMDL
MODEL 3
REMARK VINA RESULT:    -2.177      3.539      7.344
REMARK INTER + INTRA:         -10.350
REMARK INTER:                  -8.716
REMARK INTRA:                  -1.634
REMARK UNBOUND:                -4.610
REMARK SMILES CCCCCCCCCCCCCCCCCCCCCCCCCCCCCC(=O)[O-]
REMARK SMILES IDX 16 1 17 2 18 3 19 4 20 5 21 6 22 7 23 8 24 9 25 10 26 11
REMARK SMILES IDX 27 12 28 13 29 14 30 15 31 16 32 17 15 18 14 19 13 20 12 21
REMARK SMILES IDX 11 22 10 23 9 24 8 25 7 26 6 27 5 28 4 29 3 30 2 31 1 32
REMARK H PARENT
REMARK Flexibility Score: inf
ROOT
ATOM      1  C   UNL     1     -13.371   5.274   6.234  1.00  0.00     0.000 C 
ENDROOT
BRANCH   1   2
ATOM      2  C   UNL     1     -12.089   4.456   6.475  1.00  0.00     0.000 C 
BRANCH   2   3
ATOM      3  C   UNL     1     -10.811   5.226   6.078  1.00  0.00     0.000 C 
BRANCH   3   4
ATOM      4  C   UNL     1      -9.696   5.188   7.136  1.00  0.00     0.000 C 
BRANCH   4   5
ATOM      5  C   UNL     1      -8.838   6.463   7.145  1.00  0.00     0.000 C 
BRANCH   5   6
ATOM      6  C   UNL     1      -9.477   7.636   6.377  1.00  0.00     0.000 C 
BRANCH   6   7
ATOM      7  C   UNL     1      -8.637   8.212   5.220  1.00  0.00     0.000 C 
BRANCH   7   8
ATOM      8  C   UNL     1      -7.640   9.292   5.665  1.00  0.00     0.000 C 
BRANCH   8   9
ATOM      9  C   UNL     1      -7.694  10.508   4.728  1.00  0.00     0.000 C 
BRANCH   9  10
ATOM     10  C   UNL     1      -6.815  11.674   5.210  1.00  0.00     0.000 C 
BRANCH  10  11
ATOM     11  C   UNL     1      -6.186  11.406   6.587  1.00  0.00     0.000 C 
BRANCH  11  12
ATOM     12  C   UNL     1      -4.767  10.823   6.481  1.00  0.00     0.000 C 
BRANCH  12  13
ATOM     13  C   UNL     1      -3.738  11.819   5.898  1.00  0.00     0.006 C 
BRANCH  13  14
ATOM     14  C   UNL     1      -2.358  11.175   5.712  1.00  0.00     0.053 C 
BRANCH  14  15
ATOM     15  C   UNL     1      -1.631  11.808   4.569  1.00  0.00     0.041 C 
ATOM     16  O   UNL     1      -2.246  12.095   3.507  1.00  0.00    -0.550 OA
ATOM     17  O   UNL     1      -0.265  12.043   4.657  1.00  0.00    -0.550 OA
ENDBRANCH  14  15
ENDBRANCH  13  14
ENDBRANCH  12  13
ENDBRANCH  11  12
ENDBRANCH  10  11
ENDBRANCH   9  10
ENDBRANCH   8   9
ENDBRANCH   7   8
ENDBRANCH   6   7
ENDBRANCH   5   6
ENDBRANCH   4   5
ENDBRANCH   3   4
ENDBRANCH   2   3
ENDBRANCH   1   2
BRANCH   1  18
ATOM     18  C   UNL     1     -13.630   5.526   4.739  1.00  0.00     0.000 C 
BRANCH  18  19
ATOM     19  C   UNL     1     -14.486   6.778   4.501  1.00  0.00     0.000 C 
BRANCH  19  20
ATOM     20  C   UNL     1     -14.128   7.891   5.494  1.00  0.00     0.000 C 
BRANCH  20  21
ATOM     21  C   UNL     1     -15.125   9.055   5.394  1.00  0.00     0.000 C 
BRANCH  21  22
ATOM     22  C   UNL     1     -14.436  10.426   5.447  1.00  0.00     0.000 C 
BRANCH  22  23
ATOM     23  C   UNL     1     -14.529  11.079   6.838  1.00  0.00     0.000 C 
BRANCH  23  24
ATOM     24  C   UNL     1     -13.350  12.038   7.108  1.00  0.00    -0.000 C 
BRANCH  24  25
ATOM     25  C   UNL     1     -12.471  11.617   8.301  1.00  0.00    -0.000 C 
BRANCH  25  26
ATOM     26  C   UNL     1     -10.968  11.793   8.028  1.00  0.00    -0.000 C 
BRANCH  26  27
ATOM     27  C   UNL     1     -10.656  12.119   6.556  1.00  0.00    -0.000 C 
BRANCH  27  28
ATOM     28  C   UNL     1     -11.277  11.157   5.528  1.00  0.00    -0.000 C 
BRANCH  28  29
ATOM     29  C   UNL     1     -11.383  11.769   4.121  1.00  0.00    -0.000 C 
BRANCH  29  30
ATOM     30  C   UNL     1     -12.452  11.085   3.256  1.00  0.00    -0.000 C 
BRANCH  30  31
ATOM     31  C   UNL     1     -12.615  11.753   1.882  1.00  0.00    -0.003 C 
ATOM     32  C   UNL     1     -11.816  11.017   0.811  1.00  0.00     0.004 C 
ENDBRANCH  30  31
ENDBRANCH  29  30
ENDBRANCH  28  29
ENDBRANCH  27  28
ENDBRANCH  26  27
ENDBRANCH  25  26
ENDBRANCH  24  25
ENDBRANCH  23  24
ENDBRANCH  22  23
ENDBRANCH  21  22
ENDBRANCH  20  21
ENDBRANCH  19  20
ENDBRANCH  18  19
ENDBRANCH   1  18
TORSDOF 28
ENDMDL
MODEL 4
REMARK VINA RESULT:    -2.045      3.602      6.936
REMARK INTER + INTRA:         -10.002
REMARK INTER:                  -8.123
REMARK INTRA:                  -1.879
REMARK UNBOUND:                -4.610
REMARK SMILES CCCCCCCCCCCCCCCCCCCCCCCCCCCCCC(=O)[O-]
REMARK SMILES IDX 16 1 17 2 18 3 19 4 20 5 21 6 22 7 23 8 24 9 25 10 26 11
REMARK SMILES IDX 27 12 28 13 29 14 30 15 31 16 32 17 15 18 14 19 13 20 12 21
REMARK SMILES IDX 11 22 10 23 9 24 8 25 7 26 6 27 5 28 4 29 3 30 2 31 1 32
REMARK H PARENT
REMARK Flexibility Score: inf
ROOT
ATOM      1  C   UNL     1     -11.851   4.777   7.672  1.00  0.00     0.000 C 
ENDROOT
BRANCH   1   2
ATOM      2  C   UNL     1     -10.359   4.406   7.773  1.00  0.00     0.000 C 
BRANCH   2   3
ATOM      3  C   UNL     1      -9.441   5.647   7.800  1.00  0.00     0.000 C 
BRANCH   3   4
ATOM      4  C   UNL     1      -9.939   6.820   6.939  1.00  0.00     0.000 C 
BRANCH   4   5
ATOM      5  C   UNL     1      -9.016   7.121   5.748  1.00  0.00     0.000 C 
BRANCH   5   6
ATOM      6  C   UNL     1      -8.016   8.261   6.021  1.00  0.00     0.000 C 
BRANCH   6   7
ATOM      7  C   UNL     1      -8.027   9.417   5.001  1.00  0.00     0.000 C 
BRANCH   7   8
ATOM      8  C   UNL     1      -9.060  10.507   5.323  1.00  0.00     0.000 C 
BRANCH   8   9
ATOM      9  C   UNL     1      -8.371  11.781   5.834  1.00  0.00     0.000 C 
BRANCH   9  10
ATOM     10  C   UNL     1      -6.843  11.744   5.665  1.00  0.00     0.000 C 
BRANCH  10  11
ATOM     11  C   UNL     1      -6.113  11.437   6.982  1.00  0.00     0.000 C 
BRANCH  11  12
ATOM     12  C   UNL     1      -4.685  10.914   6.755  1.00  0.00     0.000 C 
BRANCH  12  13
ATOM     13  C   UNL     1      -3.728  11.981   6.175  1.00  0.00     0.006 C 
BRANCH  13  14
ATOM     14  C   UNL     1      -3.456  11.757   4.682  1.00  0.00     0.053 C 
BRANCH  14  15
ATOM     15  C   UNL     1      -2.020  12.025   4.362  1.00  0.00     0.041 C 
ATOM     16  O   UNL     1      -1.645  12.125   3.163  1.00  0.00    -0.550 OA
ATOM     17  O   UNL     1      -1.085  12.123   5.384  1.00  0.00    -0.550 OA
ENDBRANCH  14  15
ENDBRANCH  13  14
ENDBRANCH  12  13
ENDBRANCH  11  12
ENDBRANCH  10  11
ENDBRANCH   9  10
ENDBRANCH   8   9
ENDBRANCH   7   8
ENDBRANCH   6   7
ENDBRANCH   5   6
ENDBRANCH   4   5
ENDBRANCH   3   4
ENDBRANCH   2   3
ENDBRANCH   1   2
BRANCH   1  18
ATOM     18  C   UNL     1     -12.243   5.239   6.258  1.00  0.00     0.000 C 
BRANCH  18  19
ATOM     19  C   UNL     1     -13.612   4.692   5.828  1.00  0.00     0.000 C 
BRANCH  19  20
ATOM     20  C   UNL     1     -14.213   5.532   4.694  1.00  0.00     0.000 C 
BRANCH  20  21
ATOM     21  C   UNL     1     -13.234   5.644   3.518  1.00  0.00     0.000 C 
BRANCH  21  22
ATOM     22  C   UNL     1     -13.711   6.635   2.447  1.00  0.00     0.000 C 
BRANCH  22  23
ATOM     23  C   UNL     1     -13.419   8.098   2.824  1.00  0.00     0.000 C 
BRANCH  23  24
ATOM     24  C   UNL     1     -14.420   8.639   3.867  1.00  0.00    -0.000 C 
BRANCH  24  25
ATOM     25  C   UNL     1     -13.960   8.445   5.324  1.00  0.00    -0.000 C 
BRANCH  25  26
ATOM     26  C   UNL     1     -12.555   9.011   5.589  1.00  0.00    -0.000 C 
BRANCH  26  27
ATOM     27  C   UNL     1     -12.579  10.421   6.206  1.00  0.00    -0.000 C 
BRANCH  27  28
ATOM     28  C   UNL     1     -13.023  11.544   5.253  1.00  0.00    -0.000 C 
BRANCH  28  29
ATOM     29  C   UNL     1     -11.862  12.125   4.428  1.00  0.00    -0.000 C 
BRANCH  29  30
ATOM     30  C   UNL     1     -11.646  11.379   3.102  1.00  0.00    -0.000 C 
BRANCH  30  31
ATOM     31  C   UNL     1     -12.561  11.894   1.980  1.00  0.00    -0.003 C 
ATOM     32  C   UNL     1     -12.009  11.528   0.606  1.00  0.00     0.004 C 
ENDBRANCH  30  31
ENDBRANCH  29  30
ENDBRANCH  28  29
ENDBRANCH  27  28
ENDBRANCH  26  27
ENDBRANCH  25  26
ENDBRANCH  24  25
ENDBRANCH  23  24
ENDBRANCH  22  23
ENDBRANCH  21  22
ENDBRANCH  20  21
ENDBRANCH  19  20
ENDBRANCH  18  19
ENDBRANCH   1  18
TORSDOF 28
ENDMDL
MODEL 5
REMARK VINA RESULT:    -2.019      1.551      6.162
REMARK INTER + INTRA:          -9.933
REMARK INTER:                  -7.555
REMARK INTRA:                  -2.379
REMARK UNBOUND:                -4.610
REMARK SMILES CCCCCCCCCCCCCCCCCCCCCCCCCCCCCC(=O)[O-]
REMARK SMILES IDX 16 1 17 2 18 3 19 4 20 5 21 6 22 7 23 8 24 9 25 10 26 11
REMARK SMILES IDX 27 12 28 13 29 14 30 15 31 16 32 17 15 18 14 19 13 20 12 21
REMARK SMILES IDX 11 22 10 23 9 24 8 25 7 26 6 27 5 28 4 29 3 30 2 31 1 32
REMARK H PARENT
REMARK Flexibility Score: inf
ROOT
ATOM      1  C   UNL     1      -9.051   8.492   5.521  1.00  0.00     0.000 C 
ENDROOT
BRANCH   1   2
ATOM      2  C   UNL     1      -7.879   9.027   4.677  1.00  0.00     0.000 C 
BRANCH   2   3
ATOM      3  C   UNL     1      -7.326  10.365   5.213  1.00  0.00     0.000 C 
BRANCH   3   4
ATOM      4  C   UNL     1      -5.832  10.330   5.578  1.00  0.00     0.000 C 
BRANCH   4   5
ATOM      5  C   UNL     1      -5.576  10.599   7.069  1.00  0.00     0.000 C 
BRANCH   5   6
ATOM      6  C   UNL     1      -6.867  10.695   7.904  1.00  0.00     0.000 C 
BRANCH   6   7
ATOM      7  C   UNL     1      -7.506  12.096   7.988  1.00  0.00     0.000 C 
BRANCH   7   8
ATOM      8  C   UNL     1      -9.039  12.076   7.907  1.00  0.00     0.000 C 
BRANCH   8   9
ATOM      9  C   UNL     1      -9.508  11.756   6.480  1.00  0.00     0.000 C 
BRANCH   9  10
ATOM     10  C   UNL     1     -10.982  12.125   6.237  1.00  0.00     0.000 C 
BRANCH  10  11
ATOM     11  C   UNL     1     -11.952  11.182   6.967  1.00  0.00     0.000 C 
BRANCH  11  12
ATOM     12  C   UNL     1     -13.394  11.306   6.448  1.00  0.00     0.000 C 
BRANCH  12  13
ATOM     13  C   UNL     1     -13.487  11.958   5.049  1.00  0.00     0.006 C 
BRANCH  13  14
ATOM     14  C   UNL     1     -13.936  10.955   3.978  1.00  0.00     0.053 C 
BRANCH  14  15
ATOM     15  C   UNL     1     -13.401  11.342   2.637  1.00  0.00     0.041 C 
ATOM     16  O   UNL     1     -14.188  11.543   1.673  1.00  0.00    -0.550 OA
ATOM     17  O   UNL     1     -12.030  11.439   2.435  1.00  0.00    -0.550 OA
ENDBRANCH  14  15
ENDBRANCH  13  14
ENDBRANCH  12  13
ENDBRANCH  11  12
ENDBRANCH  10  11
ENDBRANCH   9  10
ENDBRANCH   8   9
ENDBRANCH   7   8
ENDBRANCH   6   7
ENDBRANCH   5   6
ENDBRANCH   4   5
ENDBRANCH   3   4
ENDBRANCH   2   3
ENDBRANCH   1   2
BRANCH   1  18
ATOM     18  C   UNL     1      -9.392   7.029   5.187  1.00  0.00     0.000 C 
BRANCH  18  19
ATOM     19  C   UNL     1      -8.765   6.045   6.186  1.00  0.00     0.000 C 
BRANCH  19  20
ATOM     20  C   UNL     1      -8.731   6.638   7.600  1.00  0.00     0.000 C 
BRANCH  20  21
ATOM     21  C   UNL     1      -9.945   6.175   8.416  1.00  0.00     0.000 C 
BRANCH  21  22
ATOM     22  C   UNL     1     -10.036   4.645   8.521  1.00  0.00     0.000 C 
BRANCH  22  23
ATOM     23  C   UNL     1     -11.022   4.042   7.504  1.00  0.00     0.000 C 
BRANCH  23  24
ATOM     24  C   UNL     1     -12.492   4.258   7.924  1.00  0.00    -0.000 C 
BRANCH  24  25
ATOM     25  C   UNL     1     -13.418   4.647   6.756  1.00  0.00    -0.000 C 
BRANCH  25  26
ATOM     26  C   UNL     1     -12.669   5.337   5.604  1.00  0.00    -0.000 C 
BRANCH  26  27
ATOM     27  C   UNL     1     -12.362   6.818   5.885  1.00  0.00    -0.000 C 
BRANCH  27  28
ATOM     28  C   UNL     1     -13.593   7.738   5.966  1.00  0.00    -0.000 C 
BRANCH  28  29
ATOM     29  C   UNL     1     -14.582   7.519   4.808  1.00  0.00    -0.000 C 
BRANCH  29  30
ATOM     30  C   UNL     1     -13.934   7.721   3.430  1.00  0.00    -0.000 C 
BRANCH  30  31
ATOM     31  C   UNL     1     -13.730   6.398   2.675  1.00  0.00    -0.003 C 
ATOM     32  C   UNL     1     -15.024   5.593   2.611  1.00  0.00     0.004 C 
ENDBRANCH  30  31
ENDBRANCH  29  30
ENDBRANCH  28  29
ENDBRANCH  27  28
ENDBRANCH  26  27
ENDBRANCH  25  26
ENDBRANCH  24  25
ENDBRANCH  23  24
ENDBRANCH  22  23
ENDBRANCH  21  22
ENDBRANCH  20  21
ENDBRANCH  19  20
ENDBRANCH  18  19
ENDBRANCH   1  18
TORSDOF 28
ENDMDL
MODEL 6
REMARK VINA RESULT:    -1.734      1.754      3.283
REMARK INTER + INTRA:          -9.182
REMARK INTER:                  -5.945
REMARK INTRA:                  -3.237
REMARK UNBOUND:                -4.610
REMARK SMILES CCCCCCCCCCCCCCCCCCCCCCCCCCCCCC(=O)[O-]
REMARK SMILES IDX 16 1 17 2 18 3 19 4 20 5 21 6 22 7 23 8 24 9 25 10 26 11
REMARK SMILES IDX 27 12 28 13 29 14 30 15 31 16 32 17 15 18 14 19 13 20 12 21
REMARK SMILES IDX 11 22 10 23 9 24 8 25 7 26 6 27 5 28 4 29 3 30 2 31 1 32
REMARK H PARENT
REMARK Flexibility Score: inf
ROOT
ATOM      1  C   UNL     1     -12.311   4.497   7.142  1.00  0.00     0.000 C 
ENDROOT
BRANCH   1   2
ATOM      2  C   UNL     1     -11.248   4.938   8.166  1.00  0.00     0.000 C 
BRANCH   2   3
ATOM      3  C   UNL     1     -11.253   6.463   8.405  1.00  0.00     0.000 C 
BRANCH   3   4
ATOM      4  C   UNL     1     -11.244   7.305   7.118  1.00  0.00     0.000 C 
BRANCH   4   5
ATOM      5  C   UNL     1     -12.133   8.554   7.216  1.00  0.00     0.000 C 
BRANCH   5   6
ATOM      6  C   UNL     1     -11.605   9.747   6.396  1.00  0.00     0.000 C 
BRANCH   6   7
ATOM      7  C   UNL     1     -12.007  11.142   6.914  1.00  0.00     0.000 C 
BRANCH   7   8
ATOM      8  C   UNL     1     -12.393  12.122   5.797  1.00  0.00     0.000 C 
BRANCH   8   9
ATOM      9  C   UNL     1     -11.774  11.697   4.457  1.00  0.00     0.000 C 
BRANCH   9  10
ATOM     10  C   UNL     1     -12.814  11.150   3.464  1.00  0.00     0.000 C 
BRANCH  10  11
ATOM     11  C   UNL     1     -14.257  11.342   3.959  1.00  0.00     0.000 C 
BRANCH  11  12
ATOM     12  C   UNL     1     -14.944  10.008   4.297  1.00  0.00     0.000 C 
BRANCH  12  13
ATOM     13  C   UNL     1     -13.992   8.792   4.217  1.00  0.00     0.006 C 
BRANCH  13  14
ATOM     14  C   UNL     1     -14.369   7.843   3.073  1.00  0.00     0.053 C 
BRANCH  14  15
ATOM     15  C   UNL     1     -14.336   6.421   3.536  1.00  0.00     0.041 C 
ATOM     16  O   UNL     1     -14.858   6.100   4.638  1.00  0.00    -0.550 OA
ATOM     17  O   UNL     1     -13.692   5.455   2.774  1.00  0.00    -0.550 OA
ENDBRANCH  14  15
ENDBRANCH  13  14
ENDBRANCH  12  13
ENDBRANCH  11  12
ENDBRANCH  10  11
ENDBRANCH   9  10
ENDBRANCH   8   9
ENDBRANCH   7   8
ENDBRANCH   6   7
ENDBRANCH   5   6
ENDBRANCH   4   5
ENDBRANCH   3   4
ENDBRANCH   2   3
ENDBRANCH   1   2
BRANCH   1  18
ATOM     18  C   UNL     1     -11.683   3.967   5.841  1.00  0.00     0.000 C 
BRANCH  18  19
ATOM     19  C   UNL     1     -11.078   5.091   4.989  1.00  0.00     0.000 C 
BRANCH  19  20
ATOM     20  C   UNL     1      -9.562   4.914   4.833  1.00  0.00     0.000 C 
BRANCH  20  21
ATOM     21  C   UNL     1      -8.801   5.961   5.658  1.00  0.00     0.000 C 
BRANCH  21  22
ATOM     22  C   UNL     1      -8.380   7.178   4.822  1.00  0.00     0.000 C 
BRANCH  22  23
ATOM     23  C   UNL     1      -7.938   8.367   5.693  1.00  0.00     0.000 C 
BRANCH  23  24
ATOM     24  C   UNL     1      -8.315   9.723   5.058  1.00  0.00    -0.000 C 
BRANCH  24  25
ATOM     25  C   UNL     1      -8.152  10.920   6.013  1.00  0.00    -0.000 C 
BRANCH  25  26
ATOM     26  C   UNL     1      -7.300  10.587   7.248  1.00  0.00    -0.000 C 
BRANCH  26  27
ATOM     27  C   UNL     1      -6.743  11.837   7.953  1.00  0.00    -0.000 C 
BRANCH  27  28
ATOM     28  C   UNL     1      -5.254  12.125   7.693  1.00  0.00    -0.000 C 
BRANCH  28  29
ATOM     29  C   UNL     1      -4.591  11.081   6.778  1.00  0.00    -0.000 C 
BRANCH  29  30
ATOM     30  C   UNL     1      -4.064  11.689   5.470  1.00  0.00    -0.000 C 
BRANCH  30  31
ATOM     31  C   UNL     1      -2.592  12.121   5.572  1.00  0.00    -0.003 C 
ATOM     32  C   UNL     1      -1.706  11.286   4.653  1.00  0.00     0.004 C 
ENDBRANCH  30  31
ENDBRANCH  29  30
ENDBRANCH  28  29
ENDBRANCH  27  28
ENDBRANCH  26  27
ENDBRANCH  25  26
ENDBRANCH  24  25
ENDBRANCH  23  24
ENDBRANCH  22  23
ENDBRANCH  21  22
ENDBRANCH  20  21
ENDBRANCH  19  20
ENDBRANCH  18  19
ENDBRANCH   1  18
TORSDOF 28
ENDMDL
MODEL 7
REMARK VINA RESULT:    -1.671      2.231      4.445
REMARK INTER + INTRA:          -9.017
REMARK INTER:                  -7.236
REMARK INTRA:                  -1.781
REMARK UNBOUND:                -4.610
REMARK SMILES CCCCCCCCCCCCCCCCCCCCCCCCCCCCCC(=O)[O-]
REMARK SMILES IDX 16 1 17 2 18 3 19 4 20 5 21 6 22 7 23 8 24 9 25 10 26 11
REMARK SMILES IDX 27 12 28 13 29 14 30 15 31 16 32 17 15 18 14 19 13 20 12 21
REMARK SMILES IDX 11 22 10 23 9 24 8 25 7 26 6 27 5 28 4 29 3 30 2 31 1 32
REMARK H PARENT
REMARK Flexibility Score: inf
ROOT
ATOM      1  C   UNL     1     -10.915   5.160   8.465  1.00  0.00     0.000 C 
ENDROOT
BRANCH   1   2
ATOM      2  C   UNL     1     -11.463   3.972   7.651  1.00  0.00     0.000 C 
BRANCH   2   3
ATOM      3  C   UNL     1     -11.642   4.312   6.156  1.00  0.00     0.000 C 
BRANCH   3   4
ATOM      4  C   UNL     1     -13.063   4.760   5.775  1.00  0.00     0.000 C 
BRANCH   4   5
ATOM      5  C   UNL     1     -13.159   5.277   4.332  1.00  0.00     0.000 C 
BRANCH   5   6
ATOM      6  C   UNL     1     -14.560   5.801   3.960  1.00  0.00     0.000 C 
BRANCH   6   7
ATOM      7  C   UNL     1     -14.670   7.325   3.757  1.00  0.00     0.000 C 
BRANCH   7   8
ATOM      8  C   UNL     1     -14.095   7.807   2.417  1.00  0.00     0.000 C 
BRANCH   8   9
ATOM      9  C   UNL     1     -13.202   9.041   2.616  1.00  0.00     0.000 C 
BRANCH   9  10
ATOM     10  C   UNL     1     -13.540  10.187   1.647  1.00  0.00     0.000 C 
BRANCH  10  11
ATOM     11  C   UNL     1     -14.129  11.411   2.367  1.00  0.00     0.000 C 
BRANCH  11  12
ATOM     12  C   UNL     1     -14.614  11.080   3.788  1.00  0.00     0.000 C 
BRANCH  12  13
ATOM     13  C   UNL     1     -13.637  11.546   4.892  1.00  0.00     0.006 C 
BRANCH  13  14
ATOM     14  C   UNL     1     -14.038  11.017   6.274  1.00  0.00     0.053 C 
BRANCH  14  15
ATOM     15  C   UNL     1     -12.865  11.022   7.202  1.00  0.00     0.041 C 
ATOM     16  O   UNL     1     -11.754  11.476   6.816  1.00  0.00    -0.550 OA
ATOM     17  O   UNL     1     -12.984  10.487   8.477  1.00  0.00    -0.550 OA
ENDBRANCH  14  15
ENDBRANCH  13  14
ENDBRANCH  12  13
ENDBRANCH  11  12
ENDBRANCH  10  11
ENDBRANCH   9  10
ENDBRANCH   8   9
ENDBRANCH   7   8
ENDBRANCH   6   7
ENDBRANCH   5   6
ENDBRANCH   4   5
ENDBRANCH   3   4
ENDBRANCH   2   3
ENDBRANCH   1   2
BRANCH   1  18
ATOM     18  C   UNL     1      -9.657   5.773   7.825  1.00  0.00     0.000 C 
BRANCH  18  19
ATOM     19  C   UNL     1      -9.998   6.906   6.846  1.00  0.00     0.000 C 
BRANCH  19  20
ATOM     20  C   UNL     1      -8.728   7.520   6.244  1.00  0.00     0.000 C 
BRANCH  20  21
ATOM     21  C   UNL     1      -9.079   8.596   5.207  1.00  0.00     0.000 C 
BRANCH  21  22
ATOM     22  C   UNL     1      -8.178   9.835   5.316  1.00  0.00     0.000 C 
BRANCH  22  23
ATOM     23  C   UNL     1      -7.363   9.859   6.622  1.00  0.00     0.000 C 
BRANCH  23  24
ATOM     24  C   UNL     1      -7.306  11.270   7.244  1.00  0.00    -0.000 C 
BRANCH  24  25
ATOM     25  C   UNL     1      -5.896  11.891   7.240  1.00  0.00    -0.000 C 
BRANCH  25  26
ATOM     26  C   UNL     1      -4.786  10.852   7.011  1.00  0.00    -0.000 C 
BRANCH  26  27
ATOM     27  C   UNL     1      -3.548  11.437   6.308  1.00  0.00    -0.000 C 
BRANCH  27  28
ATOM     28  C   UNL     1      -3.765  11.858   4.845  1.00  0.00    -0.000 C 
BRANCH  28  29
ATOM     29  C   UNL     1      -2.448  12.124   4.095  1.00  0.00    -0.000 C 
BRANCH  29  30
ATOM     30  C   UNL     1      -1.211  11.951   4.991  1.00  0.00    -0.000 C 
BRANCH  30  31
ATOM     31  C   UNL     1       0.105  12.076   4.208  1.00  0.00    -0.003 C 
ATOM     32  C   UNL     1       1.305  12.125   5.148  1.00  0.00     0.004 C 
ENDBRANCH  30  31
ENDBRANCH  29  30
ENDBRANCH  28  29
ENDBRANCH  27  28
ENDBRANCH  26  27
ENDBRANCH  25  26
ENDBRANCH  24  25
ENDBRANCH  23  24
ENDBRANCH  22  23
ENDBRANCH  21  22
ENDBRANCH  20  21
ENDBRANCH  19  20
ENDBRANCH  18  19
ENDBRANCH   1  18
TORSDOF 28
ENDMDL
MODEL 8
REMARK VINA RESULT:    -1.261      3.918      8.268
REMARK INTER + INTRA:          -7.935
REMARK INTER:                  -5.098
REMARK INTRA:                  -2.837
REMARK UNBOUND:                -4.610
REMARK SMILES CCCCCCCCCCCCCCCCCCCCCCCCCCCCCC(=O)[O-]
REMARK SMILES IDX 16 1 17 2 18 3 19 4 20 5 21 6 22 7 23 8 24 9 25 10 26 11
REMARK SMILES IDX 27 12 28 13 29 14 30 15 31 16 32 17 15 18 14 19 13 20 12 21
REMARK SMILES IDX 11 22 10 23 9 24 8 25 7 26 6 27 5 28 4 29 3 30 2 31 1 32
REMARK H PARENT
REMARK Flexibility Score: inf
ROOT
ATOM      1  C   UNL     1      -8.833   7.579   6.392  1.00  0.00     0.000 C 
ENDROOT
BRANCH   1   2
ATOM      2  C   UNL     1      -7.994   8.045   5.187  1.00  0.00     0.000 C 
BRANCH   2   3
ATOM      3  C   UNL     1      -8.033   9.576   4.996  1.00  0.00     0.000 C 
BRANCH   3   4
ATOM      4  C   UNL     1      -9.429  10.137   4.675  1.00  0.00     0.000 C 
BRANCH   4   5
ATOM      5  C   UNL     1      -9.691  11.499   5.337  1.00  0.00     0.000 C 
BRANCH   5   6
ATOM      6  C   UNL     1      -8.433  12.125   5.969  1.00  0.00     0.000 C 
BRANCH   6   7
ATOM      7  C   UNL     1      -8.232  11.846   7.472  1.00  0.00     0.000 C 
BRANCH   7   8
ATOM      8  C   UNL     1      -6.970  11.025   7.778  1.00  0.00     0.000 C 
BRANCH   8   9
ATOM      9  C   UNL     1      -5.898  11.898   8.446  1.00  0.00     0.000 C 
BRANCH   9  10
ATOM     10  C   UNL     1      -4.664  12.118   7.554  1.00  0.00     0.000 C 
BRANCH  10  11
ATOM     11  C   UNL     1      -5.005  12.064   6.055  1.00  0.00     0.000 C 
BRANCH  11  12
ATOM     12  C   UNL     1      -3.848  11.511   5.209  1.00  0.00     0.000 C 
BRANCH  12  13
ATOM     13  C   UNL     1      -2.453  11.911   5.743  1.00  0.00     0.006 C 
BRANCH  13  14
ATOM     14  C   UNL     1      -1.444  12.124   4.607  1.00  0.00     0.053 C 
BRANCH  14  15
ATOM     15  C   UNL     1      -0.340  11.117   4.688  1.00  0.00     0.041 C 
ATOM     16  O   UNL     1       0.850  11.461   4.456  1.00  0.00    -0.550 OA
ATOM     17  O   UNL     1      -0.628   9.790   4.975  1.00  0.00    -0.550 OA
ENDBRANCH  14  15
ENDBRANCH  13  14
ENDBRANCH  12  13
ENDBRANCH  11  12
ENDBRANCH  10  11
ENDBRANCH   9  10
ENDBRANCH   8   9
ENDBRANCH   7   8
ENDBRANCH   6   7
ENDBRANCH   5   6
ENDBRANCH   4   5
ENDBRANCH   3   4
ENDBRANCH   2   3
ENDBRANCH   1   2
BRANCH   1  18
ATOM     18  C   UNL     1      -9.656   6.317   6.077  1.00  0.00     0.000 C 
BRANCH  18  19
ATOM     19  C   UNL     1     -11.154   6.622   5.937  1.00  0.00     0.000 C 
BRANCH  19  20
ATOM     20  C   UNL     1     -11.415   8.134   5.933  1.00  0.00     0.000 C 
BRANCH  20  21
ATOM     21  C   UNL     1     -12.774   8.457   6.570  1.00  0.00     0.000 C 
BRANCH  21  22
ATOM     22  C   UNL     1     -12.825   9.872   7.163  1.00  0.00     0.000 C 
BRANCH  22  23
ATOM     23  C   UNL     1     -12.684  10.967   6.091  1.00  0.00     0.000 C 
BRANCH  23  24
ATOM     24  C   UNL     1     -13.925  11.047   5.177  1.00  0.00    -0.000 C 
BRANCH  24  25
ATOM     25  C   UNL     1     -13.690  11.847   3.883  1.00  0.00    -0.000 C 
BRANCH  25  26
ATOM     26  C   UNL     1     -12.517  11.305   3.050  1.00  0.00    -0.000 C 
BRANCH  26  27
ATOM     27  C   UNL     1     -12.966  10.368   1.914  1.00  0.00    -0.000 C 
BRANCH  27  28
ATOM     28  C   UNL     1     -14.212   9.519   2.220  1.00  0.00    -0.000 C 
BRANCH  28  29
ATOM     29  C   UNL     1     -13.873   8.064   2.586  1.00  0.00    -0.000 C 
BRANCH  29  30
ATOM     30  C   UNL     1     -14.910   7.432   3.527  1.00  0.00    -0.000 C 
BRANCH  30  31
ATOM     31  C   UNL     1     -14.440   6.087   4.102  1.00  0.00    -0.003 C 
ATOM     32  C   UNL     1     -13.106   5.663   3.497  1.00  0.00     0.004 C 
ENDBRANCH  30  31
ENDBRANCH  29  30
ENDBRANCH  28  29
ENDBRANCH  27  28
ENDBRANCH  26  27
ENDBRANCH  25  26
ENDBRANCH  24  25
ENDBRANCH  23  24
ENDBRANCH  22  23
ENDBRANCH  21  22
ENDBRANCH  20  21
ENDBRANCH  19  20
ENDBRANCH  18  19
ENDBRANCH   1  18
TORSDOF 28
ENDMDL
MODEL 9
REMARK VINA RESULT:    -0.864      1.638      5.633
REMARK INTER + INTRA:          -6.889
REMARK INTER:                  -4.415
REMARK INTRA:                  -2.474
REMARK UNBOUND:                -4.610
REMARK SMILES CCCCCCCCCCCCCCCCCCCCCCCCCCCCCC(=O)[O-]
REMARK SMILES IDX 16 1 17 2 18 3 19 4 20 5 21 6 22 7 23 8 24 9 25 10 26 11
REMARK SMILES IDX 27 12 28 13 29 14 30 15 31 16 32 17 15 18 14 19 13 20 12 21
REMARK SMILES IDX 11 22 10 23 9 24 8 25 7 26 6 27 5 28 4 29 3 30 2 31 1 32
REMARK H PARENT
REMARK Flexibility Score: inf
ROOT
ATOM      1  C   UNL     1      -9.113   8.041   5.512  1.00  0.00     0.000 C 
ENDROOT
BRANCH   1   2
ATOM      2  C   UNL     1      -7.922   8.916   5.079  1.00  0.00     0.000 C 
BRANCH   2   3
ATOM      3  C   UNL     1      -8.192  10.423   5.280  1.00  0.00     0.000 C 
BRANCH   3   4
ATOM      4  C   UNL     1      -7.214  11.117   6.243  1.00  0.00     0.000 C 
BRANCH   4   5
ATOM      5  C   UNL     1      -7.913  12.096   7.199  1.00  0.00     0.000 C 
BRANCH   5   6
ATOM      6  C   UNL     1      -9.110  11.475   7.946  1.00  0.00     0.000 C 
BRANCH   6   7
ATOM      7  C   UNL     1     -10.480  12.125   7.669  1.00  0.00     0.000 C 
BRANCH   7   8
ATOM      8  C   UNL     1     -11.649  11.130   7.711  1.00  0.00     0.000 C 
BRANCH   8   9
ATOM      9  C   UNL     1     -12.989  11.851   7.505  1.00  0.00     0.000 C 
BRANCH   9  10
ATOM     10  C   UNL     1     -13.854  11.205   6.409  1.00  0.00     0.000 C 
BRANCH  10  11
ATOM     11  C   UNL     1     -13.917  12.057   5.131  1.00  0.00     0.000 C 
BRANCH  11  12
ATOM     12  C   UNL     1     -12.711  11.819   4.207  1.00  0.00     0.000 C 
BRANCH  12  13
ATOM     13  C   UNL     1     -13.090  11.762   2.709  1.00  0.00     0.006 C 
BRANCH  13  14
ATOM     14  C   UNL     1     -11.865  11.924   1.801  1.00  0.00     0.053 C 
BRANCH  14  15
ATOM     15  C   UNL     1     -11.993  11.064   0.584  1.00  0.00     0.041 C 
ATOM     16  O   UNL     1     -12.740  10.048   0.601  1.00  0.00    -0.550 OA
ATOM     17  O   UNL     1     -11.257  11.357  -0.556  1.00  0.00    -0.550 OA
ENDBRANCH  14  15
ENDBRANCH  13  14
ENDBRANCH  12  13
ENDBRANCH  11  12
ENDBRANCH  10  11
ENDBRANCH   9  10
ENDBRANCH   8   9
ENDBRANCH   7   8
ENDBRANCH   6   7
ENDBRANCH   5   6
ENDBRANCH   4   5
ENDBRANCH   3   4
ENDBRANCH   2   3
ENDBRANCH   1   2
BRANCH   1  18
ATOM     18  C   UNL     1      -8.730   7.038   6.615  1.00  0.00     0.000 C 
BRANCH  18  19
ATOM     19  C   UNL     1      -9.860   6.838   7.635  1.00  0.00     0.000 C 
BRANCH  19  20
ATOM     20  C   UNL     1      -9.471   5.801   8.697  1.00  0.00     0.000 C 
BRANCH  20  21
ATOM     21  C   UNL     1     -10.603   4.786   8.910  1.00  0.00     0.000 C 
BRANCH  21  22
ATOM     22  C   UNL     1     -11.682   4.870   7.821  1.00  0.00     0.000 C 
BRANCH  22  23
ATOM     23  C   UNL     1     -11.674   3.646   6.888  1.00  0.00     0.000 C 
BRANCH  23  24
ATOM     24  C   UNL     1     -11.408   4.038   5.419  1.00  0.00    -0.000 C 
BRANCH  24  25
ATOM     25  C   UNL     1     -12.139   5.319   4.978  1.00  0.00    -0.000 C 
BRANCH  25  26
ATOM     26  C   UNL     1     -12.882   6.010   6.133  1.00  0.00    -0.000 C 
BRANCH  26  27
ATOM     27  C   UNL     1     -12.603   7.522   6.211  1.00  0.00    -0.000 C 
BRANCH  27  28
ATOM     28  C   UNL     1     -12.794   8.291   4.893  1.00  0.00    -0.000 C 
BRANCH  28  29
ATOM     29  C   UNL     1     -14.254   8.303   4.410  1.00  0.00    -0.000 C 
BRANCH  29  30
ATOM     30  C   UNL     1     -14.376   8.158   2.885  1.00  0.00    -0.000 C 
BRANCH  30  31
ATOM     31  C   UNL     1     -13.981   6.757   2.393  1.00  0.00    -0.003 C 
ATOM     32  C   UNL     1     -15.083   5.741   2.676  1.00  0.00     0.004 C 
ENDBRANCH  30  31
ENDBRANCH  29  30
ENDBRANCH  28  29
ENDBRANCH  27  28
ENDBRANCH  26  27
ENDBRANCH  25  26
ENDBRANCH  24  25
ENDBRANCH  23  24
ENDBRANCH  22  23
ENDBRANCH  21  22
ENDBRANCH  20  21
ENDBRANCH  19  20
ENDBRANCH  18  19
ENDBRANCH   1  18
TORSDOF 28
ENDMDL
