MODEL 1
REMARK VINA RESULT:    -5.139      0.000      0.000
REMARK INTER + INTRA:          -9.484
REMARK INTER:                  -8.143
REMARK INTRA:                  -1.341
REMARK UNBOUND:                -1.341
REMARK SMILES CCCCCCCCCCCC(=O)[O-]
REMARK SMILES IDX 7 1 8 2 9 3 10 4 11 5 12 6 13 7 14 8 6 9 5 10 4 11 3 12 2 13
REMARK SMILES IDX 1 14
REMARK H PARENT
REMARK Flexibility Score: inf
ROOT
ATOM      1  C   UNL     1      -4.006   7.737  -8.164  1.00  0.00     0.000 C 
ENDROOT
BRANCH   1   2
ATOM      2  C   UNL     1      -4.023   8.958  -7.228  1.00  0.00     0.000 C 
BRANCH   2   3
ATOM      3  C   UNL     1      -5.054  10.016  -7.649  1.00  0.00     0.000 C 
BRANCH   3   4
ATOM      4  C   UNL     1      -4.831  10.450  -9.106  1.00  0.00     0.006 C 
BRANCH   4   5
ATOM      5  C   UNL     1      -5.291  11.891  -9.360  1.00  0.00     0.053 C 
BRANCH   5   6
ATOM      6  C   UNL     1      -6.714  12.103  -8.941  1.00  0.00     0.041 C 
ATOM      7  O   UNL     1      -6.985  12.892  -7.998  1.00  0.00    -0.550 OA
ATOM      8  O   UNL     1      -7.737  11.403  -9.568  1.00  0.00    -0.550 OA
ENDBRANCH   5   6
ENDBRANCH   4   5
ENDBRANCH   3   4
ENDBRANCH   2   3
ENDBRANCH   1   2
BRANCH   1   9
ATOM      9  C   UNL     1      -4.973   6.630  -7.708  1.00  0.00     0.000 C 
BRANCH   9  10
ATOM     10  C   UNL     1      -5.969   6.227  -8.808  1.00  0.00    -0.000 C 
BRANCH  10  11
ATOM     11  C   UNL     1      -7.344   6.888  -8.634  1.00  0.00    -0.000 C 
BRANCH  11  12
ATOM     12  C   UNL     1      -7.601   7.920  -9.740  1.00  0.00    -0.000 C 
BRANCH  12  13
ATOM     13  C   UNL     1      -6.549   7.812 -10.849  1.00  0.00    -0.003 C 
ATOM     14  C   UNL     1      -6.598   9.022 -11.776  1.00  0.00     0.004 C 
ENDBRANCH  12  13
ENDBRANCH  11  12
ENDBRANCH  10  11
ENDBRANCH   9  10
ENDBRANCH   1   9
TORSDOF 10
ENDMDL
MODEL 2
REMARK VINA RESULT:    -5.139      2.862      4.400
REMARK INTER + INTRA:          -9.484
REMARK INTER:                  -8.019
REMARK INTRA:                  -1.465
REMARK UNBOUND:                -1.341
REMARK SMILES CCCCCCCCCCCC(=O)[O-]
REMARK SMILES IDX 7 1 8 2 9 3 10 4 11 5 12 6 13 7 14 8 6 9 5 10 4 11 3 12 2 13
REMARK SMILES IDX 1 14
REMARK H PARENT
REMARK Flexibility Score: inf
ROOT
ATOM      1  C   UNL     1      -6.014  10.993  -9.697  1.00  0.00     0.000 C 
ENDROOT
BRANCH   1   2
ATOM      2  C   UNL     1      -6.242  11.013  -8.176  1.00  0.00     0.000 C 
BRANCH   2   3
ATOM      3  C   UNL     1      -5.702   9.755  -7.478  1.00  0.00     0.000 C 
BRANCH   3   4
ATOM      4  C   UNL     1      -4.179   9.647  -7.645  1.00  0.00     0.006 C 
BRANCH   4   5
ATOM      5  C   UNL     1      -3.735   8.229  -8.029  1.00  0.00     0.053 C 
BRANCH   5   6
ATOM      6  C   UNL     1      -3.186   7.481  -6.853  1.00  0.00     0.041 C 
ATOM      7  O   UNL     1      -3.794   6.475  -6.403  1.00  0.00    -0.550 OA
ATOM      8  O   UNL     1      -2.020   7.914  -6.233  1.00  0.00    -0.550 OA
ENDBRANCH   5   6
ENDBRANCH   4   5
ENDBRANCH   3   4
ENDBRANCH   2   3
ENDBRANCH   1   2
BRANCH   1   9
ATOM      9  C   UNL     1      -7.180  10.340 -10.460  1.00  0.00     0.000 C 
BRANCH   9  10
ATOM     10  C   UNL     1      -6.715   9.205 -11.388  1.00  0.00    -0.000 C 
BRANCH  10  11
ATOM     11  C   UNL     1      -6.408   7.906 -10.627  1.00  0.00    -0.000 C 
BRANCH  11  12
ATOM     12  C   UNL     1      -7.600   7.485  -9.757  1.00  0.00    -0.000 C 
BRANCH  12  13
ATOM     13  C   UNL     1      -7.146   6.594  -8.596  1.00  0.00    -0.003 C 
ATOM     14  C   UNL     1      -6.056   5.623  -9.039  1.00  0.00     0.004 C 
ENDBRANCH  12  13
ENDBRANCH  11  12
ENDBRANCH  10  11
ENDBRANCH   9  10
ENDBRANCH   1   9
TORSDOF 10
ENDMDL
MODEL 3
REMARK VINA RESULT:    -5.041      1.122      1.743
REMARK INTER + INTRA:          -9.329
REMARK INTER:                  -7.929
REMARK INTRA:                  -1.400
REMARK UNBOUND:                -1.341
REMARK SMILES CCCCCCCCCCCC(=O)[O-]
REMARK SMILES IDX 7 1 8 2 9 3 10 4 11 5 12 6 13 7 14 8 6 9 5 10 4 11 3 12 2 13
REMARK SMILES IDX 1 14
REMARK H PARENT
REMARK Flexibility Score: inf
ROOT
ATOM      1  C   UNL     1      -4.919   6.423  -7.199  1.00  0.00     0.000 C 
ENDROOT
BRANCH   1   2
ATOM      2  C   UNL     1      -3.722   7.388  -7.213  1.00  0.00     0.000 C 
BRANCH   2   3
ATOM      3  C   UNL     1      -3.906   8.550  -8.202  1.00  0.00     0.000 C 
BRANCH   3   4
ATOM      4  C   UNL     1      -4.336   9.830  -7.468  1.00  0.00     0.006 C 
BRANCH   4   5
ATOM      5  C   UNL     1      -5.794  10.207  -7.763  1.00  0.00     0.053 C 
BRANCH   5   6
ATOM      6  C   UNL     1      -5.889  11.393  -8.673  1.00  0.00     0.041 C 
ATOM      7  O   UNL     1      -4.932  11.681  -9.439  1.00  0.00    -0.550 OA
ATOM      8  O   UNL     1      -7.019  12.201  -8.650  1.00  0.00    -0.550 OA
ENDBRANCH   5   6
ENDBRANCH   4   5
ENDBRANCH   3   4
ENDBRANCH   2   3
ENDBRANCH   1   2
BRANCH   1   9
ATOM      9  C   UNL     1      -5.637   6.353  -8.558  1.00  0.00     0.000 C 
BRANCH   9  10
ATOM     10  C   UNL     1      -7.114   6.773  -8.467  1.00  0.00    -0.000 C 
BRANCH  10  11
ATOM     11  C   UNL     1      -7.629   7.414  -9.764  1.00  0.00    -0.000 C 
BRANCH  11  12
ATOM     12  C   UNL     1      -6.464   7.893 -10.640  1.00  0.00    -0.000 C 
BRANCH  12  13
ATOM     13  C   UNL     1      -6.814   9.204 -11.352  1.00  0.00    -0.003 C 
ATOM     14  C   UNL     1      -8.163   9.743 -10.884  1.00  0.00     0.004 C 
ENDBRANCH  12  13
ENDBRANCH  11  12
ENDBRANCH  10  11
ENDBRANCH   9  10
ENDBRANCH   1   9
TORSDOF 10
ENDMDL
MODEL 4
REMARK VINA RESULT:    -4.914      1.390      3.849
REMARK INTER + INTRA:          -9.128
REMARK INTER:                  -7.868
REMARK INTRA:                  -1.260
REMARK UNBOUND:                -1.341
REMARK SMILES CCCCCCCCCCCC(=O)[O-]
REMARK SMILES IDX 7 1 8 2 9 3 10 4 11 5 12 6 13 7 14 8 6 9 5 10 4 11 3 12 2 13
REMARK SMILES IDX 1 14
REMARK H PARENT
REMARK Flexibility Score: inf
ROOT
ATOM      1  C   UNL     1      -4.977   6.750  -7.499  1.00  0.00     0.000 C 
ENDROOT
BRANCH   1   2
ATOM      2  C   UNL     1      -5.619   5.922  -8.624  1.00  0.00     0.000 C 
BRANCH   2   3
ATOM      3  C   UNL     1      -7.129   6.173  -8.759  1.00  0.00     0.000 C 
BRANCH   3   4
ATOM      4  C   UNL     1      -7.403   7.573  -9.328  1.00  0.00     0.006 C 
BRANCH   4   5
ATOM      5  C   UNL     1      -6.652   7.825 -10.642  1.00  0.00     0.053 C 
BRANCH   5   6
ATOM      6  C   UNL     1      -7.102   9.090 -11.307  1.00  0.00     0.041 C 
ATOM      7  O   UNL     1      -6.405   9.609 -12.218  1.00  0.00    -0.550 OA
ATOM      8  O   UNL     1      -8.274   9.714 -10.897  1.00  0.00    -0.550 OA
ENDBRANCH   5   6
ENDBRANCH   4   5
ENDBRANCH   3   4
ENDBRANCH   2   3
ENDBRANCH   1   2
BRANCH   1   9
ATOM      9  C   UNL     1      -3.940   7.758  -8.025  1.00  0.00     0.000 C 
BRANCH   9  10
ATOM     10  C   UNL     1      -3.959   9.084  -7.246  1.00  0.00    -0.000 C 
BRANCH  10  11
ATOM     11  C   UNL     1      -5.050  10.046  -7.738  1.00  0.00    -0.000 C 
BRANCH  11  12
ATOM     12  C   UNL     1      -4.714  10.590  -9.132  1.00  0.00    -0.000 C 
BRANCH  12  13
ATOM     13  C   UNL     1      -5.452  11.906  -9.402  1.00  0.00    -0.003 C 
ATOM     14  C   UNL     1      -6.780  11.957  -8.655  1.00  0.00     0.004 C 
ENDBRANCH  12  13
ENDBRANCH  11  12
ENDBRANCH  10  11
ENDBRANCH   9  10
ENDBRANCH   1   9
TORSDOF 10
ENDMDL
MODEL 5
REMARK VINA RESULT:    -4.904      2.646      5.084
REMARK INTER + INTRA:          -9.113
REMARK INTER:                  -7.690
REMARK INTRA:                  -1.422
REMARK UNBOUND:                -1.341
REMARK SMILES CCCCCCCCCCCC(=O)[O-]
REMARK SMILES IDX 7 1 8 2 9 3 10 4 11 5 12 6 13 7 14 8 6 9 5 10 4 11 3 12 2 13
REMARK SMILES IDX 1 14
REMARK H PARENT
REMARK Flexibility Score: inf
ROOT
ATOM      1  C   UNL     1      -6.858   9.372 -11.074  1.00  0.00     0.000 C 
ENDROOT
BRANCH   1   2
ATOM      2  C   UNL     1      -6.576   7.914 -10.674  1.00  0.00     0.000 C 
BRANCH   2   3
ATOM      3  C   UNL     1      -7.664   7.327  -9.762  1.00  0.00     0.000 C 
BRANCH   3   4
ATOM      4  C   UNL     1      -7.054   6.786  -8.460  1.00  0.00     0.006 C 
BRANCH   4   5
ATOM      5  C   UNL     1      -7.565   7.537  -7.223  1.00  0.00     0.053 C 
BRANCH   5   6
ATOM      6  C   UNL     1      -8.623   6.761  -6.499  1.00  0.00     0.041 C 
ATOM      7  O   UNL     1      -8.499   6.516  -5.270  1.00  0.00    -0.550 OA
ATOM      8  O   UNL     1      -9.729   6.279  -7.188  1.00  0.00    -0.550 OA
ENDBRANCH   5   6
ENDBRANCH   4   5
ENDBRANCH   3   4
ENDBRANCH   2   3
ENDBRANCH   1   2
BRANCH   1   9
ATOM      9  C   UNL     1      -7.554  10.167  -9.956  1.00  0.00     0.000 C 
BRANCH   9  10
ATOM     10  C   UNL     1      -6.694  11.332  -9.438  1.00  0.00    -0.000 C 
BRANCH  10  11
ATOM     11  C   UNL     1      -5.203  10.974  -9.350  1.00  0.00    -0.000 C 
BRANCH  11  12
ATOM     12  C   UNL     1      -4.909  10.157  -8.085  1.00  0.00    -0.000 C 
BRANCH  12  13
ATOM     13  C   UNL     1      -3.988   8.972  -8.397  1.00  0.00    -0.003 C 
ATOM     14  C   UNL     1      -3.666   8.177  -7.136  1.00  0.00     0.004 C 
ENDBRANCH  12  13
ENDBRANCH  11  12
ENDBRANCH  10  11
ENDBRANCH   9  10
ENDBRANCH   1   9
TORSDOF 10
ENDMDL
MODEL 6
REMARK VINA RESULT:    -4.879      2.164      4.892
REMARK INTER + INTRA:          -9.072
REMARK INTER:                  -7.792
REMARK INTRA:                  -1.280
REMARK UNBOUND:                -1.341
REMARK SMILES CCCCCCCCCCCC(=O)[O-]
REMARK SMILES IDX 7 1 8 2 9 3 10 4 11 5 12 6 13 7 14 8 6 9 5 10 4 11 3 12 2 13
REMARK SMILES IDX 1 14
REMARK H PARENT
REMARK Flexibility Score: inf
ROOT
ATOM      1  C   UNL     1      -7.740  10.894  -9.944  1.00  0.00     0.000 C 
ENDROOT
BRANCH   1   2
ATOM      2  C   UNL     1      -7.986   9.782 -10.978  1.00  0.00     0.000 C 
BRANCH   2   3
ATOM      3  C   UNL     1      -6.696   9.056 -11.389  1.00  0.00     0.000 C 
BRANCH   3   4
ATOM      4  C   UNL     1      -6.584   7.696 -10.683  1.00  0.00     0.006 C 
BRANCH   4   5
ATOM      5  C   UNL     1      -7.764   7.433  -9.737  1.00  0.00     0.053 C 
BRANCH   5   6
ATOM      6  C   UNL     1      -7.301   7.034  -8.370  1.00  0.00     0.041 C 
ATOM      7  O   UNL     1      -6.527   6.051  -8.225  1.00  0.00    -0.550 OA
ATOM      8  O   UNL     1      -7.751   7.725  -7.252  1.00  0.00    -0.550 OA
ENDBRANCH   5   6
ENDBRANCH   4   5
ENDBRANCH   3   4
ENDBRANCH   2   3
ENDBRANCH   1   2
BRANCH   1   9
ATOM      9  C   UNL     1      -6.261  11.000  -9.532  1.00  0.00     0.000 C 
BRANCH   9  10
ATOM     10  C   UNL     1      -6.074  11.019  -8.005  1.00  0.00    -0.000 C 
BRANCH  10  11
ATOM     11  C   UNL     1      -5.072   9.963  -7.517  1.00  0.00    -0.000 C 
BRANCH  11  12
ATOM     12  C   UNL     1      -4.259   9.396  -8.688  1.00  0.00    -0.000 C 
BRANCH  12  13
ATOM     13  C   UNL     1      -3.712   8.004  -8.355  1.00  0.00    -0.003 C 
ATOM     14  C   UNL     1      -3.279   7.916  -6.895  1.00  0.00     0.004 C 
ENDBRANCH  12  13
ENDBRANCH  11  12
ENDBRANCH  10  11
ENDBRANCH   9  10
ENDBRANCH   1   9
TORSDOF 10
ENDMDL
MODEL 7
REMARK VINA RESULT:    -4.870      2.658      4.221
REMARK INTER + INTRA:          -9.058
REMARK INTER:                  -7.403
REMARK INTRA:                  -1.655
REMARK UNBOUND:                -1.341
REMARK SMILES CCCCCCCCCCCC(=O)[O-]
REMARK SMILES IDX 7 1 8 2 9 3 10 4 11 5 12 6 13 7 14 8 6 9 5 10 4 11 3 12 2 13
REMARK SMILES IDX 1 14
REMARK H PARENT
REMARK Flexibility Score: inf
ROOT
ATOM      1  C   UNL     1      -4.032   8.011  -8.279  1.00  0.00     0.000 C 
ENDROOT
BRANCH   1   2
ATOM      2  C   UNL     1      -5.071   6.926  -7.953  1.00  0.00     0.000 C 
BRANCH   2   3
ATOM      3  C   UNL     1      -6.043   6.664  -9.114  1.00  0.00     0.000 C 
BRANCH   3   4
ATOM      4  C   UNL     1      -7.483   7.017  -8.713  1.00  0.00     0.006 C 
BRANCH   4   5
ATOM      5  C   UNL     1      -7.583   7.484  -7.255  1.00  0.00     0.053 C 
BRANCH   5   6
ATOM      6  C   UNL     1      -8.654   6.749  -6.508  1.00  0.00     0.041 C 
ATOM      7  O   UNL     1      -8.500   6.471  -5.290  1.00  0.00    -0.550 OA
ATOM      8  O   UNL     1      -9.808   6.342  -7.166  1.00  0.00    -0.550 OA
ENDBRANCH   5   6
ENDBRANCH   4   5
ENDBRANCH   3   4
ENDBRANCH   2   3
ENDBRANCH   1   2
BRANCH   1   9
ATOM      9  C   UNL     1      -4.284   9.321  -7.512  1.00  0.00     0.000 C 
BRANCH   9  10
ATOM     10  C   UNL     1      -4.749  10.463  -8.430  1.00  0.00    -0.000 C 
BRANCH  10  11
ATOM     11  C   UNL     1      -6.263  10.710  -8.348  1.00  0.00    -0.000 C 
BRANCH  11  12
ATOM     12  C   UNL     1      -6.912  10.605  -9.735  1.00  0.00    -0.000 C 
BRANCH  12  13
ATOM     13  C   UNL     1      -5.924  10.044 -10.763  1.00  0.00    -0.003 C 
ATOM     14  C   UNL     1      -6.625   9.124 -11.757  1.00  0.00     0.004 C 
ENDBRANCH  12  13
ENDBRANCH  11  12
ENDBRANCH  10  11
ENDBRANCH   9  10
ENDBRANCH   1   9
TORSDOF 10
ENDMDL
MODEL 8
REMARK VINA RESULT:    -4.862      2.870      4.794
REMARK INTER + INTRA:          -9.046
REMARK INTER:                  -7.986
REMARK INTRA:                  -1.059
REMARK UNBOUND:                -1.341
REMARK SMILES CCCCCCCCCCCC(=O)[O-]
REMARK SMILES IDX 7 1 8 2 9 3 10 4 11 5 12 6 13 7 14 8 6 9 5 10 4 11 3 12 2 13
REMARK SMILES IDX 1 14
REMARK H PARENT
REMARK Flexibility Score: inf
ROOT
ATOM      1  C   UNL     1      -6.563   7.773 -10.774  1.00  0.00     0.000 C 
ENDROOT
BRANCH   1   2
ATOM      2  C   UNL     1      -7.328   7.415  -9.489  1.00  0.00     0.000 C 
BRANCH   2   3
ATOM      3  C   UNL     1      -6.404   7.254  -8.272  1.00  0.00     0.000 C 
BRANCH   3   4
ATOM      4  C   UNL     1      -4.935   7.473  -8.668  1.00  0.00     0.006 C 
BRANCH   4   5
ATOM      5  C   UNL     1      -4.211   8.428  -7.709  1.00  0.00     0.053 C 
BRANCH   5   6
ATOM      6  C   UNL     1      -3.254   7.699  -6.816  1.00  0.00     0.041 C 
ATOM      7  O   UNL     1      -3.517   6.532  -6.425  1.00  0.00    -0.550 OA
ATOM      8  O   UNL     1      -2.088   8.322  -6.387  1.00  0.00    -0.550 OA
ENDBRANCH   5   6
ENDBRANCH   4   5
ENDBRANCH   3   4
ENDBRANCH   2   3
ENDBRANCH   1   2
BRANCH   1   9
ATOM      9  C   UNL     1      -6.952   9.155 -11.327  1.00  0.00     0.000 C 
BRANCH   9  10
ATOM     10  C   UNL     1      -8.190   9.743 -10.629  1.00  0.00    -0.000 C 
BRANCH  10  11
ATOM     11  C   UNL     1      -7.913  11.107  -9.979  1.00  0.00    -0.000 C 
BRANCH  11  12
ATOM     12  C   UNL     1      -6.888  10.975  -8.845  1.00  0.00    -0.000 C 
BRANCH  12  13
ATOM     13  C   UNL     1      -5.479  11.330  -9.332  1.00  0.00    -0.003 C 
ATOM     14  C   UNL     1      -5.250  12.838  -9.307  1.00  0.00     0.004 C 
ENDBRANCH  12  13
ENDBRANCH  11  12
ENDBRANCH  10  11
ENDBRANCH   9  10
ENDBRANCH   1   9
TORSDOF 10
ENDMDL
MODEL 9
REMARK VINA RESULT:    -4.853      1.036      3.162
REMARK INTER + INTRA:          -9.030
REMARK INTER:                  -7.678
REMARK INTRA:                  -1.353
REMARK UNBOUND:                -1.341
REMARK SMILES CCCCCCCCCCCC(=O)[O-]
REMARK SMILES IDX 7 1 8 2 9 3 10 4 11 5 12 6 13 7 14 8 6 9 5 10 4 11 3 12 2 13
REMARK SMILES IDX 1 14
REMARK H PARENT
REMARK Flexibility Score: inf
ROOT
ATOM      1  C   UNL     1      -7.630   7.337  -8.646  1.00  0.00     0.000 C 
ENDROOT
BRANCH   1   2
ATOM      2  C   UNL     1      -7.888   8.266  -9.844  1.00  0.00     0.000 C 
BRANCH   2   3
ATOM      3  C   UNL     1      -6.616   8.559 -10.654  1.00  0.00     0.000 C 
BRANCH   3   4
ATOM      4  C   UNL     1      -6.365  10.072 -10.750  1.00  0.00     0.006 C 
BRANCH   4   5
ATOM      5  C   UNL     1      -7.250  10.871  -9.784  1.00  0.00     0.053 C 
BRANCH   5   6
ATOM      6  C   UNL     1      -6.500  12.003  -9.151  1.00  0.00     0.041 C 
ATOM      7  O   UNL     1      -7.079  12.768  -8.335  1.00  0.00    -0.550 OA
ATOM      8  O   UNL     1      -5.173  12.236  -9.489  1.00  0.00    -0.550 OA
ENDBRANCH   5   6
ENDBRANCH   4   5
ENDBRANCH   3   4
ENDBRANCH   2   3
ENDBRANCH   1   2
BRANCH   1   9
ATOM      9  C   UNL     1      -6.987   6.002  -9.061  1.00  0.00     0.000 C 
BRANCH   9  10
ATOM     10  C   UNL     1      -5.481   5.952  -8.754  1.00  0.00    -0.000 C 
BRANCH  10  11
ATOM     11  C   UNL     1      -5.101   6.774  -7.514  1.00  0.00    -0.000 C 
BRANCH  11  12
ATOM     12  C   UNL     1      -3.763   7.495  -7.723  1.00  0.00    -0.000 C 
BRANCH  12  13
ATOM     13  C   UNL     1      -3.982   8.965  -8.094  1.00  0.00    -0.003 C 
ATOM     14  C   UNL     1      -4.879   9.664  -7.076  1.00  0.00     0.004 C 
ENDBRANCH  12  13
ENDBRANCH  11  12
ENDBRANCH  10  11
ENDBRANCH   9  10
ENDBRANCH   1   9
TORSDOF 10
ENDMDL
