MODEL 1
REMARK VINA RESULT:    -2.019      0.000      0.000
REMARK INTER + INTRA:          -2.019
REMARK INTER:                  -2.019
REMARK INTRA:                   0.000
REMARK UNBOUND:                 0.000
REMARK SMILES CC1(C)O[C@]2(C)CC[C@H]1CC2
REMARK SMILES IDX 1 1 2 2 9 3 10 4 11 5 5 6 4 7 7 8 8 9 6 10 3 11
REMARK H PARENT
REMARK Flexibility Score: inf
ROOT
ATOM      1  C   UNL     1     124.570 110.565 132.133  1.00  0.00     0.042 C 
ATOM      2  C   UNL     1     125.089 109.233 132.717  1.00  0.00     0.066 C 
ATOM      3  C   UNL     1     126.665 109.225 132.774  1.00  0.00     0.021 C 
ATOM      4  C   UNL     1     127.125 110.344 133.739  1.00  0.00     0.009 C 
ATOM      5  C   UNL     1     126.375 110.197 135.085  1.00  0.00     0.035 C 
ATOM      6  C   UNL     1     125.481 108.924 135.053  1.00  0.00     0.066 C 
ATOM      7  O   UNL     1     124.507 109.061 134.018  1.00  0.00    -0.369 OA
ATOM      8  C   UNL     1     126.374 107.686 134.751  1.00  0.00     0.035 C 
ATOM      9  C   UNL     1     127.125 107.893 133.413  1.00  0.00     0.009 C 
ATOM     10  C   UNL     1     124.758 108.746 136.391  1.00  0.00     0.042 C 
ATOM     11  C   UNL     1     124.569 108.100 131.806  1.00  0.00     0.042 C 
ENDROOT
TORSDOF 0
ENDMDL
MODEL 2
REMARK VINA RESULT:    -1.961      1.052      1.312
REMARK INTER + INTRA:          -1.961
REMARK INTER:                  -1.961
REMARK INTRA:                   0.000
REMARK UNBOUND:                 0.000
REMARK SMILES CC1(C)O[C@]2(C)CC[C@H]1CC2
REMARK SMILES IDX 1 1 2 2 9 3 10 4 11 5 5 6 4 7 7 8 8 9 6 10 3 11
REMARK H PARENT
REMARK Flexibility Score: inf
ROOT
ATOM      1  C   UNL     1     123.868 111.608 133.640  1.00  0.00     0.042 C 
ATOM      2  C   UNL     1     124.755 110.370 133.386  1.00  0.00     0.066 C 
ATOM      3  C   UNL     1     126.276 110.781 133.303  1.00  0.00     0.021 C 
ATOM      4  C   UNL     1     126.702 111.361 134.673  1.00  0.00     0.009 C 
ATOM      5  C   UNL     1     126.306 110.368 135.792  1.00  0.00     0.035 C 
ATOM      6  C   UNL     1     125.698 109.081 135.163  1.00  0.00     0.066 C 
ATOM      7  O   UNL     1     124.515 109.426 134.441  1.00  0.00    -0.369 OA
ATOM      8  C   UNL     1     126.732 108.460 134.180  1.00  0.00     0.035 C 
ATOM      9  C   UNL     1     127.119 109.499 133.100  1.00  0.00     0.009 C 
ATOM     10  C   UNL     1     125.331 108.074 136.258  1.00  0.00     0.042 C 
ATOM     11  C   UNL     1     124.287 109.736 132.059  1.00  0.00     0.042 C 
ENDROOT
TORSDOF 0
ENDMDL
MODEL 3
REMARK VINA RESULT:    -1.960      1.343      2.966
REMARK INTER + INTRA:          -1.960
REMARK INTER:                  -1.960
REMARK INTRA:                   0.000
REMARK UNBOUND:                 0.000
REMARK SMILES CC1(C)O[C@]2(C)CC[C@H]1CC2
REMARK SMILES IDX 1 1 2 2 9 3 10 4 11 5 5 6 4 7 7 8 8 9 6 10 3 11
REMARK H PARENT
REMARK Flexibility Score: inf
ROOT
ATOM      1  C   UNL     1     123.770 108.444 133.153  1.00  0.00     0.042 C 
ATOM      2  C   UNL     1     124.285 109.354 134.290  1.00  0.00     0.066 C 
ATOM      3  C   UNL     1     125.131 108.522 135.330  1.00  0.00     0.021 C 
ATOM      4  C   UNL     1     126.380 107.962 134.607  1.00  0.00     0.009 C 
ATOM      5  C   UNL     1     127.107 109.117 133.876  1.00  0.00     0.035 C 
ATOM      6  C   UNL     1     126.396 110.466 134.187  1.00  0.00     0.066 C 
ATOM      7  O   UNL     1     125.055 110.412 133.700  1.00  0.00    -0.369 OA
ATOM      8  C   UNL     1     126.372 110.683 135.728  1.00  0.00     0.035 C 
ATOM      9  C   UNL     1     125.663 109.490 136.414  1.00  0.00     0.009 C 
ATOM     10  C   UNL     1     127.125 111.624 133.497  1.00  0.00     0.042 C 
ATOM     11  C   UNL     1     123.049 109.981 134.970  1.00  0.00     0.042 C 
ENDROOT
TORSDOF 0
ENDMDL
MODEL 4
REMARK VINA RESULT:    -1.874      1.178      3.128
REMARK INTER + INTRA:          -1.874
REMARK INTER:                  -1.874
REMARK INTRA:                   0.000
REMARK UNBOUND:                 0.000
REMARK SMILES CC1(C)O[C@]2(C)CC[C@H]1CC2
REMARK SMILES IDX 1 1 2 2 9 3 10 4 11 5 5 6 4 7 7 8 8 9 6 10 3 11
REMARK H PARENT
REMARK Flexibility Score: inf
ROOT
ATOM      1  C   UNL     1     125.996 109.746 136.176  1.00  0.00     0.042 C 
ATOM      2  C   UNL     1     126.132 110.070 134.672  1.00  0.00     0.066 C 
ATOM      3  C   UNL     1     127.047 109.006 133.952  1.00  0.00     0.021 C 
ATOM      4  C   UNL     1     126.359 107.624 134.049  1.00  0.00     0.009 C 
ATOM      5  C   UNL     1     124.899 107.745 133.548  1.00  0.00     0.035 C 
ATOM      6  C   UNL     1     124.639 109.188 133.029  1.00  0.00     0.066 C 
ATOM      7  O   UNL     1     124.815 110.112 134.104  1.00  0.00    -0.369 OA
ATOM      8  C   UNL     1     125.665 109.514 131.905  1.00  0.00     0.035 C 
ATOM      9  C   UNL     1     127.106 109.350 132.445  1.00  0.00     0.009 C 
ATOM     10  C   UNL     1     123.208 109.315 132.499  1.00  0.00     0.042 C 
ATOM     11  C   UNL     1     126.747 111.482 134.562  1.00  0.00     0.042 C 
ENDROOT
TORSDOF 0
ENDMDL
MODEL 5
REMARK VINA RESULT:    -1.869      2.129      4.173
REMARK INTER + INTRA:          -1.869
REMARK INTER:                  -1.869
REMARK INTRA:                   0.000
REMARK UNBOUND:                 0.000
REMARK SMILES CC1(C)O[C@]2(C)CC[C@H]1CC2
REMARK SMILES IDX 1 1 2 2 9 3 10 4 11 5 5 6 4 7 7 8 8 9 6 10 3 11
REMARK H PARENT
REMARK Flexibility Score: inf
ROOT
ATOM      1  C   UNL     1     125.627 112.891 136.618  1.00  0.00     0.042 C 
ATOM      2  C   UNL     1     126.005 111.404 136.788  1.00  0.00     0.066 C 
ATOM      3  C   UNL     1     124.717 110.523 137.016  1.00  0.00     0.021 C 
ATOM      4  C   UNL     1     123.831 110.616 135.751  1.00  0.00     0.009 C 
ATOM      5  C   UNL     1     124.688 110.292 134.503  1.00  0.00     0.035 C 
ATOM      6  C   UNL     1     126.126 109.892 134.942  1.00  0.00     0.066 C 
ATOM      7  O   UNL     1     126.732 110.993 135.621  1.00  0.00    -0.369 OA
ATOM      8  C   UNL     1     126.040 108.679 135.914  1.00  0.00     0.035 C 
ATOM      9  C   UNL     1     125.149 109.042 137.128  1.00  0.00     0.009 C 
ATOM     10  C   UNL     1     126.977 109.536 133.720  1.00  0.00     0.042 C 
ATOM     11  C   UNL     1     126.954 111.308 138.002  1.00  0.00     0.042 C 
ENDROOT
TORSDOF 0
ENDMDL
MODEL 6
REMARK VINA RESULT:    -1.840      2.856      5.240
REMARK INTER + INTRA:          -1.840
REMARK INTER:                  -1.840
REMARK INTRA:                   0.000
REMARK UNBOUND:                 0.000
REMARK SMILES CC1(C)O[C@]2(C)CC[C@H]1CC2
REMARK SMILES IDX 1 1 2 2 9 3 10 4 11 5 5 6 4 7 7 8 8 9 6 10 3 11
REMARK H PARENT
REMARK Flexibility Score: inf
ROOT
ATOM      1  C   UNL     1     126.836 108.989 139.125  1.00  0.00     0.042 C 
ATOM      2  C   UNL     1     125.685 109.666 138.350  1.00  0.00     0.066 C 
ATOM      3  C   UNL     1     125.462 111.142 138.858  1.00  0.00     0.021 C 
ATOM      4  C   UNL     1     126.742 111.960 138.561  1.00  0.00     0.009 C 
ATOM      5  C   UNL     1     127.124 111.784 137.071  1.00  0.00     0.035 C 
ATOM      6  C   UNL     1     126.049 110.921 136.350  1.00  0.00     0.066 C 
ATOM      7  O   UNL     1     126.006 109.626 136.952  1.00  0.00    -0.369 OA
ATOM      8  C   UNL     1     124.660 111.604 136.512  1.00  0.00     0.035 C 
ATOM      9  C   UNL     1     124.336 111.786 138.014  1.00  0.00     0.009 C 
ATOM     10  C   UNL     1     126.397 110.765 134.867  1.00  0.00     0.042 C 
ATOM     11  C   UNL     1     124.417 108.814 138.575  1.00  0.00     0.042 C 
ENDROOT
TORSDOF 0
ENDMDL
MODEL 7
REMARK VINA RESULT:    -1.762      3.050      4.571
REMARK INTER + INTRA:          -1.762
REMARK INTER:                  -1.762
REMARK INTRA:                   0.000
REMARK UNBOUND:                 0.000
REMARK SMILES CC1(C)O[C@]2(C)CC[C@H]1CC2
REMARK SMILES IDX 1 1 2 2 9 3 10 4 11 5 5 6 4 7 7 8 8 9 6 10 3 11
REMARK H PARENT
REMARK Flexibility Score: inf
ROOT
ATOM      1  C   UNL     1     124.352 110.624 135.412  1.00  0.00     0.042 C 
ATOM      2  C   UNL     1     125.631 110.906 136.230  1.00  0.00     0.066 C 
ATOM      3  C   UNL     1     125.397 112.094 137.240  1.00  0.00     0.021 C 
ATOM      4  C   UNL     1     124.305 111.670 138.251  1.00  0.00     0.009 C 
ATOM      5  C   UNL     1     124.681 110.298 138.861  1.00  0.00     0.035 C 
ATOM      6  C   UNL     1     126.071 109.847 138.326  1.00  0.00     0.066 C 
ATOM      7  O   UNL     1     126.001 109.695 136.908  1.00  0.00    -0.369 OA
ATOM      8  C   UNL     1     127.125 110.940 138.670  1.00  0.00     0.035 C 
ATOM      9  C   UNL     1     126.690 112.297 138.066  1.00  0.00     0.009 C 
ATOM     10  C   UNL     1     126.472 108.506 138.947  1.00  0.00     0.042 C 
ATOM     11  C   UNL     1     126.750 111.254 135.226  1.00  0.00     0.042 C 
ENDROOT
TORSDOF 0
ENDMDL
MODEL 8
REMARK VINA RESULT:    -1.759      2.971      4.752
REMARK INTER + INTRA:          -1.759
REMARK INTER:                  -1.759
REMARK INTRA:                   0.000
REMARK UNBOUND:                 0.000
REMARK SMILES CC1(C)O[C@]2(C)CC[C@H]1CC2
REMARK SMILES IDX 1 1 2 2 9 3 10 4 11 5 5 6 4 7 7 8 8 9 6 10 3 11
REMARK H PARENT
REMARK Flexibility Score: inf
ROOT
ATOM      1  C   UNL     1     123.149 110.422 136.617  1.00  0.00     0.042 C 
ATOM      2  C   UNL     1     124.370 110.955 137.397  1.00  0.00     0.066 C 
ATOM      3  C   UNL     1     125.448 109.819 137.590  1.00  0.00     0.021 C 
ATOM      4  C   UNL     1     125.962 109.391 136.195  1.00  0.00     0.009 C 
ATOM      5  C   UNL     1     126.404 110.648 135.407  1.00  0.00     0.035 C 
ATOM      6  C   UNL     1     126.271 111.909 136.309  1.00  0.00     0.066 C 
ATOM      7  O   UNL     1     124.902 112.078 136.679  1.00  0.00    -0.369 OA
ATOM      8  C   UNL     1     127.124 111.704 137.594  1.00  0.00     0.035 C 
ATOM      9  C   UNL     1     126.667 110.422 138.330  1.00  0.00     0.009 C 
ATOM     10  C   UNL     1     126.735 113.157 135.552  1.00  0.00     0.042 C 
ATOM     11  C   UNL     1     123.857 111.459 138.764  1.00  0.00     0.042 C 
ENDROOT
TORSDOF 0
ENDMDL
