MODEL 1
REMARK VINA RESULT:    -3.477      0.000      0.000
REMARK INTER + INTRA:         -10.960
REMARK INTER:                  -7.541
REMARK INTRA:                  -3.419
REMARK UNBOUND:                -3.419
REMARK SMILES CCCCCCCCCCCCCCCCCCCCCC(=O)[O-]
REMARK SMILES IDX 12 1 11 2 10 3 9 4 8 5 7 6 6 7 5 8 4 9 3 10 2 11 1 12 13 13
REMARK SMILES IDX 14 14 15 15 16 16 17 17 18 18 19 19 20 20 21 21 22 22 23 23
REMARK SMILES IDX 24 24
REMARK H PARENT
REMARK Flexibility Score: inf
ROOT
ATOM      1  C   UNL     1      -5.996   3.590  -4.871  1.00  0.00     0.000 C 
ENDROOT
BRANCH   1   2
ATOM      2  C   UNL     1      -7.014   2.765  -4.065  1.00  0.00     0.000 C 
BRANCH   2   3
ATOM      3  C   UNL     1      -8.218   3.586  -3.558  1.00  0.00     0.000 C 
BRANCH   3   4
ATOM      4  C   UNL     1      -8.236   3.716  -2.027  1.00  0.00    -0.000 C 
BRANCH   4   5
ATOM      5  C   UNL     1      -8.640   5.137  -1.603  1.00  0.00    -0.000 C 
BRANCH   5   6
ATOM      6  C   UNL     1      -9.153   5.981  -2.781  1.00  0.00    -0.000 C 
BRANCH   6   7
ATOM      7  C   UNL     1      -8.552   7.395  -2.798  1.00  0.00    -0.000 C 
BRANCH   7   8
ATOM      8  C   UNL     1      -7.195   7.475  -2.077  1.00  0.00    -0.000 C 
BRANCH   8   9
ATOM      9  C   UNL     1      -7.099   8.639  -1.066  1.00  0.00    -0.000 C 
BRANCH   9  10
ATOM     10  C   UNL     1      -6.271   8.261   0.175  1.00  0.00    -0.000 C 
BRANCH  10  11
ATOM     11  C   UNL     1      -5.692   9.487   0.897  1.00  0.00    -0.003 C 
ATOM     12  C   UNL     1      -4.333   9.915   0.341  1.00  0.00     0.004 C 
ENDBRANCH  10  11
ENDBRANCH   9  10
ENDBRANCH   8   9
ENDBRANCH   7   8
ENDBRANCH   6   7
ENDBRANCH   5   6
ENDBRANCH   4   5
ENDBRANCH   3   4
ENDBRANCH   2   3
ENDBRANCH   1   2
BRANCH   1  13
ATOM     13  C   UNL     1      -5.987   5.077  -4.480  1.00  0.00     0.000 C 
BRANCH  13  14
ATOM     14  C   UNL     1      -5.625   5.994  -5.659  1.00  0.00     0.000 C 
BRANCH  14  15
ATOM     15  C   UNL     1      -6.663   7.109  -5.875  1.00  0.00     0.000 C 
BRANCH  15  16
ATOM     16  C   UNL     1      -7.696   6.756  -6.965  1.00  0.00     0.000 C 
BRANCH  16  17
ATOM     17  C   UNL     1      -8.874   5.902  -6.457  1.00  0.00     0.000 C 
BRANCH  17  18
ATOM     18  C   UNL     1      -8.950   4.478  -7.041  1.00  0.00     0.000 C 
BRANCH  18  19
ATOM     19  C   UNL     1      -7.863   4.134  -8.079  1.00  0.00     0.000 C 
BRANCH  19  20
ATOM     20  C   UNL     1      -8.001   2.754  -8.751  1.00  0.00     0.006 C 
BRANCH  20  21
ATOM     21  C   UNL     1      -6.740   1.878  -8.652  1.00  0.00     0.053 C 
BRANCH  21  22
ATOM     22  C   UNL     1      -6.775   0.946  -7.479  1.00  0.00     0.041 C 
ATOM     23  O   UNL     1      -7.853   0.751  -6.858  1.00  0.00    -0.550 OA
ATOM     24  O   UNL     1      -5.628   0.262  -7.094  1.00  0.00    -0.550 OA
ENDBRANCH  21  22
ENDBRANCH  20  21
ENDBRANCH  19  20
ENDBRANCH  18  19
ENDBRANCH  17  18
ENDBRANCH  16  17
ENDBRANCH  15  16
ENDBRANCH  14  15
ENDBRANCH  13  14
ENDBRANCH   1  13
TORSDOF 20
ENDMDL
MODEL 2
REMARK VINA RESULT:    -3.449      3.160      7.598
REMARK INTER + INTRA:         -10.900
REMARK INTER:                  -7.010
REMARK INTRA:                  -3.890
REMARK UNBOUND:                -3.419
REMARK SMILES CCCCCCCCCCCCCCCCCCCCCC(=O)[O-]
REMARK SMILES IDX 12 1 11 2 10 3 9 4 8 5 7 6 6 7 5 8 4 9 3 10 2 11 1 12 13 13
REMARK SMILES IDX 14 14 15 15 16 16 17 17 18 18 19 19 20 20 21 21 22 22 23 23
REMARK SMILES IDX 24 24
REMARK H PARENT
REMARK Flexibility Score: inf
ROOT
ATOM      1  C   UNL     1      -7.150   2.696  -4.230  1.00  0.00     0.000 C 
ENDROOT
BRANCH   1   2
ATOM      2  C   UNL     1      -6.012   3.514  -4.863  1.00  0.00     0.000 C 
BRANCH   2   3
ATOM      3  C   UNL     1      -6.026   5.006  -4.472  1.00  0.00     0.000 C 
BRANCH   3   4
ATOM      4  C   UNL     1      -5.680   5.926  -5.653  1.00  0.00    -0.000 C 
BRANCH   4   5
ATOM      5  C   UNL     1      -6.617   7.144  -5.691  1.00  0.00    -0.000 C 
BRANCH   5   6
ATOM      6  C   UNL     1      -8.054   6.797  -5.271  1.00  0.00    -0.000 C 
BRANCH   6   7
ATOM      7  C   UNL     1      -8.974   6.543  -6.476  1.00  0.00    -0.000 C 
BRANCH   7   8
ATOM      8  C   UNL     1      -9.822   5.269  -6.321  1.00  0.00    -0.000 C 
BRANCH   8   9
ATOM      9  C   UNL     1      -9.168   4.012  -6.935  1.00  0.00    -0.000 C 
BRANCH   9  10
ATOM     10  C   UNL     1      -8.605   4.281  -8.342  1.00  0.00    -0.000 C 
BRANCH  10  11
ATOM     11  C   UNL     1      -7.104   3.966  -8.449  1.00  0.00    -0.003 C 
ATOM     12  C   UNL     1      -6.806   2.470  -8.354  1.00  0.00     0.004 C 
ENDBRANCH  10  11
ENDBRANCH   9  10
ENDBRANCH   8   9
ENDBRANCH   7   8
ENDBRANCH   6   7
ENDBRANCH   5   6
ENDBRANCH   4   5
ENDBRANCH   3   4
ENDBRANCH   2   3
ENDBRANCH   1   2
BRANCH   1  13
ATOM     13  C   UNL     1      -7.749   3.369  -2.984  1.00  0.00     0.000 C 
BRANCH  13  14
ATOM     14  C   UNL     1      -9.256   3.637  -3.126  1.00  0.00     0.000 C 
BRANCH  14  15
ATOM     15  C   UNL     1      -9.679   4.965  -2.474  1.00  0.00     0.000 C 
BRANCH  15  16
ATOM     16  C   UNL     1      -8.512   5.673  -1.756  1.00  0.00     0.000 C 
BRANCH  16  17
ATOM     17  C   UNL     1      -8.669   7.204  -1.664  1.00  0.00     0.000 C 
BRANCH  17  18
ATOM     18  C   UNL     1      -7.372   8.009  -1.870  1.00  0.00     0.000 C 
BRANCH  18  19
ATOM     19  C   UNL     1      -7.218   9.251  -0.969  1.00  0.00     0.000 C 
BRANCH  19  20
ATOM     20  C   UNL     1      -5.993   9.244  -0.035  1.00  0.00     0.006 C 
BRANCH  20  21
ATOM     21  C   UNL     1      -6.321   8.899   1.428  1.00  0.00     0.053 C 
BRANCH  21  22
ATOM     22  C   UNL     1      -6.949   7.546   1.574  1.00  0.00     0.041 C 
ATOM     23  O   UNL     1      -8.041   7.418   2.188  1.00  0.00    -0.550 OA
ATOM     24  O   UNL     1      -6.350   6.431   1.000  1.00  0.00    -0.550 OA
ENDBRANCH  21  22
ENDBRANCH  20  21
ENDBRANCH  19  20
ENDBRANCH  18  19
ENDBRANCH  17  18
ENDBRANCH  16  17
ENDBRANCH  15  16
ENDBRANCH  14  15
ENDBRANCH  13  14
ENDBRANCH   1  13
TORSDOF 20
ENDMDL
MODEL 3
REMARK VINA RESULT:    -3.443      3.247      7.331
REMARK INTER + INTRA:         -10.888
REMARK INTER:                  -7.032
REMARK INTRA:                  -3.856
REMARK UNBOUND:                -3.419
REMARK SMILES CCCCCCCCCCCCCCCCCCCCCC(=O)[O-]
REMARK SMILES IDX 12 1 11 2 10 3 9 4 8 5 7 6 6 7 5 8 4 9 3 10 2 11 1 12 13 13
REMARK SMILES IDX 14 14 15 15 16 16 17 17 18 18 19 19 20 20 21 21 22 22 23 23
REMARK SMILES IDX 24 24
REMARK H PARENT
REMARK Flexibility Score: inf
ROOT
ATOM      1  C   UNL     1      -6.862   2.841  -4.060  1.00  0.00     0.000 C 
ENDROOT
BRANCH   1   2
ATOM      2  C   UNL     1      -8.038   3.663  -3.508  1.00  0.00     0.000 C 
BRANCH   2   3
ATOM      3  C   UNL     1      -9.347   3.489  -4.306  1.00  0.00     0.000 C 
BRANCH   3   4
ATOM      4  C   UNL     1      -9.924   4.831  -4.784  1.00  0.00    -0.000 C 
BRANCH   4   5
ATOM      5  C   UNL     1      -9.708   5.011  -6.295  1.00  0.00    -0.000 C 
BRANCH   5   6
ATOM      6  C   UNL     1      -9.109   3.762  -6.959  1.00  0.00    -0.000 C 
BRANCH   6   7
ATOM      7  C   UNL     1      -7.983   4.103  -7.948  1.00  0.00    -0.000 C 
BRANCH   7   8
ATOM      8  C   UNL     1      -7.152   2.874  -8.353  1.00  0.00    -0.000 C 
BRANCH   8   9
ATOM      9  C   UNL     1      -7.680   1.548  -7.762  1.00  0.00    -0.000 C 
BRANCH   9  10
ATOM     10  C   UNL     1      -6.549   0.689  -7.167  1.00  0.00    -0.000 C 
BRANCH  10  11
ATOM     11  C   UNL     1      -6.223  -0.541  -8.030  1.00  0.00    -0.003 C 
ATOM     12  C   UNL     1      -5.049  -0.303  -8.979  1.00  0.00     0.004 C 
ENDBRANCH  10  11
ENDBRANCH   9  10
ENDBRANCH   8   9
ENDBRANCH   7   8
ENDBRANCH   6   7
ENDBRANCH   5   6
ENDBRANCH   4   5
ENDBRANCH   3   4
ENDBRANCH   2   3
ENDBRANCH   1   2
BRANCH   1  13
ATOM     13  C   UNL     1      -5.872   3.687  -4.878  1.00  0.00     0.000 C 
BRANCH  13  14
ATOM     14  C   UNL     1      -6.036   5.194  -4.626  1.00  0.00     0.000 C 
BRANCH  14  15
ATOM     15  C   UNL     1      -5.641   6.040  -5.849  1.00  0.00     0.000 C 
BRANCH  15  16
ATOM     16  C   UNL     1      -6.771   6.986  -6.306  1.00  0.00     0.000 C 
BRANCH  16  17
ATOM     17  C   UNL     1      -6.961   8.218  -5.399  1.00  0.00     0.000 C 
BRANCH  17  18
ATOM     18  C   UNL     1      -8.215   8.186  -4.506  1.00  0.00     0.000 C 
BRANCH  18  19
ATOM     19  C   UNL     1      -7.954   8.376  -2.998  1.00  0.00     0.000 C 
BRANCH  19  20
ATOM     20  C   UNL     1      -7.925   7.081  -2.162  1.00  0.00     0.006 C 
BRANCH  20  21
ATOM     21  C   UNL     1      -6.617   6.867  -1.381  1.00  0.00     0.053 C 
BRANCH  21  22
ATOM     22  C   UNL     1      -6.635   7.523  -0.034  1.00  0.00     0.041 C 
ATOM     23  O   UNL     1      -5.915   8.531   0.189  1.00  0.00    -0.550 OA
ATOM     24  O   UNL     1      -7.476   7.046   0.964  1.00  0.00    -0.550 OA
ENDBRANCH  21  22
ENDBRANCH  20  21
ENDBRANCH  19  20
ENDBRANCH  18  19
ENDBRANCH  17  18
ENDBRANCH  16  17
ENDBRANCH  15  16
ENDBRANCH  14  15
ENDBRANCH  13  14
ENDBRANCH   1  13
TORSDOF 20
ENDMDL
MODEL 4
REMARK VINA RESULT:    -3.305     12.471     14.488
REMARK INTER + INTRA:         -10.588
REMARK INTER:                  -6.598
REMARK INTRA:                  -3.990
REMARK UNBOUND:                -3.419
REMARK SMILES CCCCCCCCCCCCCCCCCCCCCC(=O)[O-]
REMARK SMILES IDX 12 1 11 2 10 3 9 4 8 5 7 6 6 7 5 8 4 9 3 10 2 11 1 12 13 13
REMARK SMILES IDX 14 14 15 15 16 16 17 17 18 18 19 19 20 20 21 21 22 22 23 23
REMARK SMILES IDX 24 24
REMARK H PARENT
REMARK Flexibility Score: inf
ROOT
ATOM      1  C   UNL     1       4.382   4.032  -5.702  1.00  0.00     0.000 C 
ENDROOT
BRANCH   1   2
ATOM      2  C   UNL     1       5.200   4.251  -4.418  1.00  0.00     0.000 C 
BRANCH   2   3
ATOM      3  C   UNL     1       5.565   5.727  -4.157  1.00  0.00     0.000 C 
BRANCH   3   4
ATOM      4  C   UNL     1       7.080   5.940  -4.014  1.00  0.00    -0.000 C 
BRANCH   4   5
ATOM      5  C   UNL     1       7.708   6.330  -5.361  1.00  0.00    -0.000 C 
BRANCH   5   6
ATOM      6  C   UNL     1       7.198   7.684  -5.880  1.00  0.00    -0.000 C 
BRANCH   6   7
ATOM      7  C   UNL     1       8.064   8.241  -7.022  1.00  0.00    -0.000 C 
BRANCH   7   8
ATOM      8  C   UNL     1       7.387   9.400  -7.773  1.00  0.00    -0.000 C 
BRANCH   8   9
ATOM      9  C   UNL     1       7.232   9.148  -9.288  1.00  0.00    -0.000 C 
BRANCH   9  10
ATOM     10  C   UNL     1       5.755   9.079  -9.716  1.00  0.00    -0.000 C 
BRANCH  10  11
ATOM     11  C   UNL     1       4.793   9.031  -8.518  1.00  0.00    -0.003 C 
ATOM     12  C   UNL     1       3.356   8.708  -8.925  1.00  0.00     0.004 C 
ENDBRANCH  10  11
ENDBRANCH   9  10
ENDBRANCH   8   9
ENDBRANCH   7   8
ENDBRANCH   6   7
ENDBRANCH   5   6
ENDBRANCH   4   5
ENDBRANCH   3   4
ENDBRANCH   2   3
ENDBRANCH   1   2
BRANCH   1  13
ATOM     13  C   UNL     1       4.404   5.250  -6.641  1.00  0.00     0.000 C 
BRANCH  13  14
ATOM     14  C   UNL     1       3.769   4.952  -8.008  1.00  0.00     0.000 C 
BRANCH  14  15
ATOM     15  C   UNL     1       4.740   5.207  -9.174  1.00  0.00     0.000 C 
BRANCH  15  16
ATOM     16  C   UNL     1       6.153   5.601  -8.695  1.00  0.00     0.000 C 
BRANCH  16  17
ATOM     17  C   UNL     1       7.250   5.414  -9.762  1.00  0.00     0.000 C 
BRANCH  17  18
ATOM     18  C   UNL     1       8.549   4.758  -9.258  1.00  0.00     0.000 C 
BRANCH  18  19
ATOM     19  C   UNL     1       8.415   3.955  -7.948  1.00  0.00     0.000 C 
BRANCH  19  20
ATOM     20  C   UNL     1       8.128   2.450  -8.119  1.00  0.00     0.006 C 
BRANCH  20  21
ATOM     21  C   UNL     1       6.675   2.051  -7.810  1.00  0.00     0.053 C 
BRANCH  21  22
ATOM     22  C   UNL     1       6.583   0.798  -6.992  1.00  0.00     0.041 C 
ATOM     23  O   UNL     1       5.461   0.375  -6.607  1.00  0.00    -0.550 OA
ATOM     24  O   UNL     1       7.730   0.077  -6.686  1.00  0.00    -0.550 OA
ENDBRANCH  21  22
ENDBRANCH  20  21
ENDBRANCH  19  20
ENDBRANCH  18  19
ENDBRANCH  17  18
ENDBRANCH  16  17
ENDBRANCH  15  16
ENDBRANCH  14  15
ENDBRANCH  13  14
ENDBRANCH   1  13
TORSDOF 20
ENDMDL
MODEL 5
REMARK VINA RESULT:    -3.280      3.220      7.849
REMARK INTER + INTRA:         -10.533
REMARK INTER:                  -6.946
REMARK INTRA:                  -3.587
REMARK UNBOUND:                -3.419
REMARK SMILES CCCCCCCCCCCCCCCCCCCCCC(=O)[O-]
REMARK SMILES IDX 12 1 11 2 10 3 9 4 8 5 7 6 6 7 5 8 4 9 3 10 2 11 1 12 13 13
REMARK SMILES IDX 14 14 15 15 16 16 17 17 18 18 19 19 20 20 21 21 22 22 23 23
REMARK SMILES IDX 24 24
REMARK H PARENT
REMARK Flexibility Score: inf
ROOT
ATOM      1  C   UNL     1      -6.969   2.628  -4.171  1.00  0.00     0.000 C 
ENDROOT
BRANCH   1   2
ATOM      2  C   UNL     1      -5.890   3.503  -4.831  1.00  0.00     0.000 C 
BRANCH   2   3
ATOM      3  C   UNL     1      -5.928   4.979  -4.383  1.00  0.00     0.000 C 
BRANCH   3   4
ATOM      4  C   UNL     1      -5.890   5.953  -5.571  1.00  0.00    -0.000 C 
BRANCH   4   5
ATOM      5  C   UNL     1      -6.894   5.533  -6.656  1.00  0.00    -0.000 C 
BRANCH   5   6
ATOM      6  C   UNL     1      -8.352   5.624  -6.178  1.00  0.00    -0.000 C 
BRANCH   6   7
ATOM      7  C   UNL     1      -9.247   4.543  -6.807  1.00  0.00    -0.000 C 
BRANCH   7   8
ATOM      8  C   UNL     1      -8.505   3.688  -7.848  1.00  0.00    -0.000 C 
BRANCH   8   9
ATOM      9  C   UNL     1      -8.386   2.199  -7.454  1.00  0.00    -0.000 C 
BRANCH   9  10
ATOM     10  C   UNL     1      -7.044   1.589  -7.895  1.00  0.00    -0.000 C 
BRANCH  10  11
ATOM     11  C   UNL     1      -6.934   0.093  -7.560  1.00  0.00    -0.003 C 
ATOM     12  C   UNL     1      -5.599  -0.514  -7.992  1.00  0.00     0.004 C 
ENDBRANCH  10  11
ENDBRANCH   9  10
ENDBRANCH   8   9
ENDBRANCH   7   8
ENDBRANCH   6   7
ENDBRANCH   5   6
ENDBRANCH   4   5
ENDBRANCH   3   4
ENDBRANCH   2   3
ENDBRANCH   1   2
BRANCH   1  13
ATOM     13  C   UNL     1      -7.730   3.357  -3.052  1.00  0.00     0.000 C 
BRANCH  13  14
ATOM     14  C   UNL     1      -9.253   3.329  -3.260  1.00  0.00     0.000 C 
BRANCH  14  15
ATOM     15  C   UNL     1      -9.919   4.669  -2.904  1.00  0.00     0.000 C 
BRANCH  15  16
ATOM     16  C   UNL     1      -8.940   5.662  -2.241  1.00  0.00     0.000 C 
BRANCH  16  17
ATOM     17  C   UNL     1      -8.985   7.081  -2.842  1.00  0.00     0.000 C 
BRANCH  17  18
ATOM     18  C   UNL     1      -7.650   7.849  -2.809  1.00  0.00     0.000 C 
BRANCH  18  19
ATOM     19  C   UNL     1      -7.676   9.180  -2.030  1.00  0.00     0.000 C 
BRANCH  19  20
ATOM     20  C   UNL     1      -6.953   9.165  -0.669  1.00  0.00     0.006 C 
BRANCH  20  21
ATOM     21  C   UNL     1      -7.891   8.994   0.538  1.00  0.00     0.053 C 
BRANCH  21  22
ATOM     22  C   UNL     1      -7.682   7.693   1.252  1.00  0.00     0.041 C 
ATOM     23  O   UNL     1      -8.172   7.513   2.397  1.00  0.00    -0.550 OA
ATOM     24  O   UNL     1      -6.979   6.664   0.637  1.00  0.00    -0.550 OA
ENDBRANCH  21  22
ENDBRANCH  20  21
ENDBRANCH  19  20
ENDBRANCH  18  19
ENDBRANCH  17  18
ENDBRANCH  16  17
ENDBRANCH  15  16
ENDBRANCH  14  15
ENDBRANCH  13  14
ENDBRANCH   1  13
TORSDOF 20
ENDMDL
MODEL 6
REMARK VINA RESULT:    -3.233      3.067      6.382
REMARK INTER + INTRA:         -10.432
REMARK INTER:                  -6.555
REMARK INTRA:                  -3.877
REMARK UNBOUND:                -3.419
REMARK SMILES CCCCCCCCCCCCCCCCCCCCCC(=O)[O-]
REMARK SMILES IDX 12 1 11 2 10 3 9 4 8 5 7 6 6 7 5 8 4 9 3 10 2 11 1 12 13 13
REMARK SMILES IDX 14 14 15 15 16 16 17 17 18 18 19 19 20 20 21 21 22 22 23 23
REMARK SMILES IDX 24 24
REMARK H PARENT
REMARK Flexibility Score: inf
ROOT
ATOM      1  C   UNL     1      -5.957   3.738  -4.769  1.00  0.00     0.000 C 
ENDROOT
BRANCH   1   2
ATOM      2  C   UNL     1      -6.518   2.385  -4.300  1.00  0.00     0.000 C 
BRANCH   2   3
ATOM      3  C   UNL     1      -7.250   1.598  -5.407  1.00  0.00     0.000 C 
BRANCH   3   4
ATOM      4  C   UNL     1      -7.204   2.315  -6.765  1.00  0.00    -0.000 C 
BRANCH   4   5
ATOM      5  C   UNL     1      -8.592   2.853  -7.147  1.00  0.00    -0.000 C 
BRANCH   5   6
ATOM      6  C   UNL     1      -8.515   4.085  -8.062  1.00  0.00    -0.000 C 
BRANCH   6   7
ATOM      7  C   UNL     1      -7.068   4.522  -8.343  1.00  0.00    -0.000 C 
BRANCH   7   8
ATOM      8  C   UNL     1      -6.862   6.038  -8.186  1.00  0.00    -0.000 C 
BRANCH   8   9
ATOM      9  C   UNL     1      -5.485   6.417  -7.598  1.00  0.00    -0.000 C 
BRANCH   9  10
ATOM     10  C   UNL     1      -5.556   7.688  -6.732  1.00  0.00    -0.000 C 
BRANCH  10  11
ATOM     11  C   UNL     1      -5.484   8.977  -7.565  1.00  0.00    -0.003 C 
ATOM     12  C   UNL     1      -6.475  10.042  -7.096  1.00  0.00     0.004 C 
ENDBRANCH  10  11
ENDBRANCH   9  10
ENDBRANCH   8   9
ENDBRANCH   7   8
ENDBRANCH   6   7
ENDBRANCH   5   6
ENDBRANCH   4   5
ENDBRANCH   3   4
ENDBRANCH   2   3
ENDBRANCH   1   2
BRANCH   1  13
ATOM     13  C   UNL     1      -6.625   4.936  -4.076  1.00  0.00     0.000 C 
BRANCH  13  14
ATOM     14  C   UNL     1      -7.969   4.569  -3.428  1.00  0.00     0.000 C 
BRANCH  14  15
ATOM     15  C   UNL     1      -9.118   5.471  -3.910  1.00  0.00     0.000 C 
BRANCH  15  16
ATOM     16  C   UNL     1      -8.720   6.347  -5.117  1.00  0.00     0.000 C 
BRANCH  16  17
ATOM     17  C   UNL     1      -8.835   7.862  -4.854  1.00  0.00     0.000 C 
BRANCH  17  18
ATOM     18  C   UNL     1      -7.679   8.475  -4.042  1.00  0.00     0.000 C 
BRANCH  18  19
ATOM     19  C   UNL     1      -8.106   9.400  -2.884  1.00  0.00     0.000 C 
BRANCH  19  20
ATOM     20  C   UNL     1      -7.562   9.016  -1.494  1.00  0.00     0.006 C 
BRANCH  20  21
ATOM     21  C   UNL     1      -6.899   7.629  -1.440  1.00  0.00     0.053 C 
BRANCH  21  22
ATOM     22  C   UNL     1      -7.410   6.789  -0.308  1.00  0.00     0.041 C 
ATOM     23  O   UNL     1      -6.721   6.650   0.736  1.00  0.00    -0.550 OA
ATOM     24  O   UNL     1      -8.662   6.192  -0.390  1.00  0.00    -0.550 OA
ENDBRANCH  21  22
ENDBRANCH  20  21
ENDBRANCH  19  20
ENDBRANCH  18  19
ENDBRANCH  17  18
ENDBRANCH  16  17
ENDBRANCH  15  16
ENDBRANCH  14  15
ENDBRANCH  13  14
ENDBRANCH   1  13
TORSDOF 20
ENDMDL
MODEL 7
REMARK VINA RESULT:    -3.171      1.169      2.178
REMARK INTER + INTRA:         -10.297
REMARK INTER:                  -7.385
REMARK INTRA:                  -2.912
REMARK UNBOUND:                -3.419
REMARK SMILES CCCCCCCCCCCCCCCCCCCCCC(=O)[O-]
REMARK SMILES IDX 12 1 11 2 10 3 9 4 8 5 7 6 6 7 5 8 4 9 3 10 2 11 1 12 13 13
REMARK SMILES IDX 14 14 15 15 16 16 17 17 18 18 19 19 20 20 21 21 22 22 23 23
REMARK SMILES IDX 24 24
REMARK H PARENT
REMARK Flexibility Score: inf
ROOT
ATOM      1  C   UNL     1      -7.867   3.855  -2.783  1.00  0.00     0.000 C 
ENDROOT
BRANCH   1   2
ATOM      2  C   UNL     1      -9.303   4.405  -2.807  1.00  0.00     0.000 C 
BRANCH   2   3
ATOM      3  C   UNL     1      -9.756   4.901  -4.196  1.00  0.00     0.000 C 
BRANCH   3   4
ATOM      4  C   UNL     1     -10.021   6.414  -4.221  1.00  0.00    -0.000 C 
BRANCH   4   5
ATOM      5  C   UNL     1      -8.723   7.201  -3.978  1.00  0.00    -0.000 C 
BRANCH   5   6
ATOM      6  C   UNL     1      -8.889   8.303  -2.921  1.00  0.00    -0.000 C 
BRANCH   6   7
ATOM      7  C   UNL     1      -7.618   8.512  -2.083  1.00  0.00    -0.000 C 
BRANCH   7   8
ATOM      8  C   UNL     1      -6.973   7.188  -1.637  1.00  0.00    -0.000 C 
BRANCH   8   9
ATOM      9  C   UNL     1      -5.974   7.348  -0.470  1.00  0.00    -0.000 C 
BRANCH   9  10
ATOM     10  C   UNL     1      -6.672   7.776   0.834  1.00  0.00    -0.000 C 
BRANCH  10  11
ATOM     11  C   UNL     1      -6.297   9.202   1.266  1.00  0.00    -0.003 C 
ATOM     12  C   UNL     1      -5.004   9.697   0.618  1.00  0.00     0.004 C 
ENDBRANCH  10  11
ENDBRANCH   9  10
ENDBRANCH   8   9
ENDBRANCH   7   8
ENDBRANCH   6   7
ENDBRANCH   5   6
ENDBRANCH   4   5
ENDBRANCH   3   4
ENDBRANCH   2   3
ENDBRANCH   1   2
BRANCH   1  13
ATOM     13  C   UNL     1      -7.555   2.942  -3.981  1.00  0.00     0.000 C 
BRANCH  13  14
ATOM     14  C   UNL     1      -6.251   3.332  -4.695  1.00  0.00     0.000 C 
BRANCH  14  15
ATOM     15  C   UNL     1      -5.898   4.817  -4.504  1.00  0.00     0.000 C 
BRANCH  15  16
ATOM     16  C   UNL     1      -5.831   5.589  -5.838  1.00  0.00     0.000 C 
BRANCH  16  17
ATOM     17  C   UNL     1      -7.127   5.514  -6.670  1.00  0.00     0.000 C 
BRANCH  17  18
ATOM     18  C   UNL     1      -6.974   4.874  -8.063  1.00  0.00     0.000 C 
BRANCH  18  19
ATOM     19  C   UNL     1      -7.559   3.454  -8.203  1.00  0.00     0.000 C 
BRANCH  19  20
ATOM     20  C   UNL     1      -6.608   2.401  -8.804  1.00  0.00     0.006 C 
BRANCH  20  21
ATOM     21  C   UNL     1      -7.105   0.952  -8.661  1.00  0.00     0.053 C 
BRANCH  21  22
ATOM     22  C   UNL     1      -6.139   0.082  -7.916  1.00  0.00     0.041 C 
ATOM     23  O   UNL     1      -5.740  -0.999  -8.422  1.00  0.00    -0.550 OA
ATOM     24  O   UNL     1      -5.648   0.483  -6.679  1.00  0.00    -0.550 OA
ENDBRANCH  21  22
ENDBRANCH  20  21
ENDBRANCH  19  20
ENDBRANCH  18  19
ENDBRANCH  17  18
ENDBRANCH  16  17
ENDBRANCH  15  16
ENDBRANCH  14  15
ENDBRANCH  13  14
ENDBRANCH   1  13
TORSDOF 20
ENDMDL
MODEL 8
REMARK VINA RESULT:    -3.148     12.541     14.417
REMARK INTER + INTRA:         -10.247
REMARK INTER:                  -6.725
REMARK INTRA:                  -3.522
REMARK UNBOUND:                -3.419
REMARK SMILES CCCCCCCCCCCCCCCCCCCCCC(=O)[O-]
REMARK SMILES IDX 12 1 11 2 10 3 9 4 8 5 7 6 6 7 5 8 4 9 3 10 2 11 1 12 13 13
REMARK SMILES IDX 14 14 15 15 16 16 17 17 18 18 19 19 20 20 21 21 22 22 23 23
REMARK SMILES IDX 24 24
REMARK H PARENT
REMARK Flexibility Score: inf
ROOT
ATOM      1  C   UNL     1       5.406   4.192  -4.048  1.00  0.00     0.000 C 
ENDROOT
BRANCH   1   2
ATOM      2  C   UNL     1       4.401   3.668  -5.088  1.00  0.00     0.000 C 
BRANCH   2   3
ATOM      3  C   UNL     1       4.855   3.871  -6.549  1.00  0.00     0.000 C 
BRANCH   3   4
ATOM      4  C   UNL     1       4.124   5.036  -7.234  1.00  0.00    -0.000 C 
BRANCH   4   5
ATOM      5  C   UNL     1       4.226   4.923  -8.763  1.00  0.00    -0.000 C 
BRANCH   5   6
ATOM      6  C   UNL     1       3.966   6.261  -9.472  1.00  0.00    -0.000 C 
BRANCH   6   7
ATOM      7  C   UNL     1       4.189   7.470  -8.550  1.00  0.00    -0.000 C 
BRANCH   7   8
ATOM      8  C   UNL     1       4.597   8.739  -9.318  1.00  0.00    -0.000 C 
BRANCH   8   9
ATOM      9  C   UNL     1       6.090   9.101  -9.165  1.00  0.00    -0.000 C 
BRANCH   9  10
ATOM     10  C   UNL     1       6.398   9.713  -7.786  1.00  0.00    -0.000 C 
BRANCH  10  11
ATOM     11  C   UNL     1       7.897   9.989  -7.582  1.00  0.00    -0.003 C 
ATOM     12  C   UNL     1       8.279  10.123  -6.108  1.00  0.00     0.004 C 
ENDBRANCH  10  11
ENDBRANCH   9  10
ENDBRANCH   8   9
ENDBRANCH   7   8
ENDBRANCH   6   7
ENDBRANCH   5   6
ENDBRANCH   4   5
ENDBRANCH   3   4
ENDBRANCH   2   3
ENDBRANCH   1   2
BRANCH   1  13
ATOM     13  C   UNL     1       5.588   5.718  -4.107  1.00  0.00     0.000 C 
BRANCH  13  14
ATOM     14  C   UNL     1       7.039   6.129  -4.399  1.00  0.00     0.000 C 
BRANCH  14  15
ATOM     15  C   UNL     1       7.212   6.706  -5.814  1.00  0.00     0.000 C 
BRANCH  15  16
ATOM     16  C   UNL     1       7.940   5.735  -6.768  1.00  0.00     0.000 C 
BRANCH  16  17
ATOM     17  C   UNL     1       8.130   6.284  -8.196  1.00  0.00     0.000 C 
BRANCH  17  18
ATOM     18  C   UNL     1       7.610   5.371  -9.322  1.00  0.00     0.000 C 
BRANCH  18  19
ATOM     19  C   UNL     1       8.345   4.023  -9.470  1.00  0.00     0.000 C 
BRANCH  19  20
ATOM     20  C   UNL     1       7.539   2.779  -9.047  1.00  0.00     0.006 C 
BRANCH  20  21
ATOM     21  C   UNL     1       8.139   2.020  -7.850  1.00  0.00     0.053 C 
BRANCH  21  22
ATOM     22  C   UNL     1       7.340   0.808  -7.477  1.00  0.00     0.041 C 
ATOM     23  O   UNL     1       7.733   0.052  -6.550  1.00  0.00    -0.550 OA
ATOM     24  O   UNL     1       6.141   0.534  -8.125  1.00  0.00    -0.550 OA
ENDBRANCH  21  22
ENDBRANCH  20  21
ENDBRANCH  19  20
ENDBRANCH  18  19
ENDBRANCH  17  18
ENDBRANCH  16  17
ENDBRANCH  15  16
ENDBRANCH  14  15
ENDBRANCH  13  14
ENDBRANCH   1  13
TORSDOF 20
ENDMDL
MODEL 9
REMARK VINA RESULT:    -3.076      3.653      7.255
REMARK INTER + INTRA:         -10.091
REMARK INTER:                  -6.758
REMARK INTRA:                  -3.333
REMARK UNBOUND:                -3.419
REMARK SMILES CCCCCCCCCCCCCCCCCCCCCC(=O)[O-]
REMARK SMILES IDX 12 1 11 2 10 3 9 4 8 5 7 6 6 7 5 8 4 9 3 10 2 11 1 12 13 13
REMARK SMILES IDX 14 14 15 15 16 16 17 17 18 18 19 19 20 20 21 21 22 22 23 23
REMARK SMILES IDX 24 24
REMARK H PARENT
REMARK Flexibility Score: inf
ROOT
ATOM      1  C   UNL     1      -7.206   2.705  -4.048  1.00  0.00     0.000 C 
ENDROOT
BRANCH   1   2
ATOM      2  C   UNL     1      -5.985   3.312  -4.759  1.00  0.00     0.000 C 
BRANCH   2   3
ATOM      3  C   UNL     1      -6.268   4.675  -5.426  1.00  0.00     0.000 C 
BRANCH   3   4
ATOM      4  C   UNL     1      -7.306   4.571  -6.554  1.00  0.00    -0.000 C 
BRANCH   4   5
ATOM      5  C   UNL     1      -8.172   5.839  -6.619  1.00  0.00    -0.000 C 
BRANCH   5   6
ATOM      6  C   UNL     1      -8.008   6.730  -5.378  1.00  0.00    -0.000 C 
BRANCH   6   7
ATOM      7  C   UNL     1      -7.064   7.918  -5.627  1.00  0.00    -0.000 C 
BRANCH   7   8
ATOM      8  C   UNL     1      -7.265   8.559  -7.010  1.00  0.00    -0.000 C 
BRANCH   8   9
ATOM      9  C   UNL     1      -5.969   8.649  -7.845  1.00  0.00    -0.000 C 
BRANCH   9  10
ATOM     10  C   UNL     1      -5.103   7.383  -7.707  1.00  0.00    -0.000 C 
BRANCH  10  11
ATOM     11  C   UNL     1      -4.809   6.716  -9.060  1.00  0.00    -0.003 C 
ATOM     12  C   UNL     1      -6.054   6.102  -9.700  1.00  0.00     0.004 C 
ENDBRANCH  10  11
ENDBRANCH   9  10
ENDBRANCH   8   9
ENDBRANCH   7   8
ENDBRANCH   6   7
ENDBRANCH   5   6
ENDBRANCH   4   5
ENDBRANCH   3   4
ENDBRANCH   2   3
ENDBRANCH   1   2
BRANCH   1  13
ATOM     13  C   UNL     1      -7.800   3.635  -2.977  1.00  0.00     0.000 C 
BRANCH  13  14
ATOM     14  C   UNL     1      -9.336   3.612  -2.962  1.00  0.00     0.000 C 
BRANCH  14  15
ATOM     15  C   UNL     1      -9.944   5.026  -2.962  1.00  0.00     0.000 C 
BRANCH  15  16
ATOM     16  C   UNL     1      -9.532   5.850  -1.724  1.00  0.00     0.000 C 
BRANCH  16  17
ATOM     17  C   UNL     1      -9.478   7.370  -1.974  1.00  0.00     0.000 C 
BRANCH  17  18
ATOM     18  C   UNL     1      -8.063   7.980  -1.989  1.00  0.00     0.000 C 
BRANCH  18  19
ATOM     19  C   UNL     1      -6.909   6.969  -1.837  1.00  0.00     0.000 C 
BRANCH  19  20
ATOM     20  C   UNL     1      -6.011   7.169  -0.600  1.00  0.00     0.006 C 
BRANCH  20  21
ATOM     21  C   UNL     1      -6.383   8.393   0.254  1.00  0.00     0.053 C 
BRANCH  21  22
ATOM     22  C   UNL     1      -7.100   8.019   1.516  1.00  0.00     0.041 C 
ATOM     23  O   UNL     1      -6.763   8.538   2.612  1.00  0.00    -0.550 OA
ATOM     24  O   UNL     1      -8.165   7.128   1.477  1.00  0.00    -0.550 OA
ENDBRANCH  21  22
ENDBRANCH  20  21
ENDBRANCH  19  20
ENDBRANCH  18  19
ENDBRANCH  17  18
ENDBRANCH  16  17
ENDBRANCH  15  16
ENDBRANCH  14  15
ENDBRANCH  13  14
ENDBRANCH   1  13
TORSDOF 20
ENDMDL
