MODEL 1
REMARK VINA RESULT:    -7.448      0.000      0.000
REMARK INTER + INTRA:         -10.545
REMARK INTER:                  -9.842
REMARK INTRA:                  -0.703
REMARK UNBOUND:                -0.703
REMARK SMILES CC[C@@H](C=C[C@@H](C)[C@H]1CC[C@H]2C3=CC[C@H]4C[C@H](O)CC[C@@]4(C)[C@H]3CC[C@@]12C)C(C)C
REMARK SMILES IDX 6 1 7 2 5 3 4 4 3 5 2 6 1 7 28 8 29 9 30 10 8 11 9 12 26 13
REMARK SMILES IDX 10 14 11 15 25 16 27 17 12 18 24 19 23 20 13 21 21 22 14 23
REMARK SMILES IDX 15 24 20 25 22 26 16 27 19 28 17 29 18 30
REMARK H PARENT 18 31
REMARK Flexibility Score: inf
ROOT
ATOM      1  C   UNL     1      11.811 -13.368  27.687  1.00  0.00     0.012 C 
ATOM      2  C   UNL     1      12.525 -12.298  28.528  1.00  0.00     0.012 C 
ENDROOT
BRANCH   1   3
ATOM      3  C   UNL     1      11.513 -14.559  28.581  1.00  0.00    -0.028 C 
ATOM      4  C   UNL     1      11.767 -14.526  29.899  1.00  0.00    -0.027 C 
BRANCH   4   5
ATOM      5  C   UNL     1      11.457 -15.703  30.801  1.00  0.00     0.014 C 
BRANCH   5   6
ATOM      6  C   UNL     1      10.231 -15.339  31.680  1.00  0.00     0.004 C 
ATOM      7  C   UNL     1       9.865 -16.401  32.714  1.00  0.00     0.004 C 
ENDBRANCH   5   6
BRANCH   5   8
ATOM      8  C   UNL     1      12.753 -16.130  31.569  1.00  0.00    -0.011 C 
ATOM      9  C   UNL     1      13.992 -15.317  31.157  1.00  0.00     0.008 C 
ATOM     10  C   UNL     1      13.046 -17.638  31.511  1.00  0.00     0.008 C 
ENDBRANCH   5   8
ENDBRANCH   4   5
ENDBRANCH   1   3
BRANCH   1  11
ATOM     11  C   UNL     1      12.650 -13.820  26.443  1.00  0.00     0.002 C 
ATOM     12  C   UNL     1      13.014 -12.625  25.557  1.00  0.00     0.005 C 
ATOM     13  C   UNL     1      14.000 -14.590  26.646  1.00  0.00    -0.023 C 
ATOM     14  C   UNL     1      14.147 -13.087  24.655  1.00  0.00     0.009 C 
ATOM     15  C   UNL     1      14.717 -14.371  25.271  1.00  0.00     0.021 C 
ATOM     16  C   UNL     1      14.856 -14.083  27.869  1.00  0.00     0.008 C 
ATOM     17  C   UNL     1      13.748 -16.112  26.821  1.00  0.00     0.012 C 
ATOM     18  C   UNL     1      16.239 -14.337  25.343  1.00  0.00    -0.067 C 
ATOM     19  C   UNL     1      15.957 -13.087  27.499  1.00  0.00     0.009 C 
ATOM     20  C   UNL     1      16.965 -13.747  26.536  1.00  0.00     0.021 C 
ATOM     21  C   UNL     1      16.973 -14.865  24.350  1.00  0.00    -0.027 C 
ATOM     22  C   UNL     1      18.199 -12.836  26.116  1.00  0.00    -0.023 C 
ATOM     23  C   UNL     1      18.468 -14.833  24.442  1.00  0.00     0.031 C 
ATOM     24  C   UNL     1      18.946 -13.417  24.831  1.00  0.00     0.002 C 
ATOM     25  C   UNL     1      17.738 -11.363  25.864  1.00  0.00     0.010 C 
ATOM     26  C   UNL     1      19.205 -12.833  27.297  1.00  0.00     0.012 C 
ATOM     27  C   UNL     1      18.857 -12.481  23.604  1.00  0.00     0.036 C 
ATOM     28  C   UNL     1      18.813 -10.480  25.210  1.00  0.00     0.032 C 
ATOM     29  C   UNL     1      19.418 -11.085  23.922  1.00  0.00     0.114 C 
BRANCH  29  30
ATOM     30  O   UNL     1      20.816 -11.158  24.056  1.00  0.00    -0.393 OA
ATOM     31  H   UNL     1      21.208 -10.687  23.274  1.00  0.00     0.210 HD
ENDBRANCH  29  30
ENDBRANCH   1  11
TORSDOF 6
ENDMDL
MODEL 2
REMARK VINA RESULT:    -7.131      1.375      2.885
REMARK INTER + INTRA:         -10.126
REMARK INTER:                  -9.294
REMARK INTRA:                  -0.832
REMARK UNBOUND:                -0.703
REMARK SMILES CC[C@@H](C=C[C@@H](C)[C@H]1CC[C@H]2C3=CC[C@H]4C[C@H](O)CC[C@@]4(C)[C@H]3CC[C@@]12C)C(C)C
REMARK SMILES IDX 6 1 7 2 5 3 4 4 3 5 2 6 1 7 28 8 29 9 30 10 8 11 9 12 26 13
REMARK SMILES IDX 10 14 11 15 25 16 27 17 12 18 24 19 23 20 13 21 21 22 14 23
REMARK SMILES IDX 15 24 20 25 22 26 16 27 19 28 17 29 18 30
REMARK H PARENT 18 31
REMARK Flexibility Score: inf
ROOT
ATOM      1  C   UNL     1      12.638 -14.230  27.568  1.00  0.00     0.012 C 
ATOM      2  C   UNL     1      11.742 -12.984  27.653  1.00  0.00     0.012 C 
ENDROOT
BRANCH   1   3
ATOM      3  C   UNL     1      12.139 -15.248  28.578  1.00  0.00    -0.028 C 
ATOM      4  C   UNL     1      11.905 -14.909  29.856  1.00  0.00    -0.027 C 
BRANCH   4   5
ATOM      5  C   UNL     1      11.391 -15.915  30.866  1.00  0.00     0.014 C 
BRANCH   5   6
ATOM      6  C   UNL     1      10.170 -15.296  31.597  1.00  0.00     0.004 C 
ATOM      7  C   UNL     1       9.875 -15.919  32.960  1.00  0.00     0.004 C 
ENDBRANCH   5   6
BRANCH   5   8
ATOM      8  C   UNL     1      12.571 -16.391  31.778  1.00  0.00    -0.011 C 
ATOM      9  C   UNL     1      13.825 -15.510  31.650  1.00  0.00     0.008 C 
ATOM     10  C   UNL     1      12.929 -17.877  31.612  1.00  0.00     0.008 C 
ENDBRANCH   5   8
ENDBRANCH   4   5
ENDBRANCH   1   3
BRANCH   1  11
ATOM     11  C   UNL     1      14.150 -13.906  27.826  1.00  0.00     0.002 C 
ATOM     12  C   UNL     1      15.029 -15.136  27.584  1.00  0.00     0.005 C 
ATOM     13  C   UNL     1      14.853 -12.753  27.029  1.00  0.00    -0.023 C 
ATOM     14  C   UNL     1      16.454 -14.627  27.442  1.00  0.00     0.009 C 
ATOM     15  C   UNL     1      16.367 -13.117  27.185  1.00  0.00     0.021 C 
ATOM     16  C   UNL     1      14.403 -12.643  25.523  1.00  0.00     0.008 C 
ATOM     17  C   UNL     1      14.612 -11.381  27.715  1.00  0.00     0.012 C 
ATOM     18  C   UNL     1      17.250 -12.688  26.020  1.00  0.00    -0.067 C 
ATOM     19  C   UNL     1      15.339 -13.340  24.532  1.00  0.00     0.009 C 
ATOM     20  C   UNL     1      16.741 -12.700  24.592  1.00  0.00     0.021 C 
ATOM     21  C   UNL     1      18.502 -12.258  26.244  1.00  0.00    -0.027 C 
ATOM     22  C   UNL     1      17.802 -13.293  23.565  1.00  0.00    -0.023 C 
ATOM     23  C   UNL     1      19.353 -11.830  25.088  1.00  0.00     0.031 C 
ATOM     24  C   UNL     1      19.293 -12.888  23.964  1.00  0.00     0.002 C 
ATOM     25  C   UNL     1      17.663 -14.848  23.464  1.00  0.00     0.010 C 
ATOM     26  C   UNL     1      17.497 -12.687  22.170  1.00  0.00     0.012 C 
ATOM     27  C   UNL     1      20.169 -14.103  24.346  1.00  0.00     0.036 C 
ATOM     28  C   UNL     1      18.810 -15.523  22.696  1.00  0.00     0.032 C 
ATOM     29  C   UNL     1      20.217 -15.138  23.209  1.00  0.00     0.114 C 
BRANCH  29  30
ATOM     30  O   UNL     1      20.978 -14.631  22.141  1.00  0.00    -0.393 OA
ATOM     31  H   UNL     1      20.780 -15.196  21.348  1.00  0.00     0.210 HD
ENDBRANCH  29  30
ENDBRANCH   1  11
TORSDOF 6
ENDMDL
MODEL 3
REMARK VINA RESULT:    -6.663      2.066      3.696
REMARK INTER + INTRA:          -9.507
REMARK INTER:                  -8.598
REMARK INTRA:                  -0.910
REMARK UNBOUND:                -0.703
REMARK SMILES CC[C@@H](C=C[C@@H](C)[C@H]1CC[C@H]2C3=CC[C@H]4C[C@H](O)CC[C@@]4(C)[C@H]3CC[C@@]12C)C(C)C
REMARK SMILES IDX 6 1 7 2 5 3 4 4 3 5 2 6 1 7 28 8 29 9 30 10 8 11 9 12 26 13
REMARK SMILES IDX 10 14 11 15 25 16 27 17 12 18 24 19 23 20 13 21 21 22 14 23
REMARK SMILES IDX 15 24 20 25 22 26 16 27 19 28 17 29 18 30
REMARK H PARENT 18 31
REMARK Flexibility Score: inf
ROOT
ATOM      1  C   UNL     1      12.455 -13.854  28.095  1.00  0.00     0.012 C 
ATOM      2  C   UNL     1      11.375 -12.775  28.267  1.00  0.00     0.012 C 
ENDROOT
BRANCH   1   3
ATOM      3  C   UNL     1      12.816 -14.395  29.467  1.00  0.00    -0.028 C 
ATOM      4  C   UNL     1      12.024 -15.275  30.102  1.00  0.00    -0.027 C 
BRANCH   4   5
ATOM      5  C   UNL     1      12.384 -15.832  31.464  1.00  0.00     0.014 C 
BRANCH   5   6
ATOM      6  C   UNL     1      13.336 -17.040  31.263  1.00  0.00     0.004 C 
ATOM      7  C   UNL     1      14.538 -16.747  30.366  1.00  0.00     0.004 C 
ENDBRANCH   5   6
BRANCH   5   8
ATOM      8  C   UNL     1      11.076 -16.114  32.277  1.00  0.00    -0.011 C 
ATOM      9  C   UNL     1      10.724 -17.609  32.354  1.00  0.00     0.008 C 
ATOM     10  C   UNL     1       9.862 -15.292  31.814  1.00  0.00     0.008 C 
ENDBRANCH   5   8
ENDBRANCH   4   5
ENDBRANCH   1   3
BRANCH   1  11
ATOM     11  C   UNL     1      13.736 -13.318  27.370  1.00  0.00     0.002 C 
ATOM     12  C   UNL     1      14.986 -13.518  28.232  1.00  0.00     0.005 C 
ATOM     13  C   UNL     1      14.133 -13.878  25.960  1.00  0.00    -0.023 C 
ATOM     14  C   UNL     1      16.180 -13.373  27.302  1.00  0.00     0.009 C 
ATOM     15  C   UNL     1      15.650 -13.503  25.868  1.00  0.00     0.021 C 
ATOM     16  C   UNL     1      13.874 -15.422  25.783  1.00  0.00     0.008 C 
ATOM     17  C   UNL     1      13.380 -13.121  24.833  1.00  0.00     0.012 C 
ATOM     18  C   UNL     1      16.496 -14.459  25.037  1.00  0.00    -0.067 C 
ATOM     19  C   UNL     1      15.106 -16.301  26.021  1.00  0.00     0.009 C 
ATOM     20  C   UNL     1      16.210 -15.948  25.004  1.00  0.00     0.021 C 
ATOM     21  C   UNL     1      17.504 -13.989  24.284  1.00  0.00    -0.027 C 
ATOM     22  C   UNL     1      17.529 -16.830  25.101  1.00  0.00    -0.023 C 
ATOM     23  C   UNL     1      18.318 -14.943  23.465  1.00  0.00     0.031 C 
ATOM     24  C   UNL     1      18.747 -16.151  24.325  1.00  0.00     0.002 C 
ATOM     25  C   UNL     1      17.908 -17.094  26.596  1.00  0.00     0.010 C 
ATOM     26  C   UNL     1      17.233 -18.196  24.429  1.00  0.00     0.012 C 
ATOM     27  C   UNL     1      19.906 -15.739  25.261  1.00  0.00     0.036 C 
ATOM     28  C   UNL     1      19.301 -17.716  26.781  1.00  0.00     0.032 C 
ATOM     29  C   UNL     1      20.431 -16.940  26.065  1.00  0.00     0.114 C 
BRANCH  29  30
ATOM     30  O   UNL     1      21.125 -17.814  25.209  1.00  0.00    -0.393 OA
ATOM     31  H   UNL     1      21.497 -18.541  25.776  1.00  0.00     0.210 HD
ENDBRANCH  29  30
ENDBRANCH   1  11
TORSDOF 6
ENDMDL
MODEL 4
REMARK VINA RESULT:    -6.654      1.442      3.284
REMARK INTER + INTRA:          -9.496
REMARK INTER:                  -9.078
REMARK INTRA:                  -0.418
REMARK UNBOUND:                -0.703
REMARK SMILES CC[C@@H](C=C[C@@H](C)[C@H]1CC[C@H]2C3=CC[C@H]4C[C@H](O)CC[C@@]4(C)[C@H]3CC[C@@]12C)C(C)C
REMARK SMILES IDX 6 1 7 2 5 3 4 4 3 5 2 6 1 7 28 8 29 9 30 10 8 11 9 12 26 13
REMARK SMILES IDX 10 14 11 15 25 16 27 17 12 18 24 19 23 20 13 21 21 22 14 23
REMARK SMILES IDX 15 24 20 25 22 26 16 27 19 28 17 29 18 30
REMARK H PARENT 18 31
REMARK Flexibility Score: inf
ROOT
ATOM      1  C   UNL     1      12.745 -14.714  28.192  1.00  0.00     0.012 C 
ATOM      2  C   UNL     1      11.717 -13.572  28.203  1.00  0.00     0.012 C 
ENDROOT
BRANCH   1   3
ATOM      3  C   UNL     1      12.425 -15.657  29.338  1.00  0.00    -0.028 C 
ATOM      4  C   UNL     1      12.390 -15.227  30.610  1.00  0.00    -0.027 C 
BRANCH   4   5
ATOM      5  C   UNL     1      12.055 -16.157  31.758  1.00  0.00     0.014 C 
BRANCH   5   6
ATOM      6  C   UNL     1      12.843 -17.479  31.564  1.00  0.00     0.004 C 
ATOM      7  C   UNL     1      14.292 -17.285  31.122  1.00  0.00     0.004 C 
ENDBRANCH   5   6
BRANCH   5   8
ATOM      8  C   UNL     1      10.500 -16.293  31.885  1.00  0.00    -0.011 C 
ATOM      9  C   UNL     1       9.863 -15.164  32.712  1.00  0.00     0.008 C 
ATOM     10  C   UNL     1      10.033 -17.669  32.388  1.00  0.00     0.008 C 
ENDBRANCH   5   8
ENDBRANCH   4   5
ENDBRANCH   1   3
BRANCH   1  11
ATOM     11  C   UNL     1      14.221 -14.200  28.309  1.00  0.00     0.002 C 
ATOM     12  C   UNL     1      15.223 -15.338  28.092  1.00  0.00     0.005 C 
ATOM     13  C   UNL     1      14.726 -13.045  27.377  1.00  0.00    -0.023 C 
ATOM     14  C   UNL     1      16.564 -14.684  27.803  1.00  0.00     0.009 C 
ATOM     15  C   UNL     1      16.280 -13.220  27.443  1.00  0.00     0.021 C 
ATOM     16  C   UNL     1      14.166 -13.112  25.906  1.00  0.00     0.008 C 
ATOM     17  C   UNL     1      14.370 -11.657  27.976  1.00  0.00     0.012 C 
ATOM     18  C   UNL     1      17.025 -12.791  26.185  1.00  0.00    -0.067 C 
ATOM     19  C   UNL     1      15.109 -13.776  24.900  1.00  0.00     0.009 C 
ATOM     20  C   UNL     1      16.426 -12.979  24.805  1.00  0.00     0.021 C 
ATOM     21  C   UNL     1      18.229 -12.204  26.280  1.00  0.00    -0.027 C 
ATOM     22  C   UNL     1      17.478 -13.530  23.747  1.00  0.00    -0.023 C 
ATOM     23  C   UNL     1      18.942 -11.780  25.033  1.00  0.00     0.031 C 
ATOM     24  C   UNL     1      18.933 -12.927  23.999  1.00  0.00     0.002 C 
ATOM     25  C   UNL     1      17.519 -15.093  23.772  1.00  0.00     0.010 C 
ATOM     26  C   UNL     1      17.009 -13.080  22.338  1.00  0.00     0.012 C 
ATOM     27  C   UNL     1      19.972 -13.999  24.402  1.00  0.00     0.036 C 
ATOM     28  C   UNL     1      18.684 -15.695  22.970  1.00  0.00     0.032 C 
ATOM     29  C   UNL     1      20.066 -15.112  23.344  1.00  0.00     0.114 C 
BRANCH  29  30
ATOM     30  O   UNL     1      20.688 -14.611  22.186  1.00  0.00    -0.393 OA
ATOM     31  H   UNL     1      21.136 -15.379  21.742  1.00  0.00     0.210 HD
ENDBRANCH  29  30
ENDBRANCH   1  11
TORSDOF 6
ENDMDL
MODEL 5
REMARK VINA RESULT:    -6.555      2.503      5.089
REMARK INTER + INTRA:          -9.365
REMARK INTER:                  -7.349
REMARK INTRA:                  -2.016
REMARK UNBOUND:                -0.703
REMARK SMILES CC[C@@H](C=C[C@@H](C)[C@H]1CC[C@H]2C3=CC[C@H]4C[C@H](O)CC[C@@]4(C)[C@H]3CC[C@@]12C)C(C)C
REMARK SMILES IDX 6 1 7 2 5 3 4 4 3 5 2 6 1 7 28 8 29 9 30 10 8 11 9 12 26 13
REMARK SMILES IDX 10 14 11 15 25 16 27 17 12 18 24 19 23 20 13 21 21 22 14 23
REMARK SMILES IDX 15 24 20 25 22 26 16 27 19 28 17 29 18 30
REMARK H PARENT 18 31
REMARK Flexibility Score: inf
ROOT
ATOM      1  C   UNL     1      13.936 -15.037  28.004  1.00  0.00     0.012 C 
ATOM      2  C   UNL     1      12.695 -15.476  28.796  1.00  0.00     0.012 C 
ENDROOT
BRANCH   1   3
ATOM      3  C   UNL     1      13.495 -14.066  26.922  1.00  0.00    -0.028 C 
ATOM      4  C   UNL     1      13.998 -12.823  26.851  1.00  0.00    -0.027 C 
BRANCH   4   5
ATOM      5  C   UNL     1      13.576 -11.854  25.765  1.00  0.00     0.014 C 
BRANCH   5   6
ATOM      6  C   UNL     1      12.168 -12.264  25.261  1.00  0.00     0.004 C 
ATOM      7  C   UNL     1      11.425 -11.159  24.513  1.00  0.00     0.004 C 
ENDBRANCH   5   6
BRANCH   5   8
ATOM      8  C   UNL     1      14.699 -11.765  24.677  1.00  0.00    -0.011 C 
ATOM      9  C   UNL     1      14.751 -13.000  23.763  1.00  0.00     0.008 C 
ATOM     10  C   UNL     1      16.093 -11.445  25.242  1.00  0.00     0.008 C 
ENDBRANCH   5   8
ENDBRANCH   4   5
ENDBRANCH   1   3
BRANCH   1  11
ATOM     11  C   UNL     1      14.706 -16.244  27.368  1.00  0.00     0.002 C 
ATOM     12  C   UNL     1      14.486 -16.306  25.853  1.00  0.00     0.005 C 
ATOM     13  C   UNL     1      16.258 -16.368  27.548  1.00  0.00    -0.023 C 
ATOM     14  C   UNL     1      15.576 -17.206  25.295  1.00  0.00     0.009 C 
ATOM     15  C   UNL     1      16.653 -17.332  26.380  1.00  0.00     0.021 C 
ATOM     16  C   UNL     1      17.026 -14.993  27.491  1.00  0.00     0.008 C 
ATOM     17  C   UNL     1      16.604 -17.068  28.890  1.00  0.00     0.012 C 
ATOM     18  C   UNL     1      18.052 -17.115  25.818  1.00  0.00    -0.067 C 
ATOM     19  C   UNL     1      17.627 -14.661  26.123  1.00  0.00     0.009 C 
ATOM     20  C   UNL     1      18.667 -15.731  25.730  1.00  0.00     0.021 C 
ATOM     21  C   UNL     1      18.788 -18.163  25.413  1.00  0.00    -0.027 C 
ATOM     22  C   UNL     1      19.415 -15.477  24.350  1.00  0.00    -0.023 C 
ATOM     23  C   UNL     1      20.165 -17.931  24.872  1.00  0.00     0.031 C 
ATOM     24  C   UNL     1      20.142 -16.796  23.825  1.00  0.00     0.002 C 
ATOM     25  C   UNL     1      18.418 -14.933  23.274  1.00  0.00     0.010 C 
ATOM     26  C   UNL     1      20.500 -14.395  24.595  1.00  0.00     0.012 C 
ATOM     27  C   UNL     1      19.553 -17.325  22.497  1.00  0.00     0.036 C 
ATOM     28  C   UNL     1      18.999 -14.904  21.851  1.00  0.00     0.032 C 
ATOM     29  C   UNL     1      19.603 -16.252  21.396  1.00  0.00     0.114 C 
BRANCH  29  30
ATOM     30  O   UNL     1      20.936 -16.051  20.994  1.00  0.00    -0.393 OA
ATOM     31  H   UNL     1      21.103 -16.661  20.227  1.00  0.00     0.210 HD
ENDBRANCH  29  30
ENDBRANCH   1  11
TORSDOF 6
ENDMDL
MODEL 6
REMARK VINA RESULT:    -6.392      2.668      4.786
REMARK INTER + INTRA:          -9.150
REMARK INTER:                  -7.419
REMARK INTRA:                  -1.731
REMARK UNBOUND:                -0.703
REMARK SMILES CC[C@@H](C=C[C@@H](C)[C@H]1CC[C@H]2C3=CC[C@H]4C[C@H](O)CC[C@@]4(C)[C@H]3CC[C@@]12C)C(C)C
REMARK SMILES IDX 6 1 7 2 5 3 4 4 3 5 2 6 1 7 28 8 29 9 30 10 8 11 9 12 26 13
REMARK SMILES IDX 10 14 11 15 25 16 27 17 12 18 24 19 23 20 13 21 21 22 14 23
REMARK SMILES IDX 15 24 20 25 22 26 16 27 19 28 17 29 18 30
REMARK H PARENT 18 31
REMARK Flexibility Score: inf
ROOT
ATOM      1  C   UNL     1      14.254 -11.720  24.853  1.00  0.00     0.012 C 
ATOM      2  C   UNL     1      13.725 -10.283  24.728  1.00  0.00     0.012 C 
ENDROOT
BRANCH   1   3
ATOM      3  C   UNL     1      13.451 -12.435  25.925  1.00  0.00    -0.028 C 
ATOM      4  C   UNL     1      12.978 -13.677  25.733  1.00  0.00    -0.027 C 
BRANCH   4   5
ATOM      5  C   UNL     1      12.190 -14.405  26.803  1.00  0.00     0.014 C 
BRANCH   5   6
ATOM      6  C   UNL     1      12.037 -13.463  28.026  1.00  0.00     0.004 C 
ATOM      7  C   UNL     1      11.708 -14.182  29.332  1.00  0.00     0.004 C 
ENDBRANCH   5   6
BRANCH   5   8
ATOM      8  C   UNL     1      12.849 -15.797  27.084  1.00  0.00    -0.011 C 
ATOM      9  C   UNL     1      14.203 -15.688  27.805  1.00  0.00     0.008 C 
ATOM     10  C   UNL     1      12.964 -16.697  25.842  1.00  0.00     0.008 C 
ENDBRANCH   5   8
ENDBRANCH   4   5
ENDBRANCH   1   3
BRANCH   1  11
ATOM     11  C   UNL     1      15.783 -11.774  25.195  1.00  0.00     0.002 C 
ATOM     12  C   UNL     1      16.008 -12.054  26.684  1.00  0.00     0.005 C 
ATOM     13  C   UNL     1      16.716 -12.793  24.454  1.00  0.00    -0.023 C 
ATOM     14  C   UNL     1      17.454 -12.502  26.824  1.00  0.00     0.009 C 
ATOM     15  C   UNL     1      17.945 -12.882  25.421  1.00  0.00     0.021 C 
ATOM     16  C   UNL     1      16.052 -14.196  24.180  1.00  0.00     0.008 C 
ATOM     17  C   UNL     1      17.208 -12.210  23.102  1.00  0.00     0.012 C 
ATOM     18  C   UNL     1      18.665 -14.224  25.417  1.00  0.00    -0.067 C 
ATOM     19  C   UNL     1      16.394 -15.270  25.216  1.00  0.00     0.009 C 
ATOM     20  C   UNL     1      17.914 -15.528  25.228  1.00  0.00     0.021 C 
ATOM     21  C   UNL     1      20.000 -14.274  25.552  1.00  0.00    -0.027 C 
ATOM     22  C   UNL     1      18.402 -16.669  26.223  1.00  0.00    -0.023 C 
ATOM     23  C   UNL     1      20.693 -15.602  25.535  1.00  0.00     0.031 C 
ATOM     24  C   UNL     1      19.974 -16.589  26.481  1.00  0.00     0.002 C 
ATOM     25  C   UNL     1      17.618 -16.594  27.575  1.00  0.00     0.010 C 
ATOM     26  C   UNL     1      18.092 -18.036  25.559  1.00  0.00     0.012 C 
ATOM     27  C   UNL     1      20.331 -16.258  27.948  1.00  0.00     0.036 C 
ATOM     28  C   UNL     1      18.202 -17.490  28.679  1.00  0.00     0.032 C 
ATOM     29  C   UNL     1      19.715 -17.280  28.918  1.00  0.00     0.114 C 
BRANCH  29  30
ATOM     30  O   UNL     1      20.380 -18.513  28.790  1.00  0.00    -0.393 OA
ATOM     31  H   UNL     1      21.352 -18.314  28.728  1.00  0.00     0.210 HD
ENDBRANCH  29  30
ENDBRANCH   1  11
TORSDOF 6
ENDMDL
MODEL 7
REMARK VINA RESULT:    -6.363      3.825      7.632
REMARK INTER + INTRA:          -9.111
REMARK INTER:                  -7.660
REMARK INTRA:                  -1.452
REMARK UNBOUND:                -0.703
REMARK SMILES CC[C@@H](C=C[C@@H](C)[C@H]1CC[C@H]2C3=CC[C@H]4C[C@H](O)CC[C@@]4(C)[C@H]3CC[C@@]12C)C(C)C
REMARK SMILES IDX 6 1 7 2 5 3 4 4 3 5 2 6 1 7 28 8 29 9 30 10 8 11 9 12 26 13
REMARK SMILES IDX 10 14 11 15 25 16 27 17 12 18 24 19 23 20 13 21 21 22 14 23
REMARK SMILES IDX 15 24 20 25 22 26 16 27 19 28 17 29 18 30
REMARK H PARENT 18 31
REMARK Flexibility Score: inf
ROOT
ATOM      1  C   UNL     1      19.317 -18.049  25.125  1.00  0.00     0.012 C 
ATOM      2  C   UNL     1      20.802 -18.249  24.785  1.00  0.00     0.012 C 
ENDROOT
BRANCH   1   3
ATOM      3  C   UNL     1      18.486 -18.838  24.128  1.00  0.00    -0.028 C 
ATOM      4  C   UNL     1      17.720 -19.870  24.518  1.00  0.00    -0.027 C 
BRANCH   4   5
ATOM      5  C   UNL     1      16.875 -20.652  23.533  1.00  0.00     0.014 C 
BRANCH   5   6
ATOM      6  C   UNL     1      17.303 -20.254  22.096  1.00  0.00     0.004 C 
ATOM      7  C   UNL     1      17.984 -21.375  21.313  1.00  0.00     0.004 C 
ENDBRANCH   5   6
BRANCH   5   8
ATOM      8  C   UNL     1      15.359 -20.463  23.878  1.00  0.00    -0.011 C 
ATOM      9  C   UNL     1      15.114 -19.375  24.936  1.00  0.00     0.008 C 
ATOM     10  C   UNL     1      14.638 -21.767  24.259  1.00  0.00     0.008 C 
ENDBRANCH   5   8
ENDBRANCH   4   5
ENDBRANCH   1   3
BRANCH   1  11
ATOM     11  C   UNL     1      18.891 -16.541  25.113  1.00  0.00     0.002 C 
ATOM     12  C   UNL     1      17.618 -16.331  24.288  1.00  0.00     0.005 C 
ATOM     13  C   UNL     1      18.617 -15.792  26.462  1.00  0.00    -0.023 C 
ATOM     14  C   UNL     1      17.068 -14.970  24.682  1.00  0.00     0.009 C 
ATOM     15  C   UNL     1      17.751 -14.573  25.996  1.00  0.00     0.021 C 
ATOM     16  C   UNL     1      17.895 -16.671  27.553  1.00  0.00     0.008 C 
ATOM     17  C   UNL     1      19.936 -15.243  27.068  1.00  0.00     0.012 C 
ATOM     18  C   UNL     1      16.749 -14.070  27.027  1.00  0.00    -0.067 C 
ATOM     19  C   UNL     1      16.377 -16.480  27.617  1.00  0.00     0.009 C 
ATOM     20  C   UNL     1      16.044 -15.018  27.978  1.00  0.00     0.021 C 
ATOM     21  C   UNL     1      16.491 -12.757  27.133  1.00  0.00    -0.027 C 
ATOM     22  C   UNL     1      14.495 -14.694  28.135  1.00  0.00    -0.023 C 
ATOM     23  C   UNL     1      15.509 -12.279  28.159  1.00  0.00     0.031 C 
ATOM     24  C   UNL     1      14.218 -13.123  28.094  1.00  0.00     0.002 C 
ATOM     25  C   UNL     1      13.663 -15.429  27.033  1.00  0.00     0.010 C 
ATOM     26  C   UNL     1      14.041 -15.226  29.520  1.00  0.00     0.012 C 
ATOM     27  C   UNL     1      13.374 -12.690  26.874  1.00  0.00     0.036 C 
ATOM     28  C   UNL     1      12.198 -14.970  26.955  1.00  0.00     0.032 C 
ATOM     29  C   UNL     1      12.030 -13.438  26.828  1.00  0.00     0.114 C 
BRANCH  29  30
ATOM     30  O   UNL     1      11.197 -12.975  27.863  1.00  0.00    -0.393 OA
ATOM     31  H   UNL     1      10.267 -12.985  27.513  1.00  0.00     0.210 HD
ENDBRANCH  29  30
ENDBRANCH   1  11
TORSDOF 6
ENDMDL
MODEL 8
REMARK VINA RESULT:    -6.337      3.835      6.303
REMARK INTER + INTRA:          -9.078
REMARK INTER:                  -7.853
REMARK INTRA:                  -1.225
REMARK UNBOUND:                -0.703
REMARK SMILES CC[C@@H](C=C[C@@H](C)[C@H]1CC[C@H]2C3=CC[C@H]4C[C@H](O)CC[C@@]4(C)[C@H]3CC[C@@]12C)C(C)C
REMARK SMILES IDX 6 1 7 2 5 3 4 4 3 5 2 6 1 7 28 8 29 9 30 10 8 11 9 12 26 13
REMARK SMILES IDX 10 14 11 15 25 16 27 17 12 18 24 19 23 20 13 21 21 22 14 23
REMARK SMILES IDX 15 24 20 25 22 26 16 27 19 28 17 29 18 30
REMARK H PARENT 18 31
REMARK Flexibility Score: inf
ROOT
ATOM      1  C   UNL     1      16.365 -13.543  27.064  1.00  0.00     0.012 C 
ATOM      2  C   UNL     1      16.727 -12.227  27.771  1.00  0.00     0.012 C 
ENDROOT
BRANCH   1   3
ATOM      3  C   UNL     1      14.936 -13.905  27.428  1.00  0.00    -0.028 C 
ATOM      4  C   UNL     1      13.986 -12.963  27.553  1.00  0.00    -0.027 C 
BRANCH   4   5
ATOM      5  C   UNL     1      12.554 -13.316  27.898  1.00  0.00     0.014 C 
BRANCH   5   6
ATOM      6  C   UNL     1      12.544 -14.707  28.585  1.00  0.00     0.004 C 
ATOM      7  C   UNL     1      11.618 -14.801  29.796  1.00  0.00     0.004 C 
ENDBRANCH   5   6
BRANCH   5   8
ATOM      8  C   UNL     1      11.657 -13.170  26.623  1.00  0.00    -0.011 C 
ATOM      9  C   UNL     1      11.351 -14.516  25.945  1.00  0.00     0.008 C 
ATOM     10  C   UNL     1      12.184 -12.151  25.601  1.00  0.00     0.008 C 
ENDBRANCH   5   8
ENDBRANCH   4   5
ENDBRANCH   1   3
BRANCH   1  11
ATOM     11  C   UNL     1      17.334 -14.716  27.439  1.00  0.00     0.002 C 
ATOM     12  C   UNL     1      16.568 -16.031  27.619  1.00  0.00     0.005 C 
ATOM     13  C   UNL     1      18.529 -15.080  26.492  1.00  0.00    -0.023 C 
ATOM     14  C   UNL     1      17.601 -17.144  27.552  1.00  0.00     0.009 C 
ATOM     15  C   UNL     1      18.870 -16.543  26.933  1.00  0.00     0.021 C 
ATOM     16  C   UNL     1      18.193 -14.968  24.957  1.00  0.00     0.008 C 
ATOM     17  C   UNL     1      19.763 -14.186  26.792  1.00  0.00     0.012 C 
ATOM     18  C   UNL     1      19.436 -17.428  25.830  1.00  0.00    -0.067 C 
ATOM     19  C   UNL     1      17.807 -16.294  24.296  1.00  0.00     0.009 C 
ATOM     20  C   UNL     1      18.978 -17.292  24.390  1.00  0.00     0.021 C 
ATOM     21  C   UNL     1      20.384 -18.335  26.111  1.00  0.00    -0.027 C 
ATOM     22  C   UNL     1      18.731 -18.697  23.688  1.00  0.00    -0.023 C 
ATOM     23  C   UNL     1      20.937 -19.189  25.012  1.00  0.00     0.031 C 
ATOM     24  C   UNL     1      19.786 -19.790  24.176  1.00  0.00     0.002 C 
ATOM     25  C   UNL     1      17.269 -19.192  23.943  1.00  0.00     0.010 C 
ATOM     26  C   UNL     1      18.916 -18.499  22.161  1.00  0.00     0.012 C 
ATOM     27  C   UNL     1      19.133 -20.957  24.952  1.00  0.00     0.036 C 
ATOM     28  C   UNL     1      17.026 -20.649  23.520  1.00  0.00     0.032 C 
ATOM     29  C   UNL     1      18.046 -21.649  24.112  1.00  0.00     0.114 C 
BRANCH  29  30
ATOM     30  O   UNL     1      18.647 -22.373  23.066  1.00  0.00    -0.393 OA
ATOM     31  H   UNL     1      18.550 -23.338  23.287  1.00  0.00     0.210 HD
ENDBRANCH  29  30
ENDBRANCH   1  11
TORSDOF 6
ENDMDL
MODEL 9
REMARK VINA RESULT:    -6.304      2.821      7.424
REMARK INTER + INTRA:          -9.033
REMARK INTER:                  -7.068
REMARK INTRA:                  -1.965
REMARK UNBOUND:                -0.703
REMARK SMILES CC[C@@H](C=C[C@@H](C)[C@H]1CC[C@H]2C3=CC[C@H]4C[C@H](O)CC[C@@]4(C)[C@H]3CC[C@@]12C)C(C)C
REMARK SMILES IDX 6 1 7 2 5 3 4 4 3 5 2 6 1 7 28 8 29 9 30 10 8 11 9 12 26 13
REMARK SMILES IDX 10 14 11 15 25 16 27 17 12 18 24 19 23 20 13 21 21 22 14 23
REMARK SMILES IDX 15 24 20 25 22 26 16 27 19 28 17 29 18 30
REMARK H PARENT 18 31
REMARK Flexibility Score: inf
ROOT
ATOM      1  C   UNL     1      19.574 -11.869  24.665  1.00  0.00     0.012 C 
ATOM      2  C   UNL     1      21.054 -12.056  24.297  1.00  0.00     0.012 C 
ENDROOT
BRANCH   1   3
ATOM      3  C   UNL     1      19.491 -10.939  25.862  1.00  0.00    -0.028 C 
ATOM      4  C   UNL     1      18.564  -9.970  25.932  1.00  0.00    -0.027 C 
BRANCH   4   5
ATOM      5  C   UNL     1      18.464  -9.047  27.130  1.00  0.00     0.014 C 
BRANCH   5   6
ATOM      6  C   UNL     1      19.731  -9.238  28.004  1.00  0.00     0.004 C 
ATOM      7  C   UNL     1      19.538  -8.875  29.475  1.00  0.00     0.004 C 
ENDBRANCH   5   6
BRANCH   5   8
ATOM      8  C   UNL     1      17.090  -9.270  27.849  1.00  0.00    -0.011 C 
ATOM      9  C   UNL     1      16.931 -10.691  28.415  1.00  0.00     0.008 C 
ATOM     10  C   UNL     1      15.869  -8.881  26.999  1.00  0.00     0.008 C 
ENDBRANCH   5   8
ENDBRANCH   4   5
ENDBRANCH   1   3
BRANCH   1  11
ATOM     11  C   UNL     1      18.853 -13.225  24.982  1.00  0.00     0.002 C 
ATOM     12  C   UNL     1      18.603 -13.382  26.484  1.00  0.00     0.005 C 
ATOM     13  C   UNL     1      17.474 -13.554  24.314  1.00  0.00    -0.023 C 
ATOM     14  C   UNL     1      17.557 -14.474  26.636  1.00  0.00     0.009 C 
ATOM     15  C   UNL     1      16.901 -14.661  25.262  1.00  0.00     0.021 C 
ATOM     16  C   UNL     1      16.512 -12.314  24.173  1.00  0.00     0.008 C 
ATOM     17  C   UNL     1      17.676 -14.181  22.908  1.00  0.00     0.012 C 
ATOM     18  C   UNL     1      15.382 -14.696  25.359  1.00  0.00    -0.067 C 
ATOM     19  C   UNL     1      15.473 -12.190  25.291  1.00  0.00     0.009 C 
ATOM     20  C   UNL     1      14.553 -13.427  25.296  1.00  0.00     0.021 C 
ATOM     21  C   UNL     1      14.739 -15.869  25.473  1.00  0.00    -0.027 C 
ATOM     22  C   UNL     1      13.385 -13.401  26.376  1.00  0.00    -0.023 C 
ATOM     23  C   UNL     1      13.243 -15.885  25.557  1.00  0.00     0.031 C 
ATOM     24  C   UNL     1      12.758 -14.851  26.596  1.00  0.00     0.002 C 
ATOM     25  C   UNL     1      13.900 -12.812  27.730  1.00  0.00     0.010 C 
ATOM     26  C   UNL     1      12.267 -12.470  25.837  1.00  0.00     0.012 C 
ATOM     27  C   UNL     1      12.988 -15.400  28.023  1.00  0.00     0.036 C 
ATOM     28  C   UNL     1      12.914 -12.988  28.896  1.00  0.00     0.032 C 
ATOM     29  C   UNL     1      12.427 -14.443  29.088  1.00  0.00     0.114 C 
BRANCH  29  30
ATOM     30  O   UNL     1      11.021 -14.471  29.054  1.00  0.00    -0.393 OA
ATOM     31  H   UNL     1      10.703 -14.185  29.951  1.00  0.00     0.210 HD
ENDBRANCH  29  30
ENDBRANCH   1  11
TORSDOF 6
ENDMDL
