MODEL 1
REMARK VINA RESULT:    -4.192      0.000      0.000
REMARK INTER + INTRA:          -5.057
REMARK INTER:                  -4.928
REMARK INTRA:                  -0.130
REMARK UNBOUND:                -0.130
REMARK SMILES O=C([O-])C=Cc1ccc(O)c(O)c1
REMARK SMILES IDX 6 1 13 2 7 3 11 4 8 5 9 6 5 7 4 8 2 9 1 10 3 11 12 12 10 14
REMARK H PARENT 12 13 10 15
REMARK Flexibility Score: inf
ROOT
ATOM      1  C   UNL     1      -3.608  -2.321  -8.899  1.00  0.00    -0.022 A 
ATOM      2  C   UNL     1      -4.138  -1.109  -8.412  1.00  0.00     0.058 A 
ATOM      3  C   UNL     1      -2.507  -2.278  -9.770  1.00  0.00     0.012 A 
ATOM      4  C   UNL     1      -3.559   0.117  -8.770  1.00  0.00     0.157 A 
ATOM      5  C   UNL     1      -1.928  -1.058 -10.125  1.00  0.00     0.051 A 
ATOM      6  C   UNL     1      -2.446   0.142  -9.628  1.00  0.00     0.157 A 
ENDROOT
BRANCH   1   7
ATOM      7  C   UNL     1      -4.192  -3.643  -8.558  1.00  0.00     0.010 C 
ATOM      8  C   UNL     1      -5.027  -4.317  -9.361  1.00  0.00     0.025 C 
BRANCH   8   9
ATOM      9  C   UNL     1      -5.598  -5.621  -8.984  1.00  0.00     0.064 C 
ATOM     10  O   UNL     1      -6.031  -6.420  -9.856  1.00  0.00    -0.545 OA
ATOM     11  O   UNL     1      -5.661  -5.975  -7.642  1.00  0.00    -0.545 OA
ENDBRANCH   8   9
ENDBRANCH   1   7
BRANCH   4  12
ATOM     12  O   UNL     1      -4.087   1.311  -8.281  1.00  0.00    -0.504 OA
ATOM     13  H   UNL     1      -3.525   2.150  -8.207  1.00  0.00     0.293 HD
ENDBRANCH   4  12
BRANCH   6  14
ATOM     14  O   UNL     1      -1.847   1.345  -9.999  1.00  0.00    -0.504 OA
ATOM     15  H   UNL     1      -2.325   2.031 -10.572  1.00  0.00     0.293 HD
ENDBRANCH   6  14
TORSDOF 4
ENDMDL
MODEL 2
REMARK VINA RESULT:    -3.803      3.772      4.893
REMARK INTER + INTRA:          -4.599
REMARK INTER:                  -4.477
REMARK INTRA:                  -0.122
REMARK UNBOUND:                -0.130
REMARK SMILES O=C([O-])C=Cc1ccc(O)c(O)c1
REMARK SMILES IDX 6 1 13 2 7 3 11 4 8 5 9 6 5 7 4 8 2 9 1 10 3 11 12 12 10 14
REMARK H PARENT 12 13 10 15
REMARK Flexibility Score: inf
ROOT
ATOM      1  C   UNL     1      -6.797  -0.760  -9.725  1.00  0.00    -0.022 A 
ATOM      2  C   UNL     1      -6.461   0.489  -9.163  1.00  0.00     0.058 A 
ATOM      3  C   UNL     1      -8.152  -1.086  -9.889  1.00  0.00     0.012 A 
ATOM      4  C   UNL     1      -7.463   1.400  -8.799  1.00  0.00     0.157 A 
ATOM      5  C   UNL     1      -9.151  -0.178  -9.529  1.00  0.00     0.051 A 
ATOM      6  C   UNL     1      -8.815   1.065  -8.987  1.00  0.00     0.157 A 
ENDROOT
BRANCH   1   7
ATOM      7  C   UNL     1      -5.773  -1.761 -10.114  1.00  0.00     0.010 C 
ATOM      8  C   UNL     1      -4.589  -1.893  -9.501  1.00  0.00     0.025 C 
BRANCH   8   9
ATOM      9  C   UNL     1      -3.592  -2.892  -9.924  1.00  0.00     0.064 C 
ATOM     10  O   UNL     1      -2.388  -2.573 -10.108  1.00  0.00    -0.545 OA
ATOM     11  O   UNL     1      -3.988  -4.208 -10.124  1.00  0.00    -0.545 OA
ENDBRANCH   8   9
ENDBRANCH   1   7
BRANCH   4  12
ATOM     12  O   UNL     1      -7.122   2.634  -8.247  1.00  0.00    -0.504 OA
ATOM     13  H   UNL     1      -7.761   3.144  -7.650  1.00  0.00     0.293 HD
ENDBRANCH   4  12
BRANCH   6  14
ATOM     14  O   UNL     1      -9.833   1.951  -8.638  1.00  0.00    -0.504 OA
ATOM     15  H   UNL     1     -10.767   1.877  -9.023  1.00  0.00     0.293 HD
ENDBRANCH   6  14
TORSDOF 4
ENDMDL
MODEL 3
REMARK VINA RESULT:    -3.703      3.556      5.303
REMARK INTER + INTRA:          -4.482
REMARK INTER:                  -4.342
REMARK INTRA:                  -0.140
REMARK UNBOUND:                -0.130
REMARK SMILES O=C([O-])C=Cc1ccc(O)c(O)c1
REMARK SMILES IDX 6 1 13 2 7 3 11 4 8 5 9 6 5 7 4 8 2 9 1 10 3 11 12 12 10 14
REMARK H PARENT 12 13 10 15
REMARK Flexibility Score: inf
ROOT
ATOM      1  C   UNL     1      -5.897  -0.823  -9.500  1.00  0.00    -0.022 A 
ATOM      2  C   UNL     1      -5.671  -2.156  -9.899  1.00  0.00     0.058 A 
ATOM      3  C   UNL     1      -4.853  -0.114  -8.885  1.00  0.00     0.012 A 
ATOM      4  C   UNL     1      -4.417  -2.755  -9.708  1.00  0.00     0.157 A 
ATOM      5  C   UNL     1      -3.603  -0.709  -8.696  1.00  0.00     0.051 A 
ATOM      6  C   UNL     1      -3.377  -2.026  -9.107  1.00  0.00     0.157 A 
ENDROOT
BRANCH   1   7
ATOM      7  C   UNL     1      -7.208  -0.150  -9.671  1.00  0.00     0.010 C 
ATOM      8  C   UNL     1      -7.801   0.578  -8.714  1.00  0.00     0.025 C 
BRANCH   8   9
ATOM      9  C   UNL     1      -9.110   1.223  -8.916  1.00  0.00     0.064 C 
ATOM     10  O   UNL     1     -10.122   0.864  -8.257  1.00  0.00    -0.545 OA
ATOM     11  O   UNL     1      -9.231   2.242  -9.851  1.00  0.00    -0.545 OA
ENDBRANCH   8   9
ENDBRANCH   1   7
BRANCH   4  12
ATOM     12  O   UNL     1      -4.202  -4.073 -10.109  1.00  0.00    -0.504 OA
ATOM     13  H   UNL     1      -4.889  -4.582 -10.652  1.00  0.00     0.293 HD
ENDBRANCH   4  12
BRANCH   6  14
ATOM     14  O   UNL     1      -2.120  -2.593  -8.906  1.00  0.00    -0.504 OA
ATOM     15  H   UNL     1      -1.568  -2.402  -8.078  1.00  0.00     0.293 HD
ENDBRANCH   6  14
TORSDOF 4
ENDMDL
MODEL 4
REMARK VINA RESULT:    -3.691      3.995      5.523
REMARK INTER + INTRA:          -4.468
REMARK INTER:                  -4.330
REMARK INTRA:                  -0.138
REMARK UNBOUND:                -0.130
REMARK SMILES O=C([O-])C=Cc1ccc(O)c(O)c1
REMARK SMILES IDX 6 1 13 2 7 3 11 4 8 5 9 6 5 7 4 8 2 9 1 10 3 11 12 12 10 14
REMARK H PARENT 12 13 10 15
REMARK Flexibility Score: inf
ROOT
ATOM      1  C   UNL     1      -6.447  -0.179  -9.494  1.00  0.00    -0.022 A 
ATOM      2  C   UNL     1      -7.704  -0.776  -9.720  1.00  0.00     0.058 A 
ATOM      3  C   UNL     1      -6.400   1.120  -8.963  1.00  0.00     0.012 A 
ATOM      4  C   UNL     1      -8.886  -0.094  -9.395  1.00  0.00     0.157 A 
ATOM      5  C   UNL     1      -7.577   1.799  -8.637  1.00  0.00     0.051 A 
ATOM      6  C   UNL     1      -8.821   1.198  -8.848  1.00  0.00     0.157 A 
ENDROOT
BRANCH   1   7
ATOM      7  C   UNL     1      -5.170  -0.855  -9.831  1.00  0.00     0.010 C 
ATOM      8  C   UNL     1      -4.130  -0.944  -8.991  1.00  0.00     0.025 C 
BRANCH   8   9
ATOM      9  C   UNL     1      -2.872  -1.613  -9.365  1.00  0.00     0.064 C 
ATOM     10  O   UNL     1      -2.631  -2.796  -9.007  1.00  0.00    -0.545 OA
ATOM     11  O   UNL     1      -1.935  -0.925 -10.125  1.00  0.00    -0.545 OA
ENDBRANCH   8   9
ENDBRANCH   1   7
BRANCH   4  12
ATOM     12  O   UNL     1     -10.125  -0.694  -9.619  1.00  0.00    -0.504 OA
ATOM     13  H   UNL     1     -10.203  -1.671  -9.876  1.00  0.00     0.293 HD
ENDBRANCH   4  12
BRANCH   6  14
ATOM     14  O   UNL     1      -9.978   1.899  -8.512  1.00  0.00    -0.504 OA
ATOM     15  H   UNL     1     -10.721   1.482  -7.964  1.00  0.00     0.293 HD
ENDBRANCH   6  14
TORSDOF 4
ENDMDL
MODEL 5
REMARK VINA RESULT:    -3.545     15.836     17.326
REMARK INTER + INTRA:          -4.296
REMARK INTER:                  -4.159
REMARK INTRA:                  -0.137
REMARK UNBOUND:                -0.130
REMARK SMILES O=C([O-])C=Cc1ccc(O)c(O)c1
REMARK SMILES IDX 6 1 13 2 7 3 11 4 8 5 9 6 5 7 4 8 2 9 1 10 3 11 12 12 10 14
REMARK H PARENT 12 13 10 15
REMARK Flexibility Score: inf
ROOT
ATOM      1  C   UNL     1      -0.349  -9.024   6.006  1.00  0.00    -0.022 A 
ATOM      2  C   UNL     1       0.254  -8.136   6.920  1.00  0.00     0.058 A 
ATOM      3  C   UNL     1      -1.201 -10.026   6.497  1.00  0.00     0.012 A 
ATOM      4  C   UNL     1      -0.014  -8.236   8.293  1.00  0.00     0.157 A 
ATOM      5  C   UNL     1      -1.470 -10.125   7.864  1.00  0.00     0.051 A 
ATOM      6  C   UNL     1      -0.883  -9.234   8.766  1.00  0.00     0.157 A 
ENDROOT
BRANCH   1   7
ATOM      7  C   UNL     1      -0.089  -8.966   4.546  1.00  0.00     0.010 C 
ATOM      8  C   UNL     1      -1.042  -8.759   3.627  1.00  0.00     0.025 C 
BRANCH   8   9
ATOM      9  C   UNL     1      -0.748  -8.719   2.184  1.00  0.00     0.064 C 
ATOM     10  O   UNL     1      -1.278  -7.858   1.434  1.00  0.00    -0.545 OA
ATOM     11  O   UNL     1       0.129  -9.651   1.642  1.00  0.00    -0.545 OA
ENDBRANCH   8   9
ENDBRANCH   1   7
BRANCH   4  12
ATOM     12  O   UNL     1       0.585  -7.352   9.189  1.00  0.00    -0.504 OA
ATOM     13  H   UNL     1       0.880  -7.649  10.111  1.00  0.00     0.293 HD
ENDBRANCH   4  12
BRANCH   6  14
ATOM     14  O   UNL     1      -1.170  -9.355  10.125  1.00  0.00    -0.504 OA
ATOM     15  H   UNL     1      -0.520  -9.776  10.778  1.00  0.00     0.293 HD
ENDBRANCH   6  14
TORSDOF 4
ENDMDL
MODEL 6
REMARK VINA RESULT:    -3.396      2.998      7.369
REMARK INTER + INTRA:          -4.121
REMARK INTER:                  -3.998
REMARK INTRA:                  -0.123
REMARK UNBOUND:                -0.130
REMARK SMILES O=C([O-])C=Cc1ccc(O)c(O)c1
REMARK SMILES IDX 6 1 13 2 7 3 11 4 8 5 9 6 5 7 4 8 2 9 1 10 3 11 12 12 10 14
REMARK H PARENT 12 13 10 15
REMARK Flexibility Score: inf
ROOT
ATOM      1  C   UNL     1      -6.336  -6.448  -8.735  1.00  0.00    -0.022 A 
ATOM      2  C   UNL     1      -7.098  -6.399  -7.550  1.00  0.00     0.058 A 
ATOM      3  C   UNL     1      -6.309  -7.643  -9.473  1.00  0.00     0.012 A 
ATOM      4  C   UNL     1      -7.837  -7.515  -7.130  1.00  0.00     0.157 A 
ATOM      5  C   UNL     1      -7.046  -8.754  -9.056  1.00  0.00     0.051 A 
ATOM      6  C   UNL     1      -7.812  -8.697  -7.889  1.00  0.00     0.157 A 
ENDROOT
BRANCH   1   7
ATOM      7  C   UNL     1      -5.530  -5.299  -9.215  1.00  0.00     0.010 C 
ATOM      8  C   UNL     1      -4.796  -4.517  -8.410  1.00  0.00     0.025 C 
BRANCH   8   9
ATOM      9  C   UNL     1      -4.017  -3.376  -8.921  1.00  0.00     0.064 C 
ATOM     10  O   UNL     1      -3.402  -3.445 -10.018  1.00  0.00    -0.545 OA
ATOM     11  O   UNL     1      -3.959  -2.203  -8.179  1.00  0.00    -0.545 OA
ENDBRANCH   8   9
ENDBRANCH   1   7
BRANCH   4  12
ATOM     12  O   UNL     1      -8.590  -7.455  -5.958  1.00  0.00    -0.504 OA
ATOM     13  H   UNL     1      -9.592  -7.603  -5.963  1.00  0.00     0.293 HD
ENDBRANCH   4  12
BRANCH   6  14
ATOM     14  O   UNL     1      -8.539  -9.821  -7.498  1.00  0.00    -0.504 OA
ATOM     15  H   UNL     1      -9.521  -9.932  -7.721  1.00  0.00     0.293 HD
ENDBRANCH   6  14
TORSDOF 4
ENDMDL
MODEL 7
REMARK VINA RESULT:    -1.828      2.001      6.481
REMARK INTER + INTRA:          -2.279
REMARK INTER:                  -2.143
REMARK INTRA:                  -0.136
REMARK UNBOUND:                -0.130
REMARK SMILES O=C([O-])C=Cc1ccc(O)c(O)c1
REMARK SMILES IDX 6 1 13 2 7 3 11 4 8 5 9 6 5 7 4 8 2 9 1 10 3 11 12 12 10 14
REMARK H PARENT 12 13 10 15
REMARK Flexibility Score: inf
ROOT
ATOM      1  C   UNL     1      -5.363  -4.852  -9.050  1.00  0.00    -0.022 A 
ATOM      2  C   UNL     1      -6.553  -5.028  -9.785  1.00  0.00     0.058 A 
ATOM      3  C   UNL     1      -5.155  -5.630  -7.901  1.00  0.00     0.012 A 
ATOM      4  C   UNL     1      -7.501  -5.983  -9.390  1.00  0.00     0.157 A 
ATOM      5  C   UNL     1      -6.098  -6.584  -7.507  1.00  0.00     0.051 A 
ATOM      6  C   UNL     1      -7.269  -6.767  -8.247  1.00  0.00     0.157 A 
ENDROOT
BRANCH   1   7
ATOM      7  C   UNL     1      -4.336  -3.846  -9.422  1.00  0.00     0.010 C 
ATOM      8  C   UNL     1      -3.975  -2.825  -8.633  1.00  0.00     0.025 C 
BRANCH   8   9
ATOM      9  C   UNL     1      -2.959  -1.839  -9.041  1.00  0.00     0.064 C 
ATOM     10  O   UNL     1      -2.889  -0.709  -8.489  1.00  0.00    -0.545 OA
ATOM     11  O   UNL     1      -2.065  -2.160 -10.054  1.00  0.00    -0.545 OA
ENDBRANCH   8   9
ENDBRANCH   1   7
BRANCH   4  12
ATOM     12  O   UNL     1      -8.673  -6.153 -10.125  1.00  0.00    -0.504 OA
ATOM     13  H   UNL     1      -9.235  -6.992 -10.043  1.00  0.00     0.293 HD
ENDBRANCH   4  12
BRANCH   6  14
ATOM     14  O   UNL     1      -8.191  -7.727  -7.831  1.00  0.00    -0.504 OA
ATOM     15  H   UNL     1      -8.961  -8.024  -8.419  1.00  0.00     0.293 HD
ENDBRANCH   6  14
TORSDOF 4
ENDMDL
