MODEL 1
REMARK VINA RESULT:    -4.651      0.000      0.000
REMARK INTER + INTRA:         -12.074
REMARK INTER:                 -10.089
REMARK INTRA:                  -1.985
REMARK UNBOUND:                -1.985
REMARK SMILES CCCCCCCCCCCCCCCCCCCCCC(=O)[O-]
REMARK SMILES IDX 12 1 11 2 10 3 9 4 8 5 7 6 6 7 5 8 4 9 3 10 2 11 1 12 13 13
REMARK SMILES IDX 14 14 15 15 16 16 17 17 18 18 19 19 20 20 21 21 22 22 23 23
REMARK SMILES IDX 24 24
REMARK H PARENT
REMARK Flexibility Score: inf
ROOT
ATOM      1  C   UNL     1      33.594   6.638  45.229  1.00  0.00     0.000 C 
ENDROOT
BRANCH   1   2
ATOM      2  C   UNL     1      34.258   7.638  44.274  1.00  0.00     0.000 C 
BRANCH   2   3
ATOM      3  C   UNL     1      34.325   9.039  44.900  1.00  0.00     0.000 C 
BRANCH   3   4
ATOM      4  C   UNL     1      34.245  10.169  43.857  1.00  0.00    -0.000 C 
BRANCH   4   5
ATOM      5  C   UNL     1      34.663  11.562  44.366  1.00  0.00    -0.000 C 
BRANCH   5   6
ATOM      6  C   UNL     1      35.136  11.547  45.830  1.00  0.00    -0.000 C 
BRANCH   6   7
ATOM      7  C   UNL     1      36.310  12.508  46.090  1.00  0.00    -0.000 C 
BRANCH   7   8
ATOM      8  C   UNL     1      35.916  13.894  46.632  1.00  0.00    -0.000 C 
BRANCH   8   9
ATOM      9  C   UNL     1      35.947  14.990  45.556  1.00  0.00    -0.000 C 
BRANCH   9  10
ATOM     10  C   UNL     1      36.299  16.350  46.169  1.00  0.00    -0.000 C 
BRANCH  10  11
ATOM     11  C   UNL     1      37.196  17.163  45.227  1.00  0.00    -0.003 C 
ATOM     12  C   UNL     1      38.206  16.265  44.517  1.00  0.00     0.004 C 
ENDBRANCH  10  11
ENDBRANCH   9  10
ENDBRANCH   8   9
ENDBRANCH   7   8
ENDBRANCH   6   7
ENDBRANCH   5   6
ENDBRANCH   4   5
ENDBRANCH   3   4
ENDBRANCH   2   3
ENDBRANCH   1   2
BRANCH   1  13
ATOM     13  C   UNL     1      34.571   5.522  45.627  1.00  0.00     0.000 C 
BRANCH  13  14
ATOM     14  C   UNL     1      34.664   5.318  47.149  1.00  0.00     0.000 C 
BRANCH  14  15
ATOM     15  C   UNL     1      33.374   5.629  47.929  1.00  0.00     0.000 C 
BRANCH  15  16
ATOM     16  C   UNL     1      33.593   6.622  49.080  1.00  0.00     0.000 C 
BRANCH  16  17
ATOM     17  C   UNL     1      33.701   8.059  48.549  1.00  0.00     0.000 C 
BRANCH  17  18
ATOM     18  C   UNL     1      32.357   8.610  48.043  1.00  0.00     0.000 C 
BRANCH  18  19
ATOM     19  C   UNL     1      31.424   9.149  49.144  1.00  0.00     0.000 C 
BRANCH  19  20
ATOM     20  C   UNL     1      30.223   8.228  49.445  1.00  0.00     0.006 C 
BRANCH  20  21
ATOM     21  C   UNL     1      29.988   7.195  48.335  1.00  0.00     0.053 C 
BRANCH  21  22
ATOM     22  C   UNL     1      29.143   6.067  48.837  1.00  0.00     0.041 C 
ATOM     23  O   UNL     1      29.244   5.684  50.033  1.00  0.00    -0.550 OA
ATOM     24  O   UNL     1      28.274   5.410  47.975  1.00  0.00    -0.550 OA
ENDBRANCH  21  22
ENDBRANCH  20  21
ENDBRANCH  19  20
ENDBRANCH  18  19
ENDBRANCH  17  18
ENDBRANCH  16  17
ENDBRANCH  15  16
ENDBRANCH  14  15
ENDBRANCH  13  14
ENDBRANCH   1  13
TORSDOF 20
ENDMDL
MODEL 2
REMARK VINA RESULT:    -4.585      2.940      7.949
REMARK INTER + INTRA:         -11.930
REMARK INTER:                  -9.165
REMARK INTRA:                  -2.765
REMARK UNBOUND:                -1.985
REMARK SMILES CCCCCCCCCCCCCCCCCCCCCC(=O)[O-]
REMARK SMILES IDX 12 1 11 2 10 3 9 4 8 5 7 6 6 7 5 8 4 9 3 10 2 11 1 12 13 13
REMARK SMILES IDX 14 14 15 15 16 16 17 17 18 18 19 19 20 20 21 21 22 22 23 23
REMARK SMILES IDX 24 24
REMARK H PARENT
REMARK Flexibility Score: inf
ROOT
ATOM      1  C   UNL     1      33.251   9.730  48.002  1.00  0.00     0.000 C 
ENDROOT
BRANCH   1   2
ATOM      2  C   UNL     1      31.835   9.929  48.557  1.00  0.00     0.000 C 
BRANCH   2   3
ATOM      3  C   UNL     1      31.512   8.882  49.633  1.00  0.00     0.000 C 
BRANCH   3   4
ATOM      4  C   UNL     1      30.055   8.385  49.573  1.00  0.00    -0.000 C 
BRANCH   4   5
ATOM      5  C   UNL     1      29.874   6.864  49.725  1.00  0.00    -0.000 C 
BRANCH   5   6
ATOM      6  C   UNL     1      29.674   6.147  48.379  1.00  0.00    -0.000 C 
BRANCH   6   7
ATOM      7  C   UNL     1      30.912   6.228  47.466  1.00  0.00    -0.000 C 
BRANCH   7   8
ATOM      8  C   UNL     1      32.113   5.375  47.914  1.00  0.00    -0.000 C 
BRANCH   8   9
ATOM      9  C   UNL     1      33.466   6.005  47.549  1.00  0.00    -0.000 C 
BRANCH   9  10
ATOM     10  C   UNL     1      34.587   5.449  48.436  1.00  0.00    -0.000 C 
BRANCH  10  11
ATOM     11  C   UNL     1      35.745   4.912  47.587  1.00  0.00    -0.003 C 
ATOM     12  C   UNL     1      35.250   4.412  46.233  1.00  0.00     0.004 C 
ENDBRANCH  10  11
ENDBRANCH   9  10
ENDBRANCH   8   9
ENDBRANCH   7   8
ENDBRANCH   6   7
ENDBRANCH   5   6
ENDBRANCH   4   5
ENDBRANCH   3   4
ENDBRANCH   2   3
ENDBRANCH   1   2
BRANCH   1  13
ATOM     13  C   UNL     1      34.216   9.268  49.104  1.00  0.00     0.000 C 
BRANCH  13  14
ATOM     14  C   UNL     1      35.320  10.296  49.408  1.00  0.00     0.000 C 
BRANCH  14  15
ATOM     15  C   UNL     1      34.842  11.757  49.504  1.00  0.00     0.000 C 
BRANCH  15  16
ATOM     16  C   UNL     1      35.730  12.731  48.716  1.00  0.00     0.000 C 
BRANCH  16  17
ATOM     17  C   UNL     1      36.969  12.014  48.160  1.00  0.00     0.000 C 
BRANCH  17  18
ATOM     18  C   UNL     1      37.077  12.113  46.629  1.00  0.00     0.000 C 
BRANCH  18  19
ATOM     19  C   UNL     1      35.932  12.888  45.949  1.00  0.00     0.000 C 
BRANCH  19  20
ATOM     20  C   UNL     1      34.983  11.994  45.122  1.00  0.00     0.006 C 
BRANCH  20  21
ATOM     21  C   UNL     1      35.250  10.499  45.344  1.00  0.00     0.053 C 
BRANCH  21  22
ATOM     22  C   UNL     1      34.522   9.679  44.326  1.00  0.00     0.041 C 
ATOM     23  O   UNL     1      33.927  10.241  43.368  1.00  0.00    -0.550 OA
ATOM     24  O   UNL     1      34.463   8.297  44.458  1.00  0.00    -0.550 OA
ENDBRANCH  21  22
ENDBRANCH  20  21
ENDBRANCH  19  20
ENDBRANCH  18  19
ENDBRANCH  17  18
ENDBRANCH  16  17
ENDBRANCH  15  16
ENDBRANCH  14  15
ENDBRANCH  13  14
ENDBRANCH   1  13
TORSDOF 20
ENDMDL
MODEL 3
REMARK VINA RESULT:    -4.580      4.200      7.923
REMARK INTER + INTRA:         -11.918
REMARK INTER:                  -9.275
REMARK INTRA:                  -2.644
REMARK UNBOUND:                -1.985
REMARK SMILES CCCCCCCCCCCCCCCCCCCCCC(=O)[O-]
REMARK SMILES IDX 12 1 11 2 10 3 9 4 8 5 7 6 6 7 5 8 4 9 3 10 2 11 1 12 13 13
REMARK SMILES IDX 14 14 15 15 16 16 17 17 18 18 19 19 20 20 21 21 22 22 23 23
REMARK SMILES IDX 24 24
REMARK H PARENT
REMARK Flexibility Score: inf
ROOT
ATOM      1  C   UNL     1      31.071   8.779  48.679  1.00  0.00     0.000 C 
ENDROOT
BRANCH   1   2
ATOM      2  C   UNL     1      29.910   7.875  49.112  1.00  0.00     0.000 C 
BRANCH   2   3
ATOM      3  C   UNL     1      29.942   6.536  48.358  1.00  0.00     0.000 C 
BRANCH   3   4
ATOM      4  C   UNL     1      31.186   6.378  47.464  1.00  0.00    -0.000 C 
BRANCH   4   5
ATOM      5  C   UNL     1      32.278   5.444  48.019  1.00  0.00    -0.000 C 
BRANCH   5   6
ATOM      6  C   UNL     1      33.701   5.918  47.678  1.00  0.00    -0.000 C 
BRANCH   6   7
ATOM      7  C   UNL     1      33.720   7.080  46.668  1.00  0.00    -0.000 C 
BRANCH   7   8
ATOM      8  C   UNL     1      33.859   6.664  45.192  1.00  0.00    -0.000 C 
BRANCH   8   9
ATOM      9  C   UNL     1      34.268   7.827  44.276  1.00  0.00    -0.000 C 
BRANCH   9  10
ATOM     10  C   UNL     1      34.164   9.168  45.012  1.00  0.00    -0.000 C 
BRANCH  10  11
ATOM     11  C   UNL     1      35.032  10.236  44.338  1.00  0.00    -0.003 C 
ATOM     12  C   UNL     1      34.208  11.469  43.976  1.00  0.00     0.004 C 
ENDBRANCH  10  11
ENDBRANCH   9  10
ENDBRANCH   8   9
ENDBRANCH   7   8
ENDBRANCH   6   7
ENDBRANCH   5   6
ENDBRANCH   4   5
ENDBRANCH   3   4
ENDBRANCH   2   3
ENDBRANCH   1   2
BRANCH   1  13
ATOM     13  C   UNL     1      32.013   9.070  49.857  1.00  0.00     0.000 C 
BRANCH  13  14
ATOM     14  C   UNL     1      32.691  10.447  49.759  1.00  0.00     0.000 C 
BRANCH  14  15
ATOM     15  C   UNL     1      33.575  10.651  48.515  1.00  0.00     0.000 C 
BRANCH  15  16
ATOM     16  C   UNL     1      34.996  10.094  48.690  1.00  0.00     0.000 C 
BRANCH  16  17
ATOM     17  C   UNL     1      36.047  11.155  48.334  1.00  0.00     0.000 C 
BRANCH  17  18
ATOM     18  C   UNL     1      35.460  12.331  47.535  1.00  0.00     0.000 C 
BRANCH  18  19
ATOM     19  C   UNL     1      36.449  13.016  46.573  1.00  0.00     0.000 C 
BRANCH  19  20
ATOM     20  C   UNL     1      35.866  14.257  45.864  1.00  0.00     0.006 C 
BRANCH  20  21
ATOM     21  C   UNL     1      36.886  15.399  45.755  1.00  0.00     0.053 C 
BRANCH  21  22
ATOM     22  C   UNL     1      36.306  16.673  46.280  1.00  0.00     0.041 C 
ATOM     23  O   UNL     1      36.194  17.676  45.527  1.00  0.00    -0.550 OA
ATOM     24  O   UNL     1      35.927  16.768  47.614  1.00  0.00    -0.550 OA
ENDBRANCH  21  22
ENDBRANCH  20  21
ENDBRANCH  19  20
ENDBRANCH  18  19
ENDBRANCH  17  18
ENDBRANCH  16  17
ENDBRANCH  15  16
ENDBRANCH  14  15
ENDBRANCH  13  14
ENDBRANCH   1  13
TORSDOF 20
ENDMDL
MODEL 4
REMARK VINA RESULT:    -4.513      2.794      5.177
REMARK INTER + INTRA:         -11.773
REMARK INTER:                  -9.126
REMARK INTRA:                  -2.647
REMARK UNBOUND:                -1.985
REMARK SMILES CCCCCCCCCCCCCCCCCCCCCC(=O)[O-]
REMARK SMILES IDX 12 1 11 2 10 3 9 4 8 5 7 6 6 7 5 8 4 9 3 10 2 11 1 12 13 13
REMARK SMILES IDX 14 14 15 15 16 16 17 17 18 18 19 19 20 20 21 21 22 22 23 23
REMARK SMILES IDX 24 24
REMARK H PARENT
REMARK Flexibility Score: inf
ROOT
ATOM      1  C   UNL     1      33.501  10.007  48.213  1.00  0.00     0.000 C 
ENDROOT
BRANCH   1   2
ATOM      2  C   UNL     1      34.265  10.575  49.415  1.00  0.00     0.000 C 
BRANCH   2   3
ATOM      3  C   UNL     1      35.776  10.335  49.273  1.00  0.00     0.000 C 
BRANCH   3   4
ATOM      4  C   UNL     1      36.625  11.396  49.996  1.00  0.00    -0.000 C 
BRANCH   4   5
ATOM      5  C   UNL     1      37.909  11.822  49.259  1.00  0.00    -0.000 C 
BRANCH   5   6
ATOM      6  C   UNL     1      37.848  11.551  47.746  1.00  0.00    -0.000 C 
BRANCH   6   7
ATOM      7  C   UNL     1      38.121  12.808  46.900  1.00  0.00    -0.000 C 
BRANCH   7   8
ATOM      8  C   UNL     1      36.907  13.352  46.124  1.00  0.00    -0.000 C 
BRANCH   8   9
ATOM      9  C   UNL     1      35.619  12.559  46.390  1.00  0.00    -0.000 C 
BRANCH   9  10
ATOM     10  C   UNL     1      35.026  12.021  45.082  1.00  0.00    -0.000 C 
BRANCH  10  11
ATOM     11  C   UNL     1      35.018  10.488  45.070  1.00  0.00    -0.003 C 
ATOM     12  C   UNL     1      34.323   9.951  43.823  1.00  0.00     0.004 C 
ENDBRANCH  10  11
ENDBRANCH   9  10
ENDBRANCH   8   9
ENDBRANCH   7   8
ENDBRANCH   6   7
ENDBRANCH   5   6
ENDBRANCH   4   5
ENDBRANCH   3   4
ENDBRANCH   2   3
ENDBRANCH   1   2
BRANCH   1  13
ATOM     13  C   UNL     1      31.997   9.909  48.511  1.00  0.00     0.000 C 
BRANCH  13  14
ATOM     14  C   UNL     1      31.697   9.458  49.951  1.00  0.00     0.000 C 
BRANCH  14  15
ATOM     15  C   UNL     1      31.101   8.044  50.080  1.00  0.00     0.000 C 
BRANCH  15  16
ATOM     16  C   UNL     1      29.927   7.797  49.122  1.00  0.00     0.000 C 
BRANCH  16  17
ATOM     17  C   UNL     1      30.022   6.401  48.489  1.00  0.00     0.000 C 
BRANCH  17  18
ATOM     18  C   UNL     1      31.155   6.290  47.456  1.00  0.00     0.000 C 
BRANCH  18  19
ATOM     19  C   UNL     1      32.458   5.665  47.990  1.00  0.00     0.000 C 
BRANCH  19  20
ATOM     20  C   UNL     1      33.732   6.422  47.558  1.00  0.00     0.006 C 
BRANCH  20  21
ATOM     21  C   UNL     1      34.228   5.985  46.174  1.00  0.00     0.053 C 
BRANCH  21  22
ATOM     22  C   UNL     1      35.187   4.844  46.296  1.00  0.00     0.041 C 
ATOM     23  O   UNL     1      35.873   4.703  47.343  1.00  0.00    -0.550 OA
ATOM     24  O   UNL     1      35.356   3.960  45.238  1.00  0.00    -0.550 OA
ENDBRANCH  21  22
ENDBRANCH  20  21
ENDBRANCH  19  20
ENDBRANCH  18  19
ENDBRANCH  17  18
ENDBRANCH  16  17
ENDBRANCH  15  16
ENDBRANCH  14  15
ENDBRANCH  13  14
ENDBRANCH   1  13
TORSDOF 20
ENDMDL
MODEL 5
REMARK VINA RESULT:    -4.484      3.742      8.690
REMARK INTER + INTRA:         -11.712
REMARK INTER:                  -9.374
REMARK INTRA:                  -2.338
REMARK UNBOUND:                -1.985
REMARK SMILES CCCCCCCCCCCCCCCCCCCCCC(=O)[O-]
REMARK SMILES IDX 12 1 11 2 10 3 9 4 8 5 7 6 6 7 5 8 4 9 3 10 2 11 1 12 13 13
REMARK SMILES IDX 14 14 15 15 16 16 17 17 18 18 19 19 20 20 21 21 22 22 23 23
REMARK SMILES IDX 24 24
REMARK H PARENT
REMARK Flexibility Score: inf
ROOT
ATOM      1  C   UNL     1      34.583  10.425  45.048  1.00  0.00     0.000 C 
ENDROOT
BRANCH   1   2
ATOM      2  C   UNL     1      34.962   9.398  43.973  1.00  0.00     0.000 C 
BRANCH   2   3
ATOM      3  C   UNL     1      34.263   8.053  44.224  1.00  0.00     0.000 C 
BRANCH   3   4
ATOM      4  C   UNL     1      33.955   7.803  45.712  1.00  0.00    -0.000 C 
BRANCH   4   5
ATOM      5  C   UNL     1      33.840   6.322  46.118  1.00  0.00    -0.000 C 
BRANCH   5   6
ATOM      6  C   UNL     1      33.692   6.127  47.636  1.00  0.00    -0.000 C 
BRANCH   6   7
ATOM      7  C   UNL     1      32.279   5.673  48.048  1.00  0.00    -0.000 C 
BRANCH   7   8
ATOM      8  C   UNL     1      31.129   6.553  47.527  1.00  0.00    -0.000 C 
BRANCH   8   9
ATOM      9  C   UNL     1      30.313   7.204  48.654  1.00  0.00    -0.000 C 
BRANCH   9  10
ATOM     10  C   UNL     1      31.117   8.312  49.344  1.00  0.00    -0.000 C 
BRANCH  10  11
ATOM     11  C   UNL     1      31.611   9.349  48.328  1.00  0.00    -0.003 C 
ATOM     12  C   UNL     1      33.062   9.736  48.597  1.00  0.00     0.004 C 
ENDBRANCH  10  11
ENDBRANCH   9  10
ENDBRANCH   8   9
ENDBRANCH   7   8
ENDBRANCH   6   7
ENDBRANCH   5   6
ENDBRANCH   4   5
ENDBRANCH   3   4
ENDBRANCH   2   3
ENDBRANCH   1   2
BRANCH   1  13
ATOM     13  C   UNL     1      34.590  11.851  44.476  1.00  0.00     0.000 C 
BRANCH  13  14
ATOM     14  C   UNL     1      35.352  12.851  45.363  1.00  0.00     0.000 C 
BRANCH  14  15
ATOM     15  C   UNL     1      35.967  12.252  46.642  1.00  0.00     0.000 C 
BRANCH  15  16
ATOM     16  C   UNL     1      37.225  12.998  47.108  1.00  0.00     0.000 C 
BRANCH  16  17
ATOM     17  C   UNL     1      37.923  13.686  45.926  1.00  0.00     0.000 C 
BRANCH  17  18
ATOM     18  C   UNL     1      38.215  15.173  46.189  1.00  0.00     0.000 C 
BRANCH  18  19
ATOM     19  C   UNL     1      37.561  16.147  45.191  1.00  0.00     0.000 C 
BRANCH  19  20
ATOM     20  C   UNL     1      36.102  16.509  45.543  1.00  0.00     0.006 C 
BRANCH  20  21
ATOM     21  C   UNL     1      36.008  17.407  46.785  1.00  0.00     0.053 C 
BRANCH  21  22
ATOM     22  C   UNL     1      35.045  16.834  47.775  1.00  0.00     0.041 C 
ATOM     23  O   UNL     1      34.232  17.586  48.376  1.00  0.00    -0.550 OA
ATOM     24  O   UNL     1      35.071  15.476  48.067  1.00  0.00    -0.550 OA
ENDBRANCH  21  22
ENDBRANCH  20  21
ENDBRANCH  19  20
ENDBRANCH  18  19
ENDBRANCH  17  18
ENDBRANCH  16  17
ENDBRANCH  15  16
ENDBRANCH  14  15
ENDBRANCH  13  14
ENDBRANCH   1  13
TORSDOF 20
ENDMDL
MODEL 6
REMARK VINA RESULT:    -4.407      4.263      8.113
REMARK INTER + INTRA:         -11.545
REMARK INTER:                  -8.789
REMARK INTRA:                  -2.756
REMARK UNBOUND:                -1.985
REMARK SMILES CCCCCCCCCCCCCCCCCCCCCC(=O)[O-]
REMARK SMILES IDX 12 1 11 2 10 3 9 4 8 5 7 6 6 7 5 8 4 9 3 10 2 11 1 12 13 13
REMARK SMILES IDX 14 14 15 15 16 16 17 17 18 18 19 19 20 20 21 21 22 22 23 23
REMARK SMILES IDX 24 24
REMARK H PARENT
REMARK Flexibility Score: inf
ROOT
ATOM      1  C   UNL     1      31.990   9.887  48.401  1.00  0.00     0.000 C 
ENDROOT
BRANCH   1   2
ATOM      2  C   UNL     1      31.894   9.392  49.849  1.00  0.00     0.000 C 
BRANCH   2   3
ATOM      3  C   UNL     1      31.214   8.016  49.917  1.00  0.00     0.000 C 
BRANCH   3   4
ATOM      4  C   UNL     1      30.620   7.570  48.569  1.00  0.00    -0.000 C 
BRANCH   4   5
ATOM      5  C   UNL     1      31.130   6.215  48.043  1.00  0.00    -0.000 C 
BRANCH   5   6
ATOM      6  C   UNL     1      32.610   5.962  48.378  1.00  0.00    -0.000 C 
BRANCH   6   7
ATOM      7  C   UNL     1      33.499   5.858  47.125  1.00  0.00    -0.000 C 
BRANCH   7   8
ATOM      8  C   UNL     1      33.631   7.154  46.305  1.00  0.00    -0.000 C 
BRANCH   8   9
ATOM      9  C   UNL     1      34.105   6.908  44.865  1.00  0.00    -0.000 C 
BRANCH   9  10
ATOM     10  C   UNL     1      34.041   8.198  44.039  1.00  0.00    -0.000 C 
BRANCH  10  11
ATOM     11  C   UNL     1      34.589   9.389  44.833  1.00  0.00    -0.003 C 
ATOM     12  C   UNL     1      34.292  10.708  44.123  1.00  0.00     0.004 C 
ENDBRANCH  10  11
ENDBRANCH   9  10
ENDBRANCH   8   9
ENDBRANCH   7   8
ENDBRANCH   6   7
ENDBRANCH   5   6
ENDBRANCH   4   5
ENDBRANCH   3   4
ENDBRANCH   2   3
ENDBRANCH   1   2
BRANCH   1  13
ATOM     13  C   UNL     1      33.395  10.428  48.094  1.00  0.00     0.000 C 
BRANCH  13  14
ATOM     14  C   UNL     1      34.497   9.737  48.916  1.00  0.00     0.000 C 
BRANCH  14  15
ATOM     15  C   UNL     1      35.441  10.690  49.672  1.00  0.00     0.000 C 
BRANCH  15  16
ATOM     16  C   UNL     1      35.870  11.902  48.832  1.00  0.00     0.000 C 
BRANCH  16  17
ATOM     17  C   UNL     1      37.008  11.524  47.871  1.00  0.00     0.000 C 
BRANCH  17  18
ATOM     18  C   UNL     1      37.172  12.529  46.719  1.00  0.00     0.000 C 
BRANCH  18  19
ATOM     19  C   UNL     1      35.854  12.987  46.067  1.00  0.00     0.000 C 
BRANCH  19  20
ATOM     20  C   UNL     1      35.799  14.501  45.774  1.00  0.00     0.006 C 
BRANCH  20  21
ATOM     21  C   UNL     1      35.643  15.337  47.051  1.00  0.00     0.053 C 
BRANCH  21  22
ATOM     22  C   UNL     1      35.716  16.798  46.735  1.00  0.00     0.041 C 
ATOM     23  O   UNL     1      35.881  17.181  45.547  1.00  0.00    -0.550 OA
ATOM     24  O   UNL     1      35.645  17.736  47.757  1.00  0.00    -0.550 OA
ENDBRANCH  21  22
ENDBRANCH  20  21
ENDBRANCH  19  20
ENDBRANCH  18  19
ENDBRANCH  17  18
ENDBRANCH  16  17
ENDBRANCH  15  16
ENDBRANCH  14  15
ENDBRANCH  13  14
ENDBRANCH   1  13
TORSDOF 20
ENDMDL
MODEL 7
REMARK VINA RESULT:    -4.227      2.548      4.181
REMARK INTER + INTRA:         -11.154
REMARK INTER:                  -8.812
REMARK INTRA:                  -2.341
REMARK UNBOUND:                -1.985
REMARK SMILES CCCCCCCCCCCCCCCCCCCCCC(=O)[O-]
REMARK SMILES IDX 12 1 11 2 10 3 9 4 8 5 7 6 6 7 5 8 4 9 3 10 2 11 1 12 13 13
REMARK SMILES IDX 14 14 15 15 16 16 17 17 18 18 19 19 20 20 21 21 22 22 23 23
REMARK SMILES IDX 24 24
REMARK H PARENT
REMARK Flexibility Score: inf
ROOT
ATOM      1  C   UNL     1      33.836   9.978  47.437  1.00  0.00     0.000 C 
ENDROOT
BRANCH   1   2
ATOM      2  C   UNL     1      34.780  11.174  47.618  1.00  0.00     0.000 C 
BRANCH   2   3
ATOM      3  C   UNL     1      35.718  11.324  46.410  1.00  0.00     0.000 C 
BRANCH   3   4
ATOM      4  C   UNL     1      36.099  12.788  46.122  1.00  0.00    -0.000 C 
BRANCH   4   5
ATOM      5  C   UNL     1      37.483  13.219  46.643  1.00  0.00    -0.000 C 
BRANCH   5   6
ATOM      6  C   UNL     1      37.427  14.490  47.509  1.00  0.00    -0.000 C 
BRANCH   6   7
ATOM      7  C   UNL     1      35.988  14.929  47.837  1.00  0.00    -0.000 C 
BRANCH   7   8
ATOM      8  C   UNL     1      35.610  16.344  47.363  1.00  0.00    -0.000 C 
BRANCH   8   9
ATOM      9  C   UNL     1      35.765  16.531  45.846  1.00  0.00    -0.000 C 
BRANCH   9  10
ATOM     10  C   UNL     1      36.613  17.768  45.530  1.00  0.00    -0.000 C 
BRANCH  10  11
ATOM     11  C   UNL     1      38.094  17.400  45.386  1.00  0.00    -0.003 C 
ATOM     12  C   UNL     1      38.286  16.281  44.365  1.00  0.00     0.004 C 
ENDBRANCH  10  11
ENDBRANCH   9  10
ENDBRANCH   8   9
ENDBRANCH   7   8
ENDBRANCH   6   7
ENDBRANCH   5   6
ENDBRANCH   4   5
ENDBRANCH   3   4
ENDBRANCH   2   3
ENDBRANCH   1   2
BRANCH   1  13
ATOM     13  C   UNL     1      32.602  10.108  48.343  1.00  0.00     0.000 C 
BRANCH  13  14
ATOM     14  C   UNL     1      32.684   9.227  49.601  1.00  0.00     0.000 C 
BRANCH  14  15
ATOM     15  C   UNL     1      31.332   8.708  50.124  1.00  0.00     0.000 C 
BRANCH  15  16
ATOM     16  C   UNL     1      30.416   8.188  49.006  1.00  0.00     0.000 C 
BRANCH  16  17
ATOM     17  C   UNL     1      30.076   6.706  49.225  1.00  0.00     0.000 C 
BRANCH  17  18
ATOM     18  C   UNL     1      30.859   5.770  48.288  1.00  0.00     0.000 C 
BRANCH  18  19
ATOM     19  C   UNL     1      31.564   6.475  47.113  1.00  0.00     0.000 C 
BRANCH  19  20
ATOM     20  C   UNL     1      33.103   6.485  47.230  1.00  0.00     0.006 C 
BRANCH  20  21
ATOM     21  C   UNL     1      33.621   5.413  48.199  1.00  0.00     0.053 C 
BRANCH  21  22
ATOM     22  C   UNL     1      34.860   4.772  47.659  1.00  0.00     0.041 C 
ATOM     23  O   UNL     1      34.895   4.367  46.467  1.00  0.00    -0.550 OA
ATOM     24  O   UNL     1      35.962   4.583  48.483  1.00  0.00    -0.550 OA
ENDBRANCH  21  22
ENDBRANCH  20  21
ENDBRANCH  19  20
ENDBRANCH  18  19
ENDBRANCH  17  18
ENDBRANCH  16  17
ENDBRANCH  15  16
ENDBRANCH  14  15
ENDBRANCH  13  14
ENDBRANCH   1  13
TORSDOF 20
ENDMDL
MODEL 8
REMARK VINA RESULT:    -4.182      4.689      9.712
REMARK INTER + INTRA:         -11.057
REMARK INTER:                  -8.559
REMARK INTRA:                  -2.498
REMARK UNBOUND:                -1.985
REMARK SMILES CCCCCCCCCCCCCCCCCCCCCC(=O)[O-]
REMARK SMILES IDX 12 1 11 2 10 3 9 4 8 5 7 6 6 7 5 8 4 9 3 10 2 11 1 12 13 13
REMARK SMILES IDX 14 14 15 15 16 16 17 17 18 18 19 19 20 20 21 21 22 22 23 23
REMARK SMILES IDX 24 24
REMARK H PARENT
REMARK Flexibility Score: inf
ROOT
ATOM      1  C   UNL     1      34.670  10.727  45.671  1.00  0.00     0.000 C 
ENDROOT
BRANCH   1   2
ATOM      2  C   UNL     1      33.863   9.647  46.402  1.00  0.00     0.000 C 
BRANCH   2   3
ATOM      3  C   UNL     1      33.675  10.007  47.884  1.00  0.00     0.000 C 
BRANCH   3   4
ATOM      4  C   UNL     1      32.247   9.735  48.393  1.00  0.00    -0.000 C 
BRANCH   4   5
ATOM      5  C   UNL     1      32.149   9.304  49.869  1.00  0.00    -0.000 C 
BRANCH   5   6
ATOM      6  C   UNL     1      31.109   8.195  50.101  1.00  0.00    -0.000 C 
BRANCH   6   7
ATOM      7  C   UNL     1      30.174   7.988  48.895  1.00  0.00    -0.000 C 
BRANCH   7   8
ATOM      8  C   UNL     1      29.983   6.524  48.457  1.00  0.00    -0.000 C 
BRANCH   8   9
ATOM      9  C   UNL     1      31.310   5.779  48.255  1.00  0.00    -0.000 C 
BRANCH   9  10
ATOM     10  C   UNL     1      32.009   6.242  46.971  1.00  0.00    -0.000 C 
BRANCH  10  11
ATOM     11  C   UNL     1      33.534   6.199  47.127  1.00  0.00    -0.003 C 
ATOM     12  C   UNL     1      33.934   6.079  48.595  1.00  0.00     0.004 C 
ENDBRANCH  10  11
ENDBRANCH   9  10
ENDBRANCH   8   9
ENDBRANCH   7   8
ENDBRANCH   6   7
ENDBRANCH   5   6
ENDBRANCH   4   5
ENDBRANCH   3   4
ENDBRANCH   2   3
ENDBRANCH   1   2
BRANCH   1  13
ATOM     13  C   UNL     1      35.476  11.580  46.662  1.00  0.00     0.000 C 
BRANCH  13  14
ATOM     14  C   UNL     1      36.136  12.805  46.005  1.00  0.00     0.000 C 
BRANCH  14  15
ATOM     15  C   UNL     1      36.281  14.036  46.918  1.00  0.00     0.000 C 
BRANCH  15  16
ATOM     16  C   UNL     1      35.526  13.890  48.247  1.00  0.00     0.000 C 
BRANCH  16  17
ATOM     17  C   UNL     1      35.159  15.267  48.821  1.00  0.00     0.000 C 
BRANCH  17  18
ATOM     18  C   UNL     1      34.939  16.328  47.730  1.00  0.00     0.000 C 
BRANCH  18  19
ATOM     19  C   UNL     1      35.603  17.689  48.010  1.00  0.00     0.000 C 
BRANCH  19  20
ATOM     20  C   UNL     1      36.750  18.031  47.035  1.00  0.00     0.006 C 
BRANCH  20  21
ATOM     21  C   UNL     1      36.471  17.536  45.610  1.00  0.00     0.053 C 
BRANCH  21  22
ATOM     22  C   UNL     1      37.742  17.115  44.942  1.00  0.00     0.041 C 
ATOM     23  O   UNL     1      38.372  16.107  45.357  1.00  0.00    -0.550 OA
ATOM     24  O   UNL     1      38.255  17.862  43.888  1.00  0.00    -0.550 OA
ENDBRANCH  21  22
ENDBRANCH  20  21
ENDBRANCH  19  20
ENDBRANCH  18  19
ENDBRANCH  17  18
ENDBRANCH  16  17
ENDBRANCH  15  16
ENDBRANCH  14  15
ENDBRANCH  13  14
ENDBRANCH   1  13
TORSDOF 20
ENDMDL
MODEL 9
REMARK VINA RESULT:    -4.151      4.242      8.775
REMARK INTER + INTRA:         -10.988
REMARK INTER:                  -8.390
REMARK INTRA:                  -2.599
REMARK UNBOUND:                -1.985
REMARK SMILES CCCCCCCCCCCCCCCCCCCCCC(=O)[O-]
REMARK SMILES IDX 12 1 11 2 10 3 9 4 8 5 7 6 6 7 5 8 4 9 3 10 2 11 1 12 13 13
REMARK SMILES IDX 14 14 15 15 16 16 17 17 18 18 19 19 20 20 21 21 22 22 23 23
REMARK SMILES IDX 24 24
REMARK H PARENT
REMARK Flexibility Score: inf
ROOT
ATOM      1  C   UNL     1      33.060   9.913  48.053  1.00  0.00     0.000 C 
ENDROOT
BRANCH   1   2
ATOM      2  C   UNL     1      31.636   9.882  48.621  1.00  0.00     0.000 C 
BRANCH   2   3
ATOM      3  C   UNL     1      31.519   8.864  49.765  1.00  0.00     0.000 C 
BRANCH   3   4
ATOM      4  C   UNL     1      30.175   8.111  49.767  1.00  0.00    -0.000 C 
BRANCH   4   5
ATOM      5  C   UNL     1      29.900   7.257  48.515  1.00  0.00    -0.000 C 
BRANCH   5   6
ATOM      6  C   UNL     1      30.258   5.774  48.712  1.00  0.00    -0.000 C 
BRANCH   6   7
ATOM      7  C   UNL     1      31.598   5.388  48.059  1.00  0.00    -0.000 C 
BRANCH   7   8
ATOM      8  C   UNL     1      32.141   6.397  47.031  1.00  0.00    -0.000 C 
BRANCH   8   9
ATOM      9  C   UNL     1      33.668   6.331  46.874  1.00  0.00    -0.000 C 
BRANCH   9  10
ATOM     10  C   UNL     1      34.258   5.196  47.719  1.00  0.00    -0.000 C 
BRANCH  10  11
ATOM     11  C   UNL     1      35.570   4.684  47.114  1.00  0.00    -0.003 C 
ATOM     12  C   UNL     1      35.381   4.270  45.657  1.00  0.00     0.004 C 
ENDBRANCH  10  11
ENDBRANCH   9  10
ENDBRANCH   8   9
ENDBRANCH   7   8
ENDBRANCH   6   7
ENDBRANCH   5   6
ENDBRANCH   4   5
ENDBRANCH   3   4
ENDBRANCH   2   3
ENDBRANCH   1   2
BRANCH   1  13
ATOM     13  C   UNL     1      34.042   9.192  48.989  1.00  0.00     0.000 C 
BRANCH  13  14
ATOM     14  C   UNL     1      35.275  10.043  49.338  1.00  0.00     0.000 C 
BRANCH  14  15
ATOM     15  C   UNL     1      34.967  11.480  49.799  1.00  0.00     0.000 C 
BRANCH  15  16
ATOM     16  C   UNL     1      36.043  12.490  49.375  1.00  0.00     0.000 C 
BRANCH  16  17
ATOM     17  C   UNL     1      37.411  11.806  49.236  1.00  0.00     0.000 C 
BRANCH  17  18
ATOM     18  C   UNL     1      38.083  12.087  47.881  1.00  0.00     0.000 C 
BRANCH  18  19
ATOM     19  C   UNL     1      37.109  12.248  46.698  1.00  0.00     0.000 C 
BRANCH  19  20
ATOM     20  C   UNL     1      37.138  13.653  46.060  1.00  0.00     0.006 C 
BRANCH  20  21
ATOM     21  C   UNL     1      35.779  14.362  46.150  1.00  0.00     0.053 C 
BRANCH  21  22
ATOM     22  C   UNL     1      35.905  15.642  46.913  1.00  0.00     0.041 C 
ATOM     23  O   UNL     1      36.765  15.753  47.826  1.00  0.00    -0.550 OA
ATOM     24  O   UNL     1      35.043  16.699  46.647  1.00  0.00    -0.550 OA
ENDBRANCH  21  22
ENDBRANCH  20  21
ENDBRANCH  19  20
ENDBRANCH  18  19
ENDBRANCH  17  18
ENDBRANCH  16  17
ENDBRANCH  15  16
ENDBRANCH  14  15
ENDBRANCH  13  14
ENDBRANCH   1  13
TORSDOF 20
ENDMDL
