MODEL 1
REMARK VINA RESULT:    -3.488      0.000      0.000
REMARK INTER + INTRA:          -6.056
REMARK INTER:                  -5.527
REMARK INTRA:                  -0.529
REMARK UNBOUND:                -0.529
REMARK SMILES CCCCCCCCCCCC(=O)[O-]
REMARK SMILES IDX 7 1 8 2 9 3 10 4 11 5 12 6 13 7 14 8 6 9 5 10 4 11 3 12 2 13
REMARK SMILES IDX 1 14
REMARK H PARENT
REMARK Flexibility Score: inf
ROOT
ATOM      1  C   UNL     1      42.032  21.079  79.331  1.00  0.00     0.000 C 
ENDROOT
BRANCH   1   2
ATOM      2  C   UNL     1      43.159  20.196  78.774  1.00  0.00     0.000 C 
BRANCH   2   3
ATOM      3  C   UNL     1      44.224  21.009  78.018  1.00  0.00     0.000 C 
BRANCH   3   4
ATOM      4  C   UNL     1      45.551  20.244  77.855  1.00  0.00     0.006 C 
BRANCH   4   5
ATOM      5  C   UNL     1      45.383  18.736  77.609  1.00  0.00     0.053 C 
BRANCH   5   6
ATOM      6  C   UNL     1      45.887  18.330  76.259  1.00  0.00     0.041 C 
ATOM      7  O   UNL     1      46.021  17.112  75.972  1.00  0.00    -0.550 OA
ATOM      8  O   UNL     1      46.240  19.299  75.329  1.00  0.00    -0.550 OA
ENDBRANCH   5   6
ENDBRANCH   4   5
ENDBRANCH   3   4
ENDBRANCH   2   3
ENDBRANCH   1   2
BRANCH   1   9
ATOM      9  C   UNL     1      40.636  20.594  78.903  1.00  0.00     0.000 C 
BRANCH   9  10
ATOM     10  C   UNL     1      39.605  21.731  78.859  1.00  0.00    -0.000 C 
BRANCH  10  11
ATOM     11  C   UNL     1      38.428  21.499  79.820  1.00  0.00    -0.000 C 
BRANCH  11  12
ATOM     12  C   UNL     1      38.549  20.183  80.607  1.00  0.00    -0.000 C 
BRANCH  12  13
ATOM     13  C   UNL     1      37.432  19.168  80.290  1.00  0.00    -0.003 C 
ATOM     14  C   UNL     1      37.984  17.806  79.868  1.00  0.00     0.004 C 
ENDBRANCH  12  13
ENDBRANCH  11  12
ENDBRANCH  10  11
ENDBRANCH   9  10
ENDBRANCH   1   9
TORSDOF 10
ENDMDL
MODEL 2
REMARK VINA RESULT:    -3.487      4.139      6.459
REMARK INTER + INTRA:          -6.055
REMARK INTER:                  -4.667
REMARK INTRA:                  -1.387
REMARK UNBOUND:                -0.529
REMARK SMILES CCCCCCCCCCCC(=O)[O-]
REMARK SMILES IDX 7 1 8 2 9 3 10 4 11 5 12 6 13 7 14 8 6 9 5 10 4 11 3 12 2 13
REMARK SMILES IDX 1 14
REMARK H PARENT
REMARK Flexibility Score: inf
ROOT
ATOM      1  C   UNL     1      43.144  21.706  79.689  1.00  0.00     0.000 C 
ENDROOT
BRANCH   1   2
ATOM      2  C   UNL     1      41.766  21.251  80.193  1.00  0.00     0.000 C 
BRANCH   2   3
ATOM      3  C   UNL     1      41.351  19.884  79.621  1.00  0.00     0.000 C 
BRANCH   3   4
ATOM      4  C   UNL     1      39.852  19.814  79.275  1.00  0.00     0.006 C 
BRANCH   4   5
ATOM      5  C   UNL     1      38.930  20.421  80.344  1.00  0.00     0.053 C 
BRANCH   5   6
ATOM      6  C   UNL     1      37.893  19.446  80.809  1.00  0.00     0.041 C 
ATOM      7  O   UNL     1      37.317  19.611  81.915  1.00  0.00    -0.550 OA
ATOM      8  O   UNL     1      37.586  18.336  80.032  1.00  0.00    -0.550 OA
ENDBRANCH   5   6
ENDBRANCH   4   5
ENDBRANCH   3   4
ENDBRANCH   2   3
ENDBRANCH   1   2
BRANCH   1   9
ATOM      9  C   UNL     1      43.838  20.639  78.825  1.00  0.00     0.000 C 
BRANCH   9  10
ATOM     10  C   UNL     1      44.158  21.142  77.410  1.00  0.00    -0.000 C 
BRANCH  10  11
ATOM     11  C   UNL     1      43.200  22.252  76.947  1.00  0.00    -0.000 C 
BRANCH  11  12
ATOM     12  C   UNL     1      42.263  21.799  75.815  1.00  0.00    -0.000 C 
BRANCH  12  13
ATOM     13  C   UNL     1      40.775  21.761  76.223  1.00  0.00    -0.003 C 
ATOM     14  C   UNL     1      40.413  22.869  77.212  1.00  0.00     0.004 C 
ENDBRANCH  12  13
ENDBRANCH  11  12
ENDBRANCH  10  11
ENDBRANCH   9  10
ENDBRANCH   1   9
TORSDOF 10
ENDMDL
MODEL 3
REMARK VINA RESULT:    -3.429      1.192      1.680
REMARK INTER + INTRA:          -5.964
REMARK INTER:                  -5.570
REMARK INTRA:                  -0.393
REMARK UNBOUND:                -0.529
REMARK SMILES CCCCCCCCCCCC(=O)[O-]
REMARK SMILES IDX 7 1 8 2 9 3 10 4 11 5 12 6 13 7 14 8 6 9 5 10 4 11 3 12 2 13
REMARK SMILES IDX 1 14
REMARK H PARENT
REMARK Flexibility Score: inf
ROOT
ATOM      1  C   UNL     1      43.175  20.374  78.590  1.00  0.00     0.000 C 
ENDROOT
BRANCH   1   2
ATOM      2  C   UNL     1      44.555  20.890  79.024  1.00  0.00     0.000 C 
BRANCH   2   3
ATOM      3  C   UNL     1      45.701  20.266  78.208  1.00  0.00     0.000 C 
BRANCH   3   4
ATOM      4  C   UNL     1      45.321  18.906  77.595  1.00  0.00     0.006 C 
BRANCH   4   5
ATOM      5  C   UNL     1      46.089  18.556  76.311  1.00  0.00     0.053 C 
BRANCH   5   6
ATOM      6  C   UNL     1      46.251  19.745  75.414  1.00  0.00     0.041 C 
ATOM      7  O   UNL     1      45.255  20.233  74.821  1.00  0.00    -0.550 OA
ATOM      8  O   UNL     1      47.511  20.292  75.207  1.00  0.00    -0.550 OA
ENDBRANCH   5   6
ENDBRANCH   4   5
ENDBRANCH   3   4
ENDBRANCH   2   3
ENDBRANCH   1   2
BRANCH   1   9
ATOM      9  C   UNL     1      42.022  21.119  79.286  1.00  0.00     0.000 C 
BRANCH   9  10
ATOM     10  C   UNL     1      40.641  20.655  78.797  1.00  0.00    -0.000 C 
BRANCH  10  11
ATOM     11  C   UNL     1      39.903  19.798  79.838  1.00  0.00    -0.000 C 
BRANCH  11  12
ATOM     12  C   UNL     1      38.536  20.382  80.232  1.00  0.00    -0.000 C 
BRANCH  12  13
ATOM     13  C   UNL     1      37.593  19.355  80.893  1.00  0.00    -0.003 C 
ATOM     14  C   UNL     1      37.462  18.072  80.072  1.00  0.00     0.004 C 
ENDBRANCH  12  13
ENDBRANCH  11  12
ENDBRANCH  10  11
ENDBRANCH   9  10
ENDBRANCH   1   9
TORSDOF 10
ENDMDL
MODEL 4
REMARK VINA RESULT:    -3.404     16.674     18.565
REMARK INTER + INTRA:          -5.923
REMARK INTER:                  -4.477
REMARK INTRA:                  -1.446
REMARK UNBOUND:                -0.529
REMARK SMILES CCCCCCCCCCCC(=O)[O-]
REMARK SMILES IDX 7 1 8 2 9 3 10 4 11 5 12 6 13 7 14 8 6 9 5 10 4 11 3 12 2 13
REMARK SMILES IDX 1 14
REMARK H PARENT
REMARK Flexibility Score: inf
ROOT
ATOM      1  C   UNL     1      51.444  34.712  87.589  1.00  0.00     0.000 C 
ENDROOT
BRANCH   1   2
ATOM      2  C   UNL     1      50.378  35.807  87.426  1.00  0.00     0.000 C 
BRANCH   2   3
ATOM      3  C   UNL     1      49.098  35.287  86.749  1.00  0.00     0.000 C 
BRANCH   3   4
ATOM      4  C   UNL     1      48.591  33.971  87.367  1.00  0.00     0.006 C 
BRANCH   4   5
ATOM      5  C   UNL     1      48.547  32.790  86.385  1.00  0.00     0.053 C 
BRANCH   5   6
ATOM      6  C   UNL     1      47.793  31.623  86.945  1.00  0.00     0.041 C 
ATOM      7  O   UNL     1      47.154  30.855  86.182  1.00  0.00    -0.550 OA
ATOM      8  O   UNL     1      47.771  31.405  88.317  1.00  0.00    -0.550 OA
ENDBRANCH   5   6
ENDBRANCH   4   5
ENDBRANCH   3   4
ENDBRANCH   2   3
ENDBRANCH   1   2
BRANCH   1   9
ATOM      9  C   UNL     1      52.734  35.025  86.811  1.00  0.00     0.000 C 
BRANCH   9  10
ATOM     10  C   UNL     1      52.620  34.683  85.318  1.00  0.00    -0.000 C 
BRANCH  10  11
ATOM     11  C   UNL     1      52.060  33.272  85.077  1.00  0.00    -0.000 C 
BRANCH  11  12
ATOM     12  C   UNL     1      51.229  33.171  83.787  1.00  0.00    -0.000 C 
BRANCH  12  13
ATOM     13  C   UNL     1      50.732  34.535  83.265  1.00  0.00    -0.003 C 
ATOM     14  C   UNL     1      49.207  34.609  83.186  1.00  0.00     0.004 C 
ENDBRANCH  12  13
ENDBRANCH  11  12
ENDBRANCH  10  11
ENDBRANCH   9  10
ENDBRANCH   1   9
TORSDOF 10
ENDMDL
MODEL 5
REMARK VINA RESULT:    -3.399      3.377      7.605
REMARK INTER + INTRA:          -5.916
REMARK INTER:                  -4.841
REMARK INTRA:                  -1.075
REMARK UNBOUND:                -0.529
REMARK SMILES CCCCCCCCCCCC(=O)[O-]
REMARK SMILES IDX 7 1 8 2 9 3 10 4 11 5 12 6 13 7 14 8 6 9 5 10 4 11 3 12 2 13
REMARK SMILES IDX 1 14
REMARK H PARENT
REMARK Flexibility Score: inf
ROOT
ATOM      1  C   UNL     1      45.766  18.681  76.760  1.00  0.00     0.000 C 
ENDROOT
BRANCH   1   2
ATOM      2  C   UNL     1      46.421  19.470  77.905  1.00  0.00     0.000 C 
BRANCH   2   3
ATOM      3  C   UNL     1      45.453  20.472  78.559  1.00  0.00     0.000 C 
BRANCH   3   4
ATOM      4  C   UNL     1      43.976  20.078  78.376  1.00  0.00     0.006 C 
BRANCH   4   5
ATOM      5  C   UNL     1      42.998  20.871  79.257  1.00  0.00     0.053 C 
BRANCH   5   6
ATOM      6  C   UNL     1      41.573  20.499  78.986  1.00  0.00     0.041 C 
ATOM      7  O   UNL     1      41.002  20.896  77.938  1.00  0.00    -0.550 OA
ATOM      8  O   UNL     1      40.865  19.742  79.911  1.00  0.00    -0.550 OA
ENDBRANCH   5   6
ENDBRANCH   4   5
ENDBRANCH   3   4
ENDBRANCH   2   3
ENDBRANCH   1   2
BRANCH   1   9
ATOM      9  C   UNL     1      46.317  19.077  75.380  1.00  0.00     0.000 C 
BRANCH   9  10
ATOM     10  C   UNL     1      45.680  20.366  74.839  1.00  0.00    -0.000 C 
BRANCH  10  11
ATOM     11  C   UNL     1      46.713  21.478  74.594  1.00  0.00    -0.000 C 
BRANCH  11  12
ATOM     12  C   UNL     1      48.141  21.063  74.984  1.00  0.00    -0.000 C 
BRANCH  12  13
ATOM     13  C   UNL     1      48.819  22.039  75.968  1.00  0.00    -0.003 C 
ATOM     14  C   UNL     1      49.422  21.324  77.177  1.00  0.00     0.004 C 
ENDBRANCH  12  13
ENDBRANCH  11  12
ENDBRANCH  10  11
ENDBRANCH   9  10
ENDBRANCH   1   9
TORSDOF 10
ENDMDL
MODEL 6
REMARK VINA RESULT:    -3.389     17.035     18.773
REMARK INTER + INTRA:          -5.900
REMARK INTER:                  -5.105
REMARK INTRA:                  -0.794
REMARK UNBOUND:                -0.529
REMARK SMILES CCCCCCCCCCCC(=O)[O-]
REMARK SMILES IDX 7 1 8 2 9 3 10 4 11 5 12 6 13 7 14 8 6 9 5 10 4 11 3 12 2 13
REMARK SMILES IDX 1 14
REMARK H PARENT
REMARK Flexibility Score: inf
ROOT
ATOM      1  C   UNL     1      48.193  32.921  87.815  1.00  0.00     0.000 C 
ENDROOT
BRANCH   1   2
ATOM      2  C   UNL     1      48.653  31.595  88.439  1.00  0.00     0.000 C 
BRANCH   2   3
ATOM      3  C   UNL     1      47.917  31.274  89.751  1.00  0.00     0.000 C 
BRANCH   3   4
ATOM      4  C   UNL     1      46.421  31.636  89.697  1.00  0.00     0.006 C 
BRANCH   4   5
ATOM      5  C   UNL     1      45.739  31.704  91.073  1.00  0.00     0.053 C 
BRANCH   5   6
ATOM      6  C   UNL     1      44.893  30.497  91.338  1.00  0.00     0.041 C 
ATOM      7  O   UNL     1      45.071  29.440  90.681  1.00  0.00    -0.550 OA
ATOM      8  O   UNL     1      43.883  30.553  92.291  1.00  0.00    -0.550 OA
ENDBRANCH   5   6
ENDBRANCH   4   5
ENDBRANCH   3   4
ENDBRANCH   2   3
ENDBRANCH   1   2
BRANCH   1   9
ATOM      9  C   UNL     1      48.554  33.028  86.323  1.00  0.00     0.000 C 
BRANCH   9  10
ATOM     10  C   UNL     1      48.989  34.446  85.922  1.00  0.00    -0.000 C 
BRANCH  10  11
ATOM     11  C   UNL     1      48.919  35.438  87.094  1.00  0.00    -0.000 C 
BRANCH  11  12
ATOM     12  C   UNL     1      50.299  35.978  87.505  1.00  0.00    -0.000 C 
BRANCH  12  13
ATOM     13  C   UNL     1      51.475  35.128  86.979  1.00  0.00    -0.003 C 
ATOM     14  C   UNL     1      51.951  34.096  88.000  1.00  0.00     0.004 C 
ENDBRANCH  12  13
ENDBRANCH  11  12
ENDBRANCH  10  11
ENDBRANCH   9  10
ENDBRANCH   1   9
TORSDOF 10
ENDMDL
MODEL 7
REMARK VINA RESULT:    -3.384      4.917      7.090
REMARK INTER + INTRA:          -5.891
REMARK INTER:                  -4.500
REMARK INTRA:                  -1.391
REMARK UNBOUND:                -0.529
REMARK SMILES CCCCCCCCCCCC(=O)[O-]
REMARK SMILES IDX 7 1 8 2 9 3 10 4 11 5 12 6 13 7 14 8 6 9 5 10 4 11 3 12 2 13
REMARK SMILES IDX 1 14
REMARK H PARENT
REMARK Flexibility Score: inf
ROOT
ATOM      1  C   UNL     1      48.626  22.177  77.057  1.00  0.00     0.000 C 
ENDROOT
BRANCH   1   2
ATOM      2  C   UNL     1      48.781  20.708  77.478  1.00  0.00     0.000 C 
BRANCH   2   3
ATOM      3  C   UNL     1      47.589  20.205  78.311  1.00  0.00     0.000 C 
BRANCH   3   4
ATOM      4  C   UNL     1      46.233  20.486  77.638  1.00  0.00     0.006 C 
BRANCH   4   5
ATOM      5  C   UNL     1      45.286  19.276  77.598  1.00  0.00     0.053 C 
BRANCH   5   6
ATOM      6  C   UNL     1      45.833  18.164  76.757  1.00  0.00     0.041 C 
ATOM      7  O   UNL     1      46.068  18.349  75.535  1.00  0.00    -0.550 OA
ATOM      8  O   UNL     1      46.052  16.912  77.318  1.00  0.00    -0.550 OA
ENDBRANCH   5   6
ENDBRANCH   4   5
ENDBRANCH   3   4
ENDBRANCH   2   3
ENDBRANCH   1   2
BRANCH   1   9
ATOM      9  C   UNL     1      48.800  22.378  75.541  1.00  0.00     0.000 C 
BRANCH   9  10
ATOM     10  C   UNL     1      48.473  21.111  74.738  1.00  0.00    -0.000 C 
BRANCH  10  11
ATOM     11  C   UNL     1      47.207  21.266  73.880  1.00  0.00    -0.000 C 
BRANCH  11  12
ATOM     12  C   UNL     1      46.594  22.674  73.966  1.00  0.00    -0.000 C 
BRANCH  12  13
ATOM     13  C   UNL     1      45.088  22.672  74.302  1.00  0.00    -0.003 C 
ATOM     14  C   UNL     1      44.519  21.258  74.417  1.00  0.00     0.004 C 
ENDBRANCH  12  13
ENDBRANCH  11  12
ENDBRANCH  10  11
ENDBRANCH   9  10
ENDBRANCH   1   9
TORSDOF 10
ENDMDL
MODEL 8
REMARK VINA RESULT:    -3.342      4.524      6.310
REMARK INTER + INTRA:          -5.825
REMARK INTER:                  -4.495
REMARK INTRA:                  -1.330
REMARK UNBOUND:                -0.529
REMARK SMILES CCCCCCCCCCCC(=O)[O-]
REMARK SMILES IDX 7 1 8 2 9 3 10 4 11 5 12 6 13 7 14 8 6 9 5 10 4 11 3 12 2 13
REMARK SMILES IDX 1 14
REMARK H PARENT
REMARK Flexibility Score: inf
ROOT
ATOM      1  C   UNL     1      48.021  21.951  74.515  1.00  0.00     0.000 C 
ENDROOT
BRANCH   1   2
ATOM      2  C   UNL     1      48.061  20.772  75.499  1.00  0.00     0.000 C 
BRANCH   2   3
ATOM      3  C   UNL     1      46.990  20.885  76.598  1.00  0.00     0.000 C 
BRANCH   3   4
ATOM      4  C   UNL     1      46.347  19.530  76.944  1.00  0.00     0.006 C 
BRANCH   4   5
ATOM      5  C   UNL     1      46.022  18.656  75.721  1.00  0.00     0.053 C 
BRANCH   5   6
ATOM      6  C   UNL     1      45.991  17.200  76.067  1.00  0.00     0.041 C 
ATOM      7  O   UNL     1      45.936  16.833  77.269  1.00  0.00    -0.550 OA
ATOM      8  O   UNL     1      46.056  16.246  75.059  1.00  0.00    -0.550 OA
ENDBRANCH   5   6
ENDBRANCH   4   5
ENDBRANCH   3   4
ENDBRANCH   2   3
ENDBRANCH   1   2
BRANCH   1   9
ATOM      9  C   UNL     1      46.605  22.226  73.981  1.00  0.00     0.000 C 
BRANCH   9  10
ATOM     10  C   UNL     1      46.133  21.154  72.986  1.00  0.00    -0.000 C 
BRANCH  10  11
ATOM     11  C   UNL     1      44.601  21.085  72.875  1.00  0.00    -0.000 C 
BRANCH  11  12
ATOM     12  C   UNL     1      43.895  22.232  73.619  1.00  0.00    -0.000 C 
BRANCH  12  13
ATOM     13  C   UNL     1      42.843  21.750  74.639  1.00  0.00    -0.003 C 
ATOM     14  C   UNL     1      43.432  21.556  76.037  1.00  0.00     0.004 C 
ENDBRANCH  12  13
ENDBRANCH  11  12
ENDBRANCH  10  11
ENDBRANCH   9  10
ENDBRANCH   1   9
TORSDOF 10
ENDMDL
MODEL 9
REMARK VINA RESULT:    -3.317      5.529      7.452
REMARK INTER + INTRA:          -5.785
REMARK INTER:                  -4.279
REMARK INTRA:                  -1.507
REMARK UNBOUND:                -0.529
REMARK SMILES CCCCCCCCCCCC(=O)[O-]
REMARK SMILES IDX 7 1 8 2 9 3 10 4 11 5 12 6 13 7 14 8 6 9 5 10 4 11 3 12 2 13
REMARK SMILES IDX 1 14
REMARK H PARENT
REMARK Flexibility Score: inf
ROOT
ATOM      1  C   UNL     1      46.005  18.532  77.418  1.00  0.00     0.000 C 
ENDROOT
BRANCH   1   2
ATOM      2  C   UNL     1      45.506  19.875  77.974  1.00  0.00     0.000 C 
BRANCH   2   3
ATOM      3  C   UNL     1      46.605  20.644  78.729  1.00  0.00     0.000 C 
BRANCH   3   4
ATOM      4  C   UNL     1      47.918  19.847  78.840  1.00  0.00     0.006 C 
BRANCH   4   5
ATOM      5  C   UNL     1      49.120  20.517  78.156  1.00  0.00     0.053 C 
BRANCH   5   6
ATOM      6  C   UNL     1      50.066  21.120  79.149  1.00  0.00     0.041 C 
ATOM      7  O   UNL     1      49.759  22.179  79.754  1.00  0.00    -0.550 OA
ATOM      8  O   UNL     1      51.301  20.528  79.380  1.00  0.00    -0.550 OA
ENDBRANCH   5   6
ENDBRANCH   4   5
ENDBRANCH   3   4
ENDBRANCH   2   3
ENDBRANCH   1   2
BRANCH   1   9
ATOM      9  C   UNL     1      45.998  18.492  75.880  1.00  0.00     0.000 C 
BRANCH   9  10
ATOM     10  C   UNL     1      46.015  19.894  75.254  1.00  0.00    -0.000 C 
BRANCH  10  11
ATOM     11  C   UNL     1      47.422  20.324  74.806  1.00  0.00    -0.000 C 
BRANCH  11  12
ATOM     12  C   UNL     1      47.518  21.828  74.501  1.00  0.00    -0.000 C 
BRANCH  12  13
ATOM     13  C   UNL     1      46.681  22.707  75.454  1.00  0.00    -0.003 C 
ATOM     14  C   UNL     1      47.545  23.439  76.481  1.00  0.00     0.004 C 
ENDBRANCH  12  13
ENDBRANCH  11  12
ENDBRANCH  10  11
ENDBRANCH   9  10
ENDBRANCH   1   9
TORSDOF 10
ENDMDL
