MODEL 1
REMARK VINA RESULT:    -3.822      0.000      0.000
REMARK INTER + INTRA:          -8.982
REMARK INTER:                  -6.949
REMARK INTRA:                  -2.033
REMARK UNBOUND:                -2.033
REMARK SMILES CCCCCCCCCCCCCCCC(=O)[O-]
REMARK SMILES IDX 9 1 10 2 11 3 12 4 13 5 14 6 15 7 16 8 17 9 18 10 8 11 7 12
REMARK SMILES IDX 6 13 5 14 4 15 3 16 2 17 1 18
REMARK H PARENT
REMARK Flexibility Score: inf
ROOT
ATOM      1  C   UNL     1    -116.225  11.876  22.481  1.00  0.00     0.000 C 
ENDROOT
BRANCH   1   2
ATOM      2  C   UNL     1    -116.512  10.870  23.606  1.00  0.00     0.000 C 
BRANCH   2   3
ATOM      3  C   UNL     1    -115.666  11.175  24.849  1.00  0.00     0.000 C 
BRANCH   3   4
ATOM      4  C   UNL     1    -114.715  12.354  24.592  1.00  0.00     0.000 C 
BRANCH   4   5
ATOM      5  C   UNL     1    -113.260  12.035  24.966  1.00  0.00     0.000 C 
BRANCH   5   6
ATOM      6  C   UNL     1    -113.017  10.529  25.169  1.00  0.00     0.006 C 
BRANCH   6   7
ATOM      7  C   UNL     1    -111.847  10.012  24.321  1.00  0.00     0.053 C 
BRANCH   7   8
ATOM      8  C   UNL     1    -112.296   9.565  22.963  1.00  0.00     0.041 C 
ATOM      9  O   UNL     1    -113.509   9.307  22.750  1.00  0.00    -0.550 OA
ATOM     10  O   UNL     1    -111.368   9.403  21.941  1.00  0.00    -0.550 OA
ENDBRANCH   7   8
ENDBRANCH   6   7
ENDBRANCH   5   6
ENDBRANCH   4   5
ENDBRANCH   3   4
ENDBRANCH   2   3
ENDBRANCH   1   2
BRANCH   1  11
ATOM     11  C   UNL     1    -116.251  11.217  21.087  1.00  0.00     0.000 C 
BRANCH  11  12
ATOM     12  C   UNL     1    -116.932  12.081  20.011  1.00  0.00    -0.000 C 
BRANCH  12  13
ATOM     13  C   UNL     1    -118.300  12.623  20.458  1.00  0.00    -0.000 C 
BRANCH  13  14
ATOM     14  C   UNL     1    -118.388  14.154  20.359  1.00  0.00    -0.000 C 
BRANCH  14  15
ATOM     15  C   UNL     1    -118.562  14.823  21.733  1.00  0.00    -0.000 C 
BRANCH  15  16
ATOM     16  C   UNL     1    -119.261  13.910  22.757  1.00  0.00    -0.000 C 
BRANCH  16  17
ATOM     17  C   UNL     1    -118.697  13.996  24.187  1.00  0.00    -0.003 C 
ATOM     18  C   UNL     1    -117.496  14.935  24.300  1.00  0.00     0.004 C 
ENDBRANCH  16  17
ENDBRANCH  15  16
ENDBRANCH  14  15
ENDBRANCH  13  14
ENDBRANCH  12  13
ENDBRANCH  11  12
ENDBRANCH   1  11
TORSDOF 14
ENDMDL
MODEL 2
REMARK VINA RESULT:    -3.696      1.748      3.289
REMARK INTER + INTRA:          -8.755
REMARK INTER:                  -6.515
REMARK INTRA:                  -2.240
REMARK UNBOUND:                -2.033
REMARK SMILES CCCCCCCCCCCCCCCC(=O)[O-]
REMARK SMILES IDX 9 1 10 2 11 3 12 4 13 5 14 6 15 7 16 8 17 9 18 10 8 11 7 12
REMARK SMILES IDX 6 13 5 14 4 15 3 16 2 17 1 18
REMARK H PARENT
REMARK Flexibility Score: inf
ROOT
ATOM      1  C   UNL     1    -116.470  13.173  23.756  1.00  0.00     0.000 C 
ENDROOT
BRANCH   1   2
ATOM      2  C   UNL     1    -117.002  11.848  24.323  1.00  0.00     0.000 C 
BRANCH   2   3
ATOM      3  C   UNL     1    -116.811  10.702  23.322  1.00  0.00     0.000 C 
BRANCH   3   4
ATOM      4  C   UNL     1    -115.697  11.030  22.316  1.00  0.00     0.000 C 
BRANCH   4   5
ATOM      5  C   UNL     1    -114.578   9.978  22.307  1.00  0.00     0.000 C 
BRANCH   5   6
ATOM      6  C   UNL     1    -114.096   9.614  23.723  1.00  0.00     0.006 C 
BRANCH   6   7
ATOM      7  C   UNL     1    -112.791  10.331  24.093  1.00  0.00     0.053 C 
BRANCH   7   8
ATOM      8  C   UNL     1    -113.037  11.517  24.976  1.00  0.00     0.041 C 
ATOM      9  O   UNL     1    -113.899  11.457  25.891  1.00  0.00    -0.550 OA
ATOM     10  O   UNL     1    -112.336  12.698  24.767  1.00  0.00    -0.550 OA
ENDBRANCH   7   8
ENDBRANCH   6   7
ENDBRANCH   5   6
ENDBRANCH   4   5
ENDBRANCH   3   4
ENDBRANCH   2   3
ENDBRANCH   1   2
BRANCH   1  11
ATOM     11  C   UNL     1    -117.442  14.346  23.997  1.00  0.00     0.000 C 
BRANCH  11  12
ATOM     12  C   UNL     1    -118.859  13.899  24.397  1.00  0.00    -0.000 C 
BRANCH  12  13
ATOM     13  C   UNL     1    -119.917  14.247  23.337  1.00  0.00    -0.000 C 
BRANCH  13  14
ATOM     14  C   UNL     1    -119.413  15.284  22.321  1.00  0.00    -0.000 C 
BRANCH  14  15
ATOM     15  C   UNL     1    -119.691  14.866  20.867  1.00  0.00    -0.000 C 
BRANCH  15  16
ATOM     16  C   UNL     1    -118.405  14.556  20.080  1.00  0.00    -0.000 C 
BRANCH  16  17
ATOM     17  C   UNL     1    -117.802  13.166  20.355  1.00  0.00    -0.003 C 
ATOM     18  C   UNL     1    -118.860  12.068  20.473  1.00  0.00     0.004 C 
ENDBRANCH  16  17
ENDBRANCH  15  16
ENDBRANCH  14  15
ENDBRANCH  13  14
ENDBRANCH  12  13
ENDBRANCH  11  12
ENDBRANCH   1  11
TORSDOF 14
ENDMDL
MODEL 3
REMARK VINA RESULT:    -3.681      0.968      3.009
REMARK INTER + INTRA:          -8.726
REMARK INTER:                  -6.939
REMARK INTRA:                  -1.787
REMARK UNBOUND:                -2.033
REMARK SMILES CCCCCCCCCCCCCCCC(=O)[O-]
REMARK SMILES IDX 9 1 10 2 11 3 12 4 13 5 14 6 15 7 16 8 17 9 18 10 8 11 7 12
REMARK SMILES IDX 6 13 5 14 4 15 3 16 2 17 1 18
REMARK H PARENT
REMARK Flexibility Score: inf
ROOT
ATOM      1  C   UNL     1    -117.593  14.410  24.110  1.00  0.00     0.000 C 
ENDROOT
BRANCH   1   2
ATOM      2  C   UNL     1    -116.614  13.316  23.657  1.00  0.00     0.000 C 
BRANCH   2   3
ATOM      3  C   UNL     1    -116.889  11.994  24.384  1.00  0.00     0.000 C 
BRANCH   3   4
ATOM      4  C   UNL     1    -115.578  11.259  24.703  1.00  0.00     0.000 C 
BRANCH   4   5
ATOM      5  C   UNL     1    -114.350  12.180  24.635  1.00  0.00     0.000 C 
BRANCH   5   6
ATOM      6  C   UNL     1    -113.160  11.641  25.449  1.00  0.00     0.006 C 
BRANCH   6   7
ATOM      7  C   UNL     1    -112.764  10.221  25.022  1.00  0.00     0.053 C 
BRANCH   7   8
ATOM      8  C   UNL     1    -112.250  10.183  23.615  1.00  0.00     0.041 C 
ATOM      9  O   UNL     1    -112.858   9.516  22.737  1.00  0.00    -0.550 OA
ATOM     10  O   UNL     1    -111.082  10.858  23.281  1.00  0.00    -0.550 OA
ENDBRANCH   7   8
ENDBRANCH   6   7
ENDBRANCH   5   6
ENDBRANCH   4   5
ENDBRANCH   3   4
ENDBRANCH   2   3
ENDBRANCH   1   2
BRANCH   1  11
ATOM     11  C   UNL     1    -119.004  13.853  24.390  1.00  0.00     0.000 C 
BRANCH  11  12
ATOM     12  C   UNL     1    -120.078  14.385  23.425  1.00  0.00    -0.000 C 
BRANCH  12  13
ATOM     13  C   UNL     1    -119.487  15.203  22.266  1.00  0.00    -0.000 C 
BRANCH  13  14
ATOM     14  C   UNL     1    -119.590  14.474  20.917  1.00  0.00    -0.000 C 
BRANCH  14  15
ATOM     15  C   UNL     1    -118.225  13.982  20.408  1.00  0.00    -0.000 C 
BRANCH  15  16
ATOM     16  C   UNL     1    -118.090  12.449  20.451  1.00  0.00    -0.000 C 
BRANCH  16  17
ATOM     17  C   UNL     1    -116.717  11.910  20.008  1.00  0.00    -0.003 C 
ATOM     18  C   UNL     1    -116.160  10.845  20.952  1.00  0.00     0.004 C 
ENDBRANCH  16  17
ENDBRANCH  15  16
ENDBRANCH  14  15
ENDBRANCH  13  14
ENDBRANCH  12  13
ENDBRANCH  11  12
ENDBRANCH   1  11
TORSDOF 14
ENDMDL
MODEL 4
REMARK VINA RESULT:    -3.654      3.031      6.081
REMARK INTER + INTRA:          -8.678
REMARK INTER:                  -6.287
REMARK INTRA:                  -2.390
REMARK UNBOUND:                -2.033
REMARK SMILES CCCCCCCCCCCCCCCC(=O)[O-]
REMARK SMILES IDX 9 1 10 2 11 3 12 4 13 5 14 6 15 7 16 8 17 9 18 10 8 11 7 12
REMARK SMILES IDX 6 13 5 14 4 15 3 16 2 17 1 18
REMARK H PARENT
REMARK Flexibility Score: inf
ROOT
ATOM      1  C   UNL     1    -119.296  12.099  24.921  1.00  0.00     0.000 C 
ENDROOT
BRANCH   1   2
ATOM      2  C   UNL     1    -119.519  13.618  24.862  1.00  0.00     0.000 C 
BRANCH   2   3
ATOM      3  C   UNL     1    -118.228  14.352  24.482  1.00  0.00     0.000 C 
BRANCH   3   4
ATOM      4  C   UNL     1    -118.343  14.979  23.084  1.00  0.00     0.000 C 
BRANCH   4   5
ATOM      5  C   UNL     1    -119.787  14.996  22.559  1.00  0.00     0.000 C 
BRANCH   5   6
ATOM      6  C   UNL     1    -119.872  14.689  21.053  1.00  0.00     0.006 C 
BRANCH   6   7
ATOM      7  C   UNL     1    -118.518  14.859  20.350  1.00  0.00     0.053 C 
BRANCH   7   8
ATOM      8  C   UNL     1    -118.522  14.259  18.977  1.00  0.00     0.041 C 
ATOM      9  O   UNL     1    -119.352  14.651  18.117  1.00  0.00    -0.550 OA
ATOM     10  O   UNL     1    -117.629  13.243  18.659  1.00  0.00    -0.550 OA
ENDBRANCH   7   8
ENDBRANCH   6   7
ENDBRANCH   5   6
ENDBRANCH   4   5
ENDBRANCH   3   4
ENDBRANCH   2   3
ENDBRANCH   1   2
BRANCH   1  11
ATOM     11  C   UNL     1    -119.716  11.395  23.614  1.00  0.00     0.000 C 
BRANCH  11  12
ATOM     12  C   UNL     1    -118.560  10.661  22.911  1.00  0.00    -0.000 C 
BRANCH  12  13
ATOM     13  C   UNL     1    -117.954  11.471  21.754  1.00  0.00    -0.000 C 
BRANCH  13  14
ATOM     14  C   UNL     1    -116.507  11.908  22.035  1.00  0.00    -0.000 C 
BRANCH  14  15
ATOM     15  C   UNL     1    -115.925  11.241  23.293  1.00  0.00    -0.000 C 
BRANCH  15  16
ATOM     16  C   UNL     1    -115.290  12.253  24.264  1.00  0.00    -0.000 C 
BRANCH  16  17
ATOM     17  C   UNL     1    -114.220  11.662  25.200  1.00  0.00    -0.003 C 
ATOM     18  C   UNL     1    -112.820  12.216  24.933  1.00  0.00     0.004 C 
ENDBRANCH  16  17
ENDBRANCH  15  16
ENDBRANCH  14  15
ENDBRANCH  13  14
ENDBRANCH  12  13
ENDBRANCH  11  12
ENDBRANCH   1  11
TORSDOF 14
ENDMDL
MODEL 5
REMARK VINA RESULT:    -3.637      1.660      2.804
REMARK INTER + INTRA:          -8.647
REMARK INTER:                  -6.572
REMARK INTRA:                  -2.075
REMARK UNBOUND:                -2.033
REMARK SMILES CCCCCCCCCCCCCCCC(=O)[O-]
REMARK SMILES IDX 9 1 10 2 11 3 12 4 13 5 14 6 15 7 16 8 17 9 18 10 8 11 7 12
REMARK SMILES IDX 6 13 5 14 4 15 3 16 2 17 1 18
REMARK H PARENT
REMARK Flexibility Score: inf
ROOT
ATOM      1  C   UNL     1    -116.856  11.893  20.022  1.00  0.00     0.000 C 
ENDROOT
BRANCH   1   2
ATOM      2  C   UNL     1    -116.261  11.503  21.384  1.00  0.00     0.000 C 
BRANCH   2   3
ATOM      3  C   UNL     1    -115.349  10.277  21.258  1.00  0.00     0.000 C 
BRANCH   3   4
ATOM      4  C   UNL     1    -115.153   9.595  22.620  1.00  0.00     0.000 C 
BRANCH   4   5
ATOM      5  C   UNL     1    -116.058  10.183  23.714  1.00  0.00     0.000 C 
BRANCH   5   6
ATOM      6  C   UNL     1    -115.282  10.548  24.992  1.00  0.00     0.006 C 
BRANCH   6   7
ATOM      7  C   UNL     1    -114.556  11.894  24.864  1.00  0.00     0.053 C 
BRANCH   7   8
ATOM      8  C   UNL     1    -113.072  11.745  25.004  1.00  0.00     0.041 C 
ATOM      9  O   UNL     1    -112.582  10.672  25.445  1.00  0.00    -0.550 OA
ATOM     10  O   UNL     1    -112.232  12.803  24.679  1.00  0.00    -0.550 OA
ENDBRANCH   7   8
ENDBRANCH   6   7
ENDBRANCH   5   6
ENDBRANCH   4   5
ENDBRANCH   3   4
ENDBRANCH   2   3
ENDBRANCH   1   2
BRANCH   1  11
ATOM     11  C   UNL     1    -118.318  12.371  20.137  1.00  0.00     0.000 C 
BRANCH  11  12
ATOM     12  C   UNL     1    -118.572  13.739  19.479  1.00  0.00    -0.000 C 
BRANCH  12  13
ATOM     13  C   UNL     1    -118.495  14.905  20.477  1.00  0.00    -0.000 C 
BRANCH  13  14
ATOM     14  C   UNL     1    -119.814  15.120  21.235  1.00  0.00    -0.000 C 
BRANCH  14  15
ATOM     15  C   UNL     1    -119.665  14.899  22.750  1.00  0.00    -0.000 C 
BRANCH  15  16
ATOM     16  C   UNL     1    -118.202  14.685  23.181  1.00  0.00    -0.000 C 
BRANCH  16  17
ATOM     17  C   UNL     1    -117.947  13.391  23.975  1.00  0.00    -0.003 C 
ATOM     18  C   UNL     1    -119.061  12.358  23.807  1.00  0.00     0.004 C 
ENDBRANCH  16  17
ENDBRANCH  15  16
ENDBRANCH  14  15
ENDBRANCH  13  14
ENDBRANCH  12  13
ENDBRANCH  11  12
ENDBRANCH   1  11
TORSDOF 14
ENDMDL
MODEL 6
REMARK VINA RESULT:    -3.601      3.172      6.560
REMARK INTER + INTRA:          -8.582
REMARK INTER:                  -6.782
REMARK INTRA:                  -1.799
REMARK UNBOUND:                -2.033
REMARK SMILES CCCCCCCCCCCCCCCC(=O)[O-]
REMARK SMILES IDX 9 1 10 2 11 3 12 4 13 5 14 6 15 7 16 8 17 9 18 10 8 11 7 12
REMARK SMILES IDX 6 13 5 14 4 15 3 16 2 17 1 18
REMARK H PARENT
REMARK Flexibility Score: inf
ROOT
ATOM      1  C   UNL     1    -116.647  13.649  24.098  1.00  0.00     0.000 C 
ENDROOT
BRANCH   1   2
ATOM      2  C   UNL     1    -117.720  14.748  24.112  1.00  0.00     0.000 C 
BRANCH   2   3
ATOM      3  C   UNL     1    -119.101  14.167  24.439  1.00  0.00     0.000 C 
BRANCH   3   4
ATOM      4  C   UNL     1    -120.125  14.536  23.355  1.00  0.00     0.000 C 
BRANCH   4   5
ATOM      5  C   UNL     1    -119.494  15.298  22.179  1.00  0.00     0.000 C 
BRANCH   5   6
ATOM      6  C   UNL     1    -119.526  14.493  20.868  1.00  0.00     0.006 C 
BRANCH   6   7
ATOM      7  C   UNL     1    -118.196  14.577  20.105  1.00  0.00     0.053 C 
BRANCH   7   8
ATOM      8  C   UNL     1    -118.388  14.406  18.629  1.00  0.00     0.041 C 
ATOM      9  O   UNL     1    -117.482  14.758  17.828  1.00  0.00    -0.550 OA
ATOM     10  O   UNL     1    -119.579  13.889  18.136  1.00  0.00    -0.550 OA
ENDBRANCH   7   8
ENDBRANCH   6   7
ENDBRANCH   5   6
ENDBRANCH   4   5
ENDBRANCH   3   4
ENDBRANCH   2   3
ENDBRANCH   1   2
BRANCH   1  11
ATOM     11  C   UNL     1    -117.180  12.317  23.532  1.00  0.00     0.000 C 
BRANCH  11  12
ATOM     12  C   UNL     1    -116.502  11.893  22.216  1.00  0.00    -0.000 C 
BRANCH  12  13
ATOM     13  C   UNL     1    -115.493  10.749  22.406  1.00  0.00    -0.000 C 
BRANCH  13  14
ATOM     14  C   UNL     1    -115.741   9.953  23.697  1.00  0.00    -0.000 C 
BRANCH  14  15
ATOM     15  C   UNL     1    -114.498   9.899  24.602  1.00  0.00    -0.000 C 
BRANCH  15  16
ATOM     16  C   UNL     1    -114.303  11.186  25.425  1.00  0.00    -0.000 C 
BRANCH  16  17
ATOM     17  C   UNL     1    -113.067  12.018  25.035  1.00  0.00    -0.003 C 
ATOM     18  C   UNL     1    -112.068  11.238  24.181  1.00  0.00     0.004 C 
ENDBRANCH  16  17
ENDBRANCH  15  16
ENDBRANCH  14  15
ENDBRANCH  13  14
ENDBRANCH  12  13
ENDBRANCH  11  12
ENDBRANCH   1  11
TORSDOF 14
ENDMDL
MODEL 7
REMARK VINA RESULT:    -3.552      1.542      2.228
REMARK INTER + INTRA:          -8.492
REMARK INTER:                  -6.262
REMARK INTRA:                  -2.229
REMARK UNBOUND:                -2.033
REMARK SMILES CCCCCCCCCCCCCCCC(=O)[O-]
REMARK SMILES IDX 9 1 10 2 11 3 12 4 13 5 14 6 15 7 16 8 17 9 18 10 8 11 7 12
REMARK SMILES IDX 6 13 5 14 4 15 3 16 2 17 1 18
REMARK H PARENT
REMARK Flexibility Score: inf
ROOT
ATOM      1  C   UNL     1    -114.937   9.652  21.229  1.00  0.00     0.000 C 
ENDROOT
BRANCH   1   2
ATOM      2  C   UNL     1    -115.048   9.230  22.702  1.00  0.00     0.000 C 
BRANCH   2   3
ATOM      3  C   UNL     1    -116.437   9.553  23.266  1.00  0.00     0.000 C 
BRANCH   3   4
ATOM      4  C   UNL     1    -116.347  10.607  24.380  1.00  0.00     0.000 C 
BRANCH   4   5
ATOM      5  C   UNL     1    -115.739  11.932  23.895  1.00  0.00     0.000 C 
BRANCH   5   6
ATOM      6  C   UNL     1    -114.527  12.371  24.736  1.00  0.00     0.006 C 
BRANCH   6   7
ATOM      7  C   UNL     1    -113.984  11.230  25.606  1.00  0.00     0.053 C 
BRANCH   7   8
ATOM      8  C   UNL     1    -112.667  10.721  25.102  1.00  0.00     0.041 C 
ATOM      9  O   UNL     1    -112.130   9.716  25.637  1.00  0.00    -0.550 OA
ATOM     10  O   UNL     1    -112.019  11.376  24.062  1.00  0.00    -0.550 OA
ENDBRANCH   7   8
ENDBRANCH   6   7
ENDBRANCH   5   6
ENDBRANCH   4   5
ENDBRANCH   3   4
ENDBRANCH   2   3
ENDBRANCH   1   2
BRANCH   1  11
ATOM     11  C   UNL     1    -116.311   9.986  20.611  1.00  0.00     0.000 C 
BRANCH  11  12
ATOM     12  C   UNL     1    -116.337  11.329  19.858  1.00  0.00    -0.000 C 
BRANCH  12  13
ATOM     13  C   UNL     1    -117.245  12.372  20.528  1.00  0.00    -0.000 C 
BRANCH  13  14
ATOM     14  C   UNL     1    -118.448  11.734  21.241  1.00  0.00    -0.000 C 
BRANCH  14  15
ATOM     15  C   UNL     1    -119.072  12.667  22.293  1.00  0.00    -0.000 C 
BRANCH  15  16
ATOM     16  C   UNL     1    -118.479  14.087  22.257  1.00  0.00    -0.000 C 
BRANCH  16  17
ATOM     17  C   UNL     1    -118.667  14.896  23.554  1.00  0.00    -0.003 C 
ATOM     18  C   UNL     1    -117.356  15.140  24.301  1.00  0.00     0.004 C 
ENDBRANCH  16  17
ENDBRANCH  15  16
ENDBRANCH  14  15
ENDBRANCH  13  14
ENDBRANCH  12  13
ENDBRANCH  11  12
ENDBRANCH   1  11
TORSDOF 14
ENDMDL
MODEL 8
REMARK VINA RESULT:    -3.415      2.279      4.730
REMARK INTER + INTRA:          -8.243
REMARK INTER:                  -6.446
REMARK INTRA:                  -1.797
REMARK UNBOUND:                -2.033
REMARK SMILES CCCCCCCCCCCCCCCC(=O)[O-]
REMARK SMILES IDX 9 1 10 2 11 3 12 4 13 5 14 6 15 7 16 8 17 9 18 10 8 11 7 12
REMARK SMILES IDX 6 13 5 14 4 15 3 16 2 17 1 18
REMARK H PARENT
REMARK Flexibility Score: inf
ROOT
ATOM      1  C   UNL     1    -111.879  11.104  24.125  1.00  0.00     0.000 C 
ENDROOT
BRANCH   1   2
ATOM      2  C   UNL     1    -112.446   9.753  23.662  1.00  0.00     0.000 C 
BRANCH   2   3
ATOM      3  C   UNL     1    -112.156   9.513  22.175  1.00  0.00     0.000 C 
BRANCH   3   4
ATOM      4  C   UNL     1    -113.414   9.026  21.440  1.00  0.00     0.000 C 
BRANCH   4   5
ATOM      5  C   UNL     1    -114.626   8.879  22.374  1.00  0.00     0.000 C 
BRANCH   5   6
ATOM      6  C   UNL     1    -115.909   9.484  21.778  1.00  0.00     0.006 C 
BRANCH   6   7
ATOM      7  C   UNL     1    -115.627  10.757  20.968  1.00  0.00     0.053 C 
BRANCH   7   8
ATOM      8  C   UNL     1    -116.849  11.245  20.251  1.00  0.00     0.041 C 
ATOM      9  O   UNL     1    -116.753  11.720  19.089  1.00  0.00    -0.550 OA
ATOM     10  O   UNL     1    -118.088  11.205  20.878  1.00  0.00    -0.550 OA
ENDBRANCH   7   8
ENDBRANCH   6   7
ENDBRANCH   5   6
ENDBRANCH   4   5
ENDBRANCH   3   4
ENDBRANCH   2   3
ENDBRANCH   1   2
BRANCH   1  11
ATOM     11  C   UNL     1    -112.929  11.953  24.871  1.00  0.00     0.000 C 
BRANCH  11  12
ATOM     12  C   UNL     1    -114.059  11.121  25.502  1.00  0.00    -0.000 C 
BRANCH  12  13
ATOM     13  C   UNL     1    -115.433  11.409  24.876  1.00  0.00    -0.000 C 
BRANCH  13  14
ATOM     14  C   UNL     1    -115.472  12.752  24.131  1.00  0.00    -0.000 C 
BRANCH  14  15
ATOM     15  C   UNL     1    -116.872  13.087  23.591  1.00  0.00    -0.000 C 
BRANCH  15  16
ATOM     16  C   UNL     1    -117.358  14.484  24.019  1.00  0.00    -0.000 C 
BRANCH  16  17
ATOM     17  C   UNL     1    -118.820  14.798  23.650  1.00  0.00    -0.003 C 
ATOM     18  C   UNL     1    -119.049  14.886  22.141  1.00  0.00     0.004 C 
ENDBRANCH  16  17
ENDBRANCH  15  16
ENDBRANCH  14  15
ENDBRANCH  13  14
ENDBRANCH  12  13
ENDBRANCH  11  12
ENDBRANCH   1  11
TORSDOF 14
ENDMDL
MODEL 9
REMARK VINA RESULT:    -3.386      2.177      6.340
REMARK INTER + INTRA:          -8.190
REMARK INTER:                  -6.690
REMARK INTRA:                  -1.499
REMARK UNBOUND:                -2.033
REMARK SMILES CCCCCCCCCCCCCCCC(=O)[O-]
REMARK SMILES IDX 9 1 10 2 11 3 12 4 13 5 14 6 15 7 16 8 17 9 18 10 8 11 7 12
REMARK SMILES IDX 6 13 5 14 4 15 3 16 2 17 1 18
REMARK H PARENT
REMARK Flexibility Score: inf
ROOT
ATOM      1  C   UNL     1    -117.930  14.850  24.078  1.00  0.00     0.000 C 
ENDROOT
BRANCH   1   2
ATOM      2  C   UNL     1    -119.070  14.243  23.246  1.00  0.00     0.000 C 
BRANCH   2   3
ATOM      3  C   UNL     1    -119.621  15.260  22.238  1.00  0.00     0.000 C 
BRANCH   3   4
ATOM      4  C   UNL     1    -119.533  14.716  20.804  1.00  0.00     0.000 C 
BRANCH   4   5
ATOM      5  C   UNL     1    -118.098  14.353  20.394  1.00  0.00     0.000 C 
BRANCH   5   6
ATOM      6  C   UNL     1    -118.051  13.345  19.233  1.00  0.00     0.006 C 
BRANCH   6   7
ATOM      7  C   UNL     1    -117.272  12.074  19.600  1.00  0.00     0.053 C 
BRANCH   7   8
ATOM      8  C   UNL     1    -118.148  11.052  20.258  1.00  0.00     0.041 C 
ATOM      9  O   UNL     1    -117.637  10.121  20.934  1.00  0.00    -0.550 OA
ATOM     10  O   UNL     1    -119.527  11.110  20.099  1.00  0.00    -0.550 OA
ENDBRANCH   7   8
ENDBRANCH   6   7
ENDBRANCH   5   6
ENDBRANCH   4   5
ENDBRANCH   3   4
ENDBRANCH   2   3
ENDBRANCH   1   2
BRANCH   1  11
ATOM     11  C   UNL     1    -116.682  13.944  24.110  1.00  0.00     0.000 C 
BRANCH  11  12
ATOM     12  C   UNL     1    -116.848  12.640  23.309  1.00  0.00    -0.000 C 
BRANCH  12  13
ATOM     13  C   UNL     1    -115.684  11.658  23.520  1.00  0.00    -0.000 C 
BRANCH  13  14
ATOM     14  C   UNL     1    -114.647  12.181  24.526  1.00  0.00    -0.000 C 
BRANCH  14  15
ATOM     15  C   UNL     1    -114.233  11.114  25.553  1.00  0.00    -0.000 C 
BRANCH  15  16
ATOM     16  C   UNL     1    -112.765  10.675  25.400  1.00  0.00    -0.000 C 
BRANCH  16  17
ATOM     17  C   UNL     1    -112.073  11.181  24.120  1.00  0.00    -0.003 C 
ATOM     18  C   UNL     1    -111.745  10.059  23.135  1.00  0.00     0.004 C 
ENDBRANCH  16  17
ENDBRANCH  15  16
ENDBRANCH  14  15
ENDBRANCH  13  14
ENDBRANCH  12  13
ENDBRANCH  11  12
ENDBRANCH   1  11
TORSDOF 14
ENDMDL
