MODEL 1
REMARK VINA RESULT:    -4.313      0.000      0.000
REMARK INTER + INTRA:         -12.351
REMARK INTER:                  -9.356
REMARK INTRA:                  -2.995
REMARK UNBOUND:                -2.995
REMARK SMILES CCCCCCCCCCCCCCCCCCCCCC(=O)[O-]
REMARK SMILES IDX 12 1 11 2 10 3 9 4 8 5 7 6 6 7 5 8 4 9 3 10 2 11 1 12 13 13
REMARK SMILES IDX 14 14 15 15 16 16 17 17 18 18 19 19 20 20 21 21 22 22 23 23
REMARK SMILES IDX 24 24
REMARK H PARENT
REMARK Flexibility Score: inf
ROOT
ATOM      1  C   UNL     1      20.401  -1.527  17.246  1.00  0.00     0.000 C 
ENDROOT
BRANCH   1   2
ATOM      2  C   UNL     1      21.779  -1.970  17.765  1.00  0.00     0.000 C 
BRANCH   2   3
ATOM      3  C   UNL     1      22.372  -3.144  16.967  1.00  0.00     0.000 C 
BRANCH   3   4
ATOM      4  C   UNL     1      23.664  -2.787  16.203  1.00  0.00    -0.000 C 
BRANCH   4   5
ATOM      5  C   UNL     1      23.506  -2.968  14.684  1.00  0.00    -0.000 C 
BRANCH   5   6
ATOM      6  C   UNL     1      22.059  -2.756  14.209  1.00  0.00    -0.000 C 
BRANCH   6   7
ATOM      7  C   UNL     1      21.930  -1.579  13.224  1.00  0.00    -0.000 C 
BRANCH   7   8
ATOM      8  C   UNL     1      20.509  -0.995  13.181  1.00  0.00    -0.000 C 
BRANCH   8   9
ATOM      9  C   UNL     1      19.447  -1.989  13.677  1.00  0.00    -0.000 C 
BRANCH   9  10
ATOM     10  C   UNL     1      18.324  -2.209  12.650  1.00  0.00    -0.000 C 
BRANCH  10  11
ATOM     11  C   UNL     1      18.641  -1.576  11.286  1.00  0.00    -0.003 C 
ATOM     12  C   UNL     1      17.391  -0.960  10.663  1.00  0.00     0.004 C 
ENDBRANCH  10  11
ENDBRANCH   9  10
ENDBRANCH   8   9
ENDBRANCH   7   8
ENDBRANCH   6   7
ENDBRANCH   5   6
ENDBRANCH   4   5
ENDBRANCH   3   4
ENDBRANCH   2   3
ENDBRANCH   1   2
BRANCH   1  13
ATOM     13  C   UNL     1      20.377  -0.058  16.788  1.00  0.00     0.000 C 
BRANCH  13  14
ATOM     14  C   UNL     1      21.711   0.703  16.931  1.00  0.00     0.000 C 
BRANCH  14  15
ATOM     15  C   UNL     1      22.331   1.191  15.610  1.00  0.00     0.000 C 
BRANCH  15  16
ATOM     16  C   UNL     1      23.804   0.784  15.455  1.00  0.00     0.000 C 
BRANCH  16  17
ATOM     17  C   UNL     1      24.713   2.018  15.412  1.00  0.00     0.000 C 
BRANCH  17  18
ATOM     18  C   UNL     1      24.069   3.149  14.601  1.00  0.00     0.000 C 
BRANCH  18  19
ATOM     19  C   UNL     1      24.445   4.523  15.175  1.00  0.00     0.000 C 
BRANCH  19  20
ATOM     20  C   UNL     1      24.882   5.522  14.091  1.00  0.00     0.006 C 
BRANCH  20  21
ATOM     21  C   UNL     1      24.329   5.171  12.702  1.00  0.00     0.053 C 
BRANCH  21  22
ATOM     22  C   UNL     1      23.091   5.960  12.408  1.00  0.00     0.041 C 
ATOM     23  O   UNL     1      22.084   5.393  11.908  1.00  0.00    -0.550 OA
ATOM     24  O   UNL     1      23.048   7.321  12.688  1.00  0.00    -0.550 OA
ENDBRANCH  21  22
ENDBRANCH  20  21
ENDBRANCH  19  20
ENDBRANCH  18  19
ENDBRANCH  17  18
ENDBRANCH  16  17
ENDBRANCH  15  16
ENDBRANCH  14  15
ENDBRANCH  13  14
ENDBRANCH   1  13
TORSDOF 20
ENDMDL
MODEL 2
REMARK VINA RESULT:    -4.270      2.692      6.463
REMARK INTER + INTRA:         -12.257
REMARK INTER:                  -8.651
REMARK INTRA:                  -3.606
REMARK UNBOUND:                -2.995
REMARK SMILES CCCCCCCCCCCCCCCCCCCCCC(=O)[O-]
REMARK SMILES IDX 12 1 11 2 10 3 9 4 8 5 7 6 6 7 5 8 4 9 3 10 2 11 1 12 13 13
REMARK SMILES IDX 14 14 15 15 16 16 17 17 18 18 19 19 20 20 21 21 22 22 23 23
REMARK SMILES IDX 24 24
REMARK H PARENT
REMARK Flexibility Score: inf
ROOT
ATOM      1  C   UNL     1      19.784  -0.686  17.347  1.00  0.00     0.000 C 
ENDROOT
BRANCH   1   2
ATOM      2  C   UNL     1      20.835   0.310  16.828  1.00  0.00     0.000 C 
BRANCH   2   3
ATOM      3  C   UNL     1      21.793   0.797  17.929  1.00  0.00     0.000 C 
BRANCH   3   4
ATOM      4  C   UNL     1      23.286   0.649  17.564  1.00  0.00    -0.000 C 
BRANCH   4   5
ATOM      5  C   UNL     1      23.810   1.859  16.774  1.00  0.00    -0.000 C 
BRANCH   5   6
ATOM      6  C   UNL     1      24.220   1.496  15.338  1.00  0.00    -0.000 C 
BRANCH   6   7
ATOM      7  C   UNL     1      23.207   1.999  14.292  1.00  0.00    -0.000 C 
BRANCH   7   8
ATOM      8  C   UNL     1      22.294   3.109  14.837  1.00  0.00    -0.000 C 
BRANCH   8   9
ATOM      9  C   UNL     1      22.351   4.390  13.989  1.00  0.00    -0.000 C 
BRANCH   9  10
ATOM     10  C   UNL     1      23.056   4.171  12.641  1.00  0.00    -0.000 C 
BRANCH  10  11
ATOM     11  C   UNL     1      24.253   5.115  12.441  1.00  0.00    -0.003 C 
ATOM     12  C   UNL     1      24.941   5.416  13.770  1.00  0.00     0.004 C 
ENDBRANCH  10  11
ENDBRANCH   9  10
ENDBRANCH   8   9
ENDBRANCH   7   8
ENDBRANCH   6   7
ENDBRANCH   5   6
ENDBRANCH   4   5
ENDBRANCH   3   4
ENDBRANCH   2   3
ENDBRANCH   1   2
BRANCH   1  13
ATOM     13  C   UNL     1      20.409  -1.962  17.938  1.00  0.00     0.000 C 
BRANCH  13  14
ATOM     14  C   UNL     1      20.604  -3.126  16.945  1.00  0.00     0.000 C 
BRANCH  14  15
ATOM     15  C   UNL     1      21.967  -3.836  17.028  1.00  0.00     0.000 C 
BRANCH  15  16
ATOM     16  C   UNL     1      23.148  -2.899  16.736  1.00  0.00     0.000 C 
BRANCH  16  17
ATOM     17  C   UNL     1      23.564  -2.982  15.262  1.00  0.00     0.000 C 
BRANCH  17  18
ATOM     18  C   UNL     1      23.015  -1.791  14.466  1.00  0.00     0.000 C 
BRANCH  18  19
ATOM     19  C   UNL     1      21.877  -2.230  13.532  1.00  0.00     0.000 C 
BRANCH  19  20
ATOM     20  C   UNL     1      20.676  -1.272  13.568  1.00  0.00     0.006 C 
BRANCH  20  21
ATOM     21  C   UNL     1      19.337  -2.004  13.736  1.00  0.00     0.053 C 
BRANCH  21  22
ATOM     22  C   UNL     1      18.590  -2.051  12.439  1.00  0.00     0.041 C 
ATOM     23  O   UNL     1      17.535  -2.732  12.342  1.00  0.00    -0.550 OA
ATOM     24  O   UNL     1      19.057  -1.341  11.339  1.00  0.00    -0.550 OA
ENDBRANCH  21  22
ENDBRANCH  20  21
ENDBRANCH  19  20
ENDBRANCH  18  19
ENDBRANCH  17  18
ENDBRANCH  16  17
ENDBRANCH  15  16
ENDBRANCH  14  15
ENDBRANCH  13  14
ENDBRANCH   1  13
TORSDOF 20
ENDMDL
MODEL 3
REMARK VINA RESULT:    -4.258      2.712      6.036
REMARK INTER + INTRA:         -12.231
REMARK INTER:                  -8.439
REMARK INTRA:                  -3.792
REMARK UNBOUND:                -2.995
REMARK SMILES CCCCCCCCCCCCCCCCCCCCCC(=O)[O-]
REMARK SMILES IDX 12 1 11 2 10 3 9 4 8 5 7 6 6 7 5 8 4 9 3 10 2 11 1 12 13 13
REMARK SMILES IDX 14 14 15 15 16 16 17 17 18 18 19 19 20 20 21 21 22 22 23 23
REMARK SMILES IDX 24 24
REMARK H PARENT
REMARK Flexibility Score: inf
ROOT
ATOM      1  C   UNL     1      20.473  -5.056  18.441  1.00  0.00     0.000 C 
ENDROOT
BRANCH   1   2
ATOM      2  C   UNL     1      19.691  -4.102  17.523  1.00  0.00     0.000 C 
BRANCH   2   3
ATOM      3  C   UNL     1      20.438  -2.784  17.253  1.00  0.00     0.000 C 
BRANCH   3   4
ATOM      4  C   UNL     1      20.963  -2.095  18.531  1.00  0.00    -0.000 C 
BRANCH   4   5
ATOM      5  C   UNL     1      21.231  -0.597  18.310  1.00  0.00    -0.000 C 
BRANCH   5   6
ATOM      6  C   UNL     1      20.499  -0.040  17.078  1.00  0.00    -0.000 C 
BRANCH   6   7
ATOM      7  C   UNL     1      21.237   1.155  16.446  1.00  0.00    -0.000 C 
BRANCH   7   8
ATOM      8  C   UNL     1      22.763   1.062  16.606  1.00  0.00    -0.000 C 
BRANCH   8   9
ATOM      9  C   UNL     1      23.491   0.920  15.260  1.00  0.00    -0.000 C 
BRANCH   9  10
ATOM     10  C   UNL     1      22.728   1.592  14.107  1.00  0.00    -0.000 C 
BRANCH  10  11
ATOM     11  C   UNL     1      23.176   3.043  13.871  1.00  0.00    -0.003 C 
ATOM     12  C   UNL     1      22.284   3.733  12.843  1.00  0.00     0.004 C 
ENDBRANCH  10  11
ENDBRANCH   9  10
ENDBRANCH   8   9
ENDBRANCH   7   8
ENDBRANCH   6   7
ENDBRANCH   5   6
ENDBRANCH   4   5
ENDBRANCH   3   4
ENDBRANCH   2   3
ENDBRANCH   1   2
BRANCH   1  13
ATOM     13  C   UNL     1      21.685  -5.699  17.744  1.00  0.00     0.000 C 
BRANCH  13  14
ATOM     14  C   UNL     1      23.050  -5.432  18.409  1.00  0.00     0.000 C 
BRANCH  14  15
ATOM     15  C   UNL     1      24.109  -4.790  17.494  1.00  0.00     0.000 C 
BRANCH  15  16
ATOM     16  C   UNL     1      24.285  -3.285  17.748  1.00  0.00     0.000 C 
BRANCH  16  17
ATOM     17  C   UNL     1      24.069  -2.482  16.460  1.00  0.00     0.000 C 
BRANCH  17  18
ATOM     18  C   UNL     1      23.560  -3.383  15.328  1.00  0.00     0.000 C 
BRANCH  18  19
ATOM     19  C   UNL     1      22.970  -2.548  14.181  1.00  0.00     0.000 C 
BRANCH  19  20
ATOM     20  C   UNL     1      21.455  -2.750  14.016  1.00  0.00     0.006 C 
BRANCH  20  21
ATOM     21  C   UNL     1      20.709  -1.438  13.735  1.00  0.00     0.053 C 
BRANCH  21  22
ATOM     22  C   UNL     1      20.470  -1.266  12.267  1.00  0.00     0.041 C 
ATOM     23  O   UNL     1      21.384  -0.816  11.526  1.00  0.00    -0.550 OA
ATOM     24  O   UNL     1      19.240  -1.606  11.716  1.00  0.00    -0.550 OA
ENDBRANCH  21  22
ENDBRANCH  20  21
ENDBRANCH  19  20
ENDBRANCH  18  19
ENDBRANCH  17  18
ENDBRANCH  16  17
ENDBRANCH  15  16
ENDBRANCH  14  15
ENDBRANCH  13  14
ENDBRANCH   1  13
TORSDOF 20
ENDMDL
MODEL 4
REMARK VINA RESULT:    -4.225      3.402      7.237
REMARK INTER + INTRA:         -12.159
REMARK INTER:                  -8.655
REMARK INTRA:                  -3.504
REMARK UNBOUND:                -2.995
REMARK SMILES CCCCCCCCCCCCCCCCCCCCCC(=O)[O-]
REMARK SMILES IDX 12 1 11 2 10 3 9 4 8 5 7 6 6 7 5 8 4 9 3 10 2 11 1 12 13 13
REMARK SMILES IDX 14 14 15 15 16 16 17 17 18 18 19 19 20 20 21 21 22 22 23 23
REMARK SMILES IDX 24 24
REMARK H PARENT
REMARK Flexibility Score: inf
ROOT
ATOM      1  C   UNL     1      23.612  -2.094  15.060  1.00  0.00     0.000 C 
ENDROOT
BRANCH   1   2
ATOM      2  C   UNL     1      23.670  -3.410  15.853  1.00  0.00     0.000 C 
BRANCH   2   3
ATOM      3  C   UNL     1      22.792  -3.388  17.116  1.00  0.00     0.000 C 
BRANCH   3   4
ATOM      4  C   UNL     1      21.467  -4.164  16.965  1.00  0.00    -0.000 C 
BRANCH   4   5
ATOM      5  C   UNL     1      20.328  -3.267  16.451  1.00  0.00    -0.000 C 
BRANCH   5   6
ATOM      6  C   UNL     1      20.197  -1.960  17.249  1.00  0.00    -0.000 C 
BRANCH   6   7
ATOM      7  C   UNL     1      20.051  -0.726  16.339  1.00  0.00    -0.000 C 
BRANCH   7   8
ATOM      8  C   UNL     1      20.785   0.507  16.889  1.00  0.00    -0.000 C 
BRANCH   8   9
ATOM      9  C   UNL     1      22.001   0.134  17.753  1.00  0.00    -0.000 C 
BRANCH   9  10
ATOM     10  C   UNL     1      23.301   0.776  17.244  1.00  0.00    -0.000 C 
BRANCH  10  11
ATOM     11  C   UNL     1      23.046   1.885  16.210  1.00  0.00    -0.003 C 
ATOM     12  C   UNL     1      23.985   1.747  15.016  1.00  0.00     0.004 C 
ENDBRANCH  10  11
ENDBRANCH   9  10
ENDBRANCH   8   9
ENDBRANCH   7   8
ENDBRANCH   6   7
ENDBRANCH   5   6
ENDBRANCH   4   5
ENDBRANCH   3   4
ENDBRANCH   2   3
ENDBRANCH   1   2
BRANCH   1  13
ATOM     13  C   UNL     1      22.702  -2.180  13.822  1.00  0.00     0.000 C 
BRANCH  13  14
ATOM     14  C   UNL     1      21.896  -0.906  13.501  1.00  0.00     0.000 C 
BRANCH  14  15
ATOM     15  C   UNL     1      21.361  -0.815  12.060  1.00  0.00     0.000 C 
BRANCH  15  16
ATOM     16  C   UNL     1      20.378  -1.943  11.716  1.00  0.00     0.000 C 
BRANCH  16  17
ATOM     17  C   UNL     1      19.176  -1.934  12.669  1.00  0.00     0.000 C 
BRANCH  17  18
ATOM     18  C   UNL     1      18.770  -3.362  13.057  1.00  0.00     0.000 C 
BRANCH  18  19
ATOM     19  C   UNL     1      17.292  -3.621  12.732  1.00  0.00     0.000 C 
BRANCH  19  20
ATOM     20  C   UNL     1      16.499  -2.327  12.487  1.00  0.00     0.006 C 
BRANCH  20  21
ATOM     21  C   UNL     1      15.699  -2.359  11.178  1.00  0.00     0.053 C 
BRANCH  21  22
ATOM     22  C   UNL     1      16.616  -2.349   9.994  1.00  0.00     0.041 C 
ATOM     23  O   UNL     1      17.306  -1.327   9.738  1.00  0.00    -0.550 OA
ATOM     24  O   UNL     1      16.711  -3.468   9.175  1.00  0.00    -0.550 OA
ENDBRANCH  21  22
ENDBRANCH  20  21
ENDBRANCH  19  20
ENDBRANCH  18  19
ENDBRANCH  17  18
ENDBRANCH  16  17
ENDBRANCH  15  16
ENDBRANCH  14  15
ENDBRANCH  13  14
ENDBRANCH   1  13
TORSDOF 20
ENDMDL
MODEL 5
REMARK VINA RESULT:    -4.222      3.608      7.783
REMARK INTER + INTRA:         -12.154
REMARK INTER:                  -9.467
REMARK INTRA:                  -2.687
REMARK UNBOUND:                -2.995
REMARK SMILES CCCCCCCCCCCCCCCCCCCCCC(=O)[O-]
REMARK SMILES IDX 12 1 11 2 10 3 9 4 8 5 7 6 6 7 5 8 4 9 3 10 2 11 1 12 13 13
REMARK SMILES IDX 14 14 15 15 16 16 17 17 18 18 19 19 20 20 21 21 22 22 23 23
REMARK SMILES IDX 24 24
REMARK H PARENT
REMARK Flexibility Score: inf
ROOT
ATOM      1  C   UNL     1      21.435  -0.048  13.341  1.00  0.00     0.000 C 
ENDROOT
BRANCH   1   2
ATOM      2  C   UNL     1      21.915   1.403  13.169  1.00  0.00     0.000 C 
BRANCH   2   3
ATOM      3  C   UNL     1      22.821   1.874  14.320  1.00  0.00     0.000 C 
BRANCH   3   4
ATOM      4  C   UNL     1      23.474   0.719  15.109  1.00  0.00    -0.000 C 
BRANCH   4   5
ATOM      5  C   UNL     1      23.118   0.768  16.605  1.00  0.00    -0.000 C 
BRANCH   5   6
ATOM      6  C   UNL     1      21.601   0.733  16.854  1.00  0.00    -0.000 C 
BRANCH   6   7
ATOM      7  C   UNL     1      21.115  -0.649  17.330  1.00  0.00    -0.000 C 
BRANCH   7   8
ATOM      8  C   UNL     1      20.365  -1.424  16.235  1.00  0.00    -0.000 C 
BRANCH   8   9
ATOM      9  C   UNL     1      21.067  -2.738  15.856  1.00  0.00    -0.000 C 
BRANCH   9  10
ATOM     10  C   UNL     1      22.370  -2.955  16.642  1.00  0.00    -0.000 C 
BRANCH  10  11
ATOM     11  C   UNL     1      23.587  -3.149  15.722  1.00  0.00    -0.003 C 
ATOM     12  C   UNL     1      23.229  -2.847  14.269  1.00  0.00     0.004 C 
ENDBRANCH  10  11
ENDBRANCH   9  10
ENDBRANCH   8   9
ENDBRANCH   7   8
ENDBRANCH   6   7
ENDBRANCH   5   6
ENDBRANCH   4   5
ENDBRANCH   3   4
ENDBRANCH   2   3
ENDBRANCH   1   2
BRANCH   1  13
ATOM     13  C   UNL     1      21.222  -0.770  11.998  1.00  0.00     0.000 C 
BRANCH  13  14
ATOM     14  C   UNL     1      19.780  -1.239  11.720  1.00  0.00     0.000 C 
BRANCH  14  15
ATOM     15  C   UNL     1      19.455  -2.669  12.190  1.00  0.00     0.000 C 
BRANCH  15  16
ATOM     16  C   UNL     1      17.991  -2.835  12.625  1.00  0.00     0.000 C 
BRANCH  16  17
ATOM     17  C   UNL     1      17.157  -3.483  11.513  1.00  0.00     0.000 C 
BRANCH  17  18
ATOM     18  C   UNL     1      15.854  -2.709  11.280  1.00  0.00     0.000 C 
BRANCH  18  19
ATOM     19  C   UNL     1      16.027  -1.221  11.618  1.00  0.00     0.000 C 
BRANCH  19  20
ATOM     20  C   UNL     1      15.737  -0.301  10.421  1.00  0.00     0.006 C 
BRANCH  20  21
ATOM     21  C   UNL     1      14.628  -0.845   9.509  1.00  0.00     0.053 C 
BRANCH  21  22
ATOM     22  C   UNL     1      13.716   0.257   9.066  1.00  0.00     0.041 C 
ATOM     23  O   UNL     1      13.775   1.387   9.619  1.00  0.00    -0.550 OA
ATOM     24  O   UNL     1      12.803   0.037   8.041  1.00  0.00    -0.550 OA
ENDBRANCH  21  22
ENDBRANCH  20  21
ENDBRANCH  19  20
ENDBRANCH  18  19
ENDBRANCH  17  18
ENDBRANCH  16  17
ENDBRANCH  15  16
ENDBRANCH  14  15
ENDBRANCH  13  14
ENDBRANCH   1  13
TORSDOF 20
ENDMDL
MODEL 6
REMARK VINA RESULT:    -4.162      3.821      7.644
REMARK INTER + INTRA:         -12.024
REMARK INTER:                  -8.135
REMARK INTRA:                  -3.889
REMARK UNBOUND:                -2.995
REMARK SMILES CCCCCCCCCCCCCCCCCCCCCC(=O)[O-]
REMARK SMILES IDX 12 1 11 2 10 3 9 4 8 5 7 6 6 7 5 8 4 9 3 10 2 11 1 12 13 13
REMARK SMILES IDX 14 14 15 15 16 16 17 17 18 18 19 19 20 20 21 21 22 22 23 23
REMARK SMILES IDX 24 24
REMARK H PARENT
REMARK Flexibility Score: inf
ROOT
ATOM      1  C   UNL     1      23.061   1.292  16.499  1.00  0.00     0.000 C 
ENDROOT
BRANCH   1   2
ATOM      2  C   UNL     1      21.681   1.952  16.649  1.00  0.00     0.000 C 
BRANCH   2   3
ATOM      3  C   UNL     1      21.767   3.463  16.932  1.00  0.00     0.000 C 
BRANCH   3   4
ATOM      4  C   UNL     1      23.210   3.980  17.108  1.00  0.00    -0.000 C 
BRANCH   4   5
ATOM      5  C   UNL     1      23.371   5.424  16.605  1.00  0.00    -0.000 C 
BRANCH   5   6
ATOM      6  C   UNL     1      24.600   5.602  15.698  1.00  0.00    -0.000 C 
BRANCH   6   7
ATOM      7  C   UNL     1      24.779   4.430  14.714  1.00  0.00    -0.000 C 
BRANCH   7   8
ATOM      8  C   UNL     1      24.843   4.891  13.249  1.00  0.00    -0.000 C 
BRANCH   8   9
ATOM      9  C   UNL     1      23.628   5.742  12.844  1.00  0.00    -0.000 C 
BRANCH   9  10
ATOM     10  C   UNL     1      22.433   4.884  12.397  1.00  0.00    -0.000 C 
BRANCH  10  11
ATOM     11  C   UNL     1      21.288   4.890  13.422  1.00  0.00    -0.003 C 
ATOM     12  C   UNL     1      21.033   6.299  13.950  1.00  0.00     0.004 C 
ENDBRANCH  10  11
ENDBRANCH   9  10
ENDBRANCH   8   9
ENDBRANCH   7   8
ENDBRANCH   6   7
ENDBRANCH   5   6
ENDBRANCH   4   5
ENDBRANCH   3   4
ENDBRANCH   2   3
ENDBRANCH   1   2
BRANCH   1  13
ATOM     13  C   UNL     1      23.308   0.733  15.086  1.00  0.00     0.000 C 
BRANCH  13  14
ATOM     14  C   UNL     1      22.693   1.551  13.933  1.00  0.00     0.000 C 
BRANCH  14  15
ATOM     15  C   UNL     1      21.634   0.810  13.097  1.00  0.00     0.000 C 
BRANCH  15  16
ATOM     16  C   UNL     1      21.655  -0.710  13.318  1.00  0.00     0.000 C 
BRANCH  16  17
ATOM     17  C   UNL     1      20.280  -1.219  13.767  1.00  0.00     0.000 C 
BRANCH  17  18
ATOM     18  C   UNL     1      20.415  -2.239  14.905  1.00  0.00     0.000 C 
BRANCH  18  19
ATOM     19  C   UNL     1      20.465  -1.539  16.270  1.00  0.00     0.000 C 
BRANCH  19  20
ATOM     20  C   UNL     1      21.620  -2.039  17.154  1.00  0.00     0.006 C 
BRANCH  20  21
ATOM     21  C   UNL     1      22.705  -2.773  16.354  1.00  0.00     0.053 C 
BRANCH  21  22
ATOM     22  C   UNL     1      22.971  -4.126  16.936  1.00  0.00     0.041 C 
ATOM     23  O   UNL     1      24.156  -4.524  17.096  1.00  0.00    -0.550 OA
ATOM     24  O   UNL     1      21.912  -4.948  17.305  1.00  0.00    -0.550 OA
ENDBRANCH  21  22
ENDBRANCH  20  21
ENDBRANCH  19  20
ENDBRANCH  18  19
ENDBRANCH  17  18
ENDBRANCH  16  17
ENDBRANCH  15  16
ENDBRANCH  14  15
ENDBRANCH  13  14
ENDBRANCH   1  13
TORSDOF 20
ENDMDL
MODEL 7
REMARK VINA RESULT:    -4.128      1.886      4.237
REMARK INTER + INTRA:         -11.949
REMARK INTER:                  -8.439
REMARK INTRA:                  -3.509
REMARK UNBOUND:                -2.995
REMARK SMILES CCCCCCCCCCCCCCCCCCCCCC(=O)[O-]
REMARK SMILES IDX 12 1 11 2 10 3 9 4 8 5 7 6 6 7 5 8 4 9 3 10 2 11 1 12 13 13
REMARK SMILES IDX 14 14 15 15 16 16 17 17 18 18 19 19 20 20 21 21 22 22 23 23
REMARK SMILES IDX 24 24
REMARK H PARENT
REMARK Flexibility Score: inf
ROOT
ATOM      1  C   UNL     1      20.003  -0.670  16.551  1.00  0.00     0.000 C 
ENDROOT
BRANCH   1   2
ATOM      2  C   UNL     1      20.210  -1.194  15.120  1.00  0.00     0.000 C 
BRANCH   2   3
ATOM      3  C   UNL     1      21.254  -0.385  14.331  1.00  0.00     0.000 C 
BRANCH   3   4
ATOM      4  C   UNL     1      22.193  -1.256  13.470  1.00  0.00    -0.000 C 
BRANCH   4   5
ATOM      5  C   UNL     1      22.616  -2.543  14.198  1.00  0.00    -0.000 C 
BRANCH   5   6
ATOM      6  C   UNL     1      23.587  -2.274  15.360  1.00  0.00    -0.000 C 
BRANCH   6   7
ATOM      7  C   UNL     1      23.721  -3.483  16.305  1.00  0.00    -0.000 C 
BRANCH   7   8
ATOM      8  C   UNL     1      22.363  -3.987  16.819  1.00  0.00    -0.000 C 
BRANCH   8   9
ATOM      9  C   UNL     1      22.062  -3.516  18.251  1.00  0.00    -0.000 C 
BRANCH   9  10
ATOM     10  C   UNL     1      23.340  -3.214  19.050  1.00  0.00    -0.000 C 
BRANCH  10  11
ATOM     11  C   UNL     1      23.281  -1.852  19.761  1.00  0.00    -0.003 C 
ATOM     12  C   UNL     1      24.534  -1.029  19.473  1.00  0.00     0.004 C 
ENDBRANCH  10  11
ENDBRANCH   9  10
ENDBRANCH   8   9
ENDBRANCH   7   8
ENDBRANCH   6   7
ENDBRANCH   5   6
ENDBRANCH   4   5
ENDBRANCH   3   4
ENDBRANCH   2   3
ENDBRANCH   1   2
BRANCH   1  13
ATOM     13  C   UNL     1      21.287  -0.085  17.166  1.00  0.00     0.000 C 
BRANCH  13  14
ATOM     14  C   UNL     1      21.235   1.418  17.503  1.00  0.00     0.000 C 
BRANCH  14  15
ATOM     15  C   UNL     1      22.413   2.251  16.966  1.00  0.00     0.000 C 
BRANCH  15  16
ATOM     16  C   UNL     1      23.711   1.439  16.842  1.00  0.00     0.000 C 
BRANCH  16  17
ATOM     17  C   UNL     1      24.276   1.520  15.418  1.00  0.00     0.000 C 
BRANCH  17  18
ATOM     18  C   UNL     1      23.505   2.547  14.578  1.00  0.00     0.000 C 
BRANCH  18  19
ATOM     19  C   UNL     1      24.316   3.839  14.407  1.00  0.00     0.000 C 
BRANCH  19  20
ATOM     20  C   UNL     1      24.094   4.506  13.039  1.00  0.00     0.006 C 
BRANCH  20  21
ATOM     21  C   UNL     1      22.703   4.217  12.458  1.00  0.00     0.053 C 
BRANCH  21  22
ATOM     22  C   UNL     1      21.800   5.399  12.628  1.00  0.00     0.041 C 
ATOM     23  O   UNL     1      21.021   5.462  13.616  1.00  0.00    -0.550 OA
ATOM     24  O   UNL     1      21.820   6.433  11.698  1.00  0.00    -0.550 OA
ENDBRANCH  21  22
ENDBRANCH  20  21
ENDBRANCH  19  20
ENDBRANCH  18  19
ENDBRANCH  17  18
ENDBRANCH  16  17
ENDBRANCH  15  16
ENDBRANCH  14  15
ENDBRANCH  13  14
ENDBRANCH   1  13
TORSDOF 20
ENDMDL
MODEL 8
REMARK VINA RESULT:    -4.092      2.857      6.663
REMARK INTER + INTRA:         -11.872
REMARK INTER:                  -8.915
REMARK INTRA:                  -2.957
REMARK UNBOUND:                -2.995
REMARK SMILES CCCCCCCCCCCCCCCCCCCCCC(=O)[O-]
REMARK SMILES IDX 12 1 11 2 10 3 9 4 8 5 7 6 6 7 5 8 4 9 3 10 2 11 1 12 13 13
REMARK SMILES IDX 14 14 15 15 16 16 17 17 18 18 19 19 20 20 21 21 22 22 23 23
REMARK SMILES IDX 24 24
REMARK H PARENT
REMARK Flexibility Score: inf
ROOT
ATOM      1  C   UNL     1      23.190  -1.872  18.686  1.00  0.00     0.000 C 
ENDROOT
BRANCH   1   2
ATOM      2  C   UNL     1      23.922  -0.520  18.646  1.00  0.00     0.000 C 
BRANCH   2   3
ATOM      3  C   UNL     1      23.404   0.409  17.535  1.00  0.00     0.000 C 
BRANCH   3   4
ATOM      4  C   UNL     1      21.910   0.208  17.203  1.00  0.00    -0.000 C 
BRANCH   4   5
ATOM      5  C   UNL     1      21.547   0.764  15.816  1.00  0.00    -0.000 C 
BRANCH   5   6
ATOM      6  C   UNL     1      22.769   0.900  14.894  1.00  0.00    -0.000 C 
BRANCH   6   7
ATOM      7  C   UNL     1      22.437   1.635  13.581  1.00  0.00    -0.000 C 
BRANCH   7   8
ATOM      8  C   UNL     1      22.596   3.159  13.699  1.00  0.00    -0.000 C 
BRANCH   8   9
ATOM      9  C   UNL     1      23.809   3.562  14.554  1.00  0.00    -0.000 C 
BRANCH   9  10
ATOM     10  C   UNL     1      24.763   4.509  13.808  1.00  0.00    -0.000 C 
BRANCH  10  11
ATOM     11  C   UNL     1      24.102   5.171  12.588  1.00  0.00    -0.003 C 
ATOM     12  C   UNL     1      23.668   6.599  12.908  1.00  0.00     0.004 C 
ENDBRANCH  10  11
ENDBRANCH   9  10
ENDBRANCH   8   9
ENDBRANCH   7   8
ENDBRANCH   6   7
ENDBRANCH   5   6
ENDBRANCH   4   5
ENDBRANCH   3   4
ENDBRANCH   2   3
ENDBRANCH   1   2
BRANCH   1  13
ATOM     13  C   UNL     1      24.152  -3.073  18.717  1.00  0.00     0.000 C 
BRANCH  13  14
ATOM     14  C   UNL     1      24.111  -3.987  17.477  1.00  0.00     0.000 C 
BRANCH  14  15
ATOM     15  C   UNL     1      23.023  -3.641  16.444  1.00  0.00     0.000 C 
BRANCH  15  16
ATOM     16  C   UNL     1      23.587  -2.961  15.188  1.00  0.00     0.000 C 
BRANCH  16  17
ATOM     17  C   UNL     1      22.464  -2.602  14.206  1.00  0.00     0.000 C 
BRANCH  17  18
ATOM     18  C   UNL     1      21.087  -2.774  14.858  1.00  0.00     0.000 C 
BRANCH  18  19
ATOM     19  C   UNL     1      19.961  -2.477  13.857  1.00  0.00     0.000 C 
BRANCH  19  20
ATOM     20  C   UNL     1      20.232  -1.221  13.012  1.00  0.00     0.006 C 
BRANCH  20  21
ATOM     21  C   UNL     1      20.154  -1.492  11.503  1.00  0.00     0.053 C 
BRANCH  21  22
ATOM     22  C   UNL     1      18.779  -1.940  11.114  1.00  0.00     0.041 C 
ATOM     23  O   UNL     1      18.603  -3.088  10.627  1.00  0.00    -0.550 OA
ATOM     24  O   UNL     1      17.692  -1.092  11.292  1.00  0.00    -0.550 OA
ENDBRANCH  21  22
ENDBRANCH  20  21
ENDBRANCH  19  20
ENDBRANCH  18  19
ENDBRANCH  17  18
ENDBRANCH  16  17
ENDBRANCH  15  16
ENDBRANCH  14  15
ENDBRANCH  13  14
ENDBRANCH   1  13
TORSDOF 20
ENDMDL
MODEL 9
REMARK VINA RESULT:    -4.083      4.175      8.126
REMARK INTER + INTRA:         -11.852
REMARK INTER:                  -8.378
REMARK INTRA:                  -3.474
REMARK UNBOUND:                -2.995
REMARK SMILES CCCCCCCCCCCCCCCCCCCCCC(=O)[O-]
REMARK SMILES IDX 12 1 11 2 10 3 9 4 8 5 7 6 6 7 5 8 4 9 3 10 2 11 1 12 13 13
REMARK SMILES IDX 14 14 15 15 16 16 17 17 18 18 19 19 20 20 21 21 22 22 23 23
REMARK SMILES IDX 24 24
REMARK H PARENT
REMARK Flexibility Score: inf
ROOT
ATOM      1  C   UNL     1      24.921   2.085  17.936  1.00  0.00     0.000 C 
ENDROOT
BRANCH   1   2
ATOM      2  C   UNL     1      24.759   3.040  16.741  1.00  0.00     0.000 C 
BRANCH   2   3
ATOM      3  C   UNL     1      24.911   2.331  15.384  1.00  0.00     0.000 C 
BRANCH   3   4
ATOM      4  C   UNL     1      23.586   2.191  14.604  1.00  0.00    -0.000 C 
BRANCH   4   5
ATOM      5  C   UNL     1      22.514   3.173  15.108  1.00  0.00    -0.000 C 
BRANCH   5   6
ATOM      6  C   UNL     1      22.111   4.205  14.043  1.00  0.00    -0.000 C 
BRANCH   6   7
ATOM      7  C   UNL     1      22.899   4.037  12.731  1.00  0.00    -0.000 C 
BRANCH   7   8
ATOM      8  C   UNL     1      23.768   5.261  12.399  1.00  0.00    -0.000 C 
BRANCH   8   9
ATOM      9  C   UNL     1      25.133   5.224  13.106  1.00  0.00    -0.000 C 
BRANCH   9  10
ATOM     10  C   UNL     1      25.586   6.615  13.579  1.00  0.00    -0.000 C 
BRANCH  10  11
ATOM     11  C   UNL     1      24.590   7.257  14.558  1.00  0.00    -0.003 C 
ATOM     12  C   UNL     1      24.564   6.506  15.886  1.00  0.00     0.004 C 
ENDBRANCH  10  11
ENDBRANCH   9  10
ENDBRANCH   8   9
ENDBRANCH   7   8
ENDBRANCH   6   7
ENDBRANCH   5   6
ENDBRANCH   4   5
ENDBRANCH   3   4
ENDBRANCH   2   3
ENDBRANCH   1   2
BRANCH   1  13
ATOM     13  C   UNL     1      23.593   1.438  18.368  1.00  0.00     0.000 C 
BRANCH  13  14
ATOM     14  C   UNL     1      23.332   0.024  17.810  1.00  0.00     0.000 C 
BRANCH  14  15
ATOM     15  C   UNL     1      21.979  -0.160  17.099  1.00  0.00     0.000 C 
BRANCH  15  16
ATOM     16  C   UNL     1      22.080  -1.034  15.841  1.00  0.00     0.000 C 
BRANCH  16  17
ATOM     17  C   UNL     1      23.540  -1.397  15.540  1.00  0.00     0.000 C 
BRANCH  17  18
ATOM     18  C   UNL     1      23.722  -2.917  15.447  1.00  0.00     0.000 C 
BRANCH  18  19
ATOM     19  C   UNL     1      23.858  -3.542  16.843  1.00  0.00     0.000 C 
BRANCH  19  20
ATOM     20  C   UNL     1      22.699  -4.491  17.187  1.00  0.00     0.006 C 
BRANCH  20  21
ATOM     21  C   UNL     1      21.784  -3.936  18.288  1.00  0.00     0.053 C 
BRANCH  21  22
ATOM     22  C   UNL     1      20.373  -3.821  17.798  1.00  0.00     0.041 C 
ATOM     23  O   UNL     1      19.739  -2.744  17.946  1.00  0.00    -0.550 OA
ATOM     24  O   UNL     1      19.760  -4.903  17.176  1.00  0.00    -0.550 OA
ENDBRANCH  21  22
ENDBRANCH  20  21
ENDBRANCH  19  20
ENDBRANCH  18  19
ENDBRANCH  17  18
ENDBRANCH  16  17
ENDBRANCH  15  16
ENDBRANCH  14  15
ENDBRANCH  13  14
ENDBRANCH   1  13
TORSDOF 20
ENDMDL
