MODEL 1
REMARK VINA RESULT:     0.446      0.000      0.000
REMARK INTER + INTRA:          -0.735
REMARK INTER:                   0.863
REMARK INTRA:                  -1.598
REMARK UNBOUND:                -1.598
REMARK SMILES CCCCCCCCCCCCCCCCCC(=O)[O-]
REMARK SMILES IDX 10 1 11 2 12 3 13 4 14 5 15 6 16 7 17 8 18 9 19 10 20 11
REMARK SMILES IDX 9 12 8 13 7 14 6 15 5 16 4 17 3 18 2 19 1 20
REMARK H PARENT
REMARK Flexibility Score: inf
ROOT
ATOM      1  C   UNL     1       4.192 -33.345  22.114  1.00  0.00     0.000 C 
ENDROOT
BRANCH   1   2
ATOM      2  C   UNL     1       5.639 -33.772  22.407  1.00  0.00     0.000 C 
BRANCH   2   3
ATOM      3  C   UNL     1       6.104 -33.339  23.808  1.00  0.00     0.000 C 
BRANCH   3   4
ATOM      4  C   UNL     1       6.124 -34.499  24.819  1.00  0.00     0.000 C 
BRANCH   4   5
ATOM      5  C   UNL     1       6.022 -35.904  24.198  1.00  0.00     0.000 C 
BRANCH   5   6
ATOM      6  C   UNL     1       4.719 -36.631  24.573  1.00  0.00     0.000 C 
BRANCH   6   7
ATOM      7  C   UNL     1       4.703 -37.092  26.040  1.00  0.00     0.006 C 
BRANCH   7   8
ATOM      8  C   UNL     1       3.611 -38.135  26.316  1.00  0.00     0.053 C 
BRANCH   8   9
ATOM      9  C   UNL     1       2.491 -37.525  27.098  1.00  0.00     0.041 C 
ATOM     10  O   UNL     1       1.448 -38.188  27.331  1.00  0.00    -0.550 OA
ATOM     11  O   UNL     1       2.616 -36.240  27.609  1.00  0.00    -0.550 OA
ENDBRANCH   8   9
ENDBRANCH   7   8
ENDBRANCH   6   7
ENDBRANCH   5   6
ENDBRANCH   4   5
ENDBRANCH   3   4
ENDBRANCH   2   3
ENDBRANCH   1   2
BRANCH   1  12
ATOM     12  C   UNL     1       3.701 -33.835  20.743  1.00  0.00     0.000 C 
BRANCH  12  13
ATOM     13  C   UNL     1       4.882 -34.126  19.809  1.00  0.00    -0.000 C 
BRANCH  13  14
ATOM     14  C   UNL     1       4.473 -35.090  18.689  1.00  0.00    -0.000 C 
BRANCH  14  15
ATOM     15  C   UNL     1       4.957 -36.518  18.987  1.00  0.00    -0.000 C 
BRANCH  15  16
ATOM     16  C   UNL     1       5.426 -36.691  20.440  1.00  0.00    -0.000 C 
BRANCH  16  17
ATOM     17  C   UNL     1       4.912 -37.992  21.079  1.00  0.00    -0.000 C 
BRANCH  17  18
ATOM     18  C   UNL     1       5.475 -39.246  20.378  1.00  0.00    -0.000 C 
BRANCH  18  19
ATOM     19  C   UNL     1       5.942 -40.339  21.353  1.00  0.00    -0.003 C 
ATOM     20  C   UNL     1       5.106 -40.399  22.629  1.00  0.00     0.004 C 
ENDBRANCH  18  19
ENDBRANCH  17  18
ENDBRANCH  16  17
ENDBRANCH  15  16
ENDBRANCH  14  15
ENDBRANCH  13  14
ENDBRANCH  12  13
ENDBRANCH   1  12
TORSDOF 16
ENDMDL
MODEL 2
REMARK VINA RESULT:     0.817      2.232      5.378
REMARK INTER + INTRA:          -0.017
REMARK INTER:                   1.189
REMARK INTRA:                  -1.206
REMARK UNBOUND:                -1.598
REMARK SMILES CCCCCCCCCCCCCCCCCC(=O)[O-]
REMARK SMILES IDX 10 1 11 2 12 3 13 4 14 5 15 6 16 7 17 8 18 9 19 10 20 11
REMARK SMILES IDX 9 12 8 13 7 14 6 15 5 16 4 17 3 18 2 19 1 20
REMARK H PARENT
REMARK Flexibility Score: inf
ROOT
ATOM      1  C   UNL     1       4.082 -33.668  22.219  1.00  0.00     0.000 C 
ENDROOT
BRANCH   1   2
ATOM      2  C   UNL     1       3.508 -34.250  20.917  1.00  0.00     0.000 C 
BRANCH   2   3
ATOM      3  C   UNL     1       4.327 -33.837  19.681  1.00  0.00     0.000 C 
BRANCH   3   4
ATOM      4  C   UNL     1       4.558 -34.999  18.699  1.00  0.00     0.000 C 
BRANCH   4   5
ATOM      5  C   UNL     1       5.666 -35.986  19.110  1.00  0.00     0.000 C 
BRANCH   5   6
ATOM      6  C   UNL     1       5.319 -36.779  20.382  1.00  0.00     0.000 C 
BRANCH   6   7
ATOM      7  C   UNL     1       5.119 -38.278  20.106  1.00  0.00     0.006 C 
BRANCH   7   8
ATOM      8  C   UNL     1       4.287 -38.969  21.195  1.00  0.00     0.053 C 
BRANCH   8   9
ATOM      9  C   UNL     1       5.148 -39.885  22.008  1.00  0.00     0.041 C 
ATOM     10  O   UNL     1       5.870 -40.744  21.441  1.00  0.00    -0.550 OA
ATOM     11  O   UNL     1       5.185 -39.760  23.391  1.00  0.00    -0.550 OA
ENDBRANCH   8   9
ENDBRANCH   7   8
ENDBRANCH   6   7
ENDBRANCH   5   6
ENDBRANCH   4   5
ENDBRANCH   3   4
ENDBRANCH   2   3
ENDBRANCH   1   2
BRANCH   1  12
ATOM     12  C   UNL     1       5.597 -33.892  22.346  1.00  0.00     0.000 C 
BRANCH  12  13
ATOM     13  C   UNL     1       6.119 -33.365  23.687  1.00  0.00    -0.000 C 
BRANCH  13  14
ATOM     14  C   UNL     1       6.125 -34.472  24.749  1.00  0.00    -0.000 C 
BRANCH  14  15
ATOM     15  C   UNL     1       6.090 -35.862  24.095  1.00  0.00    -0.000 C 
BRANCH  15  16
ATOM     16  C   UNL     1       4.841 -36.667  24.485  1.00  0.00    -0.000 C 
BRANCH  16  17
ATOM     17  C   UNL     1       4.814 -37.034  25.979  1.00  0.00    -0.000 C 
BRANCH  17  18
ATOM     18  C   UNL     1       3.686 -38.033  26.312  1.00  0.00    -0.000 C 
BRANCH  18  19
ATOM     19  C   UNL     1       2.565 -37.433  27.174  1.00  0.00    -0.003 C 
ATOM     20  C   UNL     1       1.367 -38.366  27.333  1.00  0.00     0.004 C 
ENDBRANCH  18  19
ENDBRANCH  17  18
ENDBRANCH  16  17
ENDBRANCH  15  16
ENDBRANCH  14  15
ENDBRANCH  13  14
ENDBRANCH  12  13
ENDBRANCH   1  12
TORSDOF 16
ENDMDL
MODEL 3
REMARK VINA RESULT:     0.868      3.215      5.006
REMARK INTER + INTRA:           0.082
REMARK INTER:                  -0.784
REMARK INTRA:                   0.866
REMARK UNBOUND:                -1.598
REMARK SMILES CCCCCCCCCCCCCCCCCC(=O)[O-]
REMARK SMILES IDX 10 1 11 2 12 3 13 4 14 5 15 6 16 7 17 8 18 9 19 10 20 11
REMARK SMILES IDX 9 12 8 13 7 14 6 15 5 16 4 17 3 18 2 19 1 20
REMARK H PARENT
REMARK Flexibility Score: inf
ROOT
ATOM      1  C   UNL     1       4.131 -33.417  22.293  1.00  0.00     0.000 C 
ENDROOT
BRANCH   1   2
ATOM      2  C   UNL     1       5.587 -33.798  22.605  1.00  0.00     0.000 C 
BRANCH   2   3
ATOM      3  C   UNL     1       5.718 -34.583  23.921  1.00  0.00     0.000 C 
BRANCH   3   4
ATOM      4  C   UNL     1       5.716 -36.107  23.714  1.00  0.00     0.000 C 
BRANCH   4   5
ATOM      5  C   UNL     1       5.813 -36.564  22.246  1.00  0.00     0.000 C 
BRANCH   5   6
ATOM      6  C   UNL     1       4.792 -37.659  21.892  1.00  0.00     0.000 C 
BRANCH   6   7
ATOM      7  C   UNL     1       4.850 -38.063  20.410  1.00  0.00     0.006 C 
BRANCH   7   8
ATOM      8  C   UNL     1       5.686 -39.329  20.178  1.00  0.00     0.053 C 
BRANCH   8   9
ATOM      9  C   UNL     1       5.737 -40.157  21.423  1.00  0.00     0.041 C 
ATOM     10  O   UNL     1       6.125 -41.353  21.372  1.00  0.00    -0.550 OA
ATOM     11  O   UNL     1       5.398 -39.597  22.647  1.00  0.00    -0.550 OA
ENDBRANCH   8   9
ENDBRANCH   7   8
ENDBRANCH   6   7
ENDBRANCH   5   6
ENDBRANCH   4   5
ENDBRANCH   3   4
ENDBRANCH   2   3
ENDBRANCH   1   2
BRANCH   1  12
ATOM     12  C   UNL     1       3.725 -33.775  20.855  1.00  0.00     0.000 C 
BRANCH  12  13
ATOM     13  C   UNL     1       4.951 -34.155  20.017  1.00  0.00    -0.000 C 
BRANCH  13  14
ATOM     14  C   UNL     1       4.639 -35.337  19.092  1.00  0.00    -0.000 C 
BRANCH  14  15
ATOM     15  C   UNL     1       4.243 -34.850  17.689  1.00  0.00    -0.000 C 
BRANCH  15  16
ATOM     16  C   UNL     1       3.938 -36.008  16.726  1.00  0.00    -0.000 C 
BRANCH  16  17
ATOM     17  C   UNL     1       2.664 -35.771  15.897  1.00  0.00    -0.000 C 
BRANCH  17  18
ATOM     18  C   UNL     1       2.625 -36.648  14.628  1.00  0.00    -0.000 C 
BRANCH  18  19
ATOM     19  C   UNL     1       3.990 -37.242  14.248  1.00  0.00    -0.003 C 
ATOM     20  C   UNL     1       3.975 -38.766  14.160  1.00  0.00     0.004 C 
ENDBRANCH  18  19
ENDBRANCH  17  18
ENDBRANCH  16  17
ENDBRANCH  15  16
ENDBRANCH  14  15
ENDBRANCH  13  14
ENDBRANCH  12  13
ENDBRANCH   1  12
TORSDOF 16
ENDMDL
MODEL 4
REMARK VINA RESULT:     1.135      4.457      7.137
REMARK INTER + INTRA:           0.598
REMARK INTER:                   2.158
REMARK INTRA:                  -1.560
REMARK UNBOUND:                -1.598
REMARK SMILES CCCCCCCCCCCCCCCCCC(=O)[O-]
REMARK SMILES IDX 10 1 11 2 12 3 13 4 14 5 15 6 16 7 17 8 18 9 19 10 20 11
REMARK SMILES IDX 9 12 8 13 7 14 6 15 5 16 4 17 3 18 2 19 1 20
REMARK H PARENT
REMARK Flexibility Score: inf
ROOT
ATOM      1  C   UNL     1       5.156 -33.546  22.844  1.00  0.00     0.000 C 
ENDROOT
BRANCH   1   2
ATOM      2  C   UNL     1       4.172 -34.534  22.196  1.00  0.00     0.000 C 
BRANCH   2   3
ATOM      3  C   UNL     1       3.935 -34.230  20.707  1.00  0.00     0.000 C 
BRANCH   3   4
ATOM      4  C   UNL     1       5.165 -34.526  19.831  1.00  0.00     0.000 C 
BRANCH   4   5
ATOM      5  C   UNL     1       4.905 -34.498  18.313  1.00  0.00     0.000 C 
BRANCH   5   6
ATOM      6  C   UNL     1       4.351 -35.830  17.778  1.00  0.00     0.000 C 
BRANCH   6   7
ATOM      7  C   UNL     1       3.308 -35.630  16.667  1.00  0.00     0.006 C 
BRANCH   7   8
ATOM      8  C   UNL     1       3.847 -36.004  15.280  1.00  0.00     0.053 C 
BRANCH   8   9
ATOM      9  C   UNL     1       3.047 -37.124  14.692  1.00  0.00     0.041 C 
ATOM     10  O   UNL     1       1.967 -36.884  14.094  1.00  0.00    -0.550 OA
ATOM     11  O   UNL     1       3.517 -38.429  14.767  1.00  0.00    -0.550 OA
ENDBRANCH   8   9
ENDBRANCH   7   8
ENDBRANCH   6   7
ENDBRANCH   5   6
ENDBRANCH   4   5
ENDBRANCH   3   4
ENDBRANCH   2   3
ENDBRANCH   1   2
BRANCH   1  12
ATOM     12  C   UNL     1       6.119 -34.234  23.825  1.00  0.00     0.000 C 
BRANCH  12  13
ATOM     13  C   UNL     1       6.001 -35.760  23.729  1.00  0.00    -0.000 C 
BRANCH  13  14
ATOM     14  C   UNL     1       5.746 -36.379  25.109  1.00  0.00    -0.000 C 
BRANCH  14  15
ATOM     15  C   UNL     1       4.670 -37.473  25.031  1.00  0.00    -0.000 C 
BRANCH  15  16
ATOM     16  C   UNL     1       5.251 -38.847  24.660  1.00  0.00    -0.000 C 
BRANCH  16  17
ATOM     17  C   UNL     1       4.535 -39.489  23.459  1.00  0.00    -0.000 C 
BRANCH  17  18
ATOM     18  C   UNL     1       5.355 -39.360  22.158  1.00  0.00    -0.000 C 
BRANCH  18  19
ATOM     19  C   UNL     1       5.004 -38.113  21.330  1.00  0.00    -0.003 C 
ATOM     20  C   UNL     1       5.091 -38.352  19.825  1.00  0.00     0.004 C 
ENDBRANCH  18  19
ENDBRANCH  17  18
ENDBRANCH  16  17
ENDBRANCH  15  16
ENDBRANCH  14  15
ENDBRANCH  13  14
ENDBRANCH  12  13
ENDBRANCH   1  12
TORSDOF 16
ENDMDL
MODEL 5
REMARK VINA RESULT:     1.277      4.511      6.721
REMARK INTER + INTRA:           0.873
REMARK INTER:                   2.046
REMARK INTRA:                  -1.173
REMARK UNBOUND:                -1.598
REMARK SMILES CCCCCCCCCCCCCCCCCC(=O)[O-]
REMARK SMILES IDX 10 1 11 2 12 3 13 4 14 5 15 6 16 7 17 8 18 9 19 10 20 11
REMARK SMILES IDX 9 12 8 13 7 14 6 15 5 16 4 17 3 18 2 19 1 20
REMARK H PARENT
REMARK Flexibility Score: inf
ROOT
ATOM      1  C   UNL     1       5.362 -33.577  22.868  1.00  0.00     0.000 C 
ENDROOT
BRANCH   1   2
ATOM      2  C   UNL     1       4.056 -33.990  22.170  1.00  0.00     0.000 C 
BRANCH   2   3
ATOM      3  C   UNL     1       4.071 -33.672  20.666  1.00  0.00     0.000 C 
BRANCH   3   4
ATOM      4  C   UNL     1       5.283 -34.279  19.936  1.00  0.00     0.000 C 
BRANCH   4   5
ATOM      5  C   UNL     1       5.111 -34.441  18.414  1.00  0.00     0.000 C 
BRANCH   5   6
ATOM      6  C   UNL     1       3.817 -35.180  18.033  1.00  0.00     0.000 C 
BRANCH   6   7
ATOM      7  C   UNL     1       4.016 -36.150  16.858  1.00  0.00     0.006 C 
BRANCH   7   8
ATOM      8  C   UNL     1       3.364 -35.647  15.563  1.00  0.00     0.053 C 
BRANCH   8   9
ATOM      9  C   UNL     1       2.954 -36.800  14.702  1.00  0.00     0.041 C 
ATOM     10  O   UNL     1       1.786 -36.859  14.239  1.00  0.00    -0.550 OA
ATOM     11  O   UNL     1       3.873 -37.787  14.375  1.00  0.00    -0.550 OA
ENDBRANCH   8   9
ENDBRANCH   7   8
ENDBRANCH   6   7
ENDBRANCH   5   6
ENDBRANCH   4   5
ENDBRANCH   3   4
ENDBRANCH   2   3
ENDBRANCH   1   2
BRANCH   1  12
ATOM     12  C   UNL     1       6.003 -34.735  23.649  1.00  0.00     0.000 C 
BRANCH  12  13
ATOM     13  C   UNL     1       5.259 -36.050  23.389  1.00  0.00    -0.000 C 
BRANCH  13  14
ATOM     14  C   UNL     1       5.768 -36.727  22.110  1.00  0.00    -0.000 C 
BRANCH  14  15
ATOM     15  C   UNL     1       4.598 -37.155  21.211  1.00  0.00    -0.000 C 
BRANCH  15  16
ATOM     16  C   UNL     1       5.055 -38.002  20.013  1.00  0.00    -0.000 C 
BRANCH  16  17
ATOM     17  C   UNL     1       5.792 -39.284  20.438  1.00  0.00    -0.000 C 
BRANCH  17  18
ATOM     18  C   UNL     1       4.923 -40.181  21.345  1.00  0.00    -0.000 C 
BRANCH  18  19
ATOM     19  C   UNL     1       5.550 -40.458  22.720  1.00  0.00    -0.003 C 
ATOM     20  C   UNL     1       4.839 -39.732  23.859  1.00  0.00     0.004 C 
ENDBRANCH  18  19
ENDBRANCH  17  18
ENDBRANCH  16  17
ENDBRANCH  15  16
ENDBRANCH  14  15
ENDBRANCH  13  14
ENDBRANCH  12  13
ENDBRANCH   1  12
TORSDOF 16
ENDMDL
MODEL 6
REMARK VINA RESULT:     1.281      3.298      4.874
REMARK INTER + INTRA:           0.882
REMARK INTER:                   1.945
REMARK INTRA:                  -1.063
REMARK UNBOUND:                -1.598
REMARK SMILES CCCCCCCCCCCCCCCCCC(=O)[O-]
REMARK SMILES IDX 10 1 11 2 12 3 13 4 14 5 15 6 16 7 17 8 18 9 19 10 20 11
REMARK SMILES IDX 9 12 8 13 7 14 6 15 5 16 4 17 3 18 2 19 1 20
REMARK H PARENT
REMARK Flexibility Score: inf
ROOT
ATOM      1  C   UNL     1       5.425 -33.770  22.892  1.00  0.00     0.000 C 
ENDROOT
BRANCH   1   2
ATOM      2  C   UNL     1       6.035 -34.483  24.110  1.00  0.00     0.000 C 
BRANCH   2   3
ATOM      3  C   UNL     1       5.911 -36.013  24.016  1.00  0.00     0.000 C 
BRANCH   3   4
ATOM      4  C   UNL     1       5.398 -36.655  25.317  1.00  0.00     0.000 C 
BRANCH   4   5
ATOM      5  C   UNL     1       4.585 -37.949  25.127  1.00  0.00     0.000 C 
BRANCH   5   6
ATOM      6  C   UNL     1       5.359 -39.034  24.359  1.00  0.00     0.000 C 
BRANCH   6   7
ATOM      7  C   UNL     1       4.541 -39.638  23.206  1.00  0.00     0.006 C 
BRANCH   7   8
ATOM      8  C   UNL     1       5.373 -39.823  21.930  1.00  0.00     0.053 C 
BRANCH   8   9
ATOM      9  C   UNL     1       5.121 -38.701  20.973  1.00  0.00     0.041 C 
ATOM     10  O   UNL     1       5.705 -38.675  19.860  1.00  0.00    -0.550 OA
ATOM     11  O   UNL     1       4.208 -37.705  21.293  1.00  0.00    -0.550 OA
ENDBRANCH   8   9
ENDBRANCH   7   8
ENDBRANCH   6   7
ENDBRANCH   5   6
ENDBRANCH   4   5
ENDBRANCH   3   4
ENDBRANCH   2   3
ENDBRANCH   1   2
BRANCH   1  12
ATOM     12  C   UNL     1       5.665 -34.537  21.582  1.00  0.00     0.000 C 
BRANCH  12  13
ATOM     13  C   UNL     1       4.508 -34.322  20.600  1.00  0.00    -0.000 C 
BRANCH  13  14
ATOM     14  C   UNL     1       5.015 -34.281  19.153  1.00  0.00    -0.000 C 
BRANCH  14  15
ATOM     15  C   UNL     1       4.659 -35.576  18.407  1.00  0.00    -0.000 C 
BRANCH  15  16
ATOM     16  C   UNL     1       3.912 -35.312  17.090  1.00  0.00    -0.000 C 
BRANCH  16  17
ATOM     17  C   UNL     1       3.507 -36.609  16.367  1.00  0.00    -0.000 C 
BRANCH  17  18
ATOM     18  C   UNL     1       3.073 -36.349  14.909  1.00  0.00    -0.000 C 
BRANCH  18  19
ATOM     19  C   UNL     1       3.873 -37.157  13.875  1.00  0.00    -0.003 C 
ATOM     20  C   UNL     1       3.997 -38.635  14.237  1.00  0.00     0.004 C 
ENDBRANCH  18  19
ENDBRANCH  17  18
ENDBRANCH  16  17
ENDBRANCH  15  16
ENDBRANCH  14  15
ENDBRANCH  13  14
ENDBRANCH  12  13
ENDBRANCH   1  12
TORSDOF 16
ENDMDL
MODEL 7
REMARK VINA RESULT:     1.517      3.131      5.268
REMARK INTER + INTRA:           1.338
REMARK INTER:                   1.763
REMARK INTRA:                  -0.425
REMARK UNBOUND:                -1.598
REMARK SMILES CCCCCCCCCCCCCCCCCC(=O)[O-]
REMARK SMILES IDX 10 1 11 2 12 3 13 4 14 5 15 6 16 7 17 8 18 9 19 10 20 11
REMARK SMILES IDX 9 12 8 13 7 14 6 15 5 16 4 17 3 18 2 19 1 20
REMARK H PARENT
REMARK Flexibility Score: inf
ROOT
ATOM      1  C   UNL     1       5.093 -38.925  20.783  1.00  0.00     0.000 C 
ENDROOT
BRANCH   1   2
ATOM      2  C   UNL     1       5.313 -39.426  22.220  1.00  0.00     0.000 C 
BRANCH   2   3
ATOM      3  C   UNL     1       5.571 -38.274  23.207  1.00  0.00     0.000 C 
BRANCH   3   4
ATOM      4  C   UNL     1       4.846 -38.463  24.551  1.00  0.00     0.000 C 
BRANCH   4   5
ATOM      5  C   UNL     1       4.882 -37.240  25.487  1.00  0.00     0.000 C 
BRANCH   5   6
ATOM      6  C   UNL     1       6.123 -36.357  25.269  1.00  0.00     0.000 C 
BRANCH   6   7
ATOM      7  C   UNL     1       6.051 -35.550  23.963  1.00  0.00     0.006 C 
BRANCH   7   8
ATOM      8  C   UNL     1       4.633 -35.047  23.660  1.00  0.00     0.053 C 
BRANCH   8   9
ATOM      9  C   UNL     1       4.653 -34.081  22.517  1.00  0.00     0.041 C 
ATOM     10  O   UNL     1       5.735 -33.551  22.156  1.00  0.00    -0.550 OA
ATOM     11  O   UNL     1       3.484 -33.800  21.823  1.00  0.00    -0.550 OA
ENDBRANCH   8   9
ENDBRANCH   7   8
ENDBRANCH   6   7
ENDBRANCH   5   6
ENDBRANCH   4   5
ENDBRANCH   3   4
ENDBRANCH   2   3
ENDBRANCH   1   2
BRANCH   1  12
ATOM     12  C   UNL     1       4.931 -37.399  20.710  1.00  0.00     0.000 C 
BRANCH  12  13
ATOM     13  C   UNL     1       4.792 -36.930  19.257  1.00  0.00    -0.000 C 
BRANCH  13  14
ATOM     14  C   UNL     1       4.761 -35.399  19.174  1.00  0.00    -0.000 C 
BRANCH  14  15
ATOM     15  C   UNL     1       4.333 -34.932  17.774  1.00  0.00    -0.000 C 
BRANCH  15  16
ATOM     16  C   UNL     1       3.777 -36.078  16.914  1.00  0.00    -0.000 C 
BRANCH  16  17
ATOM     17  C   UNL     1       2.825 -35.584  15.811  1.00  0.00    -0.000 C 
BRANCH  17  18
ATOM     18  C   UNL     1       2.554 -36.670  14.748  1.00  0.00    -0.000 C 
BRANCH  18  19
ATOM     19  C   UNL     1       3.826 -37.192  14.063  1.00  0.00    -0.003 C 
ATOM     20  C   UNL     1       4.045 -38.689  14.270  1.00  0.00     0.004 C 
ENDBRANCH  18  19
ENDBRANCH  17  18
ENDBRANCH  16  17
ENDBRANCH  15  16
ENDBRANCH  14  15
ENDBRANCH  13  14
ENDBRANCH  12  13
ENDBRANCH   1  12
TORSDOF 16
ENDMDL
MODEL 8
REMARK VINA RESULT:     1.834      2.159      3.563
REMARK INTER + INTRA:           1.952
REMARK INTER:                   3.021
REMARK INTRA:                  -1.069
REMARK UNBOUND:                -1.598
REMARK SMILES CCCCCCCCCCCCCCCCCC(=O)[O-]
REMARK SMILES IDX 10 1 11 2 12 3 13 4 14 5 15 6 16 7 17 8 18 9 19 10 20 11
REMARK SMILES IDX 9 12 8 13 7 14 6 15 5 16 4 17 3 18 2 19 1 20
REMARK H PARENT
REMARK Flexibility Score: inf
ROOT
ATOM      1  C   UNL     1       3.783 -35.208  21.280  1.00  0.00     0.000 C 
ENDROOT
BRANCH   1   2
ATOM      2  C   UNL     1       3.889 -34.545  22.663  1.00  0.00     0.000 C 
BRANCH   2   3
ATOM      3  C   UNL     1       5.265 -33.898  22.897  1.00  0.00     0.000 C 
BRANCH   3   4
ATOM      4  C   UNL     1       6.010 -34.491  24.106  1.00  0.00     0.000 C 
BRANCH   4   5
ATOM      5  C   UNL     1       5.865 -36.015  24.274  1.00  0.00     0.000 C 
BRANCH   5   6
ATOM      6  C   UNL     1       5.181 -36.408  25.595  1.00  0.00     0.000 C 
BRANCH   6   7
ATOM      7  C   UNL     1       4.436 -37.749  25.497  1.00  0.00     0.006 C 
BRANCH   7   8
ATOM      8  C   UNL     1       3.897 -38.222  26.854  1.00  0.00     0.053 C 
BRANCH   8   9
ATOM      9  C   UNL     1       2.537 -37.650  27.104  1.00  0.00     0.041 C 
ATOM     10  O   UNL     1       1.518 -38.384  27.025  1.00  0.00    -0.550 OA
ATOM     11  O   UNL     1       2.397 -36.318  27.468  1.00  0.00    -0.550 OA
ENDBRANCH   8   9
ENDBRANCH   7   8
ENDBRANCH   6   7
ENDBRANCH   5   6
ENDBRANCH   4   5
ENDBRANCH   3   4
ENDBRANCH   2   3
ENDBRANCH   1   2
BRANCH   1  12
ATOM     12  C   UNL     1       5.000 -36.088  20.955  1.00  0.00     0.000 C 
BRANCH  12  13
ATOM     13  C   UNL     1       5.755 -35.550  19.734  1.00  0.00    -0.000 C 
BRANCH  13  14
ATOM     14  C   UNL     1       5.086 -34.284  19.187  1.00  0.00    -0.000 C 
BRANCH  14  15
ATOM     15  C   UNL     1       4.657 -34.475  17.723  1.00  0.00    -0.000 C 
BRANCH  15  16
ATOM     16  C   UNL     1       4.002 -35.843  17.474  1.00  0.00    -0.000 C 
BRANCH  16  17
ATOM     17  C   UNL     1       3.082 -35.845  16.241  1.00  0.00    -0.000 C 
BRANCH  17  18
ATOM     18  C   UNL     1       3.820 -36.306  14.967  1.00  0.00    -0.000 C 
BRANCH  18  19
ATOM     19  C   UNL     1       3.143 -37.489  14.257  1.00  0.00    -0.003 C 
ATOM     20  C   UNL     1       4.000 -38.753  14.253  1.00  0.00     0.004 C 
ENDBRANCH  18  19
ENDBRANCH  17  18
ENDBRANCH  16  17
ENDBRANCH  15  16
ENDBRANCH  14  15
ENDBRANCH  13  14
ENDBRANCH  12  13
ENDBRANCH   1  12
TORSDOF 16
ENDMDL
MODEL 9
REMARK VINA RESULT:     1.865      2.631      5.243
REMARK INTER + INTRA:           2.011
REMARK INTER:                   3.414
REMARK INTRA:                  -1.404
REMARK UNBOUND:                -1.598
REMARK SMILES CCCCCCCCCCCCCCCCCC(=O)[O-]
REMARK SMILES IDX 10 1 11 2 12 3 13 4 14 5 15 6 16 7 17 8 18 9 19 10 20 11
REMARK SMILES IDX 9 12 8 13 7 14 6 15 5 16 4 17 3 18 2 19 1 20
REMARK H PARENT
REMARK Flexibility Score: inf
ROOT
ATOM      1  C   UNL     1       6.125 -35.913  24.728  1.00  0.00     0.000 C 
ENDROOT
BRANCH   1   2
ATOM      2  C   UNL     1       4.755 -36.456  25.167  1.00  0.00     0.000 C 
BRANCH   2   3
ATOM      3  C   UNL     1       4.855 -37.854  25.802  1.00  0.00     0.000 C 
BRANCH   3   4
ATOM      4  C   UNL     1       4.185 -38.948  24.953  1.00  0.00     0.000 C 
BRANCH   4   5
ATOM      5  C   UNL     1       5.159 -39.906  24.240  1.00  0.00     0.000 C 
BRANCH   5   6
ATOM      6  C   UNL     1       4.628 -40.397  22.883  1.00  0.00     0.000 C 
BRANCH   6   7
ATOM      7  C   UNL     1       5.610 -40.125  21.732  1.00  0.00     0.006 C 
BRANCH   7   8
ATOM      8  C   UNL     1       5.893 -38.629  21.542  1.00  0.00     0.053 C 
BRANCH   8   9
ATOM      9  C   UNL     1       4.858 -38.009  20.657  1.00  0.00     0.041 C 
ATOM     10  O   UNL     1       4.854 -38.249  19.423  1.00  0.00    -0.550 OA
ATOM     11  O   UNL     1       3.870 -37.200  21.202  1.00  0.00    -0.550 OA
ENDBRANCH   8   9
ENDBRANCH   7   8
ENDBRANCH   6   7
ENDBRANCH   5   6
ENDBRANCH   4   5
ENDBRANCH   3   4
ENDBRANCH   2   3
ENDBRANCH   1   2
BRANCH   1  12
ATOM     12  C   UNL     1       6.125 -35.427  23.271  1.00  0.00     0.000 C 
BRANCH  12  13
ATOM     13  C   UNL     1       6.104 -33.895  23.203  1.00  0.00    -0.000 C 
BRANCH  13  14
ATOM     14  C   UNL     1       4.690 -33.377  22.917  1.00  0.00    -0.000 C 
BRANCH  14  15
ATOM     15  C   UNL     1       3.993 -34.236  21.850  1.00  0.00    -0.000 C 
BRANCH  15  16
ATOM     16  C   UNL     1       4.374 -33.824  20.420  1.00  0.00    -0.000 C 
BRANCH  16  17
ATOM     17  C   UNL     1       5.624 -34.558  19.903  1.00  0.00    -0.000 C 
BRANCH  17  18
ATOM     18  C   UNL     1       5.657 -34.636  18.362  1.00  0.00    -0.000 C 
BRANCH  18  19
ATOM     19  C   UNL     1       4.264 -34.603  17.714  1.00  0.00    -0.003 C 
ATOM     20  C   UNL     1       3.837 -35.954  17.146  1.00  0.00     0.004 C 
ENDBRANCH  18  19
ENDBRANCH  17  18
ENDBRANCH  16  17
ENDBRANCH  15  16
ENDBRANCH  14  15
ENDBRANCH  13  14
ENDBRANCH  12  13
ENDBRANCH   1  12
TORSDOF 16
ENDMDL
