MODEL 1
REMARK VINA RESULT:    -5.642      0.000      0.000
REMARK INTER + INTRA:         -14.401
REMARK INTER:                 -12.238
REMARK INTRA:                  -2.163
REMARK UNBOUND:                -2.163
REMARK SMILES CCCCCCCCCCCCCCCCCCCCCC(=O)[O-]
REMARK SMILES IDX 12 1 11 2 10 3 9 4 8 5 7 6 6 7 5 8 4 9 3 10 2 11 1 12 13 13
REMARK SMILES IDX 14 14 15 15 16 16 17 17 18 18 19 19 20 20 21 21 22 22 23 23
REMARK SMILES IDX 24 24
REMARK H PARENT
REMARK Flexibility Score: inf
ROOT
ATOM      1  C   UNL     1     -16.736  -6.588  42.984  1.00  0.00     0.000 C 
ENDROOT
BRANCH   1   2
ATOM      2  C   UNL     1     -17.628  -7.846  43.001  1.00  0.00     0.000 C 
BRANCH   2   3
ATOM      3  C   UNL     1     -17.446  -8.764  44.227  1.00  0.00     0.000 C 
BRANCH   3   4
ATOM      4  C   UNL     1     -16.845 -10.149  43.920  1.00  0.00    -0.000 C 
BRANCH   4   5
ATOM      5  C   UNL     1     -16.381 -10.946  45.153  1.00  0.00    -0.000 C 
BRANCH   5   6
ATOM      6  C   UNL     1     -14.925 -10.652  45.575  1.00  0.00    -0.000 C 
BRANCH   6   7
ATOM      7  C   UNL     1     -14.646 -11.027  47.038  1.00  0.00    -0.000 C 
BRANCH   7   8
ATOM      8  C   UNL     1     -15.804 -10.588  47.947  1.00  0.00    -0.000 C 
BRANCH   8   9
ATOM      9  C   UNL     1     -15.706  -9.113  48.370  1.00  0.00    -0.000 C 
BRANCH   9  10
ATOM     10  C   UNL     1     -16.781  -8.191  47.760  1.00  0.00    -0.000 C 
BRANCH  10  11
ATOM     11  C   UNL     1     -16.206  -6.928  47.084  1.00  0.00    -0.003 C 
ATOM     12  C   UNL     1     -14.830  -7.170  46.464  1.00  0.00     0.004 C 
ENDBRANCH  10  11
ENDBRANCH   9  10
ENDBRANCH   8   9
ENDBRANCH   7   8
ENDBRANCH   6   7
ENDBRANCH   5   6
ENDBRANCH   4   5
ENDBRANCH   3   4
ENDBRANCH   2   3
ENDBRANCH   1   2
BRANCH   1  13
ATOM     13  C   UNL     1     -16.263  -6.147  41.587  1.00  0.00     0.000 C 
BRANCH  13  14
ATOM     14  C   UNL     1     -17.292  -6.443  40.487  1.00  0.00     0.000 C 
BRANCH  14  15
ATOM     15  C   UNL     1     -17.023  -5.590  39.242  1.00  0.00     0.000 C 
BRANCH  15  16
ATOM     16  C   UNL     1     -16.241  -6.384  38.188  1.00  0.00     0.000 C 
BRANCH  16  17
ATOM     17  C   UNL     1     -14.897  -5.716  37.878  1.00  0.00     0.000 C 
BRANCH  17  18
ATOM     18  C   UNL     1     -13.755  -6.743  37.903  1.00  0.00     0.000 C 
BRANCH  18  19
ATOM     19  C   UNL     1     -13.037  -6.798  39.262  1.00  0.00     0.000 C 
BRANCH  19  20
ATOM     20  C   UNL     1     -11.760  -7.658  39.222  1.00  0.00     0.006 C 
BRANCH  20  21
ATOM     21  C   UNL     1     -11.660  -8.489  37.936  1.00  0.00     0.053 C 
BRANCH  21  22
ATOM     22  C   UNL     1     -10.622  -9.564  38.046  1.00  0.00     0.041 C 
ATOM     23  O   UNL     1      -9.989  -9.941  37.024  1.00  0.00    -0.550 OA
ATOM     24  O   UNL     1     -10.369 -10.164  39.273  1.00  0.00    -0.550 OA
ENDBRANCH  21  22
ENDBRANCH  20  21
ENDBRANCH  19  20
ENDBRANCH  18  19
ENDBRANCH  17  18
ENDBRANCH  16  17
ENDBRANCH  15  16
ENDBRANCH  14  15
ENDBRANCH  13  14
ENDBRANCH   1  13
TORSDOF 20
ENDMDL
MODEL 2
REMARK VINA RESULT:    -5.625      1.144      2.015
REMARK INTER + INTRA:         -14.365
REMARK INTER:                 -11.752
REMARK INTRA:                  -2.614
REMARK UNBOUND:                -2.163
REMARK SMILES CCCCCCCCCCCCCCCCCCCCCC(=O)[O-]
REMARK SMILES IDX 12 1 11 2 10 3 9 4 8 5 7 6 6 7 5 8 4 9 3 10 2 11 1 12 13 13
REMARK SMILES IDX 14 14 15 15 16 16 17 17 18 18 19 19 20 20 21 21 22 22 23 23
REMARK SMILES IDX 24 24
REMARK H PARENT
REMARK Flexibility Score: inf
ROOT
ATOM      1  C   UNL     1     -16.898  -8.140  43.656  1.00  0.00     0.000 C 
ENDROOT
BRANCH   1   2
ATOM      2  C   UNL     1     -17.289  -9.606  43.931  1.00  0.00     0.000 C 
BRANCH   2   3
ATOM      3  C   UNL     1     -16.161 -10.493  44.494  1.00  0.00     0.000 C 
BRANCH   3   4
ATOM      4  C   UNL     1     -14.908  -9.732  44.966  1.00  0.00    -0.000 C 
BRANCH   4   5
ATOM      5  C   UNL     1     -14.187 -10.352  46.178  1.00  0.00    -0.000 C 
BRANCH   5   6
ATOM      6  C   UNL     1     -15.028 -11.403  46.934  1.00  0.00    -0.000 C 
BRANCH   6   7
ATOM      7  C   UNL     1     -15.083 -11.140  48.446  1.00  0.00    -0.000 C 
BRANCH   7   8
ATOM      8  C   UNL     1     -15.696  -9.763  48.741  1.00  0.00    -0.000 C 
BRANCH   8   9
ATOM      9  C   UNL     1     -17.047  -9.548  48.038  1.00  0.00    -0.000 C 
BRANCH   9  10
ATOM     10  C   UNL     1     -17.206  -8.181  47.342  1.00  0.00    -0.000 C 
BRANCH  10  11
ATOM     11  C   UNL     1     -16.002  -7.236  47.547  1.00  0.00    -0.003 C 
ATOM     12  C   UNL     1     -15.983  -6.085  46.542  1.00  0.00     0.004 C 
ENDBRANCH  10  11
ENDBRANCH   9  10
ENDBRANCH   8   9
ENDBRANCH   7   8
ENDBRANCH   6   7
ENDBRANCH   5   6
ENDBRANCH   4   5
ENDBRANCH   3   4
ENDBRANCH   2   3
ENDBRANCH   1   2
BRANCH   1  13
ATOM     13  C   UNL     1     -18.071  -7.143  43.654  1.00  0.00     0.000 C 
BRANCH  13  14
ATOM     14  C   UNL     1     -18.125  -6.288  42.380  1.00  0.00     0.000 C 
BRANCH  14  15
ATOM     15  C   UNL     1     -17.201  -6.859  41.298  1.00  0.00     0.000 C 
BRANCH  15  16
ATOM     16  C   UNL     1     -17.829  -6.716  39.906  1.00  0.00     0.000 C 
BRANCH  16  17
ATOM     17  C   UNL     1     -16.962  -5.835  38.998  1.00  0.00     0.000 C 
BRANCH  17  18
ATOM     18  C   UNL     1     -15.534  -5.715  39.551  1.00  0.00     0.000 C 
BRANCH  18  19
ATOM     19  C   UNL     1     -14.491  -6.401  38.652  1.00  0.00     0.000 C 
BRANCH  19  20
ATOM     20  C   UNL     1     -13.108  -6.500  39.321  1.00  0.00     0.006 C 
BRANCH  20  21
ATOM     21  C   UNL     1     -12.197  -7.520  38.623  1.00  0.00     0.053 C 
BRANCH  21  22
ATOM     22  C   UNL     1     -11.419  -8.338  39.608  1.00  0.00     0.041 C 
ATOM     23  O   UNL     1     -10.796  -9.364  39.228  1.00  0.00    -0.550 OA
ATOM     24  O   UNL     1     -11.400  -7.979  40.950  1.00  0.00    -0.550 OA
ENDBRANCH  21  22
ENDBRANCH  20  21
ENDBRANCH  19  20
ENDBRANCH  18  19
ENDBRANCH  17  18
ENDBRANCH  16  17
ENDBRANCH  15  16
ENDBRANCH  14  15
ENDBRANCH  13  14
ENDBRANCH   1  13
TORSDOF 20
ENDMDL
MODEL 3
REMARK VINA RESULT:    -5.529      3.340      8.509
REMARK INTER + INTRA:         -14.155
REMARK INTER:                 -12.721
REMARK INTRA:                  -1.434
REMARK UNBOUND:                -2.163
REMARK SMILES CCCCCCCCCCCCCCCCCCCCCC(=O)[O-]
REMARK SMILES IDX 12 1 11 2 10 3 9 4 8 5 7 6 6 7 5 8 4 9 3 10 2 11 1 12 13 13
REMARK SMILES IDX 14 14 15 15 16 16 17 17 18 18 19 19 20 20 21 21 22 22 23 23
REMARK SMILES IDX 24 24
REMARK H PARENT
REMARK Flexibility Score: inf
ROOT
ATOM      1  C   UNL     1     -18.066  -6.828  40.081  1.00  0.00     0.000 C 
ENDROOT
BRANCH   1   2
ATOM      2  C   UNL     1     -17.021  -5.817  39.568  1.00  0.00     0.000 C 
BRANCH   2   3
ATOM      3  C   UNL     1     -16.302  -6.219  38.265  1.00  0.00     0.000 C 
BRANCH   3   4
ATOM      4  C   UNL     1     -14.824  -5.794  38.178  1.00  0.00    -0.000 C 
BRANCH   4   5
ATOM      5  C   UNL     1     -14.004  -6.507  37.087  1.00  0.00    -0.000 C 
BRANCH   5   6
ATOM      6  C   UNL     1     -12.832  -7.349  37.635  1.00  0.00    -0.000 C 
BRANCH   6   7
ATOM      7  C   UNL     1     -12.568  -7.094  39.126  1.00  0.00    -0.000 C 
BRANCH   7   8
ATOM      8  C   UNL     1     -11.384  -7.938  39.625  1.00  0.00    -0.000 C 
BRANCH   8   9
ATOM      9  C   UNL     1     -11.048  -9.109  38.686  1.00  0.00    -0.000 C 
BRANCH   9  10
ATOM     10  C   UNL     1      -9.727  -9.837  39.006  1.00  0.00    -0.000 C 
BRANCH  10  11
ATOM     11  C   UNL     1      -9.757 -10.625  40.333  1.00  0.00    -0.003 C 
ATOM     12  C   UNL     1      -8.501 -10.402  41.175  1.00  0.00     0.004 C 
ENDBRANCH  10  11
ENDBRANCH   9  10
ENDBRANCH   8   9
ENDBRANCH   7   8
ENDBRANCH   6   7
ENDBRANCH   5   6
ENDBRANCH   4   5
ENDBRANCH   3   4
ENDBRANCH   2   3
ENDBRANCH   1   2
BRANCH   1  13
ATOM     13  C   UNL     1     -17.830  -7.336  41.514  1.00  0.00     0.000 C 
BRANCH  13  14
ATOM     14  C   UNL     1     -16.789  -6.506  42.278  1.00  0.00     0.000 C 
BRANCH  14  15
ATOM     15  C   UNL     1     -16.982  -6.646  43.793  1.00  0.00     0.000 C 
BRANCH  15  16
ATOM     16  C   UNL     1     -18.125  -7.616  44.116  1.00  0.00     0.000 C 
BRANCH  16  17
ATOM     17  C   UNL     1     -17.649  -8.739  45.044  1.00  0.00     0.000 C 
BRANCH  17  18
ATOM     18  C   UNL     1     -16.379  -9.405  44.494  1.00  0.00     0.000 C 
BRANCH  18  19
ATOM     19  C   UNL     1     -16.212 -10.855  44.979  1.00  0.00     0.000 C 
BRANCH  19  20
ATOM     20  C   UNL     1     -15.144 -10.991  46.080  1.00  0.00     0.006 C 
BRANCH  20  21
ATOM     21  C   UNL     1     -15.760 -11.012  47.486  1.00  0.00     0.053 C 
BRANCH  21  22
ATOM     22  C   UNL     1     -15.563  -9.710  48.201  1.00  0.00     0.041 C 
ATOM     23  O   UNL     1     -15.054  -8.727  47.599  1.00  0.00    -0.550 OA
ATOM     24  O   UNL     1     -15.922  -9.589  49.537  1.00  0.00    -0.550 OA
ENDBRANCH  21  22
ENDBRANCH  20  21
ENDBRANCH  19  20
ENDBRANCH  18  19
ENDBRANCH  17  18
ENDBRANCH  16  17
ENDBRANCH  15  16
ENDBRANCH  14  15
ENDBRANCH  13  14
ENDBRANCH   1  13
TORSDOF 20
ENDMDL
MODEL 4
REMARK VINA RESULT:    -5.468      2.558      5.144
REMARK INTER + INTRA:         -14.025
REMARK INTER:                 -10.858
REMARK INTRA:                  -3.167
REMARK UNBOUND:                -2.163
REMARK SMILES CCCCCCCCCCCCCCCCCCCCCC(=O)[O-]
REMARK SMILES IDX 12 1 11 2 10 3 9 4 8 5 7 6 6 7 5 8 4 9 3 10 2 11 1 12 13 13
REMARK SMILES IDX 14 14 15 15 16 16 17 17 18 18 19 19 20 20 21 21 22 22 23 23
REMARK SMILES IDX 24 24
REMARK H PARENT
REMARK Flexibility Score: inf
ROOT
ATOM      1  C   UNL     1     -14.433  -9.507  45.185  1.00  0.00     0.000 C 
ENDROOT
BRANCH   1   2
ATOM      2  C   UNL     1     -13.171  -9.778  46.030  1.00  0.00     0.000 C 
BRANCH   2   3
ATOM      3  C   UNL     1     -13.325 -10.869  47.109  1.00  0.00     0.000 C 
BRANCH   3   4
ATOM      4  C   UNL     1     -13.823 -10.366  48.477  1.00  0.00    -0.000 C 
BRANCH   4   5
ATOM      5  C   UNL     1     -15.275 -10.748  48.821  1.00  0.00    -0.000 C 
BRANCH   5   6
ATOM      6  C   UNL     1     -16.289  -9.603  48.610  1.00  0.00    -0.000 C 
BRANCH   6   7
ATOM      7  C   UNL     1     -15.615  -8.225  48.519  1.00  0.00    -0.000 C 
BRANCH   7   8
ATOM      8  C   UNL     1     -16.371  -7.308  47.545  1.00  0.00    -0.000 C 
BRANCH   8   9
ATOM      9  C   UNL     1     -15.485  -6.191  46.968  1.00  0.00    -0.000 C 
BRANCH   9  10
ATOM     10  C   UNL     1     -15.882  -5.715  45.556  1.00  0.00    -0.000 C 
BRANCH  10  11
ATOM     11  C   UNL     1     -14.873  -6.115  44.458  1.00  0.00    -0.003 C 
ATOM     12  C   UNL     1     -13.542  -5.375  44.589  1.00  0.00     0.004 C 
ENDBRANCH  10  11
ENDBRANCH   9  10
ENDBRANCH   8   9
ENDBRANCH   7   8
ENDBRANCH   6   7
ENDBRANCH   5   6
ENDBRANCH   4   5
ENDBRANCH   3   4
ENDBRANCH   2   3
ENDBRANCH   1   2
BRANCH   1  13
ATOM     13  C   UNL     1     -15.429 -10.678  45.110  1.00  0.00     0.000 C 
BRANCH  13  14
ATOM     14  C   UNL     1     -16.673 -10.350  44.272  1.00  0.00     0.000 C 
BRANCH  14  15
ATOM     15  C   UNL     1     -17.664  -9.497  45.074  1.00  0.00     0.000 C 
BRANCH  15  16
ATOM     16  C   UNL     1     -18.112  -8.271  44.269  1.00  0.00     0.000 C 
BRANCH  16  17
ATOM     17  C   UNL     1     -17.992  -8.527  42.762  1.00  0.00     0.000 C 
BRANCH  17  18
ATOM     18  C   UNL     1     -17.500  -7.269  42.029  1.00  0.00     0.000 C 
BRANCH  18  19
ATOM     19  C   UNL     1     -17.875  -7.268  40.538  1.00  0.00     0.000 C 
BRANCH  19  20
ATOM     20  C   UNL     1     -17.336  -6.032  39.794  1.00  0.00     0.006 C 
BRANCH  20  21
ATOM     21  C   UNL     1     -16.599  -6.409  38.501  1.00  0.00     0.053 C 
BRANCH  21  22
ATOM     22  C   UNL     1     -15.199  -5.873  38.481  1.00  0.00     0.041 C 
ATOM     23  O   UNL     1     -14.281  -6.519  37.911  1.00  0.00    -0.550 OA
ATOM     24  O   UNL     1     -14.906  -4.670  39.111  1.00  0.00    -0.550 OA
ENDBRANCH  21  22
ENDBRANCH  20  21
ENDBRANCH  19  20
ENDBRANCH  18  19
ENDBRANCH  17  18
ENDBRANCH  16  17
ENDBRANCH  15  16
ENDBRANCH  14  15
ENDBRANCH  13  14
ENDBRANCH   1  13
TORSDOF 20
ENDMDL
MODEL 5
REMARK VINA RESULT:    -5.445      1.939      4.059
REMARK INTER + INTRA:         -13.975
REMARK INTER:                 -11.119
REMARK INTRA:                  -2.855
REMARK UNBOUND:                -2.163
REMARK SMILES CCCCCCCCCCCCCCCCCCCCCC(=O)[O-]
REMARK SMILES IDX 12 1 11 2 10 3 9 4 8 5 7 6 6 7 5 8 4 9 3 10 2 11 1 12 13 13
REMARK SMILES IDX 14 14 15 15 16 16 17 17 18 18 19 19 20 20 21 21 22 22 23 23
REMARK SMILES IDX 24 24
REMARK H PARENT
REMARK Flexibility Score: inf
ROOT
ATOM      1  C   UNL     1     -17.342  -7.977  46.163  1.00  0.00     0.000 C 
ENDROOT
BRANCH   1   2
ATOM      2  C   UNL     1     -16.675  -8.212  47.534  1.00  0.00     0.000 C 
BRANCH   2   3
ATOM      3  C   UNL     1     -16.935  -9.595  48.163  1.00  0.00     0.000 C 
BRANCH   3   4
ATOM      4  C   UNL     1     -15.672 -10.356  48.608  1.00  0.00    -0.000 C 
BRANCH   4   5
ATOM      5  C   UNL     1     -15.167 -11.417  47.613  1.00  0.00    -0.000 C 
BRANCH   5   6
ATOM      6  C   UNL     1     -13.630 -11.469  47.480  1.00  0.00    -0.000 C 
BRANCH   6   7
ATOM      7  C   UNL     1     -13.064 -10.283  46.685  1.00  0.00    -0.000 C 
BRANCH   7   8
ATOM      8  C   UNL     1     -13.945  -9.970  45.466  1.00  0.00    -0.000 C 
BRANCH   8   9
ATOM      9  C   UNL     1     -13.643  -8.594  44.849  1.00  0.00    -0.000 C 
BRANCH   9  10
ATOM     10  C   UNL     1     -12.945  -7.598  45.797  1.00  0.00    -0.000 C 
BRANCH  10  11
ATOM     11  C   UNL     1     -13.852  -6.438  46.257  1.00  0.00    -0.003 C 
ATOM     12  C   UNL     1     -14.236  -5.503  45.110  1.00  0.00     0.004 C 
ENDBRANCH  10  11
ENDBRANCH   9  10
ENDBRANCH   8   9
ENDBRANCH   7   8
ENDBRANCH   6   7
ENDBRANCH   5   6
ENDBRANCH   4   5
ENDBRANCH   3   4
ENDBRANCH   2   3
ENDBRANCH   1   2
BRANCH   1  13
ATOM     13  C   UNL     1     -17.501  -9.238  45.294  1.00  0.00     0.000 C 
BRANCH  13  14
ATOM     14  C   UNL     1     -17.436  -8.937  43.790  1.00  0.00     0.000 C 
BRANCH  14  15
ATOM     15  C   UNL     1     -16.949  -7.505  43.539  1.00  0.00     0.000 C 
BRANCH  15  16
ATOM     16  C   UNL     1     -17.839  -6.793  42.513  1.00  0.00     0.000 C 
BRANCH  16  17
ATOM     17  C   UNL     1     -17.060  -6.479  41.230  1.00  0.00     0.000 C 
BRANCH  17  18
ATOM     18  C   UNL     1     -17.670  -7.211  40.025  1.00  0.00     0.000 C 
BRANCH  18  19
ATOM     19  C   UNL     1     -17.194  -6.638  38.680  1.00  0.00     0.000 C 
BRANCH  19  20
ATOM     20  C   UNL     1     -16.028  -5.645  38.840  1.00  0.00     0.006 C 
BRANCH  20  21
ATOM     21  C   UNL     1     -14.971  -5.808  37.739  1.00  0.00     0.053 C 
BRANCH  21  22
ATOM     22  C   UNL     1     -13.782  -6.585  38.219  1.00  0.00     0.041 C 
ATOM     23  O   UNL     1     -13.446  -6.545  39.432  1.00  0.00    -0.550 OA
ATOM     24  O   UNL     1     -13.034  -7.336  37.321  1.00  0.00    -0.550 OA
ENDBRANCH  21  22
ENDBRANCH  20  21
ENDBRANCH  19  20
ENDBRANCH  18  19
ENDBRANCH  17  18
ENDBRANCH  16  17
ENDBRANCH  15  16
ENDBRANCH  14  15
ENDBRANCH  13  14
ENDBRANCH   1  13
TORSDOF 20
ENDMDL
MODEL 6
REMARK VINA RESULT:    -5.420      3.702      8.702
REMARK INTER + INTRA:         -13.919
REMARK INTER:                 -11.120
REMARK INTRA:                  -2.800
REMARK UNBOUND:                -2.163
REMARK SMILES CCCCCCCCCCCCCCCCCCCCCC(=O)[O-]
REMARK SMILES IDX 12 1 11 2 10 3 9 4 8 5 7 6 6 7 5 8 4 9 3 10 2 11 1 12 13 13
REMARK SMILES IDX 14 14 15 15 16 16 17 17 18 18 19 19 20 20 21 21 22 22 23 23
REMARK SMILES IDX 24 24
REMARK H PARENT
REMARK Flexibility Score: inf
ROOT
ATOM      1  C   UNL     1     -15.737 -10.747  44.870  1.00  0.00     0.000 C 
ENDROOT
BRANCH   1   2
ATOM      2  C   UNL     1     -16.973  -9.989  44.345  1.00  0.00     0.000 C 
BRANCH   2   3
ATOM      3  C   UNL     1     -17.332  -8.703  45.117  1.00  0.00     0.000 C 
BRANCH   3   4
ATOM      4  C   UNL     1     -17.720  -7.501  44.236  1.00  0.00    -0.000 C 
BRANCH   4   5
ATOM      5  C   UNL     1     -17.341  -7.633  42.749  1.00  0.00    -0.000 C 
BRANCH   5   6
ATOM      6  C   UNL     1     -16.581  -6.412  42.187  1.00  0.00    -0.000 C 
BRANCH   6   7
ATOM      7  C   UNL     1     -15.173  -6.266  42.783  1.00  0.00    -0.000 C 
BRANCH   7   8
ATOM      8  C   UNL     1     -14.141  -5.971  41.683  1.00  0.00    -0.000 C 
BRANCH   8   9
ATOM      9  C   UNL     1     -14.775  -5.381  40.412  1.00  0.00    -0.000 C 
BRANCH   9  10
ATOM     10  C   UNL     1     -14.305  -6.028  39.093  1.00  0.00    -0.000 C 
BRANCH  10  11
ATOM     11  C   UNL     1     -15.380  -6.034  37.986  1.00  0.00    -0.003 C 
ATOM     12  C   UNL     1     -16.780  -6.321  38.531  1.00  0.00     0.004 C 
ENDBRANCH  10  11
ENDBRANCH   9  10
ENDBRANCH   8   9
ENDBRANCH   7   8
ENDBRANCH   6   7
ENDBRANCH   5   6
ENDBRANCH   4   5
ENDBRANCH   3   4
ENDBRANCH   2   3
ENDBRANCH   1   2
BRANCH   1  13
ATOM     13  C   UNL     1     -14.535  -9.857  45.234  1.00  0.00     0.000 C 
BRANCH  13  14
ATOM     14  C   UNL     1     -13.838 -10.297  46.529  1.00  0.00     0.000 C 
BRANCH  14  15
ATOM     15  C   UNL     1     -14.649 -11.383  47.246  1.00  0.00     0.000 C 
BRANCH  15  16
ATOM     16  C   UNL     1     -15.111 -10.904  48.628  1.00  0.00     0.000 C 
BRANCH  16  17
ATOM     17  C   UNL     1     -16.218  -9.851  48.504  1.00  0.00     0.000 C 
BRANCH  17  18
ATOM     18  C   UNL     1     -15.821  -8.551  49.219  1.00  0.00     0.000 C 
BRANCH  18  19
ATOM     19  C   UNL     1     -15.667  -7.365  48.252  1.00  0.00     0.000 C 
BRANCH  19  20
ATOM     20  C   UNL     1     -14.197  -6.953  48.052  1.00  0.00     0.006 C 
BRANCH  20  21
ATOM     21  C   UNL     1     -13.299  -7.429  49.202  1.00  0.00     0.053 C 
BRANCH  21  22
ATOM     22  C   UNL     1     -11.963  -6.749  49.185  1.00  0.00     0.041 C 
ATOM     23  O   UNL     1     -10.909  -7.427  49.062  1.00  0.00    -0.550 OA
ATOM     24  O   UNL     1     -11.883  -5.370  49.327  1.00  0.00    -0.550 OA
ENDBRANCH  21  22
ENDBRANCH  20  21
ENDBRANCH  19  20
ENDBRANCH  18  19
ENDBRANCH  17  18
ENDBRANCH  16  17
ENDBRANCH  15  16
ENDBRANCH  14  15
ENDBRANCH  13  14
ENDBRANCH   1  13
TORSDOF 20
ENDMDL
MODEL 7
REMARK VINA RESULT:    -5.388      1.459      3.152
REMARK INTER + INTRA:         -13.850
REMARK INTER:                 -12.351
REMARK INTRA:                  -1.499
REMARK UNBOUND:                -2.163
REMARK SMILES CCCCCCCCCCCCCCCCCCCCCC(=O)[O-]
REMARK SMILES IDX 12 1 11 2 10 3 9 4 8 5 7 6 6 7 5 8 4 9 3 10 2 11 1 12 13 13
REMARK SMILES IDX 14 14 15 15 16 16 17 17 18 18 19 19 20 20 21 21 22 22 23 23
REMARK SMILES IDX 24 24
REMARK H PARENT
REMARK Flexibility Score: inf
ROOT
ATOM      1  C   UNL     1     -17.934  -6.437  40.247  1.00  0.00     0.000 C 
ENDROOT
BRANCH   1   2
ATOM      2  C   UNL     1     -18.125  -7.850  40.834  1.00  0.00     0.000 C 
BRANCH   2   3
ATOM      3  C   UNL     1     -17.816  -7.985  42.338  1.00  0.00     0.000 C 
BRANCH   3   4
ATOM      4  C   UNL     1     -16.903  -6.887  42.917  1.00  0.00    -0.000 C 
BRANCH   4   5
ATOM      5  C   UNL     1     -16.620  -7.004  44.426  1.00  0.00    -0.000 C 
BRANCH   5   6
ATOM      6  C   UNL     1     -17.713  -7.762  45.210  1.00  0.00    -0.000 C 
BRANCH   6   7
ATOM      7  C   UNL     1     -17.165  -8.995  45.945  1.00  0.00    -0.000 C 
BRANCH   7   8
ATOM      8  C   UNL     1     -16.995 -10.178  44.980  1.00  0.00    -0.000 C 
BRANCH   8   9
ATOM      9  C   UNL     1     -15.551 -10.705  44.930  1.00  0.00    -0.000 C 
BRANCH   9  10
ATOM     10  C   UNL     1     -14.682 -10.329  46.148  1.00  0.00    -0.000 C 
BRANCH  10  11
ATOM     11  C   UNL     1     -14.749 -11.356  47.299  1.00  0.00    -0.003 C 
ATOM     12  C   UNL     1     -15.080 -10.708  48.644  1.00  0.00     0.004 C 
ENDBRANCH  10  11
ENDBRANCH   9  10
ENDBRANCH   8   9
ENDBRANCH   7   8
ENDBRANCH   6   7
ENDBRANCH   5   6
ENDBRANCH   4   5
ENDBRANCH   3   4
ENDBRANCH   2   3
ENDBRANCH   1   2
BRANCH   1  13
ATOM     13  C   UNL     1     -17.147  -6.383  38.925  1.00  0.00     0.000 C 
BRANCH  13  14
ATOM     14  C   UNL     1     -15.685  -5.956  39.118  1.00  0.00     0.000 C 
BRANCH  14  15
ATOM     15  C   UNL     1     -14.973  -5.816  37.767  1.00  0.00     0.000 C 
BRANCH  15  16
ATOM     16  C   UNL     1     -13.820  -6.820  37.645  1.00  0.00     0.000 C 
BRANCH  16  17
ATOM     17  C   UNL     1     -12.915  -6.773  38.881  1.00  0.00     0.000 C 
BRANCH  17  18
ATOM     18  C   UNL     1     -11.977  -7.989  38.922  1.00  0.00     0.000 C 
BRANCH  18  19
ATOM     19  C   UNL     1     -11.568  -8.470  37.519  1.00  0.00     0.000 C 
BRANCH  19  20
ATOM     20  C   UNL     1     -10.962  -9.885  37.533  1.00  0.00     0.006 C 
BRANCH  20  21
ATOM     21  C   UNL     1      -9.508  -9.889  38.024  1.00  0.00     0.053 C 
BRANCH  21  22
ATOM     22  C   UNL     1      -8.562  -9.399  36.970  1.00  0.00     0.041 C 
ATOM     23  O   UNL     1      -7.518  -8.774  37.296  1.00  0.00    -0.550 OA
ATOM     24  O   UNL     1      -8.845  -9.614  35.627  1.00  0.00    -0.550 OA
ENDBRANCH  21  22
ENDBRANCH  20  21
ENDBRANCH  19  20
ENDBRANCH  18  19
ENDBRANCH  17  18
ENDBRANCH  16  17
ENDBRANCH  15  16
ENDBRANCH  14  15
ENDBRANCH  13  14
ENDBRANCH   1  13
TORSDOF 20
ENDMDL
MODEL 8
REMARK VINA RESULT:    -5.387      1.805      3.240
REMARK INTER + INTRA:         -13.849
REMARK INTER:                 -10.843
REMARK INTRA:                  -3.006
REMARK UNBOUND:                -2.163
REMARK SMILES CCCCCCCCCCCCCCCCCCCCCC(=O)[O-]
REMARK SMILES IDX 12 1 11 2 10 3 9 4 8 5 7 6 6 7 5 8 4 9 3 10 2 11 1 12 13 13
REMARK SMILES IDX 14 14 15 15 16 16 17 17 18 18 19 19 20 20 21 21 22 22 23 23
REMARK SMILES IDX 24 24
REMARK H PARENT
REMARK Flexibility Score: inf
ROOT
ATOM      1  C   UNL     1     -14.778  -6.114  43.062  1.00  0.00     0.000 C 
ENDROOT
BRANCH   1   2
ATOM      2  C   UNL     1     -14.407  -6.700  44.440  1.00  0.00     0.000 C 
BRANCH   2   3
ATOM      3  C   UNL     1     -13.086  -7.493  44.483  1.00  0.00     0.000 C 
BRANCH   3   4
ATOM      4  C   UNL     1     -12.919  -8.415  45.705  1.00  0.00    -0.000 C 
BRANCH   4   5
ATOM      5  C   UNL     1     -13.229  -9.901  45.448  1.00  0.00    -0.000 C 
BRANCH   5   6
ATOM      6  C   UNL     1     -14.128 -10.547  46.523  1.00  0.00    -0.000 C 
BRANCH   6   7
ATOM      7  C   UNL     1     -15.448 -11.082  45.947  1.00  0.00    -0.000 C 
BRANCH   7   8
ATOM      8  C   UNL     1     -16.314  -9.935  45.404  1.00  0.00    -0.000 C 
BRANCH   8   9
ATOM      9  C   UNL     1     -17.377  -9.462  46.409  1.00  0.00    -0.000 C 
BRANCH   9  10
ATOM     10  C   UNL     1     -17.358  -7.950  46.710  1.00  0.00    -0.000 C 
BRANCH  10  11
ATOM     11  C   UNL     1     -16.086  -7.480  47.448  1.00  0.00    -0.003 C 
ATOM     12  C   UNL     1     -15.868  -8.219  48.768  1.00  0.00     0.004 C 
ENDBRANCH  10  11
ENDBRANCH   9  10
ENDBRANCH   8   9
ENDBRANCH   7   8
ENDBRANCH   6   7
ENDBRANCH   5   6
ENDBRANCH   4   5
ENDBRANCH   3   4
ENDBRANCH   2   3
ENDBRANCH   1   2
BRANCH   1  13
ATOM     13  C   UNL     1     -16.282  -6.129  42.733  1.00  0.00     0.000 C 
BRANCH  13  14
ATOM     14  C   UNL     1     -16.932  -7.497  42.977  1.00  0.00     0.000 C 
BRANCH  14  15
ATOM     15  C   UNL     1     -18.067  -7.750  41.977  1.00  0.00     0.000 C 
BRANCH  15  16
ATOM     16  C   UNL     1     -18.019  -6.741  40.823  1.00  0.00     0.000 C 
BRANCH  16  17
ATOM     17  C   UNL     1     -17.772  -7.446  39.484  1.00  0.00     0.000 C 
BRANCH  17  18
ATOM     18  C   UNL     1     -16.910  -6.576  38.556  1.00  0.00     0.000 C 
BRANCH  18  19
ATOM     19  C   UNL     1     -16.373  -5.316  39.255  1.00  0.00     0.000 C 
BRANCH  19  20
ATOM     20  C   UNL     1     -14.896  -5.037  38.918  1.00  0.00     0.006 C 
BRANCH  20  21
ATOM     21  C   UNL     1     -14.165  -6.294  38.427  1.00  0.00     0.053 C 
BRANCH  21  22
ATOM     22  C   UNL     1     -12.980  -6.621  39.283  1.00  0.00     0.041 C 
ATOM     23  O   UNL     1     -12.335  -7.686  39.095  1.00  0.00    -0.550 OA
ATOM     24  O   UNL     1     -12.601  -5.758  40.304  1.00  0.00    -0.550 OA
ENDBRANCH  21  22
ENDBRANCH  20  21
ENDBRANCH  19  20
ENDBRANCH  18  19
ENDBRANCH  17  18
ENDBRANCH  16  17
ENDBRANCH  15  16
ENDBRANCH  14  15
ENDBRANCH  13  14
ENDBRANCH   1  13
TORSDOF 20
ENDMDL
MODEL 9
REMARK VINA RESULT:    -5.381      2.293      4.978
REMARK INTER + INTRA:         -13.835
REMARK INTER:                 -10.860
REMARK INTRA:                  -2.975
REMARK UNBOUND:                -2.163
REMARK SMILES CCCCCCCCCCCCCCCCCCCCCC(=O)[O-]
REMARK SMILES IDX 12 1 11 2 10 3 9 4 8 5 7 6 6 7 5 8 4 9 3 10 2 11 1 12 13 13
REMARK SMILES IDX 14 14 15 15 16 16 17 17 18 18 19 19 20 20 21 21 22 22 23 23
REMARK SMILES IDX 24 24
REMARK H PARENT
REMARK Flexibility Score: inf
ROOT
ATOM      1  C   UNL     1     -15.160 -10.150  45.163  1.00  0.00     0.000 C 
ENDROOT
BRANCH   1   2
ATOM      2  C   UNL     1     -14.862 -10.707  46.570  1.00  0.00     0.000 C 
BRANCH   2   3
ATOM      3  C   UNL     1     -16.095 -10.909  47.473  1.00  0.00     0.000 C 
BRANCH   3   4
ATOM      4  C   UNL     1     -16.681  -9.617  48.074  1.00  0.00    -0.000 C 
BRANCH   4   5
ATOM      5  C   UNL     1     -15.865  -9.007  49.228  1.00  0.00    -0.000 C 
BRANCH   5   6
ATOM      6  C   UNL     1     -15.518  -7.516  49.028  1.00  0.00    -0.000 C 
BRANCH   6   7
ATOM      7  C   UNL     1     -15.528  -7.099  47.550  1.00  0.00    -0.000 C 
BRANCH   7   8
ATOM      8  C   UNL     1     -14.103  -7.080  46.977  1.00  0.00    -0.000 C 
BRANCH   8   9
ATOM      9  C   UNL     1     -14.061  -6.670  45.495  1.00  0.00    -0.000 C 
BRANCH   9  10
ATOM     10  C   UNL     1     -12.866  -7.233  44.700  1.00  0.00    -0.000 C 
BRANCH  10  11
ATOM     11  C   UNL     1     -11.996  -8.223  45.505  1.00  0.00    -0.003 C 
ATOM     12  C   UNL     1     -11.581  -9.442  44.681  1.00  0.00     0.004 C 
ENDBRANCH  10  11
ENDBRANCH   9  10
ENDBRANCH   8   9
ENDBRANCH   7   8
ENDBRANCH   6   7
ENDBRANCH   5   6
ENDBRANCH   4   5
ENDBRANCH   3   4
ENDBRANCH   2   3
ENDBRANCH   1   2
BRANCH   1  13
ATOM     13  C   UNL     1     -16.428 -10.714  44.497  1.00  0.00     0.000 C 
BRANCH  13  14
ATOM     14  C   UNL     1     -17.237  -9.644  43.752  1.00  0.00     0.000 C 
BRANCH  14  15
ATOM     15  C   UNL     1     -17.527  -8.444  44.663  1.00  0.00     0.000 C 
BRANCH  15  16
ATOM     16  C   UNL     1     -17.387  -7.124  43.896  1.00  0.00     0.000 C 
BRANCH  16  17
ATOM     17  C   UNL     1     -17.980  -7.239  42.487  1.00  0.00     0.000 C 
BRANCH  17  18
ATOM     18  C   UNL     1     -17.051  -6.595  41.446  1.00  0.00     0.000 C 
BRANCH  18  19
ATOM     19  C   UNL     1     -17.463  -6.923  40.001  1.00  0.00     0.000 C 
BRANCH  19  20
ATOM     20  C   UNL     1     -17.082  -5.807  39.011  1.00  0.00     0.006 C 
BRANCH  20  21
ATOM     21  C   UNL     1     -15.611  -5.390  39.143  1.00  0.00     0.053 C 
BRANCH  21  22
ATOM     22  C   UNL     1     -14.760  -5.999  38.070  1.00  0.00     0.041 C 
ATOM     23  O   UNL     1     -15.025  -5.790  36.856  1.00  0.00    -0.550 OA
ATOM     24  O   UNL     1     -13.688  -6.813  38.411  1.00  0.00    -0.550 OA
ENDBRANCH  21  22
ENDBRANCH  20  21
ENDBRANCH  19  20
ENDBRANCH  18  19
ENDBRANCH  17  18
ENDBRANCH  16  17
ENDBRANCH  15  16
ENDBRANCH  14  15
ENDBRANCH  13  14
ENDBRANCH   1  13
TORSDOF 20
ENDMDL
