MODEL 1
REMARK VINA RESULT:    -4.123      0.000      0.000
REMARK INTER + INTRA:         -13.787
REMARK INTER:                 -10.871
REMARK INTRA:                  -2.916
REMARK UNBOUND:                -2.916
REMARK SMILES CCCCCCCCCCCCCCCCCCCCCCCCCCCCCC(=O)[O-]
REMARK SMILES IDX 16 1 17 2 18 3 19 4 20 5 21 6 22 7 23 8 24 9 25 10 26 11
REMARK SMILES IDX 27 12 28 13 29 14 30 15 31 16 32 17 15 18 14 19 13 20 12 21
REMARK SMILES IDX 11 22 10 23 9 24 8 25 7 26 6 27 5 28 4 29 3 30 2 31 1 32
REMARK H PARENT
REMARK Flexibility Score: inf
ROOT
ATOM      1  C   UNL     1       6.173   9.389   8.783  1.00  0.00     0.000 C 
ENDROOT
BRANCH   1   2
ATOM      2  C   UNL     1       4.788  10.003   9.030  1.00  0.00     0.000 C 
BRANCH   2   3
ATOM      3  C   UNL     1       3.705   9.224   8.263  1.00  0.00     0.000 C 
BRANCH   3   4
ATOM      4  C   UNL     1       2.283   9.555   8.740  1.00  0.00     0.000 C 
BRANCH   4   5
ATOM      5  C   UNL     1       1.249   8.519   8.266  1.00  0.00     0.000 C 
BRANCH   5   6
ATOM      6  C   UNL     1       1.319   7.199   9.054  1.00  0.00     0.000 C 
BRANCH   6   7
ATOM      7  C   UNL     1       0.904   7.299  10.535  1.00  0.00     0.000 C 
BRANCH   7   8
ATOM      8  C   UNL     1       1.997   6.918  11.554  1.00  0.00     0.000 C 
BRANCH   8   9
ATOM      9  C   UNL     1       2.810   8.103  12.108  1.00  0.00     0.000 C 
BRANCH   9  10
ATOM     10  C   UNL     1       4.323   7.941  11.885  1.00  0.00     0.000 C 
BRANCH  10  11
ATOM     11  C   UNL     1       4.664   6.736  10.992  1.00  0.00     0.000 C 
BRANCH  11  12
ATOM     12  C   UNL     1       5.346   5.602  11.775  1.00  0.00     0.000 C 
BRANCH  12  13
ATOM     13  C   UNL     1       4.779   4.212  11.430  1.00  0.00     0.006 C 
BRANCH  13  14
ATOM     14  C   UNL     1       3.844   4.192  10.210  1.00  0.00     0.053 C 
BRANCH  14  15
ATOM     15  C   UNL     1       2.655   3.307  10.428  1.00  0.00     0.041 C 
ATOM     16  O   UNL     1       2.800   2.170  10.950  1.00  0.00    -0.550 OA
ATOM     17  O   UNL     1       1.386   3.745  10.081  1.00  0.00    -0.550 OA
ENDBRANCH  14  15
ENDBRANCH  13  14
ENDBRANCH  12  13
ENDBRANCH  11  12
ENDBRANCH  10  11
ENDBRANCH   9  10
ENDBRANCH   8   9
ENDBRANCH   7   8
ENDBRANCH   6   7
ENDBRANCH   5   6
ENDBRANCH   4   5
ENDBRANCH   3   4
ENDBRANCH   2   3
ENDBRANCH   1   2
BRANCH   1  18
ATOM     18  C   UNL     1       7.021  10.211   7.796  1.00  0.00     0.000 C 
BRANCH  18  19
ATOM     19  C   UNL     1       7.055   9.586   6.393  1.00  0.00     0.000 C 
BRANCH  19  20
ATOM     20  C   UNL     1       6.151  10.325   5.389  1.00  0.00     0.000 C 
BRANCH  20  21
ATOM     21  C   UNL     1       6.135   9.654   4.004  1.00  0.00     0.000 C 
BRANCH  21  22
ATOM     22  C   UNL     1       7.312  10.098   3.115  1.00  0.00     0.000 C 
BRANCH  22  23
ATOM     23  C   UNL     1       8.263   8.948   2.720  1.00  0.00     0.000 C 
BRANCH  23  24
ATOM     24  C   UNL     1       8.402   8.756   1.201  1.00  0.00    -0.000 C 
BRANCH  24  25
ATOM     25  C   UNL     1       8.738   7.303   0.818  1.00  0.00    -0.000 C 
BRANCH  25  26
ATOM     26  C   UNL     1       7.553   6.347   1.050  1.00  0.00    -0.000 C 
BRANCH  26  27
ATOM     27  C   UNL     1       7.910   4.850   0.944  1.00  0.00    -0.000 C 
BRANCH  27  28
ATOM     28  C   UNL     1       6.797   3.952   0.364  1.00  0.00    -0.000 C 
BRANCH  28  29
ATOM     29  C   UNL     1       7.280   2.598  -0.198  1.00  0.00    -0.000 C 
BRANCH  29  30
ATOM     30  C   UNL     1       6.165   1.566  -0.453  1.00  0.00    -0.000 C 
BRANCH  30  31
ATOM     31  C   UNL     1       6.484   0.624  -1.623  1.00  0.00    -0.003 C 
ATOM     32  C   UNL     1       6.401   1.357  -2.962  1.00  0.00     0.004 C 
ENDBRANCH  30  31
ENDBRANCH  29  30
ENDBRANCH  28  29
ENDBRANCH  27  28
ENDBRANCH  26  27
ENDBRANCH  25  26
ENDBRANCH  24  25
ENDBRANCH  23  24
ENDBRANCH  22  23
ENDBRANCH  21  22
ENDBRANCH  20  21
ENDBRANCH  19  20
ENDBRANCH  18  19
ENDBRANCH   1  18
TORSDOF 28
ENDMDL
MODEL 2
REMARK VINA RESULT:    -4.038      3.766     10.838
REMARK INTER + INTRA:         -13.562
REMARK INTER:                 -10.382
REMARK INTRA:                  -3.181
REMARK UNBOUND:                -2.916
REMARK SMILES CCCCCCCCCCCCCCCCCCCCCCCCCCCCCC(=O)[O-]
REMARK SMILES IDX 16 1 17 2 18 3 19 4 20 5 21 6 22 7 23 8 24 9 25 10 26 11
REMARK SMILES IDX 27 12 28 13 29 14 30 15 31 16 32 17 15 18 14 19 13 20 12 21
REMARK SMILES IDX 11 22 10 23 9 24 8 25 7 26 6 27 5 28 4 29 3 30 2 31 1 32
REMARK H PARENT
REMARK Flexibility Score: inf
ROOT
ATOM      1  C   UNL     1       4.272   9.841   8.244  1.00  0.00     0.000 C 
ENDROOT
BRANCH   1   2
ATOM      2  C   UNL     1       5.065  10.423   7.065  1.00  0.00     0.000 C 
BRANCH   2   3
ATOM      3  C   UNL     1       6.577  10.252   7.290  1.00  0.00     0.000 C 
BRANCH   3   4
ATOM      4  C   UNL     1       7.201   9.195   6.367  1.00  0.00     0.000 C 
BRANCH   4   5
ATOM      5  C   UNL     1       6.712   9.321   4.914  1.00  0.00     0.000 C 
BRANCH   5   6
ATOM      6  C   UNL     1       7.866   9.392   3.898  1.00  0.00     0.000 C 
BRANCH   6   7
ATOM      7  C   UNL     1       8.134   8.088   3.122  1.00  0.00     0.000 C 
BRANCH   7   8
ATOM      8  C   UNL     1       7.620   8.066   1.667  1.00  0.00     0.000 C 
BRANCH   8   9
ATOM      9  C   UNL     1       7.602   6.676   1.005  1.00  0.00     0.000 C 
BRANCH   9  10
ATOM     10  C   UNL     1       8.584   5.692   1.664  1.00  0.00     0.000 C 
BRANCH  10  11
ATOM     11  C   UNL     1       8.181   4.222   1.450  1.00  0.00     0.000 C 
BRANCH  11  12
ATOM     12  C   UNL     1       7.209   4.047   0.273  1.00  0.00     0.000 C 
BRANCH  12  13
ATOM     13  C   UNL     1       7.596   2.879  -0.654  1.00  0.00     0.006 C 
BRANCH  13  14
ATOM     14  C   UNL     1       6.405   2.048  -1.159  1.00  0.00     0.053 C 
BRANCH  14  15
ATOM     15  C   UNL     1       6.735   1.296  -2.412  1.00  0.00     0.041 C 
ATOM     16  O   UNL     1       6.087   1.513  -3.469  1.00  0.00    -0.550 OA
ATOM     17  O   UNL     1       7.774   0.377  -2.421  1.00  0.00    -0.550 OA
ENDBRANCH  14  15
ENDBRANCH  13  14
ENDBRANCH  12  13
ENDBRANCH  11  12
ENDBRANCH  10  11
ENDBRANCH   9  10
ENDBRANCH   8   9
ENDBRANCH   7   8
ENDBRANCH   6   7
ENDBRANCH   5   6
ENDBRANCH   4   5
ENDBRANCH   3   4
ENDBRANCH   2   3
ENDBRANCH   1   2
BRANCH   1  18
ATOM     18  C   UNL     1       2.833  10.381   8.318  1.00  0.00     0.000 C 
BRANCH  18  19
ATOM     19  C   UNL     1       1.790   9.257   8.414  1.00  0.00     0.000 C 
BRANCH  19  20
ATOM     20  C   UNL     1       2.412   7.855   8.271  1.00  0.00     0.000 C 
BRANCH  20  21
ATOM     21  C   UNL     1       1.610   6.776   9.021  1.00  0.00     0.000 C 
BRANCH  21  22
ATOM     22  C   UNL     1       1.185   7.225  10.432  1.00  0.00     0.000 C 
BRANCH  22  23
ATOM     23  C   UNL     1       1.572   6.229  11.546  1.00  0.00     0.000 C 
BRANCH  23  24
ATOM     24  C   UNL     1       1.717   4.779  11.056  1.00  0.00    -0.000 C 
BRANCH  24  25
ATOM     25  C   UNL     1       2.628   3.937  11.967  1.00  0.00    -0.000 C 
BRANCH  25  26
ATOM     26  C   UNL     1       4.087   3.910  11.475  1.00  0.00    -0.000 C 
BRANCH  26  27
ATOM     27  C   UNL     1       4.329   4.668  10.153  1.00  0.00    -0.000 C 
BRANCH  27  28
ATOM     28  C   UNL     1       5.333   5.836  10.244  1.00  0.00    -0.000 C 
BRANCH  28  29
ATOM     29  C   UNL     1       5.315   6.608  11.581  1.00  0.00    -0.000 C 
BRANCH  29  30
ATOM     30  C   UNL     1       5.304   8.143  11.444  1.00  0.00    -0.000 C 
BRANCH  30  31
ATOM     31  C   UNL     1       3.967   8.766  11.870  1.00  0.00    -0.003 C 
ATOM     32  C   UNL     1       4.026  10.294  11.815  1.00  0.00     0.004 C 
ENDBRANCH  30  31
ENDBRANCH  29  30
ENDBRANCH  28  29
ENDBRANCH  27  28
ENDBRANCH  26  27
ENDBRANCH  25  26
ENDBRANCH  24  25
ENDBRANCH  23  24
ENDBRANCH  22  23
ENDBRANCH  21  22
ENDBRANCH  20  21
ENDBRANCH  19  20
ENDBRANCH  18  19
ENDBRANCH   1  18
TORSDOF 28
ENDMDL
MODEL 3
REMARK VINA RESULT:    -4.021      6.094     10.104
REMARK INTER + INTRA:         -13.518
REMARK INTER:                  -8.267
REMARK INTRA:                  -5.251
REMARK UNBOUND:                -2.916
REMARK SMILES CCCCCCCCCCCCCCCCCCCCCCCCCCCCCC(=O)[O-]
REMARK SMILES IDX 16 1 17 2 18 3 19 4 20 5 21 6 22 7 23 8 24 9 25 10 26 11
REMARK SMILES IDX 27 12 28 13 29 14 30 15 31 16 32 17 15 18 14 19 13 20 12 21
REMARK SMILES IDX 11 22 10 23 9 24 8 25 7 26 6 27 5 28 4 29 3 30 2 31 1 32
REMARK H PARENT
REMARK Flexibility Score: inf
ROOT
ATOM      1  C   UNL     1       2.500   1.308  11.237  1.00  0.00     0.000 C 
ENDROOT
BRANCH   1   2
ATOM      2  C   UNL     1       3.008   1.075  12.667  1.00  0.00     0.000 C 
BRANCH   2   3
ATOM      3  C   UNL     1       4.463   1.551  12.811  1.00  0.00     0.000 C 
BRANCH   3   4
ATOM      4  C   UNL     1       4.585   3.080  12.887  1.00  0.00     0.000 C 
BRANCH   4   5
ATOM      5  C   UNL     1       5.824   3.608  12.143  1.00  0.00     0.000 C 
BRANCH   5   6
ATOM      6  C   UNL     1       5.713   5.099  11.776  1.00  0.00     0.000 C 
BRANCH   6   7
ATOM      7  C   UNL     1       5.640   5.396  10.265  1.00  0.00     0.000 C 
BRANCH   7   8
ATOM      8  C   UNL     1       6.898   6.052   9.660  1.00  0.00     0.000 C 
BRANCH   8   9
ATOM      9  C   UNL     1       7.938   6.534  10.688  1.00  0.00     0.000 C 
BRANCH   9  10
ATOM     10  C   UNL     1       8.199   8.047  10.606  1.00  0.00     0.000 C 
BRANCH  10  11
ATOM     11  C   UNL     1       7.439   8.716   9.447  1.00  0.00     0.000 C 
BRANCH  11  12
ATOM     12  C   UNL     1       7.360  10.243   9.603  1.00  0.00     0.000 C 
BRANCH  12  13
ATOM     13  C   UNL     1       5.924  10.785   9.472  1.00  0.00     0.006 C 
BRANCH  13  14
ATOM     14  C   UNL     1       4.923   9.789   8.863  1.00  0.00     0.053 C 
BRANCH  14  15
ATOM     15  C   UNL     1       4.605  10.113   7.435  1.00  0.00     0.041 C 
ATOM     16  O   UNL     1       3.748  10.994   7.162  1.00  0.00    -0.550 OA
ATOM     17  O   UNL     1       5.273   9.464   6.408  1.00  0.00    -0.550 OA
ENDBRANCH  14  15
ENDBRANCH  13  14
ENDBRANCH  12  13
ENDBRANCH  11  12
ENDBRANCH  10  11
ENDBRANCH   9  10
ENDBRANCH   8   9
ENDBRANCH   7   8
ENDBRANCH   6   7
ENDBRANCH   5   6
ENDBRANCH   4   5
ENDBRANCH   3   4
ENDBRANCH   2   3
ENDBRANCH   1   2
BRANCH   1  18
ATOM     18  C   UNL     1       1.120   1.987  11.197  1.00  0.00     0.000 C 
BRANCH  18  19
ATOM     19  C   UNL     1       1.162   3.357  10.503  1.00  0.00     0.000 C 
BRANCH  19  20
ATOM     20  C   UNL     1       1.527   4.502  11.466  1.00  0.00     0.000 C 
BRANCH  20  21
ATOM     21  C   UNL     1       2.208   5.681  10.748  1.00  0.00     0.000 C 
BRANCH  21  22
ATOM     22  C   UNL     1       1.445   6.131   9.488  1.00  0.00     0.000 C 
BRANCH  22  23
ATOM     23  C   UNL     1       2.120   7.295   8.732  1.00  0.00     0.000 C 
BRANCH  23  24
ATOM     24  C   UNL     1       1.171   8.466   8.428  1.00  0.00    -0.000 C 
BRANCH  24  25
ATOM     25  C   UNL     1       1.246   9.579   9.489  1.00  0.00    -0.000 C 
BRANCH  25  26
ATOM     26  C   UNL     1       0.006   9.604  10.401  1.00  0.00    -0.000 C 
BRANCH  26  27
ATOM     27  C   UNL     1       0.124   8.726  11.665  1.00  0.00    -0.000 C 
BRANCH  27  28
ATOM     28  C   UNL     1       0.565   9.473  12.941  1.00  0.00    -0.000 C 
BRANCH  28  29
ATOM     29  C   UNL     1       2.092   9.609  13.122  1.00  0.00    -0.000 C 
BRANCH  29  30
ATOM     30  C   UNL     1       2.891   8.311  12.893  1.00  0.00    -0.000 C 
BRANCH  30  31
ATOM     31  C   UNL     1       4.158   8.535  12.055  1.00  0.00    -0.003 C 
ATOM     32  C   UNL     1       5.368   8.819  12.945  1.00  0.00     0.004 C 
ENDBRANCH  30  31
ENDBRANCH  29  30
ENDBRANCH  28  29
ENDBRANCH  27  28
ENDBRANCH  26  27
ENDBRANCH  25  26
ENDBRANCH  24  25
ENDBRANCH  23  24
ENDBRANCH  22  23
ENDBRANCH  21  22
ENDBRANCH  20  21
ENDBRANCH  19  20
ENDBRANCH  18  19
ENDBRANCH   1  18
TORSDOF 28
ENDMDL
MODEL 4
REMARK VINA RESULT:    -4.017      3.439     10.203
REMARK INTER + INTRA:         -13.508
REMARK INTER:                 -10.940
REMARK INTRA:                  -2.568
REMARK UNBOUND:                -2.916
REMARK SMILES CCCCCCCCCCCCCCCCCCCCCCCCCCCCCC(=O)[O-]
REMARK SMILES IDX 16 1 17 2 18 3 19 4 20 5 21 6 22 7 23 8 24 9 25 10 26 11
REMARK SMILES IDX 27 12 28 13 29 14 30 15 31 16 32 17 15 18 14 19 13 20 12 21
REMARK SMILES IDX 11 22 10 23 9 24 8 25 7 26 6 27 5 28 4 29 3 30 2 31 1 32
REMARK H PARENT
REMARK Flexibility Score: inf
ROOT
ATOM      1  C   UNL     1       6.926   9.454   9.552  1.00  0.00     0.000 C 
ENDROOT
BRANCH   1   2
ATOM      2  C   UNL     1       7.695  10.136   8.412  1.00  0.00     0.000 C 
BRANCH   2   3
ATOM      3  C   UNL     1       7.392   9.454   7.067  1.00  0.00     0.000 C 
BRANCH   3   4
ATOM      4  C   UNL     1       8.393   8.342   6.724  1.00  0.00     0.000 C 
BRANCH   4   5
ATOM      5  C   UNL     1       8.444   8.042   5.216  1.00  0.00     0.000 C 
BRANCH   5   6
ATOM      6  C   UNL     1       8.164   9.282   4.349  1.00  0.00     0.000 C 
BRANCH   6   7
ATOM      7  C   UNL     1       7.343   9.015   3.072  1.00  0.00     0.000 C 
BRANCH   7   8
ATOM      8  C   UNL     1       8.140   8.441   1.882  1.00  0.00     0.000 C 
BRANCH   8   9
ATOM      9  C   UNL     1       7.761   7.004   1.480  1.00  0.00     0.000 C 
BRANCH   9  10
ATOM     10  C   UNL     1       8.827   5.973   1.888  1.00  0.00     0.000 C 
BRANCH  10  11
ATOM     11  C   UNL     1       8.379   4.524   1.629  1.00  0.00     0.000 C 
BRANCH  11  12
ATOM     12  C   UNL     1       7.292   4.432   0.546  1.00  0.00     0.000 C 
BRANCH  12  13
ATOM     13  C   UNL     1       6.796   2.992   0.317  1.00  0.00     0.006 C 
BRANCH  13  14
ATOM     14  C   UNL     1       6.997   2.470  -1.115  1.00  0.00     0.053 C 
BRANCH  14  15
ATOM     15  C   UNL     1       6.708   1.004  -1.225  1.00  0.00     0.041 C 
ATOM     16  O   UNL     1       5.759   0.496  -0.573  1.00  0.00    -0.550 OA
ATOM     17  O   UNL     1       7.468   0.205  -2.066  1.00  0.00    -0.550 OA
ENDBRANCH  14  15
ENDBRANCH  13  14
ENDBRANCH  12  13
ENDBRANCH  11  12
ENDBRANCH  10  11
ENDBRANCH   9  10
ENDBRANCH   8   9
ENDBRANCH   7   8
ENDBRANCH   6   7
ENDBRANCH   5   6
ENDBRANCH   4   5
ENDBRANCH   3   4
ENDBRANCH   2   3
ENDBRANCH   1   2
BRANCH   1  18
ATOM     18  C   UNL     1       5.590   8.846   9.089  1.00  0.00     0.000 C 
BRANCH  18  19
ATOM     19  C   UNL     1       4.388   9.733   9.449  1.00  0.00     0.000 C 
BRANCH  19  20
ATOM     20  C   UNL     1       3.293   9.719   8.366  1.00  0.00     0.000 C 
BRANCH  20  21
ATOM     21  C   UNL     1       1.882   9.900   8.953  1.00  0.00     0.000 C 
BRANCH  21  22
ATOM     22  C   UNL     1       0.981   8.671   8.724  1.00  0.00     0.000 C 
BRANCH  22  23
ATOM     23  C   UNL     1       1.693   7.323   8.966  1.00  0.00     0.000 C 
BRANCH  23  24
ATOM     24  C   UNL     1       1.098   6.511  10.130  1.00  0.00    -0.000 C 
BRANCH  24  25
ATOM     25  C   UNL     1       1.516   7.060  11.506  1.00  0.00    -0.000 C 
BRANCH  25  26
ATOM     26  C   UNL     1       2.602   6.198  12.176  1.00  0.00    -0.000 C 
BRANCH  26  27
ATOM     27  C   UNL     1       3.944   6.156  11.416  1.00  0.00    -0.000 C 
BRANCH  27  28
ATOM     28  C   UNL     1       4.235   4.834  10.676  1.00  0.00    -0.000 C 
BRANCH  28  29
ATOM     29  C   UNL     1       3.468   3.606  11.210  1.00  0.00    -0.000 C 
BRANCH  29  30
ATOM     30  C   UNL     1       2.713   2.795  10.140  1.00  0.00    -0.000 C 
BRANCH  30  31
ATOM     31  C   UNL     1       1.758   1.756  10.746  1.00  0.00    -0.003 C 
ATOM     32  C   UNL     1       0.597   2.432  11.476  1.00  0.00     0.004 C 
ENDBRANCH  30  31
ENDBRANCH  29  30
ENDBRANCH  28  29
ENDBRANCH  27  28
ENDBRANCH  26  27
ENDBRANCH  25  26
ENDBRANCH  24  25
ENDBRANCH  23  24
ENDBRANCH  22  23
ENDBRANCH  21  22
ENDBRANCH  20  21
ENDBRANCH  19  20
ENDBRANCH  18  19
ENDBRANCH   1  18
TORSDOF 28
ENDMDL
MODEL 5
REMARK VINA RESULT:    -3.887      4.118     10.984
REMARK INTER + INTRA:         -13.165
REMARK INTER:                 -11.504
REMARK INTRA:                  -1.661
REMARK UNBOUND:                -2.916
REMARK SMILES CCCCCCCCCCCCCCCCCCCCCCCCCCCCCC(=O)[O-]
REMARK SMILES IDX 16 1 17 2 18 3 19 4 20 5 21 6 22 7 23 8 24 9 25 10 26 11
REMARK SMILES IDX 27 12 28 13 29 14 30 15 31 16 32 17 15 18 14 19 13 20 12 21
REMARK SMILES IDX 11 22 10 23 9 24 8 25 7 26 6 27 5 28 4 29 3 30 2 31 1 32
REMARK H PARENT
REMARK Flexibility Score: inf
ROOT
ATOM      1  C   UNL     1       6.366   9.492   4.672  1.00  0.00     0.000 C 
ENDROOT
BRANCH   1   2
ATOM      2  C   UNL     1       7.591   8.567   4.704  1.00  0.00     0.000 C 
BRANCH   2   3
ATOM      3  C   UNL     1       8.773   9.205   3.955  1.00  0.00     0.000 C 
BRANCH   3   4
ATOM      4  C   UNL     1       8.498   9.394   2.456  1.00  0.00     0.000 C 
BRANCH   4   5
ATOM      5  C   UNL     1       7.828   8.161   1.823  1.00  0.00     0.000 C 
BRANCH   5   6
ATOM      6  C   UNL     1       8.711   6.903   1.881  1.00  0.00     0.000 C 
BRANCH   6   7
ATOM      7  C   UNL     1       8.539   5.928   0.700  1.00  0.00     0.000 C 
BRANCH   7   8
ATOM      8  C   UNL     1       8.552   4.431   1.071  1.00  0.00     0.000 C 
BRANCH   8   9
ATOM      9  C   UNL     1       7.163   3.771   1.156  1.00  0.00     0.000 C 
BRANCH   9  10
ATOM     10  C   UNL     1       6.713   3.159  -0.181  1.00  0.00     0.000 C 
BRANCH  10  11
ATOM     11  C   UNL     1       5.993   1.811  -0.003  1.00  0.00     0.000 C 
BRANCH  11  12
ATOM     12  C   UNL     1       6.806   0.634  -0.565  1.00  0.00     0.000 C 
BRANCH  12  13
ATOM     13  C   UNL     1       7.994   1.087  -1.432  1.00  0.00     0.006 C 
BRANCH  13  14
ATOM     14  C   UNL     1       8.459   0.049  -2.467  1.00  0.00     0.053 C 
BRANCH  14  15
ATOM     15  C   UNL     1       7.498  -0.074  -3.610  1.00  0.00     0.041 C 
ATOM     16  O   UNL     1       6.518   0.712  -3.701  1.00  0.00    -0.550 OA
ATOM     17  O   UNL     1       7.698  -1.035  -4.589  1.00  0.00    -0.550 OA
ENDBRANCH  14  15
ENDBRANCH  13  14
ENDBRANCH  12  13
ENDBRANCH  11  12
ENDBRANCH  10  11
ENDBRANCH   9  10
ENDBRANCH   8   9
ENDBRANCH   7   8
ENDBRANCH   6   7
ENDBRANCH   5   6
ENDBRANCH   4   5
ENDBRANCH   3   4
ENDBRANCH   2   3
ENDBRANCH   1   2
BRANCH   1  18
ATOM     18  C   UNL     1       6.510  10.704   5.608  1.00  0.00     0.000 C 
BRANCH  18  19
ATOM     19  C   UNL     1       6.469  10.306   7.092  1.00  0.00     0.000 C 
BRANCH  19  20
ATOM     20  C   UNL     1       5.361  11.035   7.874  1.00  0.00     0.000 C 
BRANCH  20  21
ATOM     21  C   UNL     1       5.147  10.448   9.280  1.00  0.00     0.000 C 
BRANCH  21  22
ATOM     22  C   UNL     1       3.780   9.755   9.433  1.00  0.00     0.000 C 
BRANCH  22  23
ATOM     23  C   UNL     1       3.330   8.979   8.177  1.00  0.00     0.000 C 
BRANCH  23  24
ATOM     24  C   UNL     1       1.945   8.326   8.317  1.00  0.00    -0.000 C 
BRANCH  24  25
ATOM     25  C   UNL     1       1.453   8.293   9.775  1.00  0.00    -0.000 C 
BRANCH  25  26
ATOM     26  C   UNL     1       0.906   6.912  10.179  1.00  0.00    -0.000 C 
BRANCH  26  27
ATOM     27  C   UNL     1       1.818   6.118  11.137  1.00  0.00    -0.000 C 
BRANCH  27  28
ATOM     28  C   UNL     1       3.321   6.157  10.791  1.00  0.00    -0.000 C 
BRANCH  28  29
ATOM     29  C   UNL     1       3.998   4.776  10.669  1.00  0.00    -0.000 C 
BRANCH  29  30
ATOM     30  C   UNL     1       3.173   3.712   9.919  1.00  0.00    -0.000 C 
BRANCH  30  31
ATOM     31  C   UNL     1       2.662   2.597  10.843  1.00  0.00    -0.003 C 
ATOM     32  C   UNL     1       1.384   1.963  10.292  1.00  0.00     0.004 C 
ENDBRANCH  30  31
ENDBRANCH  29  30
ENDBRANCH  28  29
ENDBRANCH  27  28
ENDBRANCH  26  27
ENDBRANCH  25  26
ENDBRANCH  24  25
ENDBRANCH  23  24
ENDBRANCH  22  23
ENDBRANCH  21  22
ENDBRANCH  20  21
ENDBRANCH  19  20
ENDBRANCH  18  19
ENDBRANCH   1  18
TORSDOF 28
ENDMDL
MODEL 6
REMARK VINA RESULT:    -3.883      5.568      9.915
REMARK INTER + INTRA:         -13.155
REMARK INTER:                  -7.974
REMARK INTRA:                  -5.182
REMARK UNBOUND:                -2.916
REMARK SMILES CCCCCCCCCCCCCCCCCCCCCCCCCCCCCC(=O)[O-]
REMARK SMILES IDX 16 1 17 2 18 3 19 4 20 5 21 6 22 7 23 8 24 9 25 10 26 11
REMARK SMILES IDX 27 12 28 13 29 14 30 15 31 16 32 17 15 18 14 19 13 20 12 21
REMARK SMILES IDX 11 22 10 23 9 24 8 25 7 26 6 27 5 28 4 29 3 30 2 31 1 32
REMARK H PARENT
REMARK Flexibility Score: inf
ROOT
ATOM      1  C   UNL     1       1.900   1.601  11.709  1.00  0.00     0.000 C 
ENDROOT
BRANCH   1   2
ATOM      2  C   UNL     1       3.278   1.039  12.087  1.00  0.00     0.000 C 
BRANCH   2   3
ATOM      3  C   UNL     1       3.989   1.969  13.085  1.00  0.00     0.000 C 
BRANCH   3   4
ATOM      4  C   UNL     1       5.514   1.977  12.910  1.00  0.00     0.000 C 
BRANCH   4   5
ATOM      5  C   UNL     1       6.053   3.366  12.523  1.00  0.00     0.000 C 
BRANCH   5   6
ATOM      6  C   UNL     1       5.062   4.502  12.836  1.00  0.00     0.000 C 
BRANCH   6   7
ATOM      7  C   UNL     1       5.384   5.852  12.166  1.00  0.00     0.000 C 
BRANCH   7   8
ATOM      8  C   UNL     1       5.936   5.762  10.728  1.00  0.00     0.000 C 
BRANCH   8   9
ATOM      9  C   UNL     1       5.966   7.096   9.960  1.00  0.00     0.000 C 
BRANCH   9  10
ATOM     10  C   UNL     1       7.251   7.901  10.217  1.00  0.00     0.000 C 
BRANCH  10  11
ATOM     11  C   UNL     1       6.979   9.401  10.424  1.00  0.00     0.000 C 
BRANCH  11  12
ATOM     12  C   UNL     1       7.730  10.278   9.411  1.00  0.00     0.000 C 
BRANCH  12  13
ATOM     13  C   UNL     1       6.830  10.774   8.264  1.00  0.00     0.006 C 
BRANCH  13  14
ATOM     14  C   UNL     1       6.997  10.001   6.945  1.00  0.00     0.053 C 
BRANCH  14  15
ATOM     15  C   UNL     1       5.765  10.065   6.096  1.00  0.00     0.041 C 
ATOM     16  O   UNL     1       5.548   9.179   5.229  1.00  0.00    -0.550 OA
ATOM     17  O   UNL     1       4.844  11.086   6.278  1.00  0.00    -0.550 OA
ENDBRANCH  14  15
ENDBRANCH  13  14
ENDBRANCH  12  13
ENDBRANCH  11  12
ENDBRANCH  10  11
ENDBRANCH   9  10
ENDBRANCH   8   9
ENDBRANCH   7   8
ENDBRANCH   6   7
ENDBRANCH   5   6
ENDBRANCH   4   5
ENDBRANCH   3   4
ENDBRANCH   2   3
ENDBRANCH   1   2
BRANCH   1  18
ATOM     18  C   UNL     1       1.923   2.401  10.395  1.00  0.00     0.000 C 
BRANCH  18  19
ATOM     19  C   UNL     1       1.127   3.711  10.494  1.00  0.00     0.000 C 
BRANCH  19  20
ATOM     20  C   UNL     1       1.993   4.901  10.946  1.00  0.00     0.000 C 
BRANCH  20  21
ATOM     21  C   UNL     1       2.410   5.807   9.773  1.00  0.00     0.000 C 
BRANCH  21  22
ATOM     22  C   UNL     1       1.327   6.840   9.407  1.00  0.00     0.000 C 
BRANCH  22  23
ATOM     23  C   UNL     1       1.721   7.767   8.238  1.00  0.00     0.000 C 
BRANCH  23  24
ATOM     24  C   UNL     1       1.933   9.232   8.656  1.00  0.00    -0.000 C 
BRANCH  24  25
ATOM     25  C   UNL     1       3.397   9.536   9.020  1.00  0.00    -0.000 C 
BRANCH  25  26
ATOM     26  C   UNL     1       3.524  10.708  10.010  1.00  0.00    -0.000 C 
BRANCH  26  27
ATOM     27  C   UNL     1       3.556  10.291  11.495  1.00  0.00    -0.000 C 
BRANCH  27  28
ATOM     28  C   UNL     1       3.197   8.815  11.767  1.00  0.00    -0.000 C 
BRANCH  28  29
ATOM     29  C   UNL     1       1.940   8.600  12.636  1.00  0.00    -0.000 C 
BRANCH  29  30
ATOM     30  C   UNL     1       0.845   9.672  12.471  1.00  0.00    -0.000 C 
BRANCH  30  31
ATOM     31  C   UNL     1      -0.351   9.176  11.645  1.00  0.00    -0.003 C 
ATOM     32  C   UNL     1      -0.956  10.307  10.813  1.00  0.00     0.004 C 
ENDBRANCH  30  31
ENDBRANCH  29  30
ENDBRANCH  28  29
ENDBRANCH  27  28
ENDBRANCH  26  27
ENDBRANCH  25  26
ENDBRANCH  24  25
ENDBRANCH  23  24
ENDBRANCH  22  23
ENDBRANCH  21  22
ENDBRANCH  20  21
ENDBRANCH  19  20
ENDBRANCH  18  19
ENDBRANCH   1  18
TORSDOF 28
ENDMDL
MODEL 7
REMARK VINA RESULT:    -3.869      3.959     10.369
REMARK INTER + INTRA:         -13.119
REMARK INTER:                 -10.847
REMARK INTRA:                  -2.272
REMARK UNBOUND:                -2.916
REMARK SMILES CCCCCCCCCCCCCCCCCCCCCCCCCCCCCC(=O)[O-]
REMARK SMILES IDX 16 1 17 2 18 3 19 4 20 5 21 6 22 7 23 8 24 9 25 10 26 11
REMARK SMILES IDX 27 12 28 13 29 14 30 15 31 16 32 17 15 18 14 19 13 20 12 21
REMARK SMILES IDX 11 22 10 23 9 24 8 25 7 26 6 27 5 28 4 29 3 30 2 31 1 32
REMARK H PARENT
REMARK Flexibility Score: inf
ROOT
ATOM      1  C   UNL     1       8.061   5.910   9.012  1.00  0.00     0.000 C 
ENDROOT
BRANCH   1   2
ATOM      2  C   UNL     1       8.805   5.999   7.672  1.00  0.00     0.000 C 
BRANCH   2   3
ATOM      3  C   UNL     1       8.869   7.455   7.182  1.00  0.00     0.000 C 
BRANCH   3   4
ATOM      4  C   UNL     1       8.681   7.582   5.663  1.00  0.00     0.000 C 
BRANCH   4   5
ATOM      5  C   UNL     1       7.963   8.884   5.267  1.00  0.00     0.000 C 
BRANCH   5   6
ATOM      6  C   UNL     1       7.521   8.901   3.793  1.00  0.00     0.000 C 
BRANCH   6   7
ATOM      7  C   UNL     1       8.150   7.805   2.910  1.00  0.00     0.000 C 
BRANCH   7   8
ATOM      8  C   UNL     1       7.973   7.999   1.390  1.00  0.00     0.000 C 
BRANCH   8   9
ATOM      9  C   UNL     1       8.337   6.773   0.532  1.00  0.00     0.000 C 
BRANCH   9  10
ATOM     10  C   UNL     1       7.216   5.720   0.495  1.00  0.00     0.000 C 
BRANCH  10  11
ATOM     11  C   UNL     1       7.653   4.368   1.085  1.00  0.00     0.000 C 
BRANCH  11  12
ATOM     12  C   UNL     1       7.945   3.321  -0.002  1.00  0.00     0.000 C 
BRANCH  12  13
ATOM     13  C   UNL     1       6.732   2.425  -0.310  1.00  0.00     0.006 C 
BRANCH  13  14
ATOM     14  C   UNL     1       6.519   2.134  -1.805  1.00  0.00     0.053 C 
BRANCH  14  15
ATOM     15  C   UNL     1       7.081   0.804  -2.204  1.00  0.00     0.041 C 
ATOM     16  O   UNL     1       7.875   0.197  -1.438  1.00  0.00    -0.550 OA
ATOM     17  O   UNL     1       6.709   0.222  -3.406  1.00  0.00    -0.550 OA
ENDBRANCH  14  15
ENDBRANCH  13  14
ENDBRANCH  12  13
ENDBRANCH  11  12
ENDBRANCH  10  11
ENDBRANCH   9  10
ENDBRANCH   8   9
ENDBRANCH   7   8
ENDBRANCH   6   7
ENDBRANCH   5   6
ENDBRANCH   4   5
ENDBRANCH   3   4
ENDBRANCH   2   3
ENDBRANCH   1   2
BRANCH   1  18
ATOM     18  C   UNL     1       8.375   7.091   9.948  1.00  0.00     0.000 C 
BRANCH  18  19
ATOM     19  C   UNL     1       7.107   7.699  10.566  1.00  0.00     0.000 C 
BRANCH  19  20
ATOM     20  C   UNL     1       5.994   7.937   9.530  1.00  0.00     0.000 C 
BRANCH  20  21
ATOM     21  C   UNL     1       6.174   9.260   8.764  1.00  0.00     0.000 C 
BRANCH  21  22
ATOM     22  C   UNL     1       4.832   9.887   8.338  1.00  0.00     0.000 C 
BRANCH  22  23
ATOM     23  C   UNL     1       3.623   9.386   9.155  1.00  0.00     0.000 C 
BRANCH  23  24
ATOM     24  C   UNL     1       2.266   9.848   8.598  1.00  0.00    -0.000 C 
BRANCH  24  25
ATOM     25  C   UNL     1       1.149   8.814   8.829  1.00  0.00    -0.000 C 
BRANCH  25  26
ATOM     26  C   UNL     1       1.623   7.372   8.570  1.00  0.00    -0.000 C 
BRANCH  26  27
ATOM     27  C   UNL     1       1.243   6.366   9.677  1.00  0.00    -0.000 C 
BRANCH  27  28
ATOM     28  C   UNL     1       2.145   6.399  10.928  1.00  0.00    -0.000 C 
BRANCH  28  29
ATOM     29  C   UNL     1       2.668   5.023  11.391  1.00  0.00    -0.000 C 
BRANCH  29  30
ATOM     30  C   UNL     1       1.605   3.908  11.444  1.00  0.00    -0.000 C 
BRANCH  30  31
ATOM     31  C   UNL     1       1.900   2.760  10.469  1.00  0.00    -0.003 C 
ATOM     32  C   UNL     1       2.661   1.628  11.160  1.00  0.00     0.004 C 
ENDBRANCH  30  31
ENDBRANCH  29  30
ENDBRANCH  28  29
ENDBRANCH  27  28
ENDBRANCH  26  27
ENDBRANCH  25  26
ENDBRANCH  24  25
ENDBRANCH  23  24
ENDBRANCH  22  23
ENDBRANCH  21  22
ENDBRANCH  20  21
ENDBRANCH  19  20
ENDBRANCH  18  19
ENDBRANCH   1  18
TORSDOF 28
ENDMDL
MODEL 8
REMARK VINA RESULT:    -3.857      1.604      3.798
REMARK INTER + INTRA:         -13.087
REMARK INTER:                  -9.284
REMARK INTRA:                  -3.803
REMARK UNBOUND:                -2.916
REMARK SMILES CCCCCCCCCCCCCCCCCCCCCCCCCCCCCC(=O)[O-]
REMARK SMILES IDX 16 1 17 2 18 3 19 4 20 5 21 6 22 7 23 8 24 9 25 10 26 11
REMARK SMILES IDX 27 12 28 13 29 14 30 15 31 16 32 17 15 18 14 19 13 20 12 21
REMARK SMILES IDX 11 22 10 23 9 24 8 25 7 26 6 27 5 28 4 29 3 30 2 31 1 32
REMARK H PARENT
REMARK Flexibility Score: inf
ROOT
ATOM      1  C   UNL     1       6.447   5.950   9.771  1.00  0.00     0.000 C 
ENDROOT
BRANCH   1   2
ATOM      2  C   UNL     1       6.625   6.216  11.272  1.00  0.00     0.000 C 
BRANCH   2   3
ATOM      3  C   UNL     1       5.828   7.459  11.702  1.00  0.00     0.000 C 
BRANCH   3   4
ATOM      4  C   UNL     1       5.275   8.254  10.509  1.00  0.00     0.000 C 
BRANCH   4   5
ATOM      5  C   UNL     1       4.982   9.721  10.867  1.00  0.00     0.000 C 
BRANCH   5   6
ATOM      6  C   UNL     1       4.600  10.572   9.642  1.00  0.00     0.000 C 
BRANCH   6   7
ATOM      7  C   UNL     1       3.965   9.789   8.476  1.00  0.00     0.000 C 
BRANCH   7   8
ATOM      8  C   UNL     1       2.472  10.083   8.218  1.00  0.00     0.000 C 
BRANCH   8   9
ATOM      9  C   UNL     1       1.546   8.855   8.299  1.00  0.00     0.000 C 
BRANCH   9  10
ATOM     10  C   UNL     1       0.625   8.886   9.531  1.00  0.00     0.000 C 
BRANCH  10  11
ATOM     11  C   UNL     1       1.397   8.714  10.851  1.00  0.00     0.000 C 
BRANCH  11  12
ATOM     12  C   UNL     1       0.953   7.467  11.631  1.00  0.00     0.000 C 
BRANCH  12  13
ATOM     13  C   UNL     1       2.040   6.378  11.688  1.00  0.00     0.006 C 
BRANCH  13  14
ATOM     14  C   UNL     1       1.791   5.181  10.755  1.00  0.00     0.053 C 
BRANCH  14  15
ATOM     15  C   UNL     1       2.832   5.077   9.684  1.00  0.00     0.041 C 
ATOM     16  O   UNL     1       3.119   6.081   8.980  1.00  0.00    -0.550 OA
ATOM     17  O   UNL     1       3.506   3.882   9.480  1.00  0.00    -0.550 OA
ENDBRANCH  14  15
ENDBRANCH  13  14
ENDBRANCH  12  13
ENDBRANCH  11  12
ENDBRANCH  10  11
ENDBRANCH   9  10
ENDBRANCH   8   9
ENDBRANCH   7   8
ENDBRANCH   6   7
ENDBRANCH   5   6
ENDBRANCH   4   5
ENDBRANCH   3   4
ENDBRANCH   2   3
ENDBRANCH   1   2
BRANCH   1  18
ATOM     18  C   UNL     1       7.785   5.887   9.013  1.00  0.00     0.000 C 
BRANCH  18  19
ATOM     19  C   UNL     1       8.451   7.266   8.888  1.00  0.00     0.000 C 
BRANCH  19  20
ATOM     20  C   UNL     1       8.112   7.973   7.563  1.00  0.00     0.000 C 
BRANCH  20  21
ATOM     21  C   UNL     1       7.637   9.422   7.773  1.00  0.00     0.000 C 
BRANCH  21  22
ATOM     22  C   UNL     1       7.408  10.170   6.446  1.00  0.00     0.000 C 
BRANCH  22  23
ATOM     23  C   UNL     1       6.148   9.709   5.681  1.00  0.00     0.000 C 
BRANCH  23  24
ATOM     24  C   UNL     1       6.408   9.388   4.200  1.00  0.00    -0.000 C 
BRANCH  24  25
ATOM     25  C   UNL     1       7.881   9.596   3.800  1.00  0.00    -0.000 C 
BRANCH  25  26
ATOM     26  C   UNL     1       8.535   8.304   3.278  1.00  0.00    -0.000 C 
BRANCH  26  27
ATOM     27  C   UNL     1       7.823   7.673   2.063  1.00  0.00    -0.000 C 
BRANCH  27  28
ATOM     28  C   UNL     1       8.590   6.520   1.383  1.00  0.00    -0.000 C 
BRANCH  28  29
ATOM     29  C   UNL     1       7.963   5.122   1.569  1.00  0.00    -0.000 C 
BRANCH  29  30
ATOM     30  C   UNL     1       7.030   4.671   0.429  1.00  0.00    -0.000 C 
BRANCH  30  31
ATOM     31  C   UNL     1       6.785   3.155   0.427  1.00  0.00    -0.003 C 
ATOM     32  C   UNL     1       7.478   2.484  -0.760  1.00  0.00     0.004 C 
ENDBRANCH  30  31
ENDBRANCH  29  30
ENDBRANCH  28  29
ENDBRANCH  27  28
ENDBRANCH  26  27
ENDBRANCH  25  26
ENDBRANCH  24  25
ENDBRANCH  23  24
ENDBRANCH  22  23
ENDBRANCH  21  22
ENDBRANCH  20  21
ENDBRANCH  19  20
ENDBRANCH  18  19
ENDBRANCH   1  18
TORSDOF 28
ENDMDL
MODEL 9
REMARK VINA RESULT:    -3.730      4.924      9.886
REMARK INTER + INTRA:         -12.752
REMARK INTER:                  -8.185
REMARK INTRA:                  -4.567
REMARK UNBOUND:                -2.916
REMARK SMILES CCCCCCCCCCCCCCCCCCCCCCCCCCCCCC(=O)[O-]
REMARK SMILES IDX 16 1 17 2 18 3 19 4 20 5 21 6 22 7 23 8 24 9 25 10 26 11
REMARK SMILES IDX 27 12 28 13 29 14 30 15 31 16 32 17 15 18 14 19 13 20 12 21
REMARK SMILES IDX 11 22 10 23 9 24 8 25 7 26 6 27 5 28 4 29 3 30 2 31 1 32
REMARK H PARENT
REMARK Flexibility Score: inf
ROOT
ATOM      1  C   UNL     1       3.792   2.553  12.903  1.00  0.00     0.000 C 
ENDROOT
BRANCH   1   2
ATOM      2  C   UNL     1       4.994   3.335  12.355  1.00  0.00     0.000 C 
BRANCH   2   3
ATOM      3  C   UNL     1       6.295   2.880  13.039  1.00  0.00     0.000 C 
BRANCH   3   4
ATOM      4  C   UNL     1       7.484   2.809  12.070  1.00  0.00     0.000 C 
BRANCH   4   5
ATOM      5  C   UNL     1       8.609   3.789  12.447  1.00  0.00     0.000 C 
BRANCH   5   6
ATOM      6  C   UNL     1       8.943   4.781  11.319  1.00  0.00     0.000 C 
BRANCH   6   7
ATOM      7  C   UNL     1       7.744   5.208  10.448  1.00  0.00     0.000 C 
BRANCH   7   8
ATOM      8  C   UNL     1       8.040   5.348   8.941  1.00  0.00     0.000 C 
BRANCH   8   9
ATOM      9  C   UNL     1       8.345   6.783   8.470  1.00  0.00     0.000 C 
BRANCH   9  10
ATOM     10  C   UNL     1       7.640   7.851   9.323  1.00  0.00     0.000 C 
BRANCH  10  11
ATOM     11  C   UNL     1       8.020   9.283   8.911  1.00  0.00     0.000 C 
BRANCH  11  12
ATOM     12  C   UNL     1       7.897   9.509   7.395  1.00  0.00     0.000 C 
BRANCH  12  13
ATOM     13  C   UNL     1       6.436   9.630   6.925  1.00  0.00     0.006 C 
BRANCH  13  14
ATOM     14  C   UNL     1       6.252  10.410   5.614  1.00  0.00     0.053 C 
BRANCH  14  15
ATOM     15  C   UNL     1       6.239   9.508   4.418  1.00  0.00     0.041 C 
ATOM     16  O   UNL     1       7.295   8.929   4.051  1.00  0.00    -0.550 OA
ATOM     17  O   UNL     1       5.058   9.283   3.727  1.00  0.00    -0.550 OA
ENDBRANCH  14  15
ENDBRANCH  13  14
ENDBRANCH  12  13
ENDBRANCH  11  12
ENDBRANCH  10  11
ENDBRANCH   9  10
ENDBRANCH   8   9
ENDBRANCH   7   8
ENDBRANCH   6   7
ENDBRANCH   5   6
ENDBRANCH   4   5
ENDBRANCH   3   4
ENDBRANCH   2   3
ENDBRANCH   1   2
BRANCH   1  18
ATOM     18  C   UNL     1       3.417   1.344  12.028  1.00  0.00     0.000 C 
BRANCH  18  19
ATOM     19  C   UNL     1       2.362   1.695  10.968  1.00  0.00     0.000 C 
BRANCH  19  20
ATOM     20  C   UNL     1       1.370   2.770  11.448  1.00  0.00     0.000 C 
BRANCH  20  21
ATOM     21  C   UNL     1       1.237   3.937  10.452  1.00  0.00     0.000 C 
BRANCH  21  22
ATOM     22  C   UNL     1       2.200   5.098  10.766  1.00  0.00     0.000 C 
BRANCH  22  23
ATOM     23  C   UNL     1       3.239   5.363   9.656  1.00  0.00     0.000 C 
BRANCH  23  24
ATOM     24  C   UNL     1       4.422   6.233  10.113  1.00  0.00    -0.000 C 
BRANCH  24  25
ATOM     25  C   UNL     1       4.084   7.089  11.347  1.00  0.00    -0.000 C 
BRANCH  25  26
ATOM     26  C   UNL     1       4.048   8.594  11.024  1.00  0.00    -0.000 C 
BRANCH  26  27
ATOM     27  C   UNL     1       4.209   8.930   9.527  1.00  0.00    -0.000 C 
BRANCH  27  28
ATOM     28  C   UNL     1       2.979   9.591   8.870  1.00  0.00    -0.000 C 
BRANCH  28  29
ATOM     29  C   UNL     1       1.880   8.609   8.411  1.00  0.00    -0.000 C 
BRANCH  29  30
ATOM     30  C   UNL     1       0.482   8.878   9.000  1.00  0.00    -0.000 C 
BRANCH  30  31
ATOM     31  C   UNL     1       0.530   9.288  10.479  1.00  0.00    -0.003 C 
ATOM     32  C   UNL     1       0.318   8.082  11.395  1.00  0.00     0.004 C 
ENDBRANCH  30  31
ENDBRANCH  29  30
ENDBRANCH  28  29
ENDBRANCH  27  28
ENDBRANCH  26  27
ENDBRANCH  25  26
ENDBRANCH  24  25
ENDBRANCH  23  24
ENDBRANCH  22  23
ENDBRANCH  21  22
ENDBRANCH  20  21
ENDBRANCH  19  20
ENDBRANCH  18  19
ENDBRANCH   1  18
TORSDOF 28
ENDMDL
