MODEL 1
REMARK VINA RESULT:    -4.130      0.000      0.000
REMARK INTER + INTRA:          -7.646
REMARK INTER:                  -6.544
REMARK INTRA:                  -1.103
REMARK UNBOUND:                -1.103
REMARK SMILES CCCCCCCCCCCC(=O)[O-]
REMARK SMILES IDX 7 1 8 2 9 3 10 4 11 5 12 6 13 7 14 8 6 9 5 10 4 11 3 12 2 13
REMARK SMILES IDX 1 14
REMARK H PARENT
REMARK Flexibility Score: inf
ROOT
ATOM      1  C   UNL     1      16.400 -36.422  -2.114  1.00  0.00     0.000 C 
ENDROOT
BRANCH   1   2
ATOM      2  C   UNL     1      17.644 -35.533  -2.286  1.00  0.00     0.000 C 
BRANCH   2   3
ATOM      3  C   UNL     1      17.401 -34.087  -1.824  1.00  0.00     0.000 C 
BRANCH   3   4
ATOM      4  C   UNL     1      15.922 -33.797  -1.506  1.00  0.00     0.006 C 
BRANCH   4   5
ATOM      5  C   UNL     1      15.408 -32.461  -2.070  1.00  0.00     0.053 C 
BRANCH   5   6
ATOM      6  C   UNL     1      14.351 -31.837  -1.211  1.00  0.00     0.041 C 
ATOM      7  O   UNL     1      14.100 -30.607  -1.303  1.00  0.00    -0.550 OA
ATOM      8  O   UNL     1      13.664 -32.610  -0.283  1.00  0.00    -0.550 OA
ENDBRANCH   5   6
ENDBRANCH   4   5
ENDBRANCH   3   4
ENDBRANCH   2   3
ENDBRANCH   1   2
BRANCH   1   9
ATOM      9  C   UNL     1      16.743 -37.922  -2.133  1.00  0.00     0.000 C 
BRANCH   9  10
ATOM     10  C   UNL     1      17.061 -38.475  -0.733  1.00  0.00    -0.000 C 
BRANCH  10  11
ATOM     11  C   UNL     1      18.542 -38.302  -0.352  1.00  0.00    -0.000 C 
BRANCH  11  12
ATOM     12  C   UNL     1      18.728 -37.445   0.911  1.00  0.00    -0.000 C 
BRANCH  12  13
ATOM     13  C   UNL     1      17.410 -36.841   1.418  1.00  0.00    -0.003 C 
ATOM     14  C   UNL     1      17.509 -35.322   1.529  1.00  0.00     0.004 C 
ENDBRANCH  12  13
ENDBRANCH  11  12
ENDBRANCH  10  11
ENDBRANCH   9  10
ENDBRANCH   1   9
TORSDOF 10
ENDMDL
MODEL 2
REMARK VINA RESULT:    -4.095      3.581      5.826
REMARK INTER + INTRA:          -7.591
REMARK INTER:                  -6.350
REMARK INTRA:                  -1.241
REMARK UNBOUND:                -1.103
REMARK SMILES CCCCCCCCCCCC(=O)[O-]
REMARK SMILES IDX 7 1 8 2 9 3 10 4 11 5 12 6 13 7 14 8 6 9 5 10 4 11 3 12 2 13
REMARK SMILES IDX 1 14
REMARK H PARENT
REMARK Flexibility Score: inf
ROOT
ATOM      1  C   UNL     1      17.091 -33.687  -1.958  1.00  0.00     0.000 C 
ENDROOT
BRANCH   1   2
ATOM      2  C   UNL     1      17.318 -35.093  -1.377  1.00  0.00     0.000 C 
BRANCH   2   3
ATOM      3  C   UNL     1      17.773 -36.103  -2.444  1.00  0.00     0.000 C 
BRANCH   3   4
ATOM      4  C   UNL     1      17.968 -37.523  -1.883  1.00  0.00     0.006 C 
BRANCH   4   5
ATOM      5  C   UNL     1      17.618 -37.663  -0.391  1.00  0.00     0.053 C 
BRANCH   5   6
ATOM      6  C   UNL     1      18.635 -38.457   0.371  1.00  0.00     0.041 C 
ATOM      7  O   UNL     1      18.476 -39.694   0.544  1.00  0.00    -0.550 OA
ATOM      8  O   UNL     1      19.742 -37.824   0.920  1.00  0.00    -0.550 OA
ENDBRANCH   5   6
ENDBRANCH   4   5
ENDBRANCH   3   4
ENDBRANCH   2   3
ENDBRANCH   1   2
BRANCH   1   9
ATOM      9  C   UNL     1      15.634 -33.216  -1.803  1.00  0.00     0.000 C 
BRANCH   9  10
ATOM     10  C   UNL     1      14.616 -34.305  -2.183  1.00  0.00    -0.000 C 
BRANCH  10  11
ATOM     11  C   UNL     1      13.847 -34.846  -0.965  1.00  0.00    -0.000 C 
BRANCH  11  12
ATOM     12  C   UNL     1      13.595 -36.361  -1.053  1.00  0.00    -0.000 C 
BRANCH  12  13
ATOM     13  C   UNL     1      14.089 -36.968  -2.375  1.00  0.00    -0.003 C 
ATOM     14  C   UNL     1      14.453 -38.440  -2.200  1.00  0.00     0.004 C 
ENDBRANCH  12  13
ENDBRANCH  11  12
ENDBRANCH  10  11
ENDBRANCH   9  10
ENDBRANCH   1   9
TORSDOF 10
ENDMDL
MODEL 3
REMARK VINA RESULT:    -4.063      3.702      5.870
REMARK INTER + INTRA:          -7.541
REMARK INTER:                  -6.200
REMARK INTRA:                  -1.341
REMARK UNBOUND:                -1.103
REMARK SMILES CCCCCCCCCCCC(=O)[O-]
REMARK SMILES IDX 7 1 8 2 9 3 10 4 11 5 12 6 13 7 14 8 6 9 5 10 4 11 3 12 2 13
REMARK SMILES IDX 1 14
REMARK H PARENT
REMARK Flexibility Score: inf
ROOT
ATOM      1  C   UNL     1      17.743 -34.860   0.342  1.00  0.00     0.000 C 
ENDROOT
BRANCH   1   2
ATOM      2  C   UNL     1      16.409 -35.237   1.007  1.00  0.00     0.000 C 
BRANCH   2   3
ATOM      3  C   UNL     1      16.580 -36.296   2.110  1.00  0.00     0.000 C 
BRANCH   3   4
ATOM      4  C   UNL     1      16.442 -37.737   1.586  1.00  0.00     0.006 C 
BRANCH   4   5
ATOM      5  C   UNL     1      17.532 -38.697   2.097  1.00  0.00     0.053 C 
BRANCH   5   6
ATOM      6  C   UNL     1      18.600 -38.955   1.078  1.00  0.00     0.041 C 
ATOM      7  O   UNL     1      18.705 -40.089   0.540  1.00  0.00    -0.550 OA
ATOM      8  O   UNL     1      19.503 -37.953   0.747  1.00  0.00    -0.550 OA
ENDBRANCH   5   6
ENDBRANCH   4   5
ENDBRANCH   3   4
ENDBRANCH   2   3
ENDBRANCH   1   2
BRANCH   1   9
ATOM      9  C   UNL     1      17.547 -34.163  -1.016  1.00  0.00     0.000 C 
BRANCH   9  10
ATOM     10  C   UNL     1      17.029 -35.120  -2.103  1.00  0.00    -0.000 C 
BRANCH  10  11
ATOM     11  C   UNL     1      17.877 -36.399  -2.217  1.00  0.00    -0.000 C 
BRANCH  11  12
ATOM     12  C   UNL     1      17.024 -37.677  -2.164  1.00  0.00    -0.000 C 
BRANCH  12  13
ATOM     13  C   UNL     1      15.518 -37.383  -2.107  1.00  0.00    -0.003 C 
ATOM     14  C   UNL     1      14.704 -38.611  -2.503  1.00  0.00     0.004 C 
ENDBRANCH  12  13
ENDBRANCH  11  12
ENDBRANCH  10  11
ENDBRANCH   9  10
ENDBRANCH   1   9
TORSDOF 10
ENDMDL
MODEL 4
REMARK VINA RESULT:    -4.055      3.528      5.934
REMARK INTER + INTRA:          -7.528
REMARK INTER:                  -6.387
REMARK INTRA:                  -1.141
REMARK UNBOUND:                -1.103
REMARK SMILES CCCCCCCCCCCC(=O)[O-]
REMARK SMILES IDX 7 1 8 2 9 3 10 4 11 5 12 6 13 7 14 8 6 9 5 10 4 11 3 12 2 13
REMARK SMILES IDX 1 14
REMARK H PARENT
REMARK Flexibility Score: inf
ROOT
ATOM      1  C   UNL     1      17.390 -35.041  -1.284  1.00  0.00     0.000 C 
ENDROOT
BRANCH   1   2
ATOM      2  C   UNL     1      17.551 -36.251  -2.220  1.00  0.00     0.000 C 
BRANCH   2   3
ATOM      3  C   UNL     1      17.394 -37.590  -1.482  1.00  0.00     0.000 C 
BRANCH   3   4
ATOM      4  C   UNL     1      16.528 -37.480  -0.214  1.00  0.00     0.006 C 
BRANCH   4   5
ATOM      5  C   UNL     1      17.266 -37.852   1.085  1.00  0.00     0.053 C 
BRANCH   5   6
ATOM      6  C   UNL     1      18.561 -38.562   0.832  1.00  0.00     0.041 C 
ATOM      7  O   UNL     1      19.643 -37.920   0.800  1.00  0.00    -0.550 OA
ATOM      8  O   UNL     1      18.569 -39.931   0.597  1.00  0.00    -0.550 OA
ENDBRANCH   5   6
ENDBRANCH   4   5
ENDBRANCH   3   4
ENDBRANCH   2   3
ENDBRANCH   1   2
BRANCH   1   9
ATOM      9  C   UNL     1      17.407 -33.703  -2.044  1.00  0.00     0.000 C 
BRANCH   9  10
ATOM     10  C   UNL     1      16.019 -33.043  -2.112  1.00  0.00    -0.000 C 
BRANCH  10  11
ATOM     11  C   UNL     1      15.019 -33.666  -1.123  1.00  0.00    -0.000 C 
BRANCH  11  12
ATOM     12  C   UNL     1      13.778 -34.243  -1.824  1.00  0.00    -0.000 C 
BRANCH  12  13
ATOM     13  C   UNL     1      13.472 -35.686  -1.396  1.00  0.00    -0.003 C 
ATOM     14  C   UNL     1      13.789 -36.671  -2.518  1.00  0.00     0.004 C 
ENDBRANCH  12  13
ENDBRANCH  11  12
ENDBRANCH  10  11
ENDBRANCH   9  10
ENDBRANCH   1   9
TORSDOF 10
ENDMDL
MODEL 5
REMARK VINA RESULT:    -4.013      3.688      6.061
REMARK INTER + INTRA:          -7.462
REMARK INTER:                  -6.362
REMARK INTRA:                  -1.100
REMARK UNBOUND:                -1.103
REMARK SMILES CCCCCCCCCCCC(=O)[O-]
REMARK SMILES IDX 7 1 8 2 9 3 10 4 11 5 12 6 13 7 14 8 6 9 5 10 4 11 3 12 2 13
REMARK SMILES IDX 1 14
REMARK H PARENT
REMARK Flexibility Score: inf
ROOT
ATOM      1  C   UNL     1      17.599 -36.393  -2.127  1.00  0.00     0.000 C 
ENDROOT
BRANCH   1   2
ATOM      2  C   UNL     1      16.478 -37.432  -2.297  1.00  0.00     0.000 C 
BRANCH   2   3
ATOM      3  C   UNL     1      15.799 -37.788  -0.964  1.00  0.00     0.000 C 
BRANCH   3   4
ATOM      4  C   UNL     1      16.295 -39.121  -0.373  1.00  0.00     0.006 C 
BRANCH   4   5
ATOM      5  C   UNL     1      16.872 -39.002   1.049  1.00  0.00     0.053 C 
BRANCH   5   6
ATOM      6  C   UNL     1      18.364 -39.139   1.082  1.00  0.00     0.041 C 
ATOM      7  O   UNL     1      19.042 -38.956   0.037  1.00  0.00    -0.550 OA
ATOM      8  O   UNL     1      19.003 -39.502   2.261  1.00  0.00    -0.550 OA
ENDBRANCH   5   6
ENDBRANCH   4   5
ENDBRANCH   3   4
ENDBRANCH   2   3
ENDBRANCH   1   2
BRANCH   1   9
ATOM      9  C   UNL     1      17.666 -35.830  -0.696  1.00  0.00     0.000 C 
BRANCH   9  10
ATOM     10  C   UNL     1      17.414 -34.313  -0.644  1.00  0.00    -0.000 C 
BRANCH  10  11
ATOM     11  C   UNL     1      17.120 -33.715  -2.031  1.00  0.00    -0.000 C 
BRANCH  11  12
ATOM     12  C   UNL     1      15.812 -32.906  -2.057  1.00  0.00    -0.000 C 
BRANCH  12  13
ATOM     13  C   UNL     1      14.578 -33.762  -1.734  1.00  0.00    -0.003 C 
ATOM     14  C   UNL     1      13.590 -33.760  -2.897  1.00  0.00     0.004 C 
ENDBRANCH  12  13
ENDBRANCH  11  12
ENDBRANCH  10  11
ENDBRANCH   9  10
ENDBRANCH   1   9
TORSDOF 10
ENDMDL
MODEL 6
REMARK VINA RESULT:    -3.983      3.736      5.406
REMARK INTER + INTRA:          -7.414
REMARK INTER:                  -6.150
REMARK INTRA:                  -1.264
REMARK UNBOUND:                -1.103
REMARK SMILES CCCCCCCCCCCC(=O)[O-]
REMARK SMILES IDX 7 1 8 2 9 3 10 4 11 5 12 6 13 7 14 8 6 9 5 10 4 11 3 12 2 13
REMARK SMILES IDX 1 14
REMARK H PARENT
REMARK Flexibility Score: inf
ROOT
ATOM      1  C   UNL     1      16.923 -35.135  -2.010  1.00  0.00     0.000 C 
ENDROOT
BRANCH   1   2
ATOM      2  C   UNL     1      17.338 -34.362  -0.747  1.00  0.00     0.000 C 
BRANCH   2   3
ATOM      3  C   UNL     1      16.942 -35.094   0.547  1.00  0.00     0.000 C 
BRANCH   3   4
ATOM      4  C   UNL     1      18.064 -35.995   1.094  1.00  0.00     0.006 C 
BRANCH   4   5
ATOM      5  C   UNL     1      17.595 -37.406   1.496  1.00  0.00     0.053 C 
BRANCH   5   6
ATOM      6  C   UNL     1      18.603 -38.466   1.170  1.00  0.00     0.041 C 
ATOM      7  O   UNL     1      19.452 -38.278   0.260  1.00  0.00    -0.550 OA
ATOM      8  O   UNL     1      18.583 -39.677   1.850  1.00  0.00    -0.550 OA
ENDBRANCH   5   6
ENDBRANCH   4   5
ENDBRANCH   3   4
ENDBRANCH   2   3
ENDBRANCH   1   2
BRANCH   1   9
ATOM      9  C   UNL     1      17.858 -36.322  -2.305  1.00  0.00     0.000 C 
BRANCH   9  10
ATOM     10  C   UNL     1      17.104 -37.657  -2.418  1.00  0.00    -0.000 C 
BRANCH  10  11
ATOM     11  C   UNL     1      15.776 -37.654  -1.639  1.00  0.00    -0.000 C 
BRANCH  11  12
ATOM     12  C   UNL     1      14.566 -37.963  -2.537  1.00  0.00    -0.000 C 
BRANCH  12  13
ATOM     13  C   UNL     1      13.555 -36.808  -2.585  1.00  0.00    -0.003 C 
ATOM     14  C   UNL     1      13.452 -36.111  -1.232  1.00  0.00     0.004 C 
ENDBRANCH  12  13
ENDBRANCH  11  12
ENDBRANCH  10  11
ENDBRANCH   9  10
ENDBRANCH   1   9
TORSDOF 10
ENDMDL
MODEL 7
REMARK VINA RESULT:    -3.805      3.574      5.582
REMARK INTER + INTRA:          -7.132
REMARK INTER:                  -5.725
REMARK INTRA:                  -1.407
REMARK UNBOUND:                -1.103
REMARK SMILES CCCCCCCCCCCC(=O)[O-]
REMARK SMILES IDX 7 1 8 2 9 3 10 4 11 5 12 6 13 7 14 8 6 9 5 10 4 11 3 12 2 13
REMARK SMILES IDX 1 14
REMARK H PARENT
REMARK Flexibility Score: inf
ROOT
ATOM      1  C   UNL     1      14.157 -37.223  -2.509  1.00  0.00     0.000 C 
ENDROOT
BRANCH   1   2
ATOM      2  C   UNL     1      15.317 -37.994  -1.856  1.00  0.00     0.000 C 
BRANCH   2   3
ATOM      3  C   UNL     1      16.665 -37.719  -2.542  1.00  0.00     0.000 C 
BRANCH   3   4
ATOM      4  C   UNL     1      17.842 -37.657  -1.551  1.00  0.00     0.006 C 
BRANCH   4   5
ATOM      5  C   UNL     1      17.481 -38.093  -0.119  1.00  0.00     0.053 C 
BRANCH   5   6
ATOM      6  C   UNL     1      18.658 -38.629   0.638  1.00  0.00     0.041 C 
ATOM      7  O   UNL     1      19.681 -37.915   0.811  1.00  0.00    -0.550 OA
ATOM      8  O   UNL     1      18.640 -39.930   1.123  1.00  0.00    -0.550 OA
ENDBRANCH   5   6
ENDBRANCH   4   5
ENDBRANCH   3   4
ENDBRANCH   2   3
ENDBRANCH   1   2
BRANCH   1   9
ATOM      9  C   UNL     1      13.818 -35.924  -1.756  1.00  0.00     0.000 C 
BRANCH   9  10
ATOM     10  C   UNL     1      14.470 -35.859  -0.364  1.00  0.00    -0.000 C 
BRANCH  10  11
ATOM     11  C   UNL     1      15.144 -34.503  -0.090  1.00  0.00    -0.000 C 
BRANCH  11  12
ATOM     12  C   UNL     1      16.646 -34.514  -0.424  1.00  0.00    -0.000 C 
BRANCH  12  13
ATOM     13  C   UNL     1      16.944 -33.976  -1.831  1.00  0.00    -0.003 C 
ATOM     14  C   UNL     1      15.951 -32.885  -2.223  1.00  0.00     0.004 C 
ENDBRANCH  12  13
ENDBRANCH  11  12
ENDBRANCH  10  11
ENDBRANCH   9  10
ENDBRANCH   1   9
TORSDOF 10
ENDMDL
MODEL 8
REMARK VINA RESULT:    -3.762      3.006      4.447
REMARK INTER + INTRA:          -7.063
REMARK INTER:                  -5.972
REMARK INTRA:                  -1.091
REMARK UNBOUND:                -1.103
REMARK SMILES CCCCCCCCCCCC(=O)[O-]
REMARK SMILES IDX 7 1 8 2 9 3 10 4 11 5 12 6 13 7 14 8 6 9 5 10 4 11 3 12 2 13
REMARK SMILES IDX 1 14
REMARK H PARENT
REMARK Flexibility Score: inf
ROOT
ATOM      1  C   UNL     1      15.746 -33.143  -2.042  1.00  0.00     0.000 C 
ENDROOT
BRANCH   1   2
ATOM      2  C   UNL     1      14.840 -33.835  -1.008  1.00  0.00     0.000 C 
BRANCH   2   3
ATOM      3  C   UNL     1      13.440 -34.140  -1.566  1.00  0.00     0.000 C 
BRANCH   3   4
ATOM      4  C   UNL     1      13.418 -35.363  -2.501  1.00  0.00     0.006 C 
BRANCH   4   5
ATOM      5  C   UNL     1      13.967 -36.652  -1.861  1.00  0.00     0.053 C 
BRANCH   5   6
ATOM      6  C   UNL     1      13.993 -37.806  -2.816  1.00  0.00     0.041 C 
ATOM      7  O   UNL     1      14.957 -38.616  -2.808  1.00  0.00    -0.550 OA
ATOM      8  O   UNL     1      12.968 -37.969  -3.739  1.00  0.00    -0.550 OA
ENDBRANCH   5   6
ENDBRANCH   4   5
ENDBRANCH   3   4
ENDBRANCH   2   3
ENDBRANCH   1   2
BRANCH   1   9
ATOM      9  C   UNL     1      17.200 -33.644  -1.977  1.00  0.00     0.000 C 
BRANCH   9  10
ATOM     10  C   UNL     1      17.323 -35.019  -1.297  1.00  0.00    -0.000 C 
BRANCH  10  11
ATOM     11  C   UNL     1      17.545 -36.160  -2.305  1.00  0.00    -0.000 C 
BRANCH  11  12
ATOM     12  C   UNL     1      18.040 -37.451  -1.632  1.00  0.00    -0.000 C 
BRANCH  12  13
ATOM     13  C   UNL     1      17.869 -37.428  -0.106  1.00  0.00    -0.003 C 
ATOM     14  C   UNL     1      18.972 -38.227   0.582  1.00  0.00     0.004 C 
ENDBRANCH  12  13
ENDBRANCH  11  12
ENDBRANCH  10  11
ENDBRANCH   9  10
ENDBRANCH   1   9
TORSDOF 10
ENDMDL
MODEL 9
REMARK VINA RESULT:    -3.753      3.167      4.723
REMARK INTER + INTRA:          -7.050
REMARK INTER:                  -5.569
REMARK INTRA:                  -1.481
REMARK UNBOUND:                -1.103
REMARK SMILES CCCCCCCCCCCC(=O)[O-]
REMARK SMILES IDX 7 1 8 2 9 3 10 4 11 5 12 6 13 7 14 8 6 9 5 10 4 11 3 12 2 13
REMARK SMILES IDX 1 14
REMARK H PARENT
REMARK Flexibility Score: inf
ROOT
ATOM      1  C   UNL     1      17.363 -34.271  -1.487  1.00  0.00     0.000 C 
ENDROOT
BRANCH   1   2
ATOM      2  C   UNL     1      16.678 -35.506  -2.098  1.00  0.00     0.000 C 
BRANCH   2   3
ATOM      3  C   UNL     1      17.661 -36.662  -2.343  1.00  0.00     0.000 C 
BRANCH   3   4
ATOM      4  C   UNL     1      16.966 -38.033  -2.438  1.00  0.00     0.006 C 
BRANCH   4   5
ATOM      5  C   UNL     1      15.488 -38.018  -2.008  1.00  0.00     0.053 C 
BRANCH   5   6
ATOM      6  C   UNL     1      14.617 -38.848  -2.901  1.00  0.00     0.041 C 
ATOM      7  O   UNL     1      14.882 -40.064  -3.097  1.00  0.00    -0.550 OA
ATOM      8  O   UNL     1      13.530 -38.271  -3.545  1.00  0.00    -0.550 OA
ENDBRANCH   5   6
ENDBRANCH   4   5
ENDBRANCH   3   4
ENDBRANCH   2   3
ENDBRANCH   1   2
BRANCH   1   9
ATOM      9  C   UNL     1      17.714 -34.470  -0.002  1.00  0.00     0.000 C 
BRANCH   9  10
ATOM     10  C   UNL     1      16.602 -35.192   0.778  1.00  0.00    -0.000 C 
BRANCH  10  11
ATOM     11  C   UNL     1      17.153 -36.261   1.739  1.00  0.00    -0.000 C 
BRANCH  11  12
ATOM     12  C   UNL     1      16.650 -37.674   1.398  1.00  0.00    -0.000 C 
BRANCH  12  13
ATOM     13  C   UNL     1      17.794 -38.685   1.231  1.00  0.00    -0.003 C 
ATOM     14  C   UNL     1      19.063 -38.001   0.730  1.00  0.00     0.004 C 
ENDBRANCH  12  13
ENDBRANCH  11  12
ENDBRANCH  10  11
ENDBRANCH   9  10
ENDBRANCH   1   9
TORSDOF 10
ENDMDL
