MODEL 1
REMARK VINA RESULT:    -6.971      0.000      0.000
REMARK INTER + INTRA:         -10.713
REMARK INTER:                  -9.213
REMARK INTRA:                  -1.500
REMARK UNBOUND:                -1.500
REMARK SMILES CC[C@H](C=C[C@H](C)[C@H]1CC[C@H]2[C@H]3CC=C4C[C@@H](O)CC[C@@]4(C)[C@@H]3CC[C@]12C)C(C)C
REMARK SMILES IDX 6 1 7 2 5 3 4 4 3 5 2 6 1 7 28 8 29 9 30 10 8 11 9 12 26 13
REMARK SMILES IDX 10 14 11 15 25 16 27 17 12 18 24 19 23 20 13 21 21 22 14 23
REMARK SMILES IDX 15 24 20 25 22 26 16 27 19 28 17 29 18 30
REMARK H PARENT 18 31
REMARK Flexibility Score: inf
ROOT
ATOM      1  C   UNL     1     177.333 175.652 171.697  1.00  0.00     0.012 C 
ATOM      2  C   UNL     1     175.922 175.526 171.095  1.00  0.00     0.012 C 
ENDROOT
BRANCH   1   3
ATOM      3  C   UNL     1     178.322 174.829 170.899  1.00  0.00    -0.028 C 
ATOM      4  C   UNL     1     179.600 175.211 170.717  1.00  0.00    -0.027 C 
BRANCH   4   5
ATOM      5  C   UNL     1     180.625 174.359 169.988  1.00  0.00     0.014 C 
BRANCH   5   6
ATOM      6  C   UNL     1     181.254 175.162 168.824  1.00  0.00     0.004 C 
ATOM      7  C   UNL     1     181.126 176.674 168.995  1.00  0.00     0.004 C 
ENDBRANCH   5   6
BRANCH   5   8
ATOM      8  C   UNL     1     181.656 173.656 170.934  1.00  0.00    -0.011 C 
ATOM      9  C   UNL     1     182.166 174.611 172.025  1.00  0.00     0.008 C 
ATOM     10  C   UNL     1     182.849 172.994 170.217  1.00  0.00     0.008 C 
ENDBRANCH   5   8
ENDBRANCH   4   5
ENDBRANCH   1   3
BRANCH   1  11
ATOM     11  C   UNL     1     177.864 177.116 171.901  1.00  0.00     0.002 C 
ATOM     12  C   UNL     1     176.989 178.288 171.382  1.00  0.00     0.005 C 
ATOM     13  C   UNL     1     178.223 177.519 173.359  1.00  0.00    -0.026 C 
ATOM     14  C   UNL     1     177.347 179.515 172.248  1.00  0.00     0.005 C 
ATOM     15  C   UNL     1     178.477 179.021 173.147  1.00  0.00    -0.001 C 
ATOM     16  C   UNL     1     179.529 176.842 173.906  1.00  0.00     0.007 C 
ATOM     17  C   UNL     1     177.013 177.235 174.307  1.00  0.00     0.012 C 
ATOM     18  C   UNL     1     178.912 179.821 174.408  1.00  0.00     0.000 C 
ATOM     19  C   UNL     1     180.473 177.812 174.679  1.00  0.00     0.005 C 
ATOM     20  C   UNL     1     179.681 178.922 175.417  1.00  0.00     0.003 C 
ATOM     21  C   UNL     1     177.814 180.581 175.158  1.00  0.00     0.031 C 
ATOM     22  C   UNL     1     180.467 179.795 176.457  1.00  0.00    -0.008 C 
ATOM     23  C   UNL     1     178.364 181.239 176.405  1.00  0.00    -0.027 C 
ATOM     24  C   UNL     1     179.511 180.860 177.034  1.00  0.00    -0.065 C 
ATOM     25  C   UNL     1     180.973 178.875 177.616  1.00  0.00     0.014 C 
ATOM     26  C   UNL     1     181.683 180.506 175.806  1.00  0.00     0.016 C 
ATOM     27  C   UNL     1     179.930 181.601 178.289  1.00  0.00     0.063 C 
ATOM     28  C   UNL     1     181.437 179.637 178.870  1.00  0.00     0.033 C 
ATOM     29  C   UNL     1     180.384 180.629 179.388  1.00  0.00     0.118 C 
BRANCH  29  30
ATOM     30  O   UNL     1     179.291 179.961 179.973  1.00  0.00    -0.393 OA
ATOM     31  H   UNL     1     178.771 179.523 179.252  1.00  0.00     0.210 HD
ENDBRANCH  29  30
ENDBRANCH   1  11
TORSDOF 6
ENDMDL
MODEL 2
REMARK VINA RESULT:    -6.952      4.788      8.090
REMARK INTER + INTRA:         -10.687
REMARK INTER:                  -9.177
REMARK INTRA:                  -1.510
REMARK UNBOUND:                -1.500
REMARK SMILES CC[C@H](C=C[C@H](C)[C@H]1CC[C@H]2[C@H]3CC=C4C[C@@H](O)CC[C@@]4(C)[C@@H]3CC[C@]12C)C(C)C
REMARK SMILES IDX 6 1 7 2 5 3 4 4 3 5 2 6 1 7 28 8 29 9 30 10 8 11 9 12 26 13
REMARK SMILES IDX 10 14 11 15 25 16 27 17 12 18 24 19 23 20 13 21 21 22 14 23
REMARK SMILES IDX 15 24 20 25 22 26 16 27 19 28 17 29 18 30
REMARK H PARENT 18 31
REMARK Flexibility Score: inf
ROOT
ATOM      1  C   UNL     1     183.436 185.120 171.712  1.00  0.00     0.012 C 
ATOM      2  C   UNL     1     184.858 185.224 171.133  1.00  0.00     0.012 C 
ENDROOT
BRANCH   1   3
ATOM      3  C   UNL     1     182.472 185.958 170.897  1.00  0.00    -0.028 C 
ATOM      4  C   UNL     1     181.177 185.622 170.740  1.00  0.00    -0.027 C 
BRANCH   4   5
ATOM      5  C   UNL     1     180.180 186.492 169.994  1.00  0.00     0.014 C 
BRANCH   5   6
ATOM      6  C   UNL     1     179.650 185.745 168.747  1.00  0.00     0.004 C 
ATOM      7  C   UNL     1     179.665 184.225 168.901  1.00  0.00     0.004 C 
ENDBRANCH   5   6
BRANCH   5   8
ATOM      8  C   UNL     1     179.070 187.114 170.908  1.00  0.00    -0.011 C 
ATOM      9  C   UNL     1     178.608 186.124 171.990  1.00  0.00     0.008 C 
ATOM     10  C   UNL     1     177.849 187.676 170.155  1.00  0.00     0.008 C 
ENDBRANCH   5   8
ENDBRANCH   4   5
ENDBRANCH   1   3
BRANCH   1  11
ATOM     11  C   UNL     1     182.879 183.665 171.908  1.00  0.00     0.002 C 
ATOM     12  C   UNL     1     183.723 182.482 171.362  1.00  0.00     0.005 C 
ATOM     13  C   UNL     1     182.536 183.252 173.367  1.00  0.00    -0.026 C 
ATOM     14  C   UNL     1     183.354 181.252 172.220  1.00  0.00     0.005 C 
ATOM     15  C   UNL     1     182.250 181.757 173.143  1.00  0.00    -0.001 C 
ATOM     16  C   UNL     1     181.252 183.947 173.942  1.00  0.00     0.007 C 
ATOM     17  C   UNL     1     183.767 183.502 174.299  1.00  0.00     0.012 C 
ATOM     18  C   UNL     1     181.819 180.951 174.402  1.00  0.00     0.000 C 
ATOM     19  C   UNL     1     180.302 182.988 174.720  1.00  0.00     0.005 C 
ATOM     20  C   UNL     1     181.083 181.854 175.433  1.00  0.00     0.003 C 
ATOM     21  C   UNL     1     182.913 180.162 175.125  1.00  0.00     0.031 C 
ATOM     22  C   UNL     1     180.297 180.984 176.476  1.00  0.00    -0.008 C 
ATOM     23  C   UNL     1     182.371 179.501 176.374  1.00  0.00    -0.027 C 
ATOM     24  C   UNL     1     181.242 179.894 177.025  1.00  0.00    -0.065 C 
ATOM     25  C   UNL     1     179.828 181.901 177.653  1.00  0.00     0.014 C 
ATOM     26  C   UNL     1     179.058 180.305 175.837  1.00  0.00     0.016 C 
ATOM     27  C   UNL     1     180.828 179.148 178.279  1.00  0.00     0.063 C 
ATOM     28  C   UNL     1     179.369 181.134 178.905  1.00  0.00     0.033 C 
ATOM     29  C   UNL     1     180.411 180.116 179.396  1.00  0.00     0.118 C 
BRANCH  29  30
ATOM     30  O   UNL     1     181.525 180.756 179.970  1.00  0.00    -0.393 OA
ATOM     31  H   UNL     1     182.334 180.490 179.462  1.00  0.00     0.210 HD
ENDBRANCH  29  30
ENDBRANCH   1  11
TORSDOF 6
ENDMDL
MODEL 3
REMARK VINA RESULT:    -6.870      5.192      8.166
REMARK INTER + INTRA:         -10.580
REMARK INTER:                  -9.297
REMARK INTRA:                  -1.282
REMARK UNBOUND:                -1.500
REMARK SMILES CC[C@H](C=C[C@H](C)[C@H]1CC[C@H]2[C@H]3CC=C4C[C@@H](O)CC[C@@]4(C)[C@@H]3CC[C@]12C)C(C)C
REMARK SMILES IDX 6 1 7 2 5 3 4 4 3 5 2 6 1 7 28 8 29 9 30 10 8 11 9 12 26 13
REMARK SMILES IDX 10 14 11 15 25 16 27 17 12 18 24 19 23 20 13 21 21 22 14 23
REMARK SMILES IDX 15 24 20 25 22 26 16 27 19 28 17 29 18 30
REMARK H PARENT 18 31
REMARK Flexibility Score: inf
ROOT
ATOM      1  C   UNL     1     178.619 181.513 175.515  1.00  0.00     0.012 C 
ATOM      2  C   UNL     1     177.086 181.506 175.649  1.00  0.00     0.012 C 
ENDROOT
BRANCH   1   3
ATOM      3  C   UNL     1     179.227 180.401 176.344  1.00  0.00    -0.028 C 
ATOM      4  C   UNL     1     180.507 180.426 176.761  1.00  0.00    -0.027 C 
BRANCH   4   5
ATOM      5  C   UNL     1     181.108 179.358 177.659  1.00  0.00     0.014 C 
BRANCH   5   6
ATOM      6  C   UNL     1     182.528 178.987 177.168  1.00  0.00     0.004 C 
ATOM      7  C   UNL     1     182.863 179.567 175.795  1.00  0.00     0.004 C 
ENDBRANCH   5   6
BRANCH   5   8
ATOM      8  C   UNL     1     181.005 179.681 179.188  1.00  0.00    -0.011 C 
ATOM      9  C   UNL     1     179.969 178.786 179.887  1.00  0.00     0.008 C 
ATOM     10  C   UNL     1     180.731 181.161 179.523  1.00  0.00     0.008 C 
ENDBRANCH   5   8
ENDBRANCH   4   5
ENDBRANCH   1   3
BRANCH   1  11
ATOM     11  C   UNL     1     179.181 181.485 174.049  1.00  0.00     0.002 C 
ATOM     12  C   UNL     1     178.165 181.372 172.881  1.00  0.00     0.005 C 
ATOM     13  C   UNL     1     180.104 182.669 173.644  1.00  0.00    -0.026 C 
ATOM     14  C   UNL     1     178.841 182.018 171.653  1.00  0.00     0.005 C 
ATOM     15  C   UNL     1     180.242 182.375 172.141  1.00  0.00    -0.001 C 
ATOM     16  C   UNL     1     181.522 182.631 174.314  1.00  0.00     0.007 C 
ATOM     17  C   UNL     1     179.389 184.029 173.934  1.00  0.00     0.012 C 
ATOM     18  C   UNL     1     181.151 183.348 171.338  1.00  0.00     0.000 C 
ATOM     19  C   UNL     1     182.696 182.952 173.340  1.00  0.00     0.005 C 
ATOM     20  C   UNL     1     182.271 183.952 172.234  1.00  0.00     0.003 C 
ATOM     21  C   UNL     1     180.454 184.484 170.584  1.00  0.00     0.031 C 
ATOM     22  C   UNL     1     183.410 184.580 171.356  1.00  0.00    -0.008 C 
ATOM     23  C   UNL     1     181.463 185.397 169.923  1.00  0.00    -0.027 C 
ATOM     24  C   UNL     1     182.769 185.500 170.296  1.00  0.00    -0.065 C 
ATOM     25  C   UNL     1     184.350 185.429 172.275  1.00  0.00     0.014 C 
ATOM     26  C   UNL     1     184.249 183.490 170.640  1.00  0.00     0.016 C 
ATOM     27  C   UNL     1     183.662 186.475 169.554  1.00  0.00     0.063 C 
ATOM     28  C   UNL     1     185.284 186.384 171.510  1.00  0.00     0.033 C 
ATOM     29  C   UNL     1     184.531 187.290 170.523  1.00  0.00     0.118 C 
BRANCH  29  30
ATOM     30  O   UNL     1     183.777 188.270 171.196  1.00  0.00    -0.393 OA
ATOM     31  H   UNL     1     184.287 188.563 171.994  1.00  0.00     0.210 HD
ENDBRANCH  29  30
ENDBRANCH   1  11
TORSDOF 6
ENDMDL
MODEL 4
REMARK VINA RESULT:    -6.833      2.672      8.253
REMARK INTER + INTRA:         -10.530
REMARK INTER:                  -9.251
REMARK INTRA:                  -1.279
REMARK UNBOUND:                -1.500
REMARK SMILES CC[C@H](C=C[C@H](C)[C@H]1CC[C@H]2[C@H]3CC=C4C[C@@H](O)CC[C@@]4(C)[C@@H]3CC[C@]12C)C(C)C
REMARK SMILES IDX 6 1 7 2 5 3 4 4 3 5 2 6 1 7 28 8 29 9 30 10 8 11 9 12 26 13
REMARK SMILES IDX 10 14 11 15 25 16 27 17 12 18 24 19 23 20 13 21 21 22 14 23
REMARK SMILES IDX 15 24 20 25 22 26 16 27 19 28 17 29 18 30
REMARK H PARENT 18 31
REMARK Flexibility Score: inf
ROOT
ATOM      1  C   UNL     1     182.175 179.087 175.448  1.00  0.00     0.012 C 
ATOM      2  C   UNL     1     183.705 179.077 175.616  1.00  0.00     0.012 C 
ENDROOT
BRANCH   1   3
ATOM      3  C   UNL     1     181.564 180.222 176.244  1.00  0.00    -0.028 C 
ATOM      4  C   UNL     1     180.311 180.169 176.733  1.00  0.00    -0.027 C 
BRANCH   4   5
ATOM      5  C   UNL     1     179.712 181.263 177.600  1.00  0.00     0.014 C 
BRANCH   5   6
ATOM      6  C   UNL     1     178.329 181.683 177.047  1.00  0.00     0.004 C 
ATOM      7  C   UNL     1     177.968 180.991 175.734  1.00  0.00     0.004 C 
ENDBRANCH   5   6
BRANCH   5   8
ATOM      8  C   UNL     1     179.738 180.946 179.133  1.00  0.00    -0.011 C 
ATOM      9  C   UNL     1     180.749 181.834 179.877  1.00  0.00     0.008 C 
ATOM     10  C   UNL     1     179.980 179.466 179.487  1.00  0.00     0.008 C 
ENDBRANCH   5   8
ENDBRANCH   4   5
ENDBRANCH   1   3
BRANCH   1  11
ATOM     11  C   UNL     1     181.646 179.096 173.970  1.00  0.00     0.002 C 
ATOM     12  C   UNL     1     182.691 179.144 172.822  1.00  0.00     0.005 C 
ATOM     13  C   UNL     1     180.692 177.934 173.574  1.00  0.00    -0.026 C 
ATOM     14  C   UNL     1     182.019 178.490 171.596  1.00  0.00     0.005 C 
ATOM     15  C   UNL     1     180.597 178.193 172.061  1.00  0.00    -0.001 C 
ATOM     16  C   UNL     1     179.262 178.037 174.211  1.00  0.00     0.007 C 
ATOM     17  C   UNL     1     181.353 176.558 173.915  1.00  0.00     0.012 C 
ATOM     18  C   UNL     1     179.672 177.230 171.264  1.00  0.00     0.000 C 
ATOM     19  C   UNL     1     178.099 177.731 173.220  1.00  0.00     0.005 C 
ATOM     20  C   UNL     1     178.513 176.688 172.149  1.00  0.00     0.003 C 
ATOM     21  C   UNL     1     180.346 176.053 170.554  1.00  0.00     0.031 C 
ATOM     22  C   UNL     1     177.372 176.077 171.263  1.00  0.00    -0.008 C 
ATOM     23  C   UNL     1     179.320 175.157 169.894  1.00  0.00    -0.027 C 
ATOM     24  C   UNL     1     178.004 175.108 170.241  1.00  0.00    -0.065 C 
ATOM     25  C   UNL     1     176.384 175.285 172.181  1.00  0.00     0.014 C 
ATOM     26  C   UNL     1     176.587 177.175 170.500  1.00  0.00     0.016 C 
ATOM     27  C   UNL     1     177.093 174.145 169.503  1.00  0.00     0.063 C 
ATOM     28  C   UNL     1     175.434 174.342 171.420  1.00  0.00     0.033 C 
ATOM     29  C   UNL     1     176.177 173.385 170.473  1.00  0.00     0.118 C 
BRANCH  29  30
ATOM     30  O   UNL     1     176.882 172.399 171.188  1.00  0.00    -0.393 OA
ATOM     31  H   UNL     1     177.418 172.846 171.891  1.00  0.00     0.210 HD
ENDBRANCH  29  30
ENDBRANCH   1  11
TORSDOF 6
ENDMDL
MODEL 5
REMARK VINA RESULT:    -6.794      2.821      7.782
REMARK INTER + INTRA:         -10.479
REMARK INTER:                  -8.937
REMARK INTRA:                  -1.542
REMARK UNBOUND:                -1.500
REMARK SMILES CC[C@H](C=C[C@H](C)[C@H]1CC[C@H]2[C@H]3CC=C4C[C@@H](O)CC[C@@]4(C)[C@@H]3CC[C@]12C)C(C)C
REMARK SMILES IDX 6 1 7 2 5 3 4 4 3 5 2 6 1 7 28 8 29 9 30 10 8 11 9 12 26 13
REMARK SMILES IDX 10 14 11 15 25 16 27 17 12 18 24 19 23 20 13 21 21 22 14 23
REMARK SMILES IDX 15 24 20 25 22 26 16 27 19 28 17 29 18 30
REMARK H PARENT 18 31
REMARK Flexibility Score: inf
ROOT
ATOM      1  C   UNL     1     177.304 180.106 174.298  1.00  0.00     0.012 C 
ATOM      2  C   UNL     1     175.840 180.371 174.689  1.00  0.00     0.012 C 
ENDROOT
BRANCH   1   3
ATOM      3  C   UNL     1     178.239 180.916 175.173  1.00  0.00    -0.028 C 
ATOM      4  C   UNL     1     178.878 180.385 176.233  1.00  0.00    -0.027 C 
BRANCH   4   5
ATOM      5  C   UNL     1     179.879 181.161 177.071  1.00  0.00     0.014 C 
BRANCH   5   6
ATOM      6  C   UNL     1     179.454 181.143 178.559  1.00  0.00     0.004 C 
ATOM      7  C   UNL     1     180.527 181.687 179.500  1.00  0.00     0.004 C 
ENDBRANCH   5   6
BRANCH   5   8
ATOM      8  C   UNL     1     181.372 180.766 176.809  1.00  0.00    -0.011 C 
ATOM      9  C   UNL     1     181.863 181.282 175.447  1.00  0.00     0.008 C 
ATOM     10  C   UNL     1     181.678 179.261 176.942  1.00  0.00     0.008 C 
ENDBRANCH   5   8
ENDBRANCH   4   5
ENDBRANCH   1   3
BRANCH   1  11
ATOM     11  C   UNL     1     177.744 178.599 174.260  1.00  0.00     0.002 C 
ATOM     12  C   UNL     1     176.633 177.516 174.230  1.00  0.00     0.005 C 
ATOM     13  C   UNL     1     178.708 178.194 173.110  1.00  0.00    -0.026 C 
ATOM     14  C   UNL     1     177.250 176.279 173.544  1.00  0.00     0.005 C 
ATOM     15  C   UNL     1     178.706 176.669 173.308  1.00  0.00    -0.001 C 
ATOM     16  C   UNL     1     180.170 178.739 173.280  1.00  0.00     0.007 C 
ATOM     17  C   UNL     1     178.112 178.629 171.731  1.00  0.00     0.012 C 
ATOM     18  C   UNL     1     179.611 175.856 172.338  1.00  0.00     0.000 C 
ATOM     19  C   UNL     1     181.281 177.692 172.965  1.00  0.00     0.005 C 
ATOM     20  C   UNL     1     180.837 176.692 171.867  1.00  0.00     0.003 C 
ATOM     21  C   UNL     1     178.933 175.237 171.113  1.00  0.00     0.031 C 
ATOM     22  C   UNL     1     181.941 175.763 171.251  1.00  0.00    -0.008 C 
ATOM     23  C   UNL     1     179.945 174.553 170.220  1.00  0.00    -0.027 C 
ATOM     24  C   UNL     1     181.280 174.821 170.223  1.00  0.00    -0.065 C 
ATOM     25  C   UNL     1     183.006 176.651 170.527  1.00  0.00     0.014 C 
ATOM     26  C   UNL     1     182.646 174.911 172.338  1.00  0.00     0.016 C 
ATOM     27  C   UNL     1     182.174 174.069 169.255  1.00  0.00     0.063 C 
ATOM     28  C   UNL     1     183.937 175.872 169.580  1.00  0.00     0.033 C 
ATOM     29  C   UNL     1     183.170 175.012 168.564  1.00  0.00     0.118 C 
BRANCH  29  30
ATOM     30  O   UNL     1     182.539 175.807 167.589  1.00  0.00    -0.393 OA
ATOM     31  H   UNL     1     182.082 175.208 166.944  1.00  0.00     0.210 HD
ENDBRANCH  29  30
ENDBRANCH   1  11
TORSDOF 6
ENDMDL
MODEL 6
REMARK VINA RESULT:    -6.780      5.088      8.799
REMARK INTER + INTRA:         -10.460
REMARK INTER:                  -8.952
REMARK INTRA:                  -1.508
REMARK UNBOUND:                -1.500
REMARK SMILES CC[C@H](C=C[C@H](C)[C@H]1CC[C@H]2[C@H]3CC=C4C[C@@H](O)CC[C@@]4(C)[C@@H]3CC[C@]12C)C(C)C
REMARK SMILES IDX 6 1 7 2 5 3 4 4 3 5 2 6 1 7 28 8 29 9 30 10 8 11 9 12 26 13
REMARK SMILES IDX 10 14 11 15 25 16 27 17 12 18 24 19 23 20 13 21 21 22 14 23
REMARK SMILES IDX 15 24 20 25 22 26 16 27 19 28 17 29 18 30
REMARK H PARENT 18 31
REMARK Flexibility Score: inf
ROOT
ATOM      1  C   UNL     1     183.431 180.636 174.336  1.00  0.00     0.012 C 
ATOM      2  C   UNL     1     184.907 180.385 174.691  1.00  0.00     0.012 C 
ENDROOT
BRANCH   1   3
ATOM      3  C   UNL     1     182.525 179.824 175.238  1.00  0.00    -0.028 C 
ATOM      4  C   UNL     1     181.795 180.382 176.222  1.00  0.00    -0.027 C 
BRANCH   4   5
ATOM      5  C   UNL     1     180.823 179.594 177.082  1.00  0.00     0.014 C 
BRANCH   5   6
ATOM      6  C   UNL     1     181.306 179.577 178.553  1.00  0.00     0.004 C 
ATOM      7  C   UNL     1     180.226 179.132 179.537  1.00  0.00     0.004 C 
ENDBRANCH   5   6
BRANCH   5   8
ATOM      8  C   UNL     1     179.324 180.005 176.888  1.00  0.00    -0.011 C 
ATOM      9  C   UNL     1     178.784 179.544 175.524  1.00  0.00     0.008 C 
ATOM     10  C   UNL     1     179.030 181.504 177.090  1.00  0.00     0.008 C 
ENDBRANCH   5   8
ENDBRANCH   4   5
ENDBRANCH   1   3
BRANCH   1  11
ATOM     11  C   UNL     1     182.978 182.140 174.302  1.00  0.00     0.002 C 
ATOM     12  C   UNL     1     184.081 183.232 174.285  1.00  0.00     0.005 C 
ATOM     13  C   UNL     1     182.019 182.542 173.147  1.00  0.00    -0.026 C 
ATOM     14  C   UNL     1     183.458 184.468 173.600  1.00  0.00     0.005 C 
ATOM     15  C   UNL     1     182.007 184.066 173.352  1.00  0.00    -0.001 C 
ATOM     16  C   UNL     1     180.561 181.984 173.303  1.00  0.00     0.007 C 
ATOM     17  C   UNL     1     182.629 182.119 171.770  1.00  0.00     0.012 C 
ATOM     18  C   UNL     1     181.102 184.876 172.380  1.00  0.00     0.000 C 
ATOM     19  C   UNL     1     179.443 183.023 172.986  1.00  0.00     0.005 C 
ATOM     20  C   UNL     1     179.887 184.033 171.896  1.00  0.00     0.003 C 
ATOM     21  C   UNL     1     181.784 185.507 171.163  1.00  0.00     0.031 C 
ATOM     22  C   UNL     1     178.779 184.955 171.276  1.00  0.00    -0.008 C 
ATOM     23  C   UNL     1     180.773 186.186 170.265  1.00  0.00    -0.027 C 
ATOM     24  C   UNL     1     179.440 185.907 170.257  1.00  0.00    -0.065 C 
ATOM     25  C   UNL     1     177.727 184.062 170.540  1.00  0.00     0.014 C 
ATOM     26  C   UNL     1     178.059 185.796 172.363  1.00  0.00     0.016 C 
ATOM     27  C   UNL     1     178.546 186.656 169.287  1.00  0.00     0.063 C 
ATOM     28  C   UNL     1     176.796 184.837 169.591  1.00  0.00     0.033 C 
ATOM     29  C   UNL     1     177.564 185.708 168.584  1.00  0.00     0.118 C 
BRANCH  29  30
ATOM     30  O   UNL     1     178.208 184.923 167.610  1.00  0.00    -0.393 OA
ATOM     31  H   UNL     1     179.027 185.400 167.316  1.00  0.00     0.210 HD
ENDBRANCH  29  30
ENDBRANCH   1  11
TORSDOF 6
ENDMDL
MODEL 7
REMARK VINA RESULT:    -6.676      0.824      1.543
REMARK INTER + INTRA:         -10.322
REMARK INTER:                  -8.958
REMARK INTRA:                  -1.365
REMARK UNBOUND:                -1.500
REMARK SMILES CC[C@H](C=C[C@H](C)[C@H]1CC[C@H]2[C@H]3CC=C4C[C@@H](O)CC[C@@]4(C)[C@@H]3CC[C@]12C)C(C)C
REMARK SMILES IDX 6 1 7 2 5 3 4 4 3 5 2 6 1 7 28 8 29 9 30 10 8 11 9 12 26 13
REMARK SMILES IDX 10 14 11 15 25 16 27 17 12 18 24 19 23 20 13 21 21 22 14 23
REMARK SMILES IDX 15 24 20 25 22 26 16 27 19 28 17 29 18 30
REMARK H PARENT 18 31
REMARK Flexibility Score: inf
ROOT
ATOM      1  C   UNL     1     177.263 176.406 171.469  1.00  0.00     0.012 C 
ATOM      2  C   UNL     1     176.167 176.365 170.390  1.00  0.00     0.012 C 
ENDROOT
BRANCH   1   3
ATOM      3  C   UNL     1     178.389 175.457 171.112  1.00  0.00    -0.028 C 
ATOM      4  C   UNL     1     179.380 175.796 170.266  1.00  0.00    -0.027 C 
BRANCH   4   5
ATOM      5  C   UNL     1     180.558 174.887 169.961  1.00  0.00     0.014 C 
BRANCH   5   6
ATOM      6  C   UNL     1     181.069 174.223 171.262  1.00  0.00     0.004 C 
ATOM      7  C   UNL     1     182.051 175.096 172.040  1.00  0.00     0.004 C 
ENDBRANCH   5   6
BRANCH   5   8
ATOM      8  C   UNL     1     180.306 173.897 168.773  1.00  0.00    -0.011 C 
ATOM      9  C   UNL     1     181.615 173.532 168.054  1.00  0.00     0.008 C 
ATOM     10  C   UNL     1     179.257 174.367 167.747  1.00  0.00     0.008 C 
ENDBRANCH   5   8
ENDBRANCH   4   5
ENDBRANCH   1   3
BRANCH   1  11
ATOM     11  C   UNL     1     177.826 177.828 171.823  1.00  0.00     0.002 C 
ATOM     12  C   UNL     1     176.967 179.066 171.450  1.00  0.00     0.005 C 
ATOM     13  C   UNL     1     178.214 178.063 173.310  1.00  0.00    -0.026 C 
ATOM     14  C   UNL     1     177.362 180.184 172.438  1.00  0.00     0.005 C 
ATOM     15  C   UNL     1     178.494 179.574 173.260  1.00  0.00    -0.001 C 
ATOM     16  C   UNL     1     179.514 177.307 173.758  1.00  0.00     0.007 C 
ATOM     17  C   UNL     1     177.012 177.698 174.241  1.00  0.00     0.012 C 
ATOM     18  C   UNL     1     178.962 180.224 174.593  1.00  0.00     0.000 C 
ATOM     19  C   UNL     1     180.488 178.169 174.617  1.00  0.00     0.005 C 
ATOM     20  C   UNL     1     179.729 179.205 175.486  1.00  0.00     0.003 C 
ATOM     21  C   UNL     1     177.891 180.916 175.440  1.00  0.00     0.031 C 
ATOM     22  C   UNL     1     180.546 179.945 176.601  1.00  0.00    -0.008 C 
ATOM     23  C   UNL     1     178.471 181.423 176.742  1.00  0.00    -0.027 C 
ATOM     24  C   UNL     1     179.619 180.957 177.307  1.00  0.00    -0.065 C 
ATOM     25  C   UNL     1     181.051 178.894 177.645  1.00  0.00     0.014 C 
ATOM     26  C   UNL     1     181.766 180.701 176.012  1.00  0.00     0.016 C 
ATOM     27  C   UNL     1     180.071 181.548 178.629  1.00  0.00     0.063 C 
ATOM     28  C   UNL     1     181.548 179.506 178.966  1.00  0.00     0.033 C 
ATOM     29  C   UNL     1     180.521 180.454 179.607  1.00  0.00     0.118 C 
BRANCH  29  30
ATOM     30  O   UNL     1     179.425 179.745 180.133  1.00  0.00    -0.393 OA
ATOM     31  H   UNL     1     179.756 178.887 180.504  1.00  0.00     0.210 HD
ENDBRANCH  29  30
ENDBRANCH   1  11
TORSDOF 6
ENDMDL
MODEL 8
REMARK VINA RESULT:    -6.464      3.269      8.506
REMARK INTER + INTRA:         -10.042
REMARK INTER:                  -8.749
REMARK INTRA:                  -1.293
REMARK UNBOUND:                -1.500
REMARK SMILES CC[C@H](C=C[C@H](C)[C@H]1CC[C@H]2[C@H]3CC=C4C[C@@H](O)CC[C@@]4(C)[C@@H]3CC[C@]12C)C(C)C
REMARK SMILES IDX 6 1 7 2 5 3 4 4 3 5 2 6 1 7 28 8 29 9 30 10 8 11 9 12 26 13
REMARK SMILES IDX 10 14 11 15 25 16 27 17 12 18 24 19 23 20 13 21 21 22 14 23
REMARK SMILES IDX 15 24 20 25 22 26 16 27 19 28 17 29 18 30
REMARK H PARENT 18 31
REMARK Flexibility Score: inf
ROOT
ATOM      1  C   UNL     1     182.735 181.992 174.305  1.00  0.00     0.012 C 
ATOM      2  C   UNL     1     183.615 183.255 174.310  1.00  0.00     0.012 C 
ENDROOT
BRANCH   1   3
ATOM      3  C   UNL     1     181.524 182.189 175.193  1.00  0.00    -0.028 C 
ATOM      4  C   UNL     1     181.132 181.270 176.096  1.00  0.00    -0.027 C 
BRANCH   4   5
ATOM      5  C   UNL     1     179.969 181.487 177.049  1.00  0.00     0.014 C 
BRANCH   5   6
ATOM      6  C   UNL     1     178.627 181.352 176.289  1.00  0.00     0.004 C 
ATOM      7  C   UNL     1     178.510 180.050 175.499  1.00  0.00     0.004 C 
ENDBRANCH   5   6
BRANCH   5   8
ATOM      8  C   UNL     1     180.064 180.651 178.370  1.00  0.00    -0.011 C 
ATOM      9  C   UNL     1     180.343 181.548 179.587  1.00  0.00     0.008 C 
ATOM     10  C   UNL     1     181.075 179.488 178.332  1.00  0.00     0.008 C 
ENDBRANCH   5   8
ENDBRANCH   4   5
ENDBRANCH   1   3
BRANCH   1  11
ATOM     11  C   UNL     1     182.308 181.457 172.892  1.00  0.00     0.002 C 
ATOM     12  C   UNL     1     182.945 182.118 171.640  1.00  0.00     0.005 C 
ATOM     13  C   UNL     1     182.483 179.931 172.653  1.00  0.00    -0.026 C 
ATOM     14  C   UNL     1     182.911 181.054 170.522  1.00  0.00     0.005 C 
ATOM     15  C   UNL     1     182.170 179.877 171.148  1.00  0.00    -0.001 C 
ATOM     16  C   UNL     1     181.452 179.041 173.432  1.00  0.00     0.007 C 
ATOM     17  C   UNL     1     183.949 179.501 172.985  1.00  0.00     0.012 C 
ATOM     18  C   UNL     1     182.204 178.464 170.498  1.00  0.00     0.000 C 
ATOM     19  C   UNL     1     180.838 177.886 172.584  1.00  0.00     0.005 C 
ATOM     20  C   UNL     1     181.838 177.354 171.525  1.00  0.00     0.003 C 
ATOM     21  C   UNL     1     183.494 178.066 169.776  1.00  0.00     0.031 C 
ATOM     22  C   UNL     1     181.466 176.017 170.792  1.00  0.00    -0.008 C 
ATOM     23  C   UNL     1     183.416 176.642 169.270  1.00  0.00    -0.027 C 
ATOM     24  C   UNL     1     182.563 175.698 169.755  1.00  0.00    -0.065 C 
ATOM     25  C   UNL     1     181.399 174.862 171.845  1.00  0.00     0.014 C 
ATOM     26  C   UNL     1     180.098 176.122 170.067  1.00  0.00     0.016 C 
ATOM     27  C   UNL     1     182.609 174.302 169.163  1.00  0.00     0.063 C 
ATOM     28  C   UNL     1     181.403 173.450 171.232  1.00  0.00     0.033 C 
ATOM     29  C   UNL     1     182.571 173.227 170.258  1.00  0.00     0.118 C 
BRANCH  29  30
ATOM     30  O   UNL     1     183.799 173.136 170.939  1.00  0.00    -0.393 OA
ATOM     31  H   UNL     1     183.793 173.791 171.683  1.00  0.00     0.210 HD
ENDBRANCH  29  30
ENDBRANCH   1  11
TORSDOF 6
ENDMDL
MODEL 9
REMARK VINA RESULT:    -6.367      3.135      7.962
REMARK INTER + INTRA:          -9.914
REMARK INTER:                  -8.404
REMARK INTRA:                  -1.510
REMARK UNBOUND:                -1.500
REMARK SMILES CC[C@H](C=C[C@H](C)[C@H]1CC[C@H]2[C@H]3CC=C4C[C@@H](O)CC[C@@]4(C)[C@@H]3CC[C@]12C)C(C)C
REMARK SMILES IDX 6 1 7 2 5 3 4 4 3 5 2 6 1 7 28 8 29 9 30 10 8 11 9 12 26 13
REMARK SMILES IDX 10 14 11 15 25 16 27 17 12 18 24 19 23 20 13 21 21 22 14 23
REMARK SMILES IDX 15 24 20 25 22 26 16 27 19 28 17 29 18 30
REMARK H PARENT 18 31
REMARK Flexibility Score: inf
ROOT
ATOM      1  C   UNL     1     180.113 182.459 173.835  1.00  0.00     0.012 C 
ATOM      2  C   UNL     1     180.082 183.990 173.685  1.00  0.00     0.012 C 
ENDROOT
BRANCH   1   3
ATOM      3  C   UNL     1     180.780 182.070 175.138  1.00  0.00    -0.028 C 
ATOM      4  C   UNL     1     180.109 181.483 176.147  1.00  0.00    -0.027 C 
BRANCH   4   5
ATOM      5  C   UNL     1     180.779 181.014 177.427  1.00  0.00     0.014 C 
BRANCH   5   6
ATOM      6  C   UNL     1     179.964 181.483 178.657  1.00  0.00     0.004 C 
ATOM      7  C   UNL     1     180.122 180.568 179.870  1.00  0.00     0.004 C 
ENDBRANCH   5   6
BRANCH   5   8
ATOM      8  C   UNL     1     181.155 179.494 177.429  1.00  0.00    -0.011 C 
ATOM      9  C   UNL     1     182.515 179.247 176.756  1.00  0.00     0.008 C 
ATOM     10  C   UNL     1     180.091 178.560 176.820  1.00  0.00     0.008 C 
ENDBRANCH   5   8
ENDBRANCH   4   5
ENDBRANCH   1   3
BRANCH   1  11
ATOM     11  C   UNL     1     178.734 181.725 173.676  1.00  0.00     0.002 C 
ATOM     12  C   UNL     1     177.515 182.560 173.198  1.00  0.00     0.005 C 
ATOM     13  C   UNL     1     178.725 180.471 172.758  1.00  0.00    -0.026 C 
ATOM     14  C   UNL     1     176.554 181.569 172.507  1.00  0.00     0.005 C 
ATOM     15  C   UNL     1     177.211 180.207 172.709  1.00  0.00    -0.001 C 
ATOM     16  C   UNL     1     179.451 179.224 173.374  1.00  0.00     0.007 C 
ATOM     17  C   UNL     1     179.326 180.826 171.358  1.00  0.00     0.012 C 
ATOM     18  C   UNL     1     176.763 178.966 171.886  1.00  0.00     0.000 C 
ATOM     19  C   UNL     1     178.679 177.882 173.191  1.00  0.00     0.005 C 
ATOM     20  C   UNL     1     177.860 177.862 171.875  1.00  0.00     0.003 C 
ATOM     21  C   UNL     1     176.301 179.219 170.448  1.00  0.00     0.031 C 
ATOM     22  C   UNL     1     177.262 176.485 171.421  1.00  0.00    -0.008 C 
ATOM     23  C   UNL     1     175.979 177.919 169.744  1.00  0.00    -0.027 C 
ATOM     24  C   UNL     1     176.451 176.699 170.125  1.00  0.00    -0.065 C 
ATOM     25  C   UNL     1     178.435 175.490 171.135  1.00  0.00     0.014 C 
ATOM     26  C   UNL     1     176.333 175.878 172.504  1.00  0.00     0.016 C 
ATOM     27  C   UNL     1     176.060 175.481 169.310  1.00  0.00     0.063 C 
ATOM     28  C   UNL     1     178.020 174.236 170.346  1.00  0.00     0.033 C 
ATOM     29  C   UNL     1     177.268 174.571 169.047  1.00  0.00     0.118 C 
BRANCH  29  30
ATOM     30  O   UNL     1     178.131 175.121 168.080  1.00  0.00    -0.393 OA
ATOM     31  H   UNL     1     178.538 175.943 168.456  1.00  0.00     0.210 HD
ENDBRANCH  29  30
ENDBRANCH   1  11
TORSDOF 6
ENDMDL
