MODEL 1
REMARK VINA RESULT:    -3.816      0.000      0.000
REMARK INTER + INTRA:          -7.076
REMARK INTER:                  -6.494
REMARK INTRA:                  -0.582
REMARK UNBOUND:                -0.582
REMARK SMILES CCCCCCCCCCCCCC(=O)[O-]
REMARK SMILES IDX 8 1 9 2 10 3 11 4 12 5 13 6 14 7 15 8 16 9 7 10 6 11 5 12
REMARK SMILES IDX 4 13 3 14 2 15 1 16
REMARK H PARENT
REMARK Flexibility Score: inf
ROOT
ATOM      1  C   UNL     1      42.365  11.965 -35.454  1.00  0.00     0.000 C 
ENDROOT
BRANCH   1   2
ATOM      2  C   UNL     1      43.626  12.785 -35.153  1.00  0.00     0.000 C 
BRANCH   2   3
ATOM      3  C   UNL     1      44.353  12.238 -33.915  1.00  0.00     0.000 C 
BRANCH   3   4
ATOM      4  C   UNL     1      45.249  13.286 -33.233  1.00  0.00     0.000 C 
BRANCH   4   5
ATOM      5  C   UNL     1      46.483  12.721 -32.504  1.00  0.00     0.006 C 
BRANCH   5   6
ATOM      6  C   UNL     1      46.145  11.875 -31.261  1.00  0.00     0.053 C 
BRANCH   6   7
ATOM      7  C   UNL     1      45.946  12.709 -30.031  1.00  0.00     0.041 C 
ATOM      8  O   UNL     1      45.532  13.894 -30.127  1.00  0.00    -0.550 OA
ATOM      9  O   UNL     1      46.179  12.164 -28.776  1.00  0.00    -0.550 OA
ENDBRANCH   6   7
ENDBRANCH   5   6
ENDBRANCH   4   5
ENDBRANCH   3   4
ENDBRANCH   2   3
ENDBRANCH   1   2
BRANCH   1  10
ATOM     10  C   UNL     1      41.317  12.814 -36.185  1.00  0.00     0.000 C 
BRANCH  10  11
ATOM     11  C   UNL     1      41.622  14.309 -36.041  1.00  0.00    -0.000 C 
BRANCH  11  12
ATOM     12  C   UNL     1      40.327  15.123 -35.895  1.00  0.00    -0.000 C 
BRANCH  12  13
ATOM     13  C   UNL     1      39.136  14.269 -35.436  1.00  0.00    -0.000 C 
BRANCH  13  14
ATOM     14  C   UNL     1      37.994  14.244 -36.466  1.00  0.00    -0.000 C 
BRANCH  14  15
ATOM     15  C   UNL     1      37.735  12.837 -37.025  1.00  0.00    -0.003 C 
ATOM     16  C   UNL     1      37.163  11.879 -35.981  1.00  0.00     0.004 C 
ENDBRANCH  14  15
ENDBRANCH  13  14
ENDBRANCH  12  13
ENDBRANCH  11  12
ENDBRANCH  10  11
ENDBRANCH   1  10
TORSDOF 12
ENDMDL
MODEL 2
REMARK VINA RESULT:    -3.550     19.436     21.171
REMARK INTER + INTRA:          -6.623
REMARK INTER:                  -5.727
REMARK INTRA:                  -0.896
REMARK UNBOUND:                -0.582
REMARK SMILES CCCCCCCCCCCCCC(=O)[O-]
REMARK SMILES IDX 8 1 9 2 10 3 11 4 12 5 13 6 14 7 15 8 16 9 7 10 6 11 5 12
REMARK SMILES IDX 4 13 3 14 2 15 1 16
REMARK H PARENT
REMARK Flexibility Score: inf
ROOT
ATOM      1  C   UNL     1      55.254  26.624 -35.742  1.00  0.00     0.000 C 
ENDROOT
BRANCH   1   2
ATOM      2  C   UNL     1      56.540  26.484 -34.918  1.00  0.00     0.000 C 
BRANCH   2   3
ATOM      3  C   UNL     1      56.925  27.823 -34.272  1.00  0.00     0.000 C 
BRANCH   3   4
ATOM      4  C   UNL     1      56.076  28.159 -33.035  1.00  0.00     0.000 C 
BRANCH   4   5
ATOM      5  C   UNL     1      56.874  28.455 -31.750  1.00  0.00     0.006 C 
BRANCH   5   6
ATOM      6  C   UNL     1      56.040  29.104 -30.629  1.00  0.00     0.053 C 
BRANCH   6   7
ATOM      7  C   UNL     1      55.854  30.579 -30.826  1.00  0.00     0.041 C 
ATOM      8  O   UNL     1      56.642  31.397 -30.283  1.00  0.00    -0.550 OA
ATOM      9  O   UNL     1      54.835  31.048 -31.645  1.00  0.00    -0.550 OA
ENDBRANCH   6   7
ENDBRANCH   5   6
ENDBRANCH   4   5
ENDBRANCH   3   4
ENDBRANCH   2   3
ENDBRANCH   1   2
BRANCH   1  10
ATOM     10  C   UNL     1      55.286  27.894 -36.602  1.00  0.00     0.000 C 
BRANCH  10  11
ATOM     11  C   UNL     1      54.831  27.600 -38.036  1.00  0.00    -0.000 C 
BRANCH  11  12
ATOM     12  C   UNL     1      54.713  28.896 -38.853  1.00  0.00    -0.000 C 
BRANCH  12  13
ATOM     13  C   UNL     1      54.124  30.059 -38.040  1.00  0.00    -0.000 C 
BRANCH  13  14
ATOM     14  C   UNL     1      54.931  31.359 -38.198  1.00  0.00    -0.000 C 
BRANCH  14  15
ATOM     15  C   UNL     1      55.108  32.107 -36.868  1.00  0.00    -0.003 C 
ATOM     16  C   UNL     1      56.052  31.389 -35.904  1.00  0.00     0.004 C 
ENDBRANCH  14  15
ENDBRANCH  13  14
ENDBRANCH  12  13
ENDBRANCH  11  12
ENDBRANCH  10  11
ENDBRANCH   1  10
TORSDOF 12
ENDMDL
MODEL 3
REMARK VINA RESULT:    -3.060      3.085      5.601
REMARK INTER + INTRA:          -5.789
REMARK INTER:                  -5.340
REMARK INTRA:                  -0.449
REMARK UNBOUND:                -0.582
REMARK SMILES CCCCCCCCCCCCCC(=O)[O-]
REMARK SMILES IDX 8 1 9 2 10 3 11 4 12 5 13 6 14 7 15 8 16 9 7 10 6 11 5 12
REMARK SMILES IDX 4 13 3 14 2 15 1 16
REMARK H PARENT
REMARK Flexibility Score: inf
ROOT
ATOM      1  C   UNL     1      45.637  13.169 -30.561  1.00  0.00     0.000 C 
ENDROOT
BRANCH   1   2
ATOM      2  C   UNL     1      46.389  11.886 -30.190  1.00  0.00     0.000 C 
BRANCH   2   3
ATOM      3  C   UNL     1      46.793  11.896 -28.708  1.00  0.00     0.000 C 
BRANCH   3   4
ATOM      4  C   UNL     1      45.585  11.896 -27.756  1.00  0.00     0.000 C 
BRANCH   4   5
ATOM      5  C   UNL     1      45.931  11.881 -26.255  1.00  0.00     0.006 C 
BRANCH   5   6
ATOM      6  C   UNL     1      44.701  11.875 -25.327  1.00  0.00     0.053 C 
BRANCH   6   7
ATOM      7  C   UNL     1      44.875  12.763 -24.131  1.00  0.00     0.041 C 
ATOM      8  O   UNL     1      45.494  12.347 -23.116  1.00  0.00    -0.550 OA
ATOM      9  O   UNL     1      44.390  14.063 -24.153  1.00  0.00    -0.550 OA
ENDBRANCH   6   7
ENDBRANCH   5   6
ENDBRANCH   4   5
ENDBRANCH   3   4
ENDBRANCH   2   3
ENDBRANCH   1   2
BRANCH   1  10
ATOM     10  C   UNL     1      44.866  12.995 -31.876  1.00  0.00     0.000 C 
BRANCH  10  11
ATOM     11  C   UNL     1      45.807  13.081 -33.083  1.00  0.00    -0.000 C 
BRANCH  11  12
ATOM     12  C   UNL     1      45.088  12.656 -34.372  1.00  0.00    -0.000 C 
BRANCH  12  13
ATOM     13  C   UNL     1      43.562  12.594 -34.210  1.00  0.00    -0.000 C 
BRANCH  13  14
ATOM     14  C   UNL     1      42.871  11.879 -35.384  1.00  0.00    -0.000 C 
BRANCH  14  15
ATOM     15  C   UNL     1      41.962  12.817 -36.193  1.00  0.00    -0.003 C 
ATOM     16  C   UNL     1      40.476  12.515 -36.002  1.00  0.00     0.004 C 
ENDBRANCH  14  15
ENDBRANCH  13  14
ENDBRANCH  12  13
ENDBRANCH  11  12
ENDBRANCH  10  11
ENDBRANCH   1  10
TORSDOF 12
ENDMDL
MODEL 4
REMARK VINA RESULT:    -2.998     20.345     21.984
REMARK INTER + INTRA:          -5.684
REMARK INTER:                  -5.123
REMARK INTRA:                  -0.561
REMARK UNBOUND:                -0.582
REMARK SMILES CCCCCCCCCCCCCC(=O)[O-]
REMARK SMILES IDX 8 1 9 2 10 3 11 4 12 5 13 6 14 7 15 8 16 9 7 10 6 11 5 12
REMARK SMILES IDX 4 13 3 14 2 15 1 16
REMARK H PARENT
REMARK Flexibility Score: inf
ROOT
ATOM      1  C   UNL     1      54.654  31.391 -32.008  1.00  0.00     0.000 C 
ENDROOT
BRANCH   1   2
ATOM      2  C   UNL     1      55.727  32.056 -31.138  1.00  0.00     0.000 C 
BRANCH   2   3
ATOM      3  C   UNL     1      56.911  31.106 -30.906  1.00  0.00     0.000 C 
BRANCH   3   4
ATOM      4  C   UNL     1      56.536  29.873 -30.067  1.00  0.00     0.000 C 
BRANCH   4   5
ATOM      5  C   UNL     1      56.987  28.519 -30.649  1.00  0.00     0.006 C 
BRANCH   5   6
ATOM      6  C   UNL     1      56.086  27.991 -31.781  1.00  0.00     0.053 C 
BRANCH   6   7
ATOM      7  C   UNL     1      56.737  28.084 -33.129  1.00  0.00     0.041 C 
ATOM      8  O   UNL     1      57.118  29.199 -33.575  1.00  0.00    -0.550 OA
ATOM      9  O   UNL     1      56.960  26.935 -33.875  1.00  0.00    -0.550 OA
ENDBRANCH   6   7
ENDBRANCH   5   6
ENDBRANCH   4   5
ENDBRANCH   3   4
ENDBRANCH   2   3
ENDBRANCH   1   2
BRANCH   1  10
ATOM     10  C   UNL     1      54.498  32.124 -33.347  1.00  0.00     0.000 C 
BRANCH  10  11
ATOM     11  C   UNL     1      55.783  32.032 -34.178  1.00  0.00    -0.000 C 
BRANCH  11  12
ATOM     12  C   UNL     1      55.544  31.245 -35.476  1.00  0.00    -0.000 C 
BRANCH  12  13
ATOM     13  C   UNL     1      54.990  32.122 -36.610  1.00  0.00    -0.000 C 
BRANCH  13  14
ATOM     14  C   UNL     1      55.025  31.414 -37.975  1.00  0.00    -0.000 C 
BRANCH  14  15
ATOM     15  C   UNL     1      54.097  30.190 -38.028  1.00  0.00    -0.003 C 
ATOM     16  C   UNL     1      54.846  28.869 -37.854  1.00  0.00     0.004 C 
ENDBRANCH  14  15
ENDBRANCH  13  14
ENDBRANCH  12  13
ENDBRANCH  11  12
ENDBRANCH  10  11
ENDBRANCH   1  10
TORSDOF 12
ENDMDL
MODEL 5
REMARK VINA RESULT:    -2.977      2.105      3.418
REMARK INTER + INTRA:          -5.648
REMARK INTER:                  -4.931
REMARK INTRA:                  -0.717
REMARK UNBOUND:                -0.582
REMARK SMILES CCCCCCCCCCCCCC(=O)[O-]
REMARK SMILES IDX 8 1 9 2 10 3 11 4 12 5 13 6 14 7 15 8 16 9 7 10 6 11 5 12
REMARK SMILES IDX 4 13 3 14 2 15 1 16
REMARK H PARENT
REMARK Flexibility Score: inf
ROOT
ATOM      1  C   UNL     1      40.636  14.693 -35.706  1.00  0.00     0.000 C 
ENDROOT
BRANCH   1   2
ATOM      2  C   UNL     1      42.090  14.210 -35.762  1.00  0.00     0.000 C 
BRANCH   2   3
ATOM      3  C   UNL     1      42.172  12.783 -36.323  1.00  0.00     0.000 C 
BRANCH   3   4
ATOM      4  C   UNL     1      43.118  11.875 -35.519  1.00  0.00     0.000 C 
BRANCH   4   5
ATOM      5  C   UNL     1      44.276  12.599 -34.806  1.00  0.00     0.006 C 
BRANCH   5   6
ATOM      6  C   UNL     1      44.292  12.403 -33.278  1.00  0.00     0.053 C 
BRANCH   6   7
ATOM      7  C   UNL     1      45.625  12.721 -32.668  1.00  0.00     0.041 C 
ATOM      8  O   UNL     1      45.753  12.781 -31.417  1.00  0.00    -0.550 OA
ATOM      9  O   UNL     1      46.734  12.911 -33.481  1.00  0.00    -0.550 OA
ENDBRANCH   6   7
ENDBRANCH   5   6
ENDBRANCH   4   5
ENDBRANCH   3   4
ENDBRANCH   2   3
ENDBRANCH   1   2
BRANCH   1  10
ATOM     10  C   UNL     1      39.673  13.598 -36.183  1.00  0.00     0.000 C 
BRANCH  10  11
ATOM     11  C   UNL     1      38.288  14.178 -36.490  1.00  0.00    -0.000 C 
BRANCH  11  12
ATOM     12  C   UNL     1      37.181  13.166 -36.154  1.00  0.00    -0.000 C 
BRANCH  12  13
ATOM     13  C   UNL     1      37.157  12.784 -34.666  1.00  0.00    -0.000 C 
BRANCH  13  14
ATOM     14  C   UNL     1      36.976  14.003 -33.746  1.00  0.00    -0.000 C 
BRANCH  14  15
ATOM     15  C   UNL     1      36.875  13.611 -32.263  1.00  0.00    -0.003 C 
ATOM     16  C   UNL     1      36.887  14.820 -31.328  1.00  0.00     0.004 C 
ENDBRANCH  14  15
ENDBRANCH  13  14
ENDBRANCH  12  13
ENDBRANCH  11  12
ENDBRANCH  10  11
ENDBRANCH   1  10
TORSDOF 12
ENDMDL
MODEL 6
REMARK VINA RESULT:    -2.906     19.204     21.244
REMARK INTER + INTRA:          -5.527
REMARK INTER:                  -4.790
REMARK INTRA:                  -0.737
REMARK UNBOUND:                -0.582
REMARK SMILES CCCCCCCCCCCCCC(=O)[O-]
REMARK SMILES IDX 8 1 9 2 10 3 11 4 12 5 13 6 14 7 15 8 16 9 7 10 6 11 5 12
REMARK SMILES IDX 4 13 3 14 2 15 1 16
REMARK H PARENT
REMARK Flexibility Score: inf
ROOT
ATOM      1  C   UNL     1      55.334  30.449 -32.060  1.00  0.00     0.000 C 
ENDROOT
BRANCH   1   2
ATOM      2  C   UNL     1      56.841  30.327 -32.315  1.00  0.00     0.000 C 
BRANCH   2   3
ATOM      3  C   UNL     1      57.125  29.341 -33.458  1.00  0.00     0.000 C 
BRANCH   3   4
ATOM      4  C   UNL     1      56.697  27.901 -33.130  1.00  0.00     0.000 C 
BRANCH   4   5
ATOM      5  C   UNL     1      55.584  27.325 -34.027  1.00  0.00     0.006 C 
BRANCH   5   6
ATOM      6  C   UNL     1      56.051  26.957 -35.448  1.00  0.00     0.053 C 
BRANCH   6   7
ATOM      7  C   UNL     1      55.211  25.882 -36.072  1.00  0.00     0.041 C 
ATOM      8  O   UNL     1      54.816  24.904 -35.384  1.00  0.00    -0.550 OA
ATOM      9  O   UNL     1      54.829  25.982 -37.403  1.00  0.00    -0.550 OA
ENDBRANCH   6   7
ENDBRANCH   5   6
ENDBRANCH   4   5
ENDBRANCH   3   4
ENDBRANCH   2   3
ENDBRANCH   1   2
BRANCH   1  10
ATOM     10  C   UNL     1      54.770  31.729 -32.692  1.00  0.00     0.000 C 
BRANCH  10  11
ATOM     11  C   UNL     1      55.568  32.125 -33.939  1.00  0.00    -0.000 C 
BRANCH  11  12
ATOM     12  C   UNL     1      54.747  31.887 -35.216  1.00  0.00    -0.000 C 
BRANCH  12  13
ATOM     13  C   UNL     1      55.623  31.557 -36.434  1.00  0.00    -0.000 C 
BRANCH  13  14
ATOM     14  C   UNL     1      54.796  31.316 -37.709  1.00  0.00    -0.000 C 
BRANCH  14  15
ATOM     15  C   UNL     1      55.236  30.054 -38.466  1.00  0.00    -0.003 C 
ATOM     16  C   UNL     1      54.154  28.974 -38.500  1.00  0.00     0.004 C 
ENDBRANCH  14  15
ENDBRANCH  13  14
ENDBRANCH  12  13
ENDBRANCH  11  12
ENDBRANCH  10  11
ENDBRANCH   1  10
TORSDOF 12
ENDMDL
MODEL 7
REMARK VINA RESULT:    -2.507     19.173     20.960
REMARK INTER + INTRA:          -4.848
REMARK INTER:                  -3.799
REMARK INTRA:                  -1.048
REMARK UNBOUND:                -0.582
REMARK SMILES CCCCCCCCCCCCCC(=O)[O-]
REMARK SMILES IDX 8 1 9 2 10 3 11 4 12 5 13 6 14 7 15 8 16 9 7 10 6 11 5 12
REMARK SMILES IDX 4 13 3 14 2 15 1 16
REMARK H PARENT
REMARK Flexibility Score: inf
ROOT
ATOM      1  C   UNL     1      54.808  30.918 -34.610  1.00  0.00     0.000 C 
ENDROOT
BRANCH   1   2
ATOM      2  C   UNL     1      56.160  30.194 -34.655  1.00  0.00     0.000 C 
BRANCH   2   3
ATOM      3  C   UNL     1      55.970  28.694 -34.926  1.00  0.00     0.000 C 
BRANCH   3   4
ATOM      4  C   UNL     1      57.017  27.818 -34.218  1.00  0.00     0.000 C 
BRANCH   4   5
ATOM      5  C   UNL     1      57.124  28.022 -32.694  1.00  0.00     0.006 C 
BRANCH   5   6
ATOM      6  C   UNL     1      55.764  28.125 -31.978  1.00  0.00     0.053 C 
BRANCH   6   7
ATOM      7  C   UNL     1      55.718  29.245 -30.982  1.00  0.00     0.041 C 
ATOM      8  O   UNL     1      56.273  29.120 -29.859  1.00  0.00    -0.550 OA
ATOM      9  O   UNL     1      55.098  30.443 -31.311  1.00  0.00    -0.550 OA
ENDBRANCH   6   7
ENDBRANCH   5   6
ENDBRANCH   4   5
ENDBRANCH   3   4
ENDBRANCH   2   3
ENDBRANCH   1   2
BRANCH   1  10
ATOM     10  C   UNL     1      54.799  32.125 -35.557  1.00  0.00     0.000 C 
BRANCH  10  11
ATOM     11  C   UNL     1      55.268  31.728 -36.961  1.00  0.00    -0.000 C 
BRANCH  11  12
ATOM     12  C   UNL     1      54.196  30.899 -37.685  1.00  0.00    -0.000 C 
BRANCH  12  13
ATOM     13  C   UNL     1      54.780  29.683 -38.422  1.00  0.00    -0.000 C 
BRANCH  13  14
ATOM     14  C   UNL     1      53.723  28.604 -38.711  1.00  0.00    -0.000 C 
BRANCH  14  15
ATOM     15  C   UNL     1      54.346  27.220 -38.952  1.00  0.00    -0.003 C 
ATOM     16  C   UNL     1      54.795  26.538 -37.659  1.00  0.00     0.004 C 
ENDBRANCH  14  15
ENDBRANCH  13  14
ENDBRANCH  12  13
ENDBRANCH  11  12
ENDBRANCH  10  11
ENDBRANCH   1  10
TORSDOF 12
ENDMDL
MODEL 8
REMARK VINA RESULT:    -1.712     17.496     19.585
REMARK INTER + INTRA:          -3.495
REMARK INTER:                  -2.796
REMARK INTRA:                  -0.699
REMARK UNBOUND:                -0.582
REMARK SMILES CCCCCCCCCCCCCC(=O)[O-]
REMARK SMILES IDX 8 1 9 2 10 3 11 4 12 5 13 6 14 7 15 8 16 9 7 10 6 11 5 12
REMARK SMILES IDX 4 13 3 14 2 15 1 16
REMARK H PARENT
REMARK Flexibility Score: inf
ROOT
ATOM      1  C   UNL     1      55.109  25.980 -35.743  1.00  0.00     0.000 C 
ENDROOT
BRANCH   1   2
ATOM      2  C   UNL     1      55.744  26.967 -34.757  1.00  0.00     0.000 C 
BRANCH   2   3
ATOM      3  C   UNL     1      56.482  28.089 -35.502  1.00  0.00     0.000 C 
BRANCH   3   4
ATOM      4  C   UNL     1      56.191  29.485 -34.927  1.00  0.00     0.000 C 
BRANCH   4   5
ATOM      5  C   UNL     1      56.008  30.602 -35.973  1.00  0.00     0.006 C 
BRANCH   5   6
ATOM      6  C   UNL     1      55.327  30.138 -37.275  1.00  0.00     0.053 C 
BRANCH   6   7
ATOM      7  C   UNL     1      54.546  31.232 -37.940  1.00  0.00     0.041 C 
ATOM      8  O   UNL     1      54.895  31.667 -39.069  1.00  0.00    -0.550 OA
ATOM      9  O   UNL     1      53.407  31.743 -37.331  1.00  0.00    -0.550 OA
ENDBRANCH   6   7
ENDBRANCH   5   6
ENDBRANCH   4   5
ENDBRANCH   3   4
ENDBRANCH   2   3
ENDBRANCH   1   2
BRANCH   1  10
ATOM     10  C   UNL     1      54.894  26.633 -37.115  1.00  0.00     0.000 C 
BRANCH  10  11
ATOM     11  C   UNL     1      54.497  25.590 -38.165  1.00  0.00    -0.000 C 
BRANCH  11  12
ATOM     12  C   UNL     1      54.797  24.167 -37.669  1.00  0.00    -0.000 C 
BRANCH  12  13
ATOM     13  C   UNL     1      54.642  23.108 -38.771  1.00  0.00    -0.000 C 
BRANCH  13  14
ATOM     14  C   UNL     1      53.714  21.954 -38.355  1.00  0.00    -0.000 C 
BRANCH  14  15
ATOM     15  C   UNL     1      54.460  20.841 -37.602  1.00  0.00    -0.003 C 
ATOM     16  C   UNL     1      53.968  19.442 -37.970  1.00  0.00     0.004 C 
ENDBRANCH  14  15
ENDBRANCH  13  14
ENDBRANCH  12  13
ENDBRANCH  11  12
ENDBRANCH  10  11
ENDBRANCH   1  10
TORSDOF 12
ENDMDL
