MODEL 1
REMARK VINA RESULT:    -6.328      0.000      0.000
REMARK INTER + INTRA:          -8.043
REMARK INTER:                  -7.623
REMARK INTRA:                  -0.420
REMARK UNBOUND:                -0.420
REMARK SMILES O=c1c(O)c(-c2ccc(O)cc2O)oc2cc(O)cc(O)c12
REMARK SMILES IDX 5 1 3 2 2 3 1 4 22 5 20 6 19 7 17 8 16 9 15 10 14 11 6 12
REMARK SMILES IDX 8 13 7 14 9 15 11 16 12 17 10 18 13 20 4 22 21 24 18 26
REMARK H PARENT 10 19 13 21 4 23 21 25 18 27
REMARK Flexibility Score: inf
ROOT
ATOM      1  C   UNL     1     -14.157  -9.798  -3.948  1.00  0.00     0.184 A 
ATOM      2  C   UNL     1     -13.856  -9.538  -5.295  1.00  0.00     0.208 A 
ATOM      3  C   UNL     1     -14.288 -10.445  -6.276  1.00  0.00     0.238 A 
ATOM      4  O   UNL     1     -14.078 -10.170  -7.486  1.00  0.00    -0.285 OA
ATOM      5  C   UNL     1     -14.968 -11.626  -5.894  1.00  0.00     0.111 A 
ATOM      6  C   UNL     1     -15.411 -12.638  -6.799  1.00  0.00     0.134 A 
ATOM      7  C   UNL     1     -16.171 -13.712  -6.317  1.00  0.00     0.093 A 
ATOM      8  C   UNL     1     -16.448 -13.844  -4.954  1.00  0.00     0.123 A 
ATOM      9  C   UNL     1     -15.972 -12.893  -4.056  1.00  0.00     0.094 A 
ATOM     10  C   UNL     1     -15.245 -11.790  -4.510  1.00  0.00     0.146 A 
ATOM     11  O   UNL     1     -14.829 -10.896  -3.622  1.00  0.00    -0.451 OA
ENDROOT
BRANCH   1  12
ATOM     12  C   UNL     1     -13.745  -8.877  -2.863  1.00  0.00     0.063 A 
ATOM     13  C   UNL     1     -11.994  -7.840  -1.528  1.00  0.00     0.047 A 
ATOM     14  C   UNL     1     -12.386  -8.727  -2.532  1.00  0.00     0.020 A 
ATOM     15  C   UNL     1     -12.953  -7.081  -0.846  1.00  0.00     0.119 A 
ATOM     16  C   UNL     1     -14.304  -7.213  -1.176  1.00  0.00     0.093 A 
ATOM     17  C   UNL     1     -14.707  -8.104  -2.183  1.00  0.00     0.130 A 
BRANCH  15  18
ATOM     18  O   UNL     1     -12.573  -6.192   0.157  1.00  0.00    -0.508 OA
ATOM     19  H   UNL     1     -11.600  -6.051   0.398  1.00  0.00     0.293 HD
ENDBRANCH  15  18
BRANCH  17  20
ATOM     20  O   UNL     1     -16.060  -8.230  -2.498  1.00  0.00    -0.507 OA
ATOM     21  H   UNL     1     -16.543  -9.118  -2.423  1.00  0.00     0.293 HD
ENDBRANCH  17  20
ENDBRANCH   1  12
BRANCH   2  22
ATOM     22  O   UNL     1     -13.125  -8.400  -5.644  1.00  0.00    -0.502 OA
ATOM     23  H   UNL     1     -12.155  -8.275  -5.382  1.00  0.00     0.293 HD
ENDBRANCH   2  22
BRANCH   6  24
ATOM     24  O   UNL     1     -15.115 -12.651  -8.166  1.00  0.00    -0.507 OA
ATOM     25  H   UNL     1     -14.574 -11.948  -8.646  1.00  0.00     0.293 HD
ENDBRANCH   6  24
BRANCH   8  26
ATOM     26  O   UNL     1     -17.189 -14.925  -4.481  1.00  0.00    -0.508 OA
ATOM     27  H   UNL     1     -16.799 -15.860  -4.446  1.00  0.00     0.293 HD
ENDBRANCH   8  26
TORSDOF 6
ENDMDL
MODEL 2
REMARK VINA RESULT:    -5.850      0.907      1.532
REMARK INTER + INTRA:          -7.467
REMARK INTER:                  -7.156
REMARK INTRA:                  -0.312
REMARK UNBOUND:                -0.420
REMARK SMILES O=c1c(O)c(-c2ccc(O)cc2O)oc2cc(O)cc(O)c12
REMARK SMILES IDX 5 1 3 2 2 3 1 4 22 5 20 6 19 7 17 8 16 9 15 10 14 11 6 12
REMARK SMILES IDX 8 13 7 14 9 15 11 16 12 17 10 18 13 20 4 22 21 24 18 26
REMARK H PARENT 10 19 13 21 4 23 21 25 18 27
REMARK Flexibility Score: inf
ROOT
ATOM      1  C   UNL     1     -14.300  -9.698  -4.242  1.00  0.00     0.184 A 
ATOM      2  C   UNL     1     -13.850  -9.365  -5.531  1.00  0.00     0.208 A 
ATOM      3  C   UNL     1     -14.097 -10.253  -6.589  1.00  0.00     0.238 A 
ATOM      4  O   UNL     1     -13.756  -9.917  -7.752  1.00  0.00    -0.285 OA
ATOM      5  C   UNL     1     -14.744 -11.488  -6.337  1.00  0.00     0.111 A 
ATOM      6  C   UNL     1     -15.005 -12.485  -7.325  1.00  0.00     0.134 A 
ATOM      7  C   UNL     1     -15.750 -13.621  -6.980  1.00  0.00     0.093 A 
ATOM      8  C   UNL     1     -16.186 -13.826  -5.669  1.00  0.00     0.123 A 
ATOM      9  C   UNL     1     -15.887 -12.887  -4.686  1.00  0.00     0.094 A 
ATOM     10  C   UNL     1     -15.180 -11.725  -5.006  1.00  0.00     0.146 A 
ATOM     11  O   UNL     1     -14.936 -10.846  -4.042  1.00  0.00    -0.451 OA
ENDROOT
BRANCH   1  12
ATOM     12  C   UNL     1     -14.086  -8.801  -3.082  1.00  0.00     0.063 A 
ATOM     13  C   UNL     1     -14.979  -7.332  -1.360  1.00  0.00     0.047 A 
ATOM     14  C   UNL     1     -15.176  -8.155  -2.470  1.00  0.00     0.020 A 
ATOM     15  C   UNL     1     -13.693  -7.149  -0.838  1.00  0.00     0.119 A 
ATOM     16  C   UNL     1     -12.606  -7.797  -1.431  1.00  0.00     0.093 A 
ATOM     17  C   UNL     1     -12.795  -8.626  -2.548  1.00  0.00     0.130 A 
BRANCH  15  18
ATOM     18  O   UNL     1     -13.485  -6.330   0.270  1.00  0.00    -0.508 OA
ATOM     19  H   UNL     1     -13.830  -6.584   1.187  1.00  0.00     0.293 HD
ENDBRANCH  15  18
BRANCH  17  20
ATOM     20  O   UNL     1     -11.700  -9.262  -3.134  1.00  0.00    -0.507 OA
ATOM     21  H   UNL     1     -11.200 -10.005  -2.659  1.00  0.00     0.293 HD
ENDBRANCH  17  20
ENDBRANCH   1  12
BRANCH   2  22
ATOM     22  O   UNL     1     -13.155  -8.172  -5.745  1.00  0.00    -0.502 OA
ATOM     23  H   UNL     1     -13.211  -7.658  -6.615  1.00  0.00     0.293 HD
ENDBRANCH   2  22
BRANCH   6  24
ATOM     24  O   UNL     1     -14.541 -12.423  -8.643  1.00  0.00    -0.507 OA
ATOM     25  H   UNL     1     -13.691 -11.964  -8.934  1.00  0.00     0.293 HD
ENDBRANCH   6  24
BRANCH   8  26
ATOM     26  O   UNL     1     -16.910 -14.967  -5.332  1.00  0.00    -0.508 OA
ATOM     27  H   UNL     1     -16.981 -15.285  -4.372  1.00  0.00     0.293 HD
ENDBRANCH   8  26
TORSDOF 6
ENDMDL
MODEL 3
REMARK VINA RESULT:    -5.518      1.894      6.706
REMARK INTER + INTRA:          -7.067
REMARK INTER:                  -6.635
REMARK INTRA:                  -0.433
REMARK UNBOUND:                -0.420
REMARK SMILES O=c1c(O)c(-c2ccc(O)cc2O)oc2cc(O)cc(O)c12
REMARK SMILES IDX 5 1 3 2 2 3 1 4 22 5 20 6 19 7 17 8 16 9 15 10 14 11 6 12
REMARK SMILES IDX 8 13 7 14 9 15 11 16 12 17 10 18 13 20 4 22 21 24 18 26
REMARK H PARENT 10 19 13 21 4 23 21 25 18 27
REMARK Flexibility Score: inf
ROOT
ATOM      1  C   UNL     1     -14.139 -11.567  -4.535  1.00  0.00     0.184 A 
ATOM      2  C   UNL     1     -12.795 -11.646  -4.136  1.00  0.00     0.208 A 
ATOM      3  C   UNL     1     -12.259 -10.621  -3.341  1.00  0.00     0.238 A 
ATOM      4  O   UNL     1     -11.076 -10.734  -2.927  1.00  0.00    -0.285 OA
ATOM      5  C   UNL     1     -13.057  -9.502  -3.000  1.00  0.00     0.111 A 
ATOM      6  C   UNL     1     -12.604  -8.383  -2.239  1.00  0.00     0.134 A 
ATOM      7  C   UNL     1     -13.515  -7.384  -1.870  1.00  0.00     0.093 A 
ATOM      8  C   UNL     1     -14.846  -7.432  -2.290  1.00  0.00     0.123 A 
ATOM      9  C   UNL     1     -15.284  -8.491  -3.081  1.00  0.00     0.094 A 
ATOM     10  C   UNL     1     -14.410  -9.522  -3.433  1.00  0.00     0.146 A 
ATOM     11  O   UNL     1     -14.875 -10.523  -4.170  1.00  0.00    -0.451 OA
ENDROOT
BRANCH   1  12
ATOM     12  C   UNL     1     -14.774 -12.619  -5.362  1.00  0.00     0.063 A 
ATOM     13  C   UNL     1     -14.993 -13.788  -7.486  1.00  0.00     0.047 A 
ATOM     14  C   UNL     1     -14.416 -12.778  -6.713  1.00  0.00     0.020 A 
ATOM     15  C   UNL     1     -15.930 -14.660  -6.918  1.00  0.00     0.119 A 
ATOM     16  C   UNL     1     -16.282 -14.519  -5.573  1.00  0.00     0.093 A 
ATOM     17  C   UNL     1     -15.708 -13.506  -4.790  1.00  0.00     0.130 A 
BRANCH  15  18
ATOM     18  O   UNL     1     -16.512 -15.671  -7.680  1.00  0.00    -0.508 OA
ATOM     19  H   UNL     1     -16.666 -16.597  -7.300  1.00  0.00     0.293 HD
ENDBRANCH  15  18
BRANCH  17  20
ATOM     20  O   UNL     1     -16.074 -13.373  -3.450  1.00  0.00    -0.507 OA
ATOM     21  H   UNL     1     -16.445 -12.504  -3.084  1.00  0.00     0.293 HD
ENDBRANCH  17  20
ENDBRANCH   1  12
BRANCH   2  22
ATOM     22  O   UNL     1     -12.006 -12.727  -4.540  1.00  0.00    -0.502 OA
ATOM     23  H   UNL     1     -11.026 -12.627  -4.772  1.00  0.00     0.293 HD
ENDBRANCH   2  22
BRANCH   6  24
ATOM     24  O   UNL     1     -11.277  -8.190  -1.842  1.00  0.00    -0.507 OA
ATOM     25  H   UNL     1     -10.978  -7.560  -1.113  1.00  0.00     0.293 HD
ENDBRANCH   6  24
BRANCH   8  26
ATOM     26  O   UNL     1     -15.741  -6.426  -1.934  1.00  0.00    -0.508 OA
ATOM     27  H   UNL     1     -15.779  -5.548  -2.439  1.00  0.00     0.293 HD
ENDBRANCH   8  26
TORSDOF 6
ENDMDL
MODEL 4
REMARK VINA RESULT:    -5.442      1.575      6.449
REMARK INTER + INTRA:          -6.975
REMARK INTER:                  -6.594
REMARK INTRA:                  -0.381
REMARK UNBOUND:                -0.420
REMARK SMILES O=c1c(O)c(-c2ccc(O)cc2O)oc2cc(O)cc(O)c12
REMARK SMILES IDX 5 1 3 2 2 3 1 4 22 5 20 6 19 7 17 8 16 9 15 10 14 11 6 12
REMARK SMILES IDX 8 13 7 14 9 15 11 16 12 17 10 18 13 20 4 22 21 24 18 26
REMARK H PARENT 10 19 13 21 4 23 21 25 18 27
REMARK Flexibility Score: inf
ROOT
ATOM      1  C   UNL     1     -14.381  -9.476  -4.157  1.00  0.00     0.184 A 
ATOM      2  C   UNL     1     -13.174  -8.868  -3.772  1.00  0.00     0.208 A 
ATOM      3  C   UNL     1     -13.143  -8.096  -2.600  1.00  0.00     0.238 A 
ATOM      4  O   UNL     1     -12.043  -7.615  -2.223  1.00  0.00    -0.285 OA
ATOM      5  C   UNL     1     -14.331  -7.897  -1.855  1.00  0.00     0.111 A 
ATOM      6  C   UNL     1     -14.426  -7.096  -0.677  1.00  0.00     0.134 A 
ATOM      7  C   UNL     1     -15.631  -7.061   0.038  1.00  0.00     0.093 A 
ATOM      8  C   UNL     1     -16.760  -7.744  -0.418  1.00  0.00     0.123 A 
ATOM      9  C   UNL     1     -16.693  -8.482  -1.597  1.00  0.00     0.094 A 
ATOM     10  C   UNL     1     -15.496  -8.569  -2.312  1.00  0.00     0.146 A 
ATOM     11  O   UNL     1     -15.471  -9.301  -3.418  1.00  0.00    -0.451 OA
ENDROOT
BRANCH   1  12
ATOM     12  C   UNL     1     -14.482 -10.315  -5.373  1.00  0.00     0.063 A 
ATOM     13  C   UNL     1     -14.318 -10.555  -7.790  1.00  0.00     0.047 A 
ATOM     14  C   UNL     1     -14.250  -9.759  -6.644  1.00  0.00     0.020 A 
ATOM     15  C   UNL     1     -14.609 -11.920  -7.682  1.00  0.00     0.119 A 
ATOM     16  C   UNL     1     -14.828 -12.484  -6.422  1.00  0.00     0.093 A 
ATOM     17  C   UNL     1     -14.763 -11.691  -5.266  1.00  0.00     0.130 A 
BRANCH  15  18
ATOM     18  O   UNL     1     -14.679 -12.724  -8.817  1.00  0.00    -0.508 OA
ATOM     19  H   UNL     1     -13.975 -12.676  -9.543  1.00  0.00     0.293 HD
ENDBRANCH  15  18
BRANCH  17  20
ATOM     20  O   UNL     1     -14.990 -12.267  -4.016  1.00  0.00    -0.507 OA
ATOM     21  H   UNL     1     -14.272 -12.799  -3.537  1.00  0.00     0.293 HD
ENDBRANCH  17  20
ENDBRANCH   1  12
BRANCH   2  22
ATOM     22  O   UNL     1     -12.029  -9.023  -4.559  1.00  0.00    -0.502 OA
ATOM     23  H   UNL     1     -12.036  -9.526  -5.437  1.00  0.00     0.293 HD
ENDBRANCH   2  22
BRANCH   6  24
ATOM     24  O   UNL     1     -13.386  -6.303  -0.182  1.00  0.00    -0.507 OA
ATOM     25  H   UNL     1     -12.936  -5.558  -0.692  1.00  0.00     0.293 HD
ENDBRANCH   6  24
BRANCH   8  26
ATOM     26  O   UNL     1     -17.958  -7.689   0.290  1.00  0.00    -0.508 OA
ATOM     27  H   UNL     1     -17.979  -7.482   1.282  1.00  0.00     0.293 HD
ENDBRANCH   8  26
TORSDOF 6
ENDMDL
MODEL 5
REMARK VINA RESULT:    -5.218      1.775      3.670
REMARK INTER + INTRA:          -6.706
REMARK INTER:                  -6.263
REMARK INTRA:                  -0.442
REMARK UNBOUND:                -0.420
REMARK SMILES O=c1c(O)c(-c2ccc(O)cc2O)oc2cc(O)cc(O)c12
REMARK SMILES IDX 5 1 3 2 2 3 1 4 22 5 20 6 19 7 17 8 16 9 15 10 14 11 6 12
REMARK SMILES IDX 8 13 7 14 9 15 11 16 12 17 10 18 13 20 4 22 21 24 18 26
REMARK H PARENT 10 19 13 21 4 23 21 25 18 27
REMARK Flexibility Score: inf
ROOT
ATOM      1  C   UNL     1     -14.501  -9.822  -4.746  1.00  0.00     0.184 A 
ATOM      2  C   UNL     1     -14.766 -11.198  -4.646  1.00  0.00     0.208 A 
ATOM      3  C   UNL     1     -14.774 -11.977  -5.814  1.00  0.00     0.238 A 
ATOM      4  O   UNL     1     -14.940 -13.220  -5.710  1.00  0.00    -0.285 OA
ATOM      5  C   UNL     1     -14.571 -11.361  -7.073  1.00  0.00     0.111 A 
ATOM      6  C   UNL     1     -14.604 -12.045  -8.326  1.00  0.00     0.134 A 
ATOM      7  C   UNL     1     -14.280 -11.351  -9.500  1.00  0.00     0.093 A 
ATOM      8  C   UNL     1     -13.989  -9.985  -9.473  1.00  0.00     0.123 A 
ATOM      9  C   UNL     1     -14.009  -9.298  -8.263  1.00  0.00     0.094 A 
ATOM     10  C   UNL     1     -14.290  -9.969  -7.070  1.00  0.00     0.146 A 
ATOM     11  O   UNL     1     -14.278  -9.279  -5.937  1.00  0.00    -0.451 OA
ENDROOT
BRANCH   1  12
ATOM     12  C   UNL     1     -14.462  -8.944  -3.554  1.00  0.00     0.063 A 
ATOM     13  C   UNL     1     -15.621  -7.696  -1.815  1.00  0.00     0.047 A 
ATOM     14  C   UNL     1     -15.656  -8.501  -2.955  1.00  0.00     0.020 A 
ATOM     15  C   UNL     1     -14.394  -7.329  -1.250  1.00  0.00     0.119 A 
ATOM     16  C   UNL     1     -13.203  -7.775  -1.829  1.00  0.00     0.093 A 
ATOM     17  C   UNL     1     -13.229  -8.584  -2.976  1.00  0.00     0.130 A 
BRANCH  15  18
ATOM     18  O   UNL     1     -14.347  -6.526  -0.112  1.00  0.00    -0.508 OA
ATOM     19  H   UNL     1     -14.830  -5.637  -0.072  1.00  0.00     0.293 HD
ENDBRANCH  15  18
BRANCH  17  20
ATOM     20  O   UNL     1     -12.032  -9.017  -3.547  1.00  0.00    -0.507 OA
ATOM     21  H   UNL     1     -11.859  -8.939  -4.543  1.00  0.00     0.293 HD
ENDBRANCH  17  20
ENDBRANCH   1  12
BRANCH   2  22
ATOM     22  O   UNL     1     -15.030 -11.773  -3.400  1.00  0.00    -0.502 OA
ATOM     23  H   UNL     1     -14.326 -11.853  -2.678  1.00  0.00     0.293 HD
ENDBRANCH   2  22
BRANCH   6  24
ATOM     24  O   UNL     1     -14.969 -13.386  -8.478  1.00  0.00    -0.507 OA
ATOM     25  H   UNL     1     -15.181 -13.830  -9.359  1.00  0.00     0.293 HD
ENDBRANCH   6  24
BRANCH   8  26
ATOM     26  O   UNL     1     -13.685  -9.300 -10.647  1.00  0.00    -0.508 OA
ATOM     27  H   UNL     1     -13.227  -9.760 -11.426  1.00  0.00     0.293 HD
ENDBRANCH   8  26
TORSDOF 6
ENDMDL
MODEL 6
REMARK VINA RESULT:    -5.158      2.252      6.750
REMARK INTER + INTRA:          -6.633
REMARK INTER:                  -6.412
REMARK INTRA:                  -0.221
REMARK UNBOUND:                -0.420
REMARK SMILES O=c1c(O)c(-c2ccc(O)cc2O)oc2cc(O)cc(O)c12
REMARK SMILES IDX 5 1 3 2 2 3 1 4 22 5 20 6 19 7 17 8 16 9 15 10 14 11 6 12
REMARK SMILES IDX 8 13 7 14 9 15 11 16 12 17 10 18 13 20 4 22 21 24 18 26
REMARK H PARENT 10 19 13 21 4 23 21 25 18 27
REMARK Flexibility Score: inf
ROOT
ATOM      1  C   UNL     1     -14.219 -10.362  -4.894  1.00  0.00     0.184 A 
ATOM      2  C   UNL     1     -13.200 -10.256  -3.934  1.00  0.00     0.208 A 
ATOM      3  C   UNL     1     -12.624  -9.000  -3.687  1.00  0.00     0.238 A 
ATOM      4  O   UNL     1     -11.764  -8.899  -2.775  1.00  0.00    -0.285 OA
ATOM      5  C   UNL     1     -13.037  -7.875  -4.441  1.00  0.00     0.111 A 
ATOM      6  C   UNL     1     -12.490  -6.563  -4.308  1.00  0.00     0.134 A 
ATOM      7  C   UNL     1     -13.054  -5.503  -5.032  1.00  0.00     0.093 A 
ATOM      8  C   UNL     1     -14.100  -5.721  -5.932  1.00  0.00     0.123 A 
ATOM      9  C   UNL     1     -14.602  -7.007  -6.110  1.00  0.00     0.094 A 
ATOM     10  C   UNL     1     -14.088  -8.078  -5.375  1.00  0.00     0.146 A 
ATOM     11  O   UNL     1     -14.611  -9.283  -5.561  1.00  0.00    -0.451 OA
ENDROOT
BRANCH   1  12
ATOM     12  C   UNL     1     -14.880 -11.653  -5.195  1.00  0.00     0.063 A 
ATOM     13  C   UNL     1     -16.016 -13.669  -4.438  1.00  0.00     0.047 A 
ATOM     14  C   UNL     1     -15.368 -12.465  -4.154  1.00  0.00     0.020 A 
ATOM     15  C   UNL     1     -16.195 -14.075  -5.766  1.00  0.00     0.119 A 
ATOM     16  C   UNL     1     -15.727 -13.270  -6.807  1.00  0.00     0.093 A 
ATOM     17  C   UNL     1     -15.074 -12.059  -6.531  1.00  0.00     0.130 A 
BRANCH  15  18
ATOM     18  O   UNL     1     -16.841 -15.274  -6.060  1.00  0.00    -0.508 OA
ATOM     19  H   UNL     1     -16.453 -16.167  -5.779  1.00  0.00     0.293 HD
ENDBRANCH  15  18
BRANCH  17  20
ATOM     20  O   UNL     1     -14.605 -11.267  -7.580  1.00  0.00    -0.507 OA
ATOM     21  H   UNL     1     -14.338 -11.670  -8.471  1.00  0.00     0.293 HD
ENDBRANCH  17  20
ENDBRANCH   1  12
BRANCH   2  22
ATOM     22  O   UNL     1     -12.761 -11.392  -3.248  1.00  0.00    -0.502 OA
ATOM     23  H   UNL     1     -12.312 -12.170  -3.715  1.00  0.00     0.293 HD
ENDBRANCH   2  22
BRANCH   6  24
ATOM     24  O   UNL     1     -11.389  -6.250  -3.506  1.00  0.00    -0.507 OA
ATOM     25  H   UNL     1     -10.612  -5.673  -3.790  1.00  0.00     0.293 HD
ENDBRANCH   6  24
BRANCH   8  26
ATOM     26  O   UNL     1     -14.642  -4.664  -6.660  1.00  0.00    -0.508 OA
ATOM     27  H   UNL     1     -15.530  -4.247  -6.408  1.00  0.00     0.293 HD
ENDBRANCH   8  26
TORSDOF 6
ENDMDL
MODEL 7
REMARK VINA RESULT:    -5.095      2.917      6.308
REMARK INTER + INTRA:          -6.558
REMARK INTER:                  -6.096
REMARK INTRA:                  -0.462
REMARK UNBOUND:                -0.420
REMARK SMILES O=c1c(O)c(-c2ccc(O)cc2O)oc2cc(O)cc(O)c12
REMARK SMILES IDX 5 1 3 2 2 3 1 4 22 5 20 6 19 7 17 8 16 9 15 10 14 11 6 12
REMARK SMILES IDX 8 13 7 14 9 15 11 16 12 17 10 18 13 20 4 22 21 24 18 26
REMARK H PARENT 10 19 13 21 4 23 21 25 18 27
REMARK Flexibility Score: inf
ROOT
ATOM      1  C   UNL     1     -14.273  -9.179  -4.161  1.00  0.00     0.184 A 
ATOM      2  C   UNL     1     -14.901  -8.343  -3.223  1.00  0.00     0.208 A 
ATOM      3  C   UNL     1     -15.167  -7.009  -3.570  1.00  0.00     0.238 A 
ATOM      4  O   UNL     1     -15.794  -6.286  -2.754  1.00  0.00    -0.285 OA
ATOM      5  C   UNL     1     -14.755  -6.513  -4.831  1.00  0.00     0.111 A 
ATOM      6  C   UNL     1     -14.931  -5.167  -5.272  1.00  0.00     0.134 A 
ATOM      7  C   UNL     1     -14.581  -4.817  -6.583  1.00  0.00     0.093 A 
ATOM      8  C   UNL     1     -14.002  -5.750  -7.447  1.00  0.00     0.123 A 
ATOM      9  C   UNL     1     -13.774  -7.051  -7.008  1.00  0.00     0.094 A 
ATOM     10  C   UNL     1     -14.147  -7.441  -5.719  1.00  0.00     0.146 A 
ATOM     11  O   UNL     1     -13.931  -8.696  -5.349  1.00  0.00    -0.451 OA
ENDROOT
BRANCH   1  12
ATOM     12  C   UNL     1     -13.975 -10.600  -3.866  1.00  0.00     0.063 A 
ATOM     13  C   UNL     1     -14.680 -12.928  -3.773  1.00  0.00     0.047 A 
ATOM     14  C   UNL     1     -14.968 -11.585  -4.024  1.00  0.00     0.020 A 
ATOM     15  C   UNL     1     -13.395 -13.309  -3.372  1.00  0.00     0.119 A 
ATOM     16  C   UNL     1     -12.398 -12.341  -3.226  1.00  0.00     0.093 A 
ATOM     17  C   UNL     1     -12.679 -10.988  -3.474  1.00  0.00     0.130 A 
BRANCH  15  18
ATOM     18  O   UNL     1     -13.096 -14.647  -3.120  1.00  0.00    -0.508 OA
ATOM     19  H   UNL     1     -13.747 -15.251  -2.633  1.00  0.00     0.293 HD
ENDBRANCH  15  18
BRANCH  17  20
ATOM     20  O   UNL     1     -11.676 -10.031  -3.318  1.00  0.00    -0.507 OA
ATOM     21  H   UNL     1     -10.762 -10.273  -2.952  1.00  0.00     0.293 HD
ENDBRANCH  17  20
ENDBRANCH   1  12
BRANCH   2  22
ATOM     22  O   UNL     1     -15.238  -8.834  -1.959  1.00  0.00    -0.502 OA
ATOM     23  H   UNL     1     -15.529  -9.792  -1.808  1.00  0.00     0.293 HD
ENDBRANCH   2  22
BRANCH   6  24
ATOM     24  O   UNL     1     -15.418  -4.135  -4.463  1.00  0.00    -0.507 OA
ATOM     25  H   UNL     1     -15.846  -3.287  -4.805  1.00  0.00     0.293 HD
ENDBRANCH   6  24
BRANCH   8  26
ATOM     26  O   UNL     1     -13.641  -5.389  -8.743  1.00  0.00    -0.508 OA
ATOM     27  H   UNL     1     -13.270  -6.068  -9.398  1.00  0.00     0.293 HD
ENDBRANCH   8  26
TORSDOF 6
ENDMDL
MODEL 8
REMARK VINA RESULT:    -4.971      1.958      2.331
REMARK INTER + INTRA:          -6.409
REMARK INTER:                  -5.954
REMARK INTRA:                  -0.454
REMARK UNBOUND:                -0.420
REMARK SMILES O=c1c(O)c(-c2ccc(O)cc2O)oc2cc(O)cc(O)c12
REMARK SMILES IDX 5 1 3 2 2 3 1 4 22 5 20 6 19 7 17 8 16 9 15 10 14 11 6 12
REMARK SMILES IDX 8 13 7 14 9 15 11 16 12 17 10 18 13 20 4 22 21 24 18 26
REMARK H PARENT 10 19 13 21 4 23 21 25 18 27
REMARK Flexibility Score: inf
ROOT
ATOM      1  C   UNL     1     -13.456 -10.378  -5.418  1.00  0.00     0.184 A 
ATOM      2  C   UNL     1     -13.168 -10.631  -6.769  1.00  0.00     0.208 A 
ATOM      3  C   UNL     1     -13.769 -11.733  -7.399  1.00  0.00     0.238 A 
ATOM      4  O   UNL     1     -13.564 -11.912  -8.627  1.00  0.00    -0.285 OA
ATOM      5  C   UNL     1     -14.607 -12.599  -6.655  1.00  0.00     0.111 A 
ATOM      6  C   UNL     1     -15.232 -13.771  -7.178  1.00  0.00     0.134 A 
ATOM      7  C   UNL     1     -16.129 -14.492  -6.378  1.00  0.00     0.093 A 
ATOM      8  C   UNL     1     -16.372 -14.119  -5.054  1.00  0.00     0.123 A 
ATOM      9  C   UNL     1     -15.724 -13.010  -4.517  1.00  0.00     0.094 A 
ATOM     10  C   UNL     1     -14.855 -12.248  -5.301  1.00  0.00     0.146 A 
ATOM     11  O   UNL     1     -14.275 -11.187  -4.756  1.00  0.00    -0.451 OA
ENDROOT
BRANCH   1  12
ATOM     12  C   UNL     1     -12.869  -9.226  -4.695  1.00  0.00     0.063 A 
ATOM     13  C   UNL     1     -12.739  -6.827  -4.301  1.00  0.00     0.047 A 
ATOM     14  C   UNL     1     -13.271  -7.912  -5.000  1.00  0.00     0.020 A 
ATOM     15  C   UNL     1     -11.806  -7.038  -3.279  1.00  0.00     0.119 A 
ATOM     16  C   UNL     1     -11.410  -8.340  -2.959  1.00  0.00     0.093 A 
ATOM     17  C   UNL     1     -11.939  -9.436  -3.658  1.00  0.00     0.130 A 
BRANCH  15  18
ATOM     18  O   UNL     1     -11.269  -5.963  -2.574  1.00  0.00    -0.508 OA
ATOM     19  H   UNL     1     -11.631  -5.692  -1.668  1.00  0.00     0.293 HD
ENDBRANCH  15  18
BRANCH  17  20
ATOM     20  O   UNL     1     -11.531 -10.730  -3.332  1.00  0.00    -0.507 OA
ATOM     21  H   UNL     1     -10.697 -10.901  -2.781  1.00  0.00     0.293 HD
ENDBRANCH  17  20
ENDBRANCH   1  12
BRANCH   2  22
ATOM     22  O   UNL     1     -12.285  -9.802  -7.466  1.00  0.00    -0.502 OA
ATOM     23  H   UNL     1     -12.494  -9.435  -8.385  1.00  0.00     0.293 HD
ENDBRANCH   2  22
BRANCH   6  24
ATOM     24  O   UNL     1     -14.992 -14.283  -8.457  1.00  0.00    -0.507 OA
ATOM     25  H   UNL     1     -15.707 -14.527  -9.125  1.00  0.00     0.293 HD
ENDBRANCH   6  24
BRANCH   8  26
ATOM     26  O   UNL     1     -17.252 -14.851  -4.261  1.00  0.00    -0.508 OA
ATOM     27  H   UNL     1     -17.378 -14.641  -3.277  1.00  0.00     0.293 HD
ENDBRANCH   8  26
TORSDOF 6
ENDMDL
MODEL 9
REMARK VINA RESULT:    -4.961      2.455      3.564
REMARK INTER + INTRA:          -6.396
REMARK INTER:                  -5.995
REMARK INTRA:                  -0.401
REMARK UNBOUND:                -0.420
REMARK SMILES O=c1c(O)c(-c2ccc(O)cc2O)oc2cc(O)cc(O)c12
REMARK SMILES IDX 5 1 3 2 2 3 1 4 22 5 20 6 19 7 17 8 16 9 15 10 14 11 6 12
REMARK SMILES IDX 8 13 7 14 9 15 11 16 12 17 10 18 13 20 4 22 21 24 18 26
REMARK H PARENT 10 19 13 21 4 23 21 25 18 27
REMARK Flexibility Score: inf
ROOT
ATOM      1  C   UNL     1     -13.942  -9.596  -4.768  1.00  0.00     0.184 A 
ATOM      2  C   UNL     1     -12.896 -10.011  -3.928  1.00  0.00     0.208 A 
ATOM      3  C   UNL     1     -12.798 -11.368  -3.582  1.00  0.00     0.238 A 
ATOM      4  O   UNL     1     -11.818 -11.745  -2.889  1.00  0.00    -0.285 OA
ATOM      5  C   UNL     1     -13.777 -12.284  -4.037  1.00  0.00     0.111 A 
ATOM      6  C   UNL     1     -13.804 -13.674  -3.710  1.00  0.00     0.134 A 
ATOM      7  C   UNL     1     -14.761 -14.506  -4.307  1.00  0.00     0.093 A 
ATOM      8  C   UNL     1     -15.732 -13.986  -5.166  1.00  0.00     0.123 A 
ATOM      9  C   UNL     1     -15.749 -12.622  -5.446  1.00  0.00     0.094 A 
ATOM     10  C   UNL     1     -14.785 -11.773  -4.898  1.00  0.00     0.146 A 
ATOM     11  O   UNL     1     -14.826 -10.484  -5.208  1.00  0.00    -0.451 OA
ENDROOT
BRANCH   1  12
ATOM     12  C   UNL     1     -14.098  -8.182  -5.184  1.00  0.00     0.063 A 
ATOM     13  C   UNL     1     -13.742  -6.413  -6.817  1.00  0.00     0.047 A 
ATOM     14  C   UNL     1     -13.571  -7.738  -6.410  1.00  0.00     0.020 A 
ATOM     15  C   UNL     1     -14.449  -5.515  -6.009  1.00  0.00     0.119 A 
ATOM     16  C   UNL     1     -14.988  -5.950  -4.796  1.00  0.00     0.093 A 
ATOM     17  C   UNL     1     -14.821  -7.280  -4.379  1.00  0.00     0.130 A 
BRANCH  15  18
ATOM     18  O   UNL     1     -14.626  -4.191  -6.405  1.00  0.00    -0.508 OA
ATOM     19  H   UNL     1     -14.703  -3.937  -7.382  1.00  0.00     0.293 HD
ENDBRANCH  15  18
BRANCH  17  20
ATOM     20  O   UNL     1     -15.359  -7.699  -3.162  1.00  0.00    -0.507 OA
ATOM     21  H   UNL     1     -15.982  -8.497  -3.102  1.00  0.00     0.293 HD
ENDBRANCH  17  20
ENDBRANCH   1  12
BRANCH   2  22
ATOM     22  O   UNL     1     -11.979  -9.079  -3.436  1.00  0.00    -0.502 OA
ATOM     23  H   UNL     1     -11.976  -8.776  -2.470  1.00  0.00     0.293 HD
ENDBRANCH   2  22
BRANCH   6  24
ATOM     24  O   UNL     1     -12.937 -14.281  -2.796  1.00  0.00    -0.507 OA
ATOM     25  H   UNL     1     -12.881 -15.273  -2.626  1.00  0.00     0.293 HD
ENDBRANCH   6  24
BRANCH   8  26
ATOM     26  O   UNL     1     -16.690 -14.817  -5.741  1.00  0.00    -0.508 OA
ATOM     27  H   UNL     1     -16.440 -15.517  -6.431  1.00  0.00     0.293 HD
ENDBRANCH   8  26
TORSDOF 6
ENDMDL
