MODEL 1
REMARK VINA RESULT:    -7.877      0.000      0.000
REMARK INTER + INTRA:          -9.780
REMARK INTER:                  -9.489
REMARK INTRA:                  -0.291
REMARK UNBOUND:                -0.291
REMARK SMILES O=c1c(O)c(-c2ccc(O)c(O)c2)oc2cc(O)cc(O)c12
REMARK SMILES IDX 5 1 3 2 2 3 1 4 22 5 20 6 19 7 17 8 16 9 15 10 14 11 6 12
REMARK SMILES IDX 7 13 8 14 9 15 13 16 11 17 10 18 12 20 4 22 21 24 18 26
REMARK H PARENT 10 19 12 21 4 23 21 25 18 27
REMARK Flexibility Score: inf
ROOT
ATOM      1  C   UNL     1      15.125  21.199 -12.339  1.00  0.00     0.180 A 
ATOM      2  C   UNL     1      16.323  21.185 -11.605  1.00  0.00     0.208 A 
ATOM      3  C   UNL     1      17.505  21.627 -12.221  1.00  0.00     0.238 A 
ATOM      4  O   UNL     1      18.584  21.560 -11.577  1.00  0.00    -0.285 OA
ATOM      5  C   UNL     1      17.470  22.093 -13.557  1.00  0.00     0.111 A 
ATOM      6  C   UNL     1      18.599  22.602 -14.267  1.00  0.00     0.134 A 
ATOM      7  C   UNL     1      18.477  22.914 -15.627  1.00  0.00     0.093 A 
ATOM      8  C   UNL     1      17.250  22.798 -16.285  1.00  0.00     0.123 A 
ATOM      9  C   UNL     1      16.129  22.358 -15.585  1.00  0.00     0.094 A 
ATOM     10  C   UNL     1      16.228  22.005 -14.237  1.00  0.00     0.146 A 
ATOM     11  O   UNL     1      15.137  21.581 -13.610  1.00  0.00    -0.452 OA
ENDROOT
BRANCH   1  12
ATOM     12  C   UNL     1      13.835  20.773 -11.750  1.00  0.00     0.025 A 
ATOM     13  C   UNL     1      13.122  21.603 -10.870  1.00  0.00     0.016 A 
ATOM     14  C   UNL     1      11.897  21.189 -10.346  1.00  0.00     0.051 A 
ATOM     15  C   UNL     1      11.351  19.949 -10.697  1.00  0.00     0.157 A 
ATOM     16  C   UNL     1      13.280  19.538 -12.121  1.00  0.00     0.062 A 
ATOM     17  C   UNL     1      12.051  19.113 -11.600  1.00  0.00     0.158 A 
BRANCH  15  18
ATOM     18  O   UNL     1      10.124  19.593 -10.135  1.00  0.00    -0.504 OA
ATOM     19  H   UNL     1       9.583  20.194  -9.530  1.00  0.00     0.293 HD
ENDBRANCH  15  18
BRANCH  17  20
ATOM     20  O   UNL     1      11.567  17.868 -12.005  1.00  0.00    -0.504 OA
ATOM     21  H   UNL     1      10.855  17.741 -12.709  1.00  0.00     0.293 HD
ENDBRANCH  17  20
ENDBRANCH   1  12
BRANCH   2  22
ATOM     22  O   UNL     1      16.338  20.699 -10.294  1.00  0.00    -0.502 OA
ATOM     23  H   UNL     1      15.590  20.884  -9.638  1.00  0.00     0.293 HD
ENDBRANCH   2  22
BRANCH   6  24
ATOM     24  O   UNL     1      19.845  22.844 -13.681  1.00  0.00    -0.507 OA
ATOM     25  H   UNL     1      20.089  23.680 -13.172  1.00  0.00     0.293 HD
ENDBRANCH   6  24
BRANCH   8  26
ATOM     26  O   UNL     1      17.133  23.125 -17.634  1.00  0.00    -0.508 OA
ATOM     27  H   UNL     1      17.783  23.759 -18.084  1.00  0.00     0.293 HD
ENDBRANCH   8  26
TORSDOF 6
ENDMDL
MODEL 2
REMARK VINA RESULT:    -7.162      0.951      1.605
REMARK INTER + INTRA:          -8.918
REMARK INTER:                  -8.709
REMARK INTRA:                  -0.209
REMARK UNBOUND:                -0.291
REMARK SMILES O=c1c(O)c(-c2ccc(O)c(O)c2)oc2cc(O)cc(O)c12
REMARK SMILES IDX 5 1 3 2 2 3 1 4 22 5 20 6 19 7 17 8 16 9 15 10 14 11 6 12
REMARK SMILES IDX 7 13 8 14 9 15 13 16 11 17 10 18 12 20 4 22 21 24 18 26
REMARK H PARENT 10 19 12 21 4 23 21 25 18 27
REMARK Flexibility Score: inf
ROOT
ATOM      1  C   UNL     1      14.672  20.909 -11.955  1.00  0.00     0.180 A 
ATOM      2  C   UNL     1      15.783  21.000 -11.099  1.00  0.00     0.208 A 
ATOM      3  C   UNL     1      16.971  21.567 -11.583  1.00  0.00     0.238 A 
ATOM      4  O   UNL     1      17.979  21.595 -10.829  1.00  0.00    -0.285 OA
ATOM      5  C   UNL     1      17.030  22.052 -12.912  1.00  0.00     0.111 A 
ATOM      6  C   UNL     1      18.170  22.682 -13.494  1.00  0.00     0.134 A 
ATOM      7  C   UNL     1      18.160  23.005 -14.858  1.00  0.00     0.093 A 
ATOM      8  C   UNL     1      17.026  22.780 -15.642  1.00  0.00     0.123 A 
ATOM      9  C   UNL     1      15.888  22.220 -15.068  1.00  0.00     0.094 A 
ATOM     10  C   UNL     1      15.880  21.854 -13.720  1.00  0.00     0.146 A 
ATOM     11  O   UNL     1      14.778  21.313 -13.215  1.00  0.00    -0.452 OA
ENDROOT
BRANCH   1  12
ATOM     12  C   UNL     1      13.376  20.347 -11.509  1.00  0.00     0.025 A 
ATOM     13  C   UNL     1      12.922  19.101 -11.969  1.00  0.00     0.016 A 
ATOM     14  C   UNL     1      11.708  18.581 -11.517  1.00  0.00     0.051 A 
ATOM     15  C   UNL     1      10.931  19.283 -10.589  1.00  0.00     0.157 A 
ATOM     16  C   UNL     1      12.609  21.044 -10.562  1.00  0.00     0.062 A 
ATOM     17  C   UNL     1      11.390  20.531 -10.102  1.00  0.00     0.158 A 
BRANCH  15  18
ATOM     18  O   UNL     1       9.726  18.710 -10.180  1.00  0.00    -0.504 OA
ATOM     19  H   UNL     1       9.499  18.495  -9.220  1.00  0.00     0.293 HD
ENDBRANCH  15  18
BRANCH  17  20
ATOM     20  O   UNL     1      10.675  21.285  -9.170  1.00  0.00    -0.504 OA
ATOM     21  H   UNL     1      11.000  22.160  -8.783  1.00  0.00     0.293 HD
ENDBRANCH  17  20
ENDBRANCH   1  12
BRANCH   2  22
ATOM     22  O   UNL     1      15.709  20.494  -9.797  1.00  0.00    -0.502 OA
ATOM     23  H   UNL     1      16.530  20.205  -9.279  1.00  0.00     0.293 HD
ENDBRANCH   2  22
BRANCH   6  24
ATOM     24  O   UNL     1      19.318  23.035 -12.779  1.00  0.00    -0.507 OA
ATOM     25  H   UNL     1      20.052  22.394 -12.517  1.00  0.00     0.293 HD
ENDBRANCH   6  24
BRANCH   8  26
ATOM     26  O   UNL     1      17.019  23.118 -16.994  1.00  0.00    -0.508 OA
ATOM     27  H   UNL     1      17.876  23.330 -17.492  1.00  0.00     0.293 HD
ENDBRANCH   8  26
TORSDOF 6
ENDMDL
MODEL 3
REMARK VINA RESULT:    -6.612      1.686      3.587
REMARK INTER + INTRA:          -8.255
REMARK INTER:                  -7.988
REMARK INTRA:                  -0.267
REMARK UNBOUND:                -0.291
REMARK SMILES O=c1c(O)c(-c2ccc(O)c(O)c2)oc2cc(O)cc(O)c12
REMARK SMILES IDX 5 1 3 2 2 3 1 4 22 5 20 6 19 7 17 8 16 9 15 10 14 11 6 12
REMARK SMILES IDX 7 13 8 14 9 15 13 16 11 17 10 18 12 20 4 22 21 24 18 26
REMARK H PARENT 10 19 12 21 4 23 21 25 18 27
REMARK Flexibility Score: inf
ROOT
ATOM      1  C   UNL     1      15.661  21.160 -11.692  1.00  0.00     0.180 A 
ATOM      2  C   UNL     1      16.084  21.647 -12.941  1.00  0.00     0.208 A 
ATOM      3  C   UNL     1      17.450  21.892 -13.149  1.00  0.00     0.238 A 
ATOM      4  O   UNL     1      17.815  22.380 -14.251  1.00  0.00    -0.285 OA
ATOM      5  C   UNL     1      18.378  21.631 -12.112  1.00  0.00     0.111 A 
ATOM      6  C   UNL     1      19.790  21.805 -12.228  1.00  0.00     0.134 A 
ATOM      7  C   UNL     1      20.601  21.641 -11.097  1.00  0.00     0.093 A 
ATOM      8  C   UNL     1      20.056  21.246  -9.872  1.00  0.00     0.123 A 
ATOM      9  C   UNL     1      18.687  21.016  -9.765  1.00  0.00     0.094 A 
ATOM     10  C   UNL     1      17.848  21.207 -10.867  1.00  0.00     0.146 A 
ATOM     11  O   UNL     1      16.547  20.987 -10.719  1.00  0.00    -0.452 OA
ENDROOT
BRANCH   1  12
ATOM     12  C   UNL     1      14.241  20.854 -11.405  1.00  0.00     0.025 A 
ATOM     13  C   UNL     1      13.442  21.726 -10.649  1.00  0.00     0.016 A 
ATOM     14  C   UNL     1      12.100  21.428 -10.411  1.00  0.00     0.051 A 
ATOM     15  C   UNL     1      11.523  20.264 -10.932  1.00  0.00     0.157 A 
ATOM     16  C   UNL     1      13.660  19.696 -11.947  1.00  0.00     0.062 A 
ATOM     17  C   UNL     1      12.314  19.387 -11.714  1.00  0.00     0.158 A 
BRANCH  15  18
ATOM     18  O   UNL     1      10.177  20.021 -10.654  1.00  0.00    -0.504 OA
ATOM     19  H   UNL     1       9.840  19.211 -10.155  1.00  0.00     0.293 HD
ENDBRANCH  15  18
BRANCH  17  20
ATOM     20  O   UNL     1      11.808  18.213 -12.274  1.00  0.00    -0.504 OA
ATOM     21  H   UNL     1      11.554  17.395 -11.738  1.00  0.00     0.293 HD
ENDBRANCH  17  20
ENDBRANCH   1  12
BRANCH   2  22
ATOM     22  O   UNL     1      15.147  21.919 -13.943  1.00  0.00    -0.502 OA
ATOM     23  H   UNL     1      15.356  22.513 -14.736  1.00  0.00     0.293 HD
ENDBRANCH   2  22
BRANCH   6  24
ATOM     24  O   UNL     1      20.445  22.108 -13.425  1.00  0.00    -0.507 OA
ATOM     25  H   UNL     1      20.336  22.970 -13.937  1.00  0.00     0.293 HD
ENDBRANCH   6  24
BRANCH   8  26
ATOM     26  O   UNL     1      20.871  21.070  -8.756  1.00  0.00    -0.508 OA
ATOM     27  H   UNL     1      20.481  20.904  -7.835  1.00  0.00     0.293 HD
ENDBRANCH   8  26
TORSDOF 6
ENDMDL
MODEL 4
REMARK VINA RESULT:    -6.547      1.490      6.873
REMARK INTER + INTRA:          -8.177
REMARK INTER:                  -8.116
REMARK INTRA:                  -0.061
REMARK UNBOUND:                -0.291
REMARK SMILES O=c1c(O)c(-c2ccc(O)c(O)c2)oc2cc(O)cc(O)c12
REMARK SMILES IDX 5 1 3 2 2 3 1 4 22 5 20 6 19 7 17 8 16 9 15 10 14 11 6 12
REMARK SMILES IDX 7 13 8 14 9 15 13 16 11 17 10 18 12 20 4 22 21 24 18 26
REMARK H PARENT 10 19 12 21 4 23 21 25 18 27
REMARK Flexibility Score: inf
ROOT
ATOM      1  C   UNL     1      15.103  21.340 -12.313  1.00  0.00     0.180 A 
ATOM      2  C   UNL     1      15.026  22.046 -11.100  1.00  0.00     0.208 A 
ATOM      3  C   UNL     1      14.054  21.678 -10.157  1.00  0.00     0.238 A 
ATOM      4  O   UNL     1      13.955  22.349  -9.097  1.00  0.00    -0.285 OA
ATOM      5  C   UNL     1      13.181  20.597 -10.431  1.00  0.00     0.111 A 
ATOM      6  C   UNL     1      12.186  20.112  -9.531  1.00  0.00     0.134 A 
ATOM      7  C   UNL     1      11.292  19.121  -9.958  1.00  0.00     0.093 A 
ATOM      8  C   UNL     1      11.401  18.553 -11.230  1.00  0.00     0.123 A 
ATOM      9  C   UNL     1      12.407  18.979 -12.094  1.00  0.00     0.094 A 
ATOM     10  C   UNL     1      13.291  19.990 -11.709  1.00  0.00     0.146 A 
ATOM     11  O   UNL     1      14.229  20.374 -12.567  1.00  0.00    -0.452 OA
ENDROOT
BRANCH   1  12
ATOM     12  C   UNL     1      16.117  21.654 -13.345  1.00  0.00     0.025 A 
ATOM     13  C   UNL     1      15.746  22.020 -14.649  1.00  0.00     0.016 A 
ATOM     14  C   UNL     1      16.719  22.333 -15.598  1.00  0.00     0.051 A 
ATOM     15  C   UNL     1      18.078  22.302 -15.266  1.00  0.00     0.157 A 
ATOM     16  C   UNL     1      17.478  21.642 -13.003  1.00  0.00     0.062 A 
ATOM     17  C   UNL     1      18.463  21.955 -13.948  1.00  0.00     0.158 A 
BRANCH  15  18
ATOM     18  O   UNL     1      19.002  22.622 -16.262  1.00  0.00    -0.504 OA
ATOM     19  H   UNL     1      19.967  22.328 -16.254  1.00  0.00     0.293 HD
ENDBRANCH  15  18
BRANCH  17  20
ATOM     20  O   UNL     1      19.797  21.911 -13.540  1.00  0.00    -0.504 OA
ATOM     21  H   UNL     1      20.252  22.645 -13.017  1.00  0.00     0.293 HD
ENDBRANCH  17  20
ENDBRANCH   1  12
BRANCH   2  22
ATOM     22  O   UNL     1      15.883  23.125 -10.860  1.00  0.00    -0.502 OA
ATOM     23  H   UNL     1      16.147  23.411  -9.925  1.00  0.00     0.293 HD
ENDBRANCH   2  22
BRANCH   6  24
ATOM     24  O   UNL     1      12.051  20.545  -8.209  1.00  0.00    -0.507 OA
ATOM     25  H   UNL     1      12.817  20.819  -7.612  1.00  0.00     0.293 HD
ENDBRANCH   6  24
BRANCH   8  26
ATOM     26  O   UNL     1      10.517  17.557 -11.642  1.00  0.00    -0.508 OA
ATOM     27  H   UNL     1       9.596  17.463 -11.230  1.00  0.00     0.293 HD
ENDBRANCH   8  26
TORSDOF 6
ENDMDL
MODEL 5
REMARK VINA RESULT:    -6.439      1.918      7.534
REMARK INTER + INTRA:          -8.047
REMARK INTER:                  -7.738
REMARK INTRA:                  -0.309
REMARK UNBOUND:                -0.291
REMARK SMILES O=c1c(O)c(-c2ccc(O)c(O)c2)oc2cc(O)cc(O)c12
REMARK SMILES IDX 5 1 3 2 2 3 1 4 22 5 20 6 19 7 17 8 16 9 15 10 14 11 6 12
REMARK SMILES IDX 7 13 8 14 9 15 13 16 11 17 10 18 12 20 4 22 21 24 18 26
REMARK H PARENT 10 19 12 21 4 23 21 25 18 27
REMARK Flexibility Score: inf
ROOT
ATOM      1  C   UNL     1      13.223  20.456 -11.196  1.00  0.00     0.180 A 
ATOM      2  C   UNL     1      12.495  21.270 -10.311  1.00  0.00     0.208 A 
ATOM      3  C   UNL     1      11.294  20.784  -9.770  1.00  0.00     0.238 A 
ATOM      4  O   UNL     1      10.620  21.539  -9.021  1.00  0.00    -0.285 OA
ATOM      5  C   UNL     1      10.845  19.485 -10.107  1.00  0.00     0.111 A 
ATOM      6  C   UNL     1       9.664  18.876  -9.586  1.00  0.00     0.134 A 
ATOM      7  C   UNL     1       9.246  17.637 -10.089  1.00  0.00     0.093 A 
ATOM      8  C   UNL     1      10.002  16.956 -11.046  1.00  0.00     0.123 A 
ATOM      9  C   UNL     1      11.188  17.516 -11.517  1.00  0.00     0.094 A 
ATOM     10  C   UNL     1      11.612  18.767 -11.061  1.00  0.00     0.146 A 
ATOM     11  O   UNL     1      12.742  19.269 -11.543  1.00  0.00    -0.452 OA
ENDROOT
BRANCH   1  12
ATOM     12  C   UNL     1      14.509  20.889 -11.788  1.00  0.00     0.025 A 
ATOM     13  C   UNL     1      15.708  20.822 -11.060  1.00  0.00     0.016 A 
ATOM     14  C   UNL     1      16.913  21.213 -11.646  1.00  0.00     0.051 A 
ATOM     15  C   UNL     1      16.950  21.665 -12.970  1.00  0.00     0.157 A 
ATOM     16  C   UNL     1      14.547  21.321 -13.123  1.00  0.00     0.062 A 
ATOM     17  C   UNL     1      15.750  21.717 -13.720  1.00  0.00     0.158 A 
BRANCH  15  18
ATOM     18  O   UNL     1      18.186  22.045 -13.496  1.00  0.00    -0.504 OA
ATOM     19  H   UNL     1      18.302  22.739 -14.220  1.00  0.00     0.293 HD
ENDBRANCH  15  18
BRANCH  17  20
ATOM     20  O   UNL     1      15.709  22.147 -15.047  1.00  0.00    -0.504 OA
ATOM     21  H   UNL     1      16.470  22.036 -15.701  1.00  0.00     0.293 HD
ENDBRANCH  17  20
ENDBRANCH   1  12
BRANCH   2  22
ATOM     22  O   UNL     1      12.946  22.559 -10.009  1.00  0.00    -0.502 OA
ATOM     23  H   UNL     1      13.588  22.745  -9.248  1.00  0.00     0.293 HD
ENDBRANCH   2  22
BRANCH   6  24
ATOM     24  O   UNL     1       8.887  19.428  -8.563  1.00  0.00    -0.507 OA
ATOM     25  H   UNL     1       8.650  18.956  -7.703  1.00  0.00     0.293 HD
ENDBRANCH   6  24
BRANCH   8  26
ATOM     26  O   UNL     1       9.588  15.717 -11.530  1.00  0.00    -0.508 OA
ATOM     27  H   UNL     1       9.646  15.487 -12.515  1.00  0.00     0.293 HD
ENDBRANCH   8  26
TORSDOF 6
ENDMDL
MODEL 6
REMARK VINA RESULT:    -6.246      1.573      2.221
REMARK INTER + INTRA:          -7.815
REMARK INTER:                  -7.573
REMARK INTRA:                  -0.241
REMARK UNBOUND:                -0.291
REMARK SMILES O=c1c(O)c(-c2ccc(O)c(O)c2)oc2cc(O)cc(O)c12
REMARK SMILES IDX 5 1 3 2 2 3 1 4 22 5 20 6 19 7 17 8 16 9 15 10 14 11 6 12
REMARK SMILES IDX 7 13 8 14 9 15 13 16 11 17 10 18 12 20 4 22 21 24 18 26
REMARK H PARENT 10 19 12 21 4 23 21 25 18 27
REMARK Flexibility Score: inf
ROOT
ATOM      1  C   UNL     1      13.714  21.006 -10.742  1.00  0.00     0.180 A 
ATOM      2  C   UNL     1      14.741  21.119  -9.789  1.00  0.00     0.208 A 
ATOM      3  C   UNL     1      15.969  21.678 -10.174  1.00  0.00     0.238 A 
ATOM      4  O   UNL     1      16.902  21.726  -9.331  1.00  0.00    -0.285 OA
ATOM      5  C   UNL     1      16.150  22.133 -11.503  1.00  0.00     0.111 A 
ATOM      6  C   UNL     1      17.339  22.753 -11.991  1.00  0.00     0.134 A 
ATOM      7  C   UNL     1      17.455  23.045 -13.357  1.00  0.00     0.093 A 
ATOM      8  C   UNL     1      16.398  22.799 -14.237  1.00  0.00     0.123 A 
ATOM      9  C   UNL     1      15.212  22.249 -13.758  1.00  0.00     0.094 A 
ATOM     10  C   UNL     1      15.080  21.914 -12.408  1.00  0.00     0.146 A 
ATOM     11  O   UNL     1      13.936  21.382 -11.995  1.00  0.00    -0.452 OA
ENDROOT
BRANCH   1  12
ATOM     12  C   UNL     1      12.383  20.451 -10.405  1.00  0.00     0.025 A 
ATOM     13  C   UNL     1      11.484  21.151  -9.583  1.00  0.00     0.016 A 
ATOM     14  C   UNL     1      10.227  20.619  -9.298  1.00  0.00     0.051 A 
ATOM     15  C   UNL     1       9.833  19.387  -9.835  1.00  0.00     0.157 A 
ATOM     16  C   UNL     1      11.983  19.226 -10.962  1.00  0.00     0.062 A 
ATOM     17  C   UNL     1      10.723  18.683 -10.682  1.00  0.00     0.158 A 
BRANCH  15  18
ATOM     18  O   UNL     1       8.564  18.908  -9.508  1.00  0.00    -0.504 OA
ATOM     19  H   UNL     1       7.718  19.455  -9.575  1.00  0.00     0.293 HD
ENDBRANCH  15  18
BRANCH  17  20
ATOM     20  O   UNL     1      10.399  17.455 -11.262  1.00  0.00    -0.504 OA
ATOM     21  H   UNL     1       9.454  17.149 -11.445  1.00  0.00     0.293 HD
ENDBRANCH  17  20
ENDBRANCH   1  12
BRANCH   2  22
ATOM     22  O   UNL     1      14.547  20.642  -8.488  1.00  0.00    -0.502 OA
ATOM     23  H   UNL     1      13.871  21.051  -7.855  1.00  0.00     0.293 HD
ENDBRANCH   2  22
BRANCH   6  24
ATOM     24  O   UNL     1      18.415  23.125 -11.181  1.00  0.00    -0.507 OA
ATOM     25  H   UNL     1      19.230  23.625 -11.501  1.00  0.00     0.293 HD
ENDBRANCH   6  24
BRANCH   8  26
ATOM     26  O   UNL     1      16.515  23.107 -15.591  1.00  0.00    -0.508 OA
ATOM     27  H   UNL     1      15.845  23.707 -16.058  1.00  0.00     0.293 HD
ENDBRANCH   8  26
TORSDOF 6
ENDMDL
MODEL 7
REMARK VINA RESULT:    -6.137      2.446      6.834
REMARK INTER + INTRA:          -7.683
REMARK INTER:                  -7.749
REMARK INTRA:                   0.066
REMARK UNBOUND:                -0.291
REMARK SMILES O=c1c(O)c(-c2ccc(O)c(O)c2)oc2cc(O)cc(O)c12
REMARK SMILES IDX 5 1 3 2 2 3 1 4 22 5 20 6 19 7 17 8 16 9 15 10 14 11 6 12
REMARK SMILES IDX 7 13 8 14 9 15 13 16 11 17 10 18 12 20 4 22 21 24 18 26
REMARK H PARENT 10 19 12 21 4 23 21 25 18 27
REMARK Flexibility Score: inf
ROOT
ATOM      1  C   UNL     1      17.917  22.047 -14.233  1.00  0.00     0.180 A 
ATOM      2  C   UNL     1      18.885  21.867 -13.230  1.00  0.00     0.208 A 
ATOM      3  C   UNL     1      18.476  21.827 -11.888  1.00  0.00     0.238 A 
ATOM      4  O   UNL     1      19.354  21.721 -10.991  1.00  0.00    -0.285 OA
ATOM      5  C   UNL     1      17.103  21.951 -11.566  1.00  0.00     0.111 A 
ATOM      6  C   UNL     1      16.573  21.884 -10.243  1.00  0.00     0.134 A 
ATOM      7  C   UNL     1      15.213  22.149 -10.029  1.00  0.00     0.093 A 
ATOM      8  C   UNL     1      14.355  22.414 -11.100  1.00  0.00     0.123 A 
ATOM      9  C   UNL     1      14.853  22.423 -12.400  1.00  0.00     0.094 A 
ATOM     10  C   UNL     1      16.211  22.197 -12.641  1.00  0.00     0.146 A 
ATOM     11  O   UNL     1      16.646  22.225 -13.895  1.00  0.00    -0.452 OA
ENDROOT
BRANCH   1  12
ATOM     12  C   UNL     1      18.268  22.074 -15.671  1.00  0.00     0.025 A 
ATOM     13  C   UNL     1      17.806  23.095 -16.518  1.00  0.00     0.016 A 
ATOM     14  C   UNL     1      18.169  23.113 -17.865  1.00  0.00     0.051 A 
ATOM     15  C   UNL     1      19.008  22.124 -18.393  1.00  0.00     0.157 A 
ATOM     16  C   UNL     1      19.127  21.094 -16.192  1.00  0.00     0.062 A 
ATOM     17  C   UNL     1      19.497  21.102 -17.543  1.00  0.00     0.158 A 
BRANCH  15  18
ATOM     18  O   UNL     1      19.330  22.196 -19.749  1.00  0.00    -0.504 OA
ATOM     19  H   UNL     1      19.674  23.029 -20.205  1.00  0.00     0.293 HD
ENDBRANCH  15  18
BRANCH  17  20
ATOM     20  O   UNL     1      20.344  20.089 -17.994  1.00  0.00    -0.504 OA
ATOM     21  H   UNL     1      21.297  20.240 -18.291  1.00  0.00     0.293 HD
ENDBRANCH  17  20
ENDBRANCH   1  12
BRANCH   2  22
ATOM     22  O   UNL     1      20.239  21.770 -13.569  1.00  0.00    -0.502 OA
ATOM     23  H   UNL     1      20.655  22.326 -14.306  1.00  0.00     0.293 HD
ENDBRANCH   2  22
BRANCH   6  24
ATOM     24  O   UNL     1      17.324  21.537  -9.117  1.00  0.00    -0.507 OA
ATOM     25  H   UNL     1      17.662  22.191  -8.427  1.00  0.00     0.293 HD
ENDBRANCH   6  24
BRANCH   8  26
ATOM     26  O   UNL     1      13.001  22.662 -10.880  1.00  0.00    -0.508 OA
ATOM     27  H   UNL     1      12.439  22.052 -10.298  1.00  0.00     0.293 HD
ENDBRANCH   8  26
TORSDOF 6
ENDMDL
