MODEL 1
REMARK VINA RESULT:    21.206      0.000      0.000
REMARK INTER + INTRA:          24.792
REMARK INTER:                  24.925
REMARK INTRA:                  -0.133
REMARK UNBOUND:                -0.133
REMARK SMILES O=c1c(O)c(-c2ccc(O)cc2)oc2cc(O)cc(O)c12
REMARK SMILES IDX 5 1 3 2 2 3 1 4 21 5 19 6 18 7 16 8 15 9 14 10 13 11 6 12
REMARK SMILES IDX 7 13 8 14 9 15 12 16 11 17 10 18 4 20 20 22 17 24
REMARK H PARENT 10 19 4 21 20 23 17 25
REMARK Flexibility Score: inf
ROOT
ATOM      1  C   UNL     1      -6.136   7.458  16.113  1.00  0.00     0.180 A 
ATOM      2  C   UNL     1      -6.991   7.203  15.028  1.00  0.00     0.208 A 
ATOM      3  C   UNL     1      -7.319   5.873  14.716  1.00  0.00     0.238 A 
ATOM      4  O   UNL     1      -8.128   5.654  13.777  1.00  0.00    -0.285 OA
ATOM      5  C   UNL     1      -6.774   4.816  15.483  1.00  0.00     0.111 A 
ATOM      6  C   UNL     1      -7.004   3.430  15.231  1.00  0.00     0.134 A 
ATOM      7  C   UNL     1      -6.519   2.474  16.133  1.00  0.00     0.093 A 
ATOM      8  C   UNL     1      -5.758   2.849  17.238  1.00  0.00     0.123 A 
ATOM      9  C   UNL     1      -5.475   4.197  17.461  1.00  0.00     0.094 A 
ATOM     10  C   UNL     1      -5.976   5.176  16.600  1.00  0.00     0.146 A 
ATOM     11  O   UNL     1      -5.693   6.448  16.853  1.00  0.00    -0.452 OA
ENDROOT
BRANCH   1  12
ATOM     12  C   UNL     1      -5.725   8.831  16.488  1.00  0.00     0.021 A 
ATOM     13  C   UNL     1      -4.386   9.222  16.322  1.00  0.00     0.016 A 
ATOM     14  C   UNL     1      -3.982  10.521  16.648  1.00  0.00     0.047 A 
ATOM     15  C   UNL     1      -4.916  11.448  17.130  1.00  0.00     0.115 A 
ATOM     16  C   UNL     1      -6.661   9.773  16.954  1.00  0.00     0.016 A 
ATOM     17  C   UNL     1      -6.254  11.071  17.279  1.00  0.00     0.047 A 
BRANCH  15  18
ATOM     18  O   UNL     1      -4.525  12.744  17.459  1.00  0.00    -0.508 OA
ATOM     19  H   UNL     1      -3.986  12.938  18.294  1.00  0.00     0.293 HD
ENDBRANCH  15  18
ENDBRANCH   1  12
BRANCH   2  20
ATOM     20  O   UNL     1      -7.537   8.263  14.298  1.00  0.00    -0.502 OA
ATOM     21  H   UNL     1      -7.796   8.176  13.323  1.00  0.00     0.293 HD
ENDBRANCH   2  20
BRANCH   6  22
ATOM     22  O   UNL     1      -7.675   2.942  14.105  1.00  0.00    -0.507 OA
ATOM     23  H   UNL     1      -7.551   2.018  13.719  1.00  0.00     0.293 HD
ENDBRANCH   6  22
BRANCH   8  24
ATOM     24  O   UNL     1      -5.278   1.869  18.106  1.00  0.00    -0.508 OA
ATOM     25  H   UNL     1      -5.278   0.888  17.851  1.00  0.00     0.293 HD
ENDBRANCH   8  24
TORSDOF 5
ENDMDL
