MODEL 1
REMARK VINA RESULT:    -4.644      0.000      0.000
REMARK INTER + INTRA:         -17.811
REMARK INTER:                 -12.246
REMARK INTRA:                  -5.565
REMARK UNBOUND:                -5.565
REMARK SMILES CCCCCCCCCCCCCCCCCCCCCCCCCCCCCC(=O)[O-]
REMARK SMILES IDX 16 1 17 2 18 3 19 4 20 5 21 6 22 7 23 8 24 9 25 10 26 11
REMARK SMILES IDX 27 12 28 13 29 14 30 15 31 16 32 17 15 18 14 19 13 20 12 21
REMARK SMILES IDX 11 22 10 23 9 24 8 25 7 26 6 27 5 28 4 29 3 30 2 31 1 32
REMARK H PARENT
REMARK Flexibility Score: inf
ROOT
ATOM      1  C   UNL     1      97.380   1.500  24.003  1.00  0.00     0.000 C 
ENDROOT
BRANCH   1   2
ATOM      2  C   UNL     1      98.224   1.602  25.288  1.00  0.00     0.000 C 
BRANCH   2   3
ATOM      3  C   UNL     1      99.752   1.598  25.089  1.00  0.00     0.000 C 
BRANCH   3   4
ATOM      4  C   UNL     1     100.172   1.629  23.609  1.00  0.00     0.000 C 
BRANCH   4   5
ATOM      5  C   UNL     1     100.863   2.949  23.216  1.00  0.00     0.000 C 
BRANCH   5   6
ATOM      6  C   UNL     1     100.262   4.211  23.859  1.00  0.00     0.000 C 
BRANCH   6   7
ATOM      7  C   UNL     1      98.918   4.620  23.231  1.00  0.00     0.000 C 
BRANCH   7   8
ATOM      8  C   UNL     1      99.084   5.640  22.094  1.00  0.00     0.000 C 
BRANCH   8   9
ATOM      9  C   UNL     1      97.990   6.722  22.111  1.00  0.00     0.000 C 
BRANCH   9  10
ATOM     10  C   UNL     1      96.571   6.128  22.059  1.00  0.00     0.000 C 
BRANCH  10  11
ATOM     11  C   UNL     1      95.434   7.164  22.168  1.00  0.00     0.000 C 
BRANCH  11  12
ATOM     12  C   UNL     1      94.474   7.160  20.960  1.00  0.00     0.000 C 
BRANCH  12  13
ATOM     13  C   UNL     1      94.905   8.162  19.874  1.00  0.00     0.006 C 
BRANCH  13  14
ATOM     14  C   UNL     1      95.670   7.484  18.730  1.00  0.00     0.053 C 
BRANCH  14  15
ATOM     15  C   UNL     1      97.131   7.811  18.775  1.00  0.00     0.041 C 
ATOM     16  O   UNL     1      97.515   8.952  19.148  1.00  0.00    -0.550 OA
ATOM     17  O   UNL     1      98.068   6.869  18.367  1.00  0.00    -0.550 OA
ENDBRANCH  14  15
ENDBRANCH  13  14
ENDBRANCH  12  13
ENDBRANCH  11  12
ENDBRANCH  10  11
ENDBRANCH   9  10
ENDBRANCH   8   9
ENDBRANCH   7   8
ENDBRANCH   6   7
ENDBRANCH   5   6
ENDBRANCH   4   5
ENDBRANCH   3   4
ENDBRANCH   2   3
ENDBRANCH   1   2
BRANCH   1  18
ATOM     18  C   UNL     1      96.162   2.437  23.999  1.00  0.00     0.000 C 
BRANCH  18  19
ATOM     19  C   UNL     1      96.118   3.362  25.227  1.00  0.00     0.000 C 
BRANCH  19  20
ATOM     20  C   UNL     1      95.521   4.756  24.941  1.00  0.00     0.000 C 
BRANCH  20  21
ATOM     21  C   UNL     1      95.840   5.771  26.054  1.00  0.00     0.000 C 
BRANCH  21  22
ATOM     22  C   UNL     1      97.141   6.557  25.800  1.00  0.00     0.000 C 
BRANCH  22  23
ATOM     23  C   UNL     1      98.205   6.445  26.908  1.00  0.00     0.000 C 
BRANCH  23  24
ATOM     24  C   UNL     1      98.313   5.029  27.497  1.00  0.00    -0.000 C 
BRANCH  24  25
ATOM     25  C   UNL     1      99.761   4.516  27.551  1.00  0.00    -0.000 C 
BRANCH  25  26
ATOM     26  C   UNL     1     100.785   5.568  27.096  1.00  0.00    -0.000 C 
BRANCH  26  27
ATOM     27  C   UNL     1     102.206   4.992  26.975  1.00  0.00    -0.000 C 
BRANCH  27  28
ATOM     28  C   UNL     1     102.274   3.502  27.354  1.00  0.00    -0.000 C 
BRANCH  28  29
ATOM     29  C   UNL     1     102.959   2.653  26.262  1.00  0.00    -0.000 C 
BRANCH  29  30
ATOM     30  C   UNL     1     104.039   3.414  25.473  1.00  0.00    -0.000 C 
BRANCH  30  31
ATOM     31  C   UNL     1     104.522   2.650  24.232  1.00  0.00    -0.003 C 
ATOM     32  C   UNL     1     104.039   1.200  24.251  1.00  0.00     0.004 C 
ENDBRANCH  30  31
ENDBRANCH  29  30
ENDBRANCH  28  29
ENDBRANCH  27  28
ENDBRANCH  26  27
ENDBRANCH  25  26
ENDBRANCH  24  25
ENDBRANCH  23  24
ENDBRANCH  22  23
ENDBRANCH  21  22
ENDBRANCH  20  21
ENDBRANCH  19  20
ENDBRANCH  18  19
ENDBRANCH   1  18
TORSDOF 28
ENDMDL
MODEL 2
REMARK VINA RESULT:    -4.556      1.459      4.451
REMARK INTER + INTRA:         -17.578
REMARK INTER:                 -12.167
REMARK INTRA:                  -5.411
REMARK UNBOUND:                -5.565
REMARK SMILES CCCCCCCCCCCCCCCCCCCCCCCCCCCCCC(=O)[O-]
REMARK SMILES IDX 16 1 17 2 18 3 19 4 20 5 21 6 22 7 23 8 24 9 25 10 26 11
REMARK SMILES IDX 27 12 28 13 29 14 30 15 31 16 32 17 15 18 14 19 13 20 12 21
REMARK SMILES IDX 11 22 10 23 9 24 8 25 7 26 6 27 5 28 4 29 3 30 2 31 1 32
REMARK H PARENT
REMARK Flexibility Score: inf
ROOT
ATOM      1  C   UNL     1      99.105   3.966  23.628  1.00  0.00     0.000 C 
ENDROOT
BRANCH   1   2
ATOM      2  C   UNL     1      97.953   2.978  23.897  1.00  0.00     0.000 C 
BRANCH   2   3
ATOM      3  C   UNL     1      97.786   2.526  25.361  1.00  0.00     0.000 C 
BRANCH   3   4
ATOM      4  C   UNL     1      97.269   3.641  26.286  1.00  0.00     0.000 C 
BRANCH   4   5
ATOM      5  C   UNL     1      98.052   3.723  27.610  1.00  0.00     0.000 C 
BRANCH   5   6
ATOM      6  C   UNL     1      98.533   5.134  27.993  1.00  0.00     0.000 C 
BRANCH   6   7
ATOM      7  C   UNL     1      98.906   5.990  26.770  1.00  0.00     0.000 C 
BRANCH   7   8
ATOM      8  C   UNL     1      97.911   7.136  26.527  1.00  0.00     0.000 C 
BRANCH   8   9
ATOM      9  C   UNL     1      97.276   7.073  25.127  1.00  0.00     0.000 C 
BRANCH   9  10
ATOM     10  C   UNL     1      95.752   6.865  25.179  1.00  0.00     0.000 C 
BRANCH  10  11
ATOM     11  C   UNL     1      95.120   6.399  23.852  1.00  0.00     0.000 C 
BRANCH  11  12
ATOM     12  C   UNL     1      96.139   5.813  22.853  1.00  0.00     0.000 C 
BRANCH  12  13
ATOM     13  C   UNL     1      96.037   6.473  21.466  1.00  0.00     0.006 C 
BRANCH  13  14
ATOM     14  C   UNL     1      97.416   6.742  20.849  1.00  0.00     0.053 C 
BRANCH  14  15
ATOM     15  C   UNL     1      97.333   7.733  19.729  1.00  0.00     0.041 C 
ATOM     16  O   UNL     1      96.331   7.746  18.966  1.00  0.00    -0.550 OA
ATOM     17  O   UNL     1      98.383   8.615  19.502  1.00  0.00    -0.550 OA
ENDBRANCH  14  15
ENDBRANCH  13  14
ENDBRANCH  12  13
ENDBRANCH  11  12
ENDBRANCH  10  11
ENDBRANCH   9  10
ENDBRANCH   8   9
ENDBRANCH   7   8
ENDBRANCH   6   7
ENDBRANCH   5   6
ENDBRANCH   4   5
ENDBRANCH   3   4
ENDBRANCH   2   3
ENDBRANCH   1   2
BRANCH   1  18
ATOM     18  C   UNL     1     100.497   3.340  23.806  1.00  0.00     0.000 C 
BRANCH  18  19
ATOM     19  C   UNL     1     101.230   3.866  25.053  1.00  0.00     0.000 C 
BRANCH  19  20
ATOM     20  C   UNL     1     101.330   2.839  26.200  1.00  0.00     0.000 C 
BRANCH  20  21
ATOM     21  C   UNL     1     102.117   3.382  27.407  1.00  0.00     0.000 C 
BRANCH  21  22
ATOM     22  C   UNL     1     102.738   4.768  27.149  1.00  0.00     0.000 C 
BRANCH  22  23
ATOM     23  C   UNL     1     104.276   4.823  27.205  1.00  0.00     0.000 C 
BRANCH  23  24
ATOM     24  C   UNL     1     104.910   3.485  27.621  1.00  0.00    -0.000 C 
BRANCH  24  25
ATOM     25  C   UNL     1     105.821   2.896  26.532  1.00  0.00    -0.000 C 
BRANCH  25  26
ATOM     26  C   UNL     1     105.141   2.827  25.155  1.00  0.00    -0.000 C 
BRANCH  26  27
ATOM     27  C   UNL     1     104.641   1.413  24.815  1.00  0.00    -0.000 C 
BRANCH  27  28
ATOM     28  C   UNL     1     103.698   1.395  23.599  1.00  0.00    -0.000 C 
BRANCH  28  29
ATOM     29  C   UNL     1     103.165  -0.022  23.296  1.00  0.00    -0.000 C 
BRANCH  29  30
ATOM     30  C   UNL     1     101.638  -0.083  23.116  1.00  0.00    -0.000 C 
BRANCH  30  31
ATOM     31  C   UNL     1     100.957  -1.028  24.117  1.00  0.00    -0.003 C 
ATOM     32  C   UNL     1      99.828  -0.322  24.865  1.00  0.00     0.004 C 
ENDBRANCH  30  31
ENDBRANCH  29  30
ENDBRANCH  28  29
ENDBRANCH  27  28
ENDBRANCH  26  27
ENDBRANCH  25  26
ENDBRANCH  24  25
ENDBRANCH  23  24
ENDBRANCH  22  23
ENDBRANCH  21  22
ENDBRANCH  20  21
ENDBRANCH  19  20
ENDBRANCH  18  19
ENDBRANCH   1  18
TORSDOF 28
ENDMDL
MODEL 3
REMARK VINA RESULT:    -4.453      1.926      5.137
REMARK INTER + INTRA:         -17.307
REMARK INTER:                 -12.800
REMARK INTRA:                  -4.506
REMARK UNBOUND:                -5.565
REMARK SMILES CCCCCCCCCCCCCCCCCCCCCCCCCCCCCC(=O)[O-]
REMARK SMILES IDX 16 1 17 2 18 3 19 4 20 5 21 6 22 7 23 8 24 9 25 10 26 11
REMARK SMILES IDX 27 12 28 13 29 14 30 15 31 16 32 17 15 18 14 19 13 20 12 21
REMARK SMILES IDX 11 22 10 23 9 24 8 25 7 26 6 27 5 28 4 29 3 30 2 31 1 32
REMARK H PARENT
REMARK Flexibility Score: inf
ROOT
ATOM      1  C   UNL     1     100.430   3.495  23.905  1.00  0.00     0.000 C 
ENDROOT
BRANCH   1   2
ATOM      2  C   UNL     1      98.901   3.602  23.756  1.00  0.00     0.000 C 
BRANCH   2   3
ATOM      3  C   UNL     1      98.082   2.468  24.404  1.00  0.00     0.000 C 
BRANCH   3   4
ATOM      4  C   UNL     1      97.031   2.973  25.407  1.00  0.00     0.000 C 
BRANCH   4   5
ATOM      5  C   UNL     1      97.664   3.543  26.691  1.00  0.00     0.000 C 
BRANCH   5   6
ATOM      6  C   UNL     1      97.184   4.953  27.080  1.00  0.00     0.000 C 
BRANCH   6   7
ATOM      7  C   UNL     1      98.041   6.069  26.458  1.00  0.00     0.000 C 
BRANCH   7   8
ATOM      8  C   UNL     1      97.387   6.691  25.214  1.00  0.00     0.000 C 
BRANCH   8   9
ATOM      9  C   UNL     1      95.862   6.490  25.191  1.00  0.00     0.000 C 
BRANCH   9  10
ATOM     10  C   UNL     1      95.366   5.877  23.869  1.00  0.00     0.000 C 
BRANCH  10  11
ATOM     11  C   UNL     1      94.626   6.860  22.941  1.00  0.00     0.000 C 
BRANCH  11  12
ATOM     12  C   UNL     1      95.223   6.938  21.519  1.00  0.00     0.000 C 
BRANCH  12  13
ATOM     13  C   UNL     1      96.657   6.382  21.461  1.00  0.00     0.006 C 
BRANCH  13  14
ATOM     14  C   UNL     1      97.644   7.386  20.850  1.00  0.00     0.053 C 
BRANCH  14  15
ATOM     15  C   UNL     1      97.878   7.111  19.396  1.00  0.00     0.041 C 
ATOM     16  O   UNL     1      96.920   7.159  18.580  1.00  0.00    -0.550 OA
ATOM     17  O   UNL     1      99.147   6.763  18.950  1.00  0.00    -0.550 OA
ENDBRANCH  14  15
ENDBRANCH  13  14
ENDBRANCH  12  13
ENDBRANCH  11  12
ENDBRANCH  10  11
ENDBRANCH   9  10
ENDBRANCH   8   9
ENDBRANCH   7   8
ENDBRANCH   6   7
ENDBRANCH   5   6
ENDBRANCH   4   5
ENDBRANCH   3   4
ENDBRANCH   2   3
ENDBRANCH   1   2
BRANCH   1  18
ATOM     18  C   UNL     1     100.968   4.184  25.169  1.00  0.00     0.000 C 
BRANCH  18  19
ATOM     19  C   UNL     1     101.253   3.193  26.311  1.00  0.00     0.000 C 
BRANCH  19  20
ATOM     20  C   UNL     1     102.755   2.979  26.594  1.00  0.00     0.000 C 
BRANCH  20  21
ATOM     21  C   UNL     1     103.629   4.103  26.009  1.00  0.00     0.000 C 
BRANCH  21  22
ATOM     22  C   UNL     1     104.779   3.578  25.128  1.00  0.00     0.000 C 
BRANCH  22  23
ATOM     23  C   UNL     1     105.511   2.336  25.669  1.00  0.00     0.000 C 
BRANCH  23  24
ATOM     24  C   UNL     1     105.486   1.150  24.692  1.00  0.00    -0.000 C 
BRANCH  24  25
ATOM     25  C   UNL     1     104.529   1.373  23.510  1.00  0.00    -0.000 C 
BRANCH  25  26
ATOM     26  C   UNL     1     103.493   0.247  23.358  1.00  0.00    -0.000 C 
BRANCH  26  27
ATOM     27  C   UNL     1     102.250   0.469  24.237  1.00  0.00    -0.000 C 
BRANCH  27  28
ATOM     28  C   UNL     1     101.021  -0.306  23.729  1.00  0.00    -0.000 C 
BRANCH  28  29
ATOM     29  C   UNL     1     100.067  -0.702  24.876  1.00  0.00    -0.000 C 
BRANCH  29  30
ATOM     30  C   UNL     1     100.274  -2.139  25.385  1.00  0.00    -0.000 C 
BRANCH  30  31
ATOM     31  C   UNL     1     100.804  -3.087  24.300  1.00  0.00    -0.003 C 
ATOM     32  C   UNL     1     101.994  -3.900  24.807  1.00  0.00     0.004 C 
ENDBRANCH  30  31
ENDBRANCH  29  30
ENDBRANCH  28  29
ENDBRANCH  27  28
ENDBRANCH  26  27
ENDBRANCH  25  26
ENDBRANCH  24  25
ENDBRANCH  23  24
ENDBRANCH  22  23
ENDBRANCH  21  22
ENDBRANCH  20  21
ENDBRANCH  19  20
ENDBRANCH  18  19
ENDBRANCH   1  18
TORSDOF 28
ENDMDL
MODEL 4
REMARK VINA RESULT:    -4.433      3.450      8.026
REMARK INTER + INTRA:         -17.254
REMARK INTER:                 -12.270
REMARK INTRA:                  -4.985
REMARK UNBOUND:                -5.565
REMARK SMILES CCCCCCCCCCCCCCCCCCCCCCCCCCCCCC(=O)[O-]
REMARK SMILES IDX 16 1 17 2 18 3 19 4 20 5 21 6 22 7 23 8 24 9 25 10 26 11
REMARK SMILES IDX 27 12 28 13 29 14 30 15 31 16 32 17 15 18 14 19 13 20 12 21
REMARK SMILES IDX 11 22 10 23 9 24 8 25 7 26 6 27 5 28 4 29 3 30 2 31 1 32
REMARK H PARENT
REMARK Flexibility Score: inf
ROOT
ATOM      1  C   UNL     1     100.122   4.087  24.212  1.00  0.00     0.000 C 
ENDROOT
BRANCH   1   2
ATOM      2  C   UNL     1     100.468   3.816  25.688  1.00  0.00     0.000 C 
BRANCH   2   3
ATOM      3  C   UNL     1     101.011   5.021  26.482  1.00  0.00     0.000 C 
BRANCH   3   4
ATOM      4  C   UNL     1     101.607   4.631  27.846  1.00  0.00     0.000 C 
BRANCH   4   5
ATOM      5  C   UNL     1     102.365   3.290  27.800  1.00  0.00     0.000 C 
BRANCH   5   6
ATOM      6  C   UNL     1     103.881   3.394  28.045  1.00  0.00     0.000 C 
BRANCH   6   7
ATOM      7  C   UNL     1     104.714   3.010  26.809  1.00  0.00     0.000 C 
BRANCH   7   8
ATOM      8  C   UNL     1     103.850   2.456  25.665  1.00  0.00     0.000 C 
BRANCH   8   9
ATOM      9  C   UNL     1     104.642   1.525  24.731  1.00  0.00     0.000 C 
BRANCH   9  10
ATOM     10  C   UNL     1     103.732   0.571  23.937  1.00  0.00     0.000 C 
BRANCH  10  11
ATOM     11  C   UNL     1     102.222   0.816  24.125  1.00  0.00     0.000 C 
BRANCH  11  12
ATOM     12  C   UNL     1     101.369   0.388  22.912  1.00  0.00     0.000 C 
BRANCH  12  13
ATOM     13  C   UNL     1     100.319  -0.673  23.286  1.00  0.00     0.006 C 
BRANCH  13  14
ATOM     14  C   UNL     1     100.406  -1.079  24.764  1.00  0.00     0.053 C 
BRANCH  14  15
ATOM     15  C   UNL     1     100.765  -2.525  24.916  1.00  0.00     0.041 C 
ATOM     16  O   UNL     1     101.705  -3.021  24.239  1.00  0.00    -0.550 OA
ATOM     17  O   UNL     1     100.035  -3.336  25.777  1.00  0.00    -0.550 OA
ENDBRANCH  14  15
ENDBRANCH  13  14
ENDBRANCH  12  13
ENDBRANCH  11  12
ENDBRANCH  10  11
ENDBRANCH   9  10
ENDBRANCH   8   9
ENDBRANCH   7   8
ENDBRANCH   6   7
ENDBRANCH   5   6
ENDBRANCH   4   5
ENDBRANCH   3   4
ENDBRANCH   2   3
ENDBRANCH   1   2
BRANCH   1  18
ATOM     18  C   UNL     1      98.981   3.205  23.682  1.00  0.00     0.000 C 
BRANCH  18  19
ATOM     19  C   UNL     1      98.499   2.172  24.715  1.00  0.00     0.000 C 
BRANCH  19  20
ATOM     20  C   UNL     1      96.990   2.257  25.029  1.00  0.00     0.000 C 
BRANCH  20  21
ATOM     21  C   UNL     1      96.300   3.416  24.287  1.00  0.00     0.000 C 
BRANCH  21  22
ATOM     22  C   UNL     1      95.817   4.535  25.230  1.00  0.00     0.000 C 
BRANCH  22  23
ATOM     23  C   UNL     1      96.853   5.020  26.262  1.00  0.00     0.000 C 
BRANCH  23  24
ATOM     24  C   UNL     1      97.561   6.317  25.837  1.00  0.00    -0.000 C 
BRANCH  24  25
ATOM     25  C   UNL     1      96.608   7.328  25.180  1.00  0.00    -0.000 C 
BRANCH  25  26
ATOM     26  C   UNL     1      97.111   7.824  23.814  1.00  0.00    -0.000 C 
BRANCH  26  27
ATOM     27  C   UNL     1      97.688   6.689  22.953  1.00  0.00    -0.000 C 
BRANCH  27  28
ATOM     28  C   UNL     1      96.862   6.434  21.679  1.00  0.00    -0.000 C 
BRANCH  28  29
ATOM     29  C   UNL     1      95.359   6.259  21.986  1.00  0.00    -0.000 C 
BRANCH  29  30
ATOM     30  C   UNL     1      94.493   7.452  21.545  1.00  0.00    -0.000 C 
BRANCH  30  31
ATOM     31  C   UNL     1      95.055   8.174  20.311  1.00  0.00    -0.003 C 
ATOM     32  C   UNL     1      94.661   9.650  20.306  1.00  0.00     0.004 C 
ENDBRANCH  30  31
ENDBRANCH  29  30
ENDBRANCH  28  29
ENDBRANCH  27  28
ENDBRANCH  26  27
ENDBRANCH  25  26
ENDBRANCH  24  25
ENDBRANCH  23  24
ENDBRANCH  22  23
ENDBRANCH  21  22
ENDBRANCH  20  21
ENDBRANCH  19  20
ENDBRANCH  18  19
ENDBRANCH   1  18
TORSDOF 28
ENDMDL
MODEL 5
REMARK VINA RESULT:    -4.393      1.582      4.765
REMARK INTER + INTRA:         -17.149
REMARK INTER:                 -12.527
REMARK INTRA:                  -4.622
REMARK UNBOUND:                -5.565
REMARK SMILES CCCCCCCCCCCCCCCCCCCCCCCCCCCCCC(=O)[O-]
REMARK SMILES IDX 16 1 17 2 18 3 19 4 20 5 21 6 22 7 23 8 24 9 25 10 26 11
REMARK SMILES IDX 27 12 28 13 29 14 30 15 31 16 32 17 15 18 14 19 13 20 12 21
REMARK SMILES IDX 11 22 10 23 9 24 8 25 7 26 6 27 5 28 4 29 3 30 2 31 1 32
REMARK H PARENT
REMARK Flexibility Score: inf
ROOT
ATOM      1  C   UNL     1     101.570   3.082  24.409  1.00  0.00     0.000 C 
ENDROOT
BRANCH   1   2
ATOM      2  C   UNL     1     100.528   2.957  23.282  1.00  0.00     0.000 C 
BRANCH   2   3
ATOM      3  C   UNL     1      99.846   4.271  22.851  1.00  0.00     0.000 C 
BRANCH   3   4
ATOM      4  C   UNL     1      98.538   4.554  23.610  1.00  0.00     0.000 C 
BRANCH   4   5
ATOM      5  C   UNL     1      97.800   3.265  24.022  1.00  0.00     0.000 C 
BRANCH   5   6
ATOM      6  C   UNL     1      97.479   3.153  25.522  1.00  0.00     0.000 C 
BRANCH   6   7
ATOM      7  C   UNL     1      96.908   4.456  26.111  1.00  0.00     0.000 C 
BRANCH   7   8
ATOM      8  C   UNL     1      95.583   4.870  25.452  1.00  0.00     0.000 C 
BRANCH   8   9
ATOM      9  C   UNL     1      95.361   6.392  25.486  1.00  0.00     0.000 C 
BRANCH   9  10
ATOM     10  C   UNL     1      96.649   7.184  25.203  1.00  0.00     0.000 C 
BRANCH  10  11
ATOM     11  C   UNL     1      96.748   7.764  23.778  1.00  0.00     0.000 C 
BRANCH  11  12
ATOM     12  C   UNL     1      95.397   7.812  23.033  1.00  0.00     0.000 C 
BRANCH  12  13
ATOM     13  C   UNL     1      95.353   6.831  21.847  1.00  0.00     0.006 C 
BRANCH  13  14
ATOM     14  C   UNL     1      96.722   6.677  21.171  1.00  0.00     0.053 C 
BRANCH  14  15
ATOM     15  C   UNL     1      96.673   7.085  19.731  1.00  0.00     0.041 C 
ATOM     16  O   UNL     1      95.608   7.544  19.237  1.00  0.00    -0.550 OA
ATOM     17  O   UNL     1      97.791   6.919  18.923  1.00  0.00    -0.550 OA
ENDBRANCH  14  15
ENDBRANCH  13  14
ENDBRANCH  12  13
ENDBRANCH  11  12
ENDBRANCH  10  11
ENDBRANCH   9  10
ENDBRANCH   8   9
ENDBRANCH   7   8
ENDBRANCH   6   7
ENDBRANCH   5   6
ENDBRANCH   4   5
ENDBRANCH   3   4
ENDBRANCH   2   3
ENDBRANCH   1   2
BRANCH   1  18
ATOM     18  C   UNL     1     101.072   2.548  25.761  1.00  0.00     0.000 C 
BRANCH  18  19
ATOM     19  C   UNL     1     100.939   3.651  26.824  1.00  0.00     0.000 C 
BRANCH  19  20
ATOM     20  C   UNL     1     101.794   4.904  26.538  1.00  0.00     0.000 C 
BRANCH  20  21
ATOM     21  C   UNL     1     102.994   5.026  27.495  1.00  0.00     0.000 C 
BRANCH  21  22
ATOM     22  C   UNL     1     104.324   5.297  26.765  1.00  0.00     0.000 C 
BRANCH  22  23
ATOM     23  C   UNL     1     104.780   4.192  25.794  1.00  0.00     0.000 C 
BRANCH  23  24
ATOM     24  C   UNL     1     104.692   2.783  26.403  1.00  0.00    -0.000 C 
BRANCH  24  25
ATOM     25  C   UNL     1     105.724   1.812  25.806  1.00  0.00    -0.000 C 
BRANCH  25  26
ATOM     26  C   UNL     1     105.950   2.031  24.301  1.00  0.00    -0.000 C 
BRANCH  26  27
ATOM     27  C   UNL     1     105.435   0.858  23.452  1.00  0.00    -0.000 C 
BRANCH  27  28
ATOM     28  C   UNL     1     103.910   0.902  23.247  1.00  0.00    -0.000 C 
BRANCH  28  29
ATOM     29  C   UNL     1     103.265  -0.496  23.366  1.00  0.00    -0.000 C 
BRANCH  29  30
ATOM     30  C   UNL     1     101.736  -0.490  23.195  1.00  0.00    -0.000 C 
BRANCH  30  31
ATOM     31  C   UNL     1     101.019  -1.402  24.201  1.00  0.00    -0.003 C 
ATOM     32  C   UNL     1      99.867  -0.670  24.887  1.00  0.00     0.004 C 
ENDBRANCH  30  31
ENDBRANCH  29  30
ENDBRANCH  28  29
ENDBRANCH  27  28
ENDBRANCH  26  27
ENDBRANCH  25  26
ENDBRANCH  24  25
ENDBRANCH  23  24
ENDBRANCH  22  23
ENDBRANCH  21  22
ENDBRANCH  20  21
ENDBRANCH  19  20
ENDBRANCH  18  19
ENDBRANCH   1  18
TORSDOF 28
ENDMDL
MODEL 6
REMARK VINA RESULT:    -4.290      1.680      5.515
REMARK INTER + INTRA:         -16.878
REMARK INTER:                 -12.840
REMARK INTRA:                  -4.037
REMARK UNBOUND:                -5.565
REMARK SMILES CCCCCCCCCCCCCCCCCCCCCCCCCCCCCC(=O)[O-]
REMARK SMILES IDX 16 1 17 2 18 3 19 4 20 5 21 6 22 7 23 8 24 9 25 10 26 11
REMARK SMILES IDX 27 12 28 13 29 14 30 15 31 16 32 17 15 18 14 19 13 20 12 21
REMARK SMILES IDX 11 22 10 23 9 24 8 25 7 26 6 27 5 28 4 29 3 30 2 31 1 32
REMARK H PARENT
REMARK Flexibility Score: inf
ROOT
ATOM      1  C   UNL     1     100.013   5.201  26.954  1.00  0.00     0.000 C 
ENDROOT
BRANCH   1   2
ATOM      2  C   UNL     1      99.171   3.946  27.247  1.00  0.00     0.000 C 
BRANCH   2   3
ATOM      3  C   UNL     1      97.657   4.180  27.424  1.00  0.00     0.000 C 
BRANCH   3   4
ATOM      4  C   UNL     1      97.112   5.318  26.544  1.00  0.00     0.000 C 
BRANCH   4   5
ATOM      5  C   UNL     1      95.975   4.855  25.613  1.00  0.00     0.000 C 
BRANCH   5   6
ATOM      6  C   UNL     1      95.458   5.928  24.638  1.00  0.00     0.000 C 
BRANCH   6   7
ATOM      7  C   UNL     1      95.926   7.347  25.008  1.00  0.00     0.000 C 
BRANCH   7   8
ATOM      8  C   UNL     1      96.860   7.954  23.949  1.00  0.00     0.000 C 
BRANCH   8   9
ATOM      9  C   UNL     1      97.184   6.965  22.816  1.00  0.00     0.000 C 
BRANCH   9  10
ATOM     10  C   UNL     1      97.900   7.637  21.632  1.00  0.00     0.000 C 
BRANCH  10  11
ATOM     11  C   UNL     1      98.163   6.710  20.428  1.00  0.00     0.000 C 
BRANCH  11  12
ATOM     12  C   UNL     1      97.974   7.402  19.061  1.00  0.00     0.000 C 
BRANCH  12  13
ATOM     13  C   UNL     1      96.489   7.640  18.731  1.00  0.00     0.006 C 
BRANCH  13  14
ATOM     14  C   UNL     1      95.904   8.824  19.512  1.00  0.00     0.053 C 
BRANCH  14  15
ATOM     15  C   UNL     1      94.557   8.496  20.080  1.00  0.00     0.041 C 
ATOM     16  O   UNL     1      94.246   7.300  20.327  1.00  0.00    -0.550 OA
ATOM     17  O   UNL     1      93.630   9.508  20.299  1.00  0.00    -0.550 OA
ENDBRANCH  14  15
ENDBRANCH  13  14
ENDBRANCH  12  13
ENDBRANCH  11  12
ENDBRANCH  10  11
ENDBRANCH   9  10
ENDBRANCH   8   9
ENDBRANCH   7   8
ENDBRANCH   6   7
ENDBRANCH   5   6
ENDBRANCH   4   5
ENDBRANCH   3   4
ENDBRANCH   2   3
ENDBRANCH   1   2
BRANCH   1  18
ATOM     18  C   UNL     1     101.462   4.882  26.553  1.00  0.00     0.000 C 
BRANCH  18  19
ATOM     19  C   UNL     1     101.760   3.373  26.548  1.00  0.00     0.000 C 
BRANCH  19  20
ATOM     20  C   UNL     1     103.192   3.015  26.998  1.00  0.00     0.000 C 
BRANCH  20  21
ATOM     21  C   UNL     1     103.972   2.243  25.918  1.00  0.00     0.000 C 
BRANCH  21  22
ATOM     22  C   UNL     1     103.114   1.898  24.685  1.00  0.00     0.000 C 
BRANCH  22  23
ATOM     23  C   UNL     1     103.800   1.007  23.633  1.00  0.00     0.000 C 
BRANCH  23  24
ATOM     24  C   UNL     1     103.038  -0.301  23.364  1.00  0.00    -0.000 C 
BRANCH  24  25
ATOM     25  C   UNL     1     101.577  -0.063  22.948  1.00  0.00    -0.000 C 
BRANCH  25  26
ATOM     26  C   UNL     1     100.620  -1.143  23.480  1.00  0.00    -0.000 C 
BRANCH  26  27
ATOM     27  C   UNL     1     100.163  -0.864  24.921  1.00  0.00    -0.000 C 
BRANCH  27  28
ATOM     28  C   UNL     1      99.775   0.609  25.144  1.00  0.00    -0.000 C 
BRANCH  28  29
ATOM     29  C   UNL     1      98.493   0.996  24.377  1.00  0.00    -0.000 C 
BRANCH  29  30
ATOM     30  C   UNL     1      98.405   2.493  24.033  1.00  0.00    -0.000 C 
BRANCH  30  31
ATOM     31  C   UNL     1      99.735   3.068  23.524  1.00  0.00    -0.003 C 
ATOM     32  C   UNL     1      99.552   4.481  22.972  1.00  0.00     0.004 C 
ENDBRANCH  30  31
ENDBRANCH  29  30
ENDBRANCH  28  29
ENDBRANCH  27  28
ENDBRANCH  26  27
ENDBRANCH  25  26
ENDBRANCH  24  25
ENDBRANCH  23  24
ENDBRANCH  22  23
ENDBRANCH  21  22
ENDBRANCH  20  21
ENDBRANCH  19  20
ENDBRANCH  18  19
ENDBRANCH   1  18
TORSDOF 28
ENDMDL
MODEL 7
REMARK VINA RESULT:    -4.284      1.877      5.958
REMARK INTER + INTRA:         -16.860
REMARK INTER:                 -12.264
REMARK INTRA:                  -4.596
REMARK UNBOUND:                -5.565
REMARK SMILES CCCCCCCCCCCCCCCCCCCCCCCCCCCCCC(=O)[O-]
REMARK SMILES IDX 16 1 17 2 18 3 19 4 20 5 21 6 22 7 23 8 24 9 25 10 26 11
REMARK SMILES IDX 27 12 28 13 29 14 30 15 31 16 32 17 15 18 14 19 13 20 12 21
REMARK SMILES IDX 11 22 10 23 9 24 8 25 7 26 6 27 5 28 4 29 3 30 2 31 1 32
REMARK H PARENT
REMARK Flexibility Score: inf
ROOT
ATOM      1  C   UNL     1     101.301   3.376  23.713  1.00  0.00     0.000 C 
ENDROOT
BRANCH   1   2
ATOM      2  C   UNL     1      99.859   3.086  23.253  1.00  0.00     0.000 C 
BRANCH   2   3
ATOM      3  C   UNL     1      98.771   4.012  23.831  1.00  0.00     0.000 C 
BRANCH   3   4
ATOM      4  C   UNL     1      97.411   3.315  24.006  1.00  0.00     0.000 C 
BRANCH   4   5
ATOM      5  C   UNL     1      96.964   3.248  25.479  1.00  0.00     0.000 C 
BRANCH   5   6
ATOM      6  C   UNL     1      98.105   3.061  26.494  1.00  0.00     0.000 C 
BRANCH   6   7
ATOM      7  C   UNL     1      98.390   4.332  27.314  1.00  0.00     0.000 C 
BRANCH   7   8
ATOM      8  C   UNL     1      97.319   5.416  27.114  1.00  0.00     0.000 C 
BRANCH   8   9
ATOM      9  C   UNL     1      97.900   6.713  26.527  1.00  0.00     0.000 C 
BRANCH   9  10
ATOM     10  C   UNL     1      97.134   7.193  25.281  1.00  0.00     0.000 C 
BRANCH  10  11
ATOM     11  C   UNL     1      95.666   6.727  25.208  1.00  0.00     0.000 C 
BRANCH  11  12
ATOM     12  C   UNL     1      95.236   6.257  23.802  1.00  0.00     0.000 C 
BRANCH  12  13
ATOM     13  C   UNL     1      95.803   7.160  22.690  1.00  0.00     0.006 C 
BRANCH  13  14
ATOM     14  C   UNL     1      96.542   6.356  21.613  1.00  0.00     0.053 C 
BRANCH  14  15
ATOM     15  C   UNL     1      96.961   7.227  20.468  1.00  0.00     0.041 C 
ATOM     16  O   UNL     1      97.219   6.718  19.345  1.00  0.00    -0.550 OA
ATOM     17  O   UNL     1      97.107   8.596  20.654  1.00  0.00    -0.550 OA
ENDBRANCH  14  15
ENDBRANCH  13  14
ENDBRANCH  12  13
ENDBRANCH  11  12
ENDBRANCH  10  11
ENDBRANCH   9  10
ENDBRANCH   8   9
ENDBRANCH   7   8
ENDBRANCH   6   7
ENDBRANCH   5   6
ENDBRANCH   4   5
ENDBRANCH   3   4
ENDBRANCH   2   3
ENDBRANCH   1   2
BRANCH   1  18
ATOM     18  C   UNL     1     101.413   3.661  25.218  1.00  0.00     0.000 C 
BRANCH  18  19
ATOM     19  C   UNL     1     102.175   2.560  25.977  1.00  0.00     0.000 C 
BRANCH  19  20
ATOM     20  C   UNL     1     103.663   2.887  26.228  1.00  0.00     0.000 C 
BRANCH  20  21
ATOM     21  C   UNL     1     104.609   1.913  25.501  1.00  0.00     0.000 C 
BRANCH  21  22
ATOM     22  C   UNL     1     106.097   2.190  25.788  1.00  0.00     0.000 C 
BRANCH  22  23
ATOM     23  C   UNL     1     107.083   1.154  25.217  1.00  0.00     0.000 C 
BRANCH  23  24
ATOM     24  C   UNL     1     106.712   0.688  23.799  1.00  0.00    -0.000 C 
BRANCH  24  25
ATOM     25  C   UNL     1     106.692  -0.843  23.663  1.00  0.00    -0.000 C 
BRANCH  25  26
ATOM     26  C   UNL     1     105.655  -1.339  22.641  1.00  0.00    -0.000 C 
BRANCH  26  27
ATOM     27  C   UNL     1     104.514  -0.331  22.425  1.00  0.00    -0.000 C 
BRANCH  27  28
ATOM     28  C   UNL     1     103.275  -0.650  23.280  1.00  0.00    -0.000 C 
BRANCH  28  29
ATOM     29  C   UNL     1     102.002   0.037  22.741  1.00  0.00    -0.000 C 
BRANCH  29  30
ATOM     30  C   UNL     1     100.714  -0.771  22.976  1.00  0.00    -0.000 C 
BRANCH  30  31
ATOM     31  C   UNL     1     100.496  -1.130  24.453  1.00  0.00    -0.003 C 
ATOM     32  C   UNL     1      99.769  -0.009  25.194  1.00  0.00     0.004 C 
ENDBRANCH  30  31
ENDBRANCH  29  30
ENDBRANCH  28  29
ENDBRANCH  27  28
ENDBRANCH  26  27
ENDBRANCH  25  26
ENDBRANCH  24  25
ENDBRANCH  23  24
ENDBRANCH  22  23
ENDBRANCH  21  22
ENDBRANCH  20  21
ENDBRANCH  19  20
ENDBRANCH  18  19
ENDBRANCH   1  18
TORSDOF 28
ENDMDL
MODEL 8
REMARK VINA RESULT:    -4.264      1.625      3.587
REMARK INTER + INTRA:         -16.809
REMARK INTER:                 -12.436
REMARK INTRA:                  -4.373
REMARK UNBOUND:                -5.565
REMARK SMILES CCCCCCCCCCCCCCCCCCCCCCCCCCCCCC(=O)[O-]
REMARK SMILES IDX 16 1 17 2 18 3 19 4 20 5 21 6 22 7 23 8 24 9 25 10 26 11
REMARK SMILES IDX 27 12 28 13 29 14 30 15 31 16 32 17 15 18 14 19 13 20 12 21
REMARK SMILES IDX 11 22 10 23 9 24 8 25 7 26 6 27 5 28 4 29 3 30 2 31 1 32
REMARK H PARENT
REMARK Flexibility Score: inf
ROOT
ATOM      1  C   UNL     1      99.871   4.347  23.688  1.00  0.00     0.000 C 
ENDROOT
BRANCH   1   2
ATOM      2  C   UNL     1      99.158   5.130  22.569  1.00  0.00     0.000 C 
BRANCH   2   3
ATOM      3  C   UNL     1      97.720   5.587  22.884  1.00  0.00     0.000 C 
BRANCH   3   4
ATOM      4  C   UNL     1      97.660   6.783  23.850  1.00  0.00     0.000 C 
BRANCH   4   5
ATOM      5  C   UNL     1      96.229   7.322  24.038  1.00  0.00     0.000 C 
BRANCH   5   6
ATOM      6  C   UNL     1      95.110   6.324  23.694  1.00  0.00     0.000 C 
BRANCH   6   7
ATOM      7  C   UNL     1      94.215   6.805  22.537  1.00  0.00     0.000 C 
BRANCH   7   8
ATOM      8  C   UNL     1      94.995   7.605  21.482  1.00  0.00     0.000 C 
BRANCH   8   9
ATOM      9  C   UNL     1      94.613   7.210  20.045  1.00  0.00     0.000 C 
BRANCH   9  10
ATOM     10  C   UNL     1      95.741   7.486  19.036  1.00  0.00     0.000 C 
BRANCH  10  11
ATOM     11  C   UNL     1      97.160   7.183  19.556  1.00  0.00     0.000 C 
BRANCH  11  12
ATOM     12  C   UNL     1      98.212   7.036  18.437  1.00  0.00     0.000 C 
BRANCH  12  13
ATOM     13  C   UNL     1      98.498   8.374  17.731  1.00  0.00     0.006 C 
BRANCH  13  14
ATOM     14  C   UNL     1      98.334   8.272  16.208  1.00  0.00     0.053 C 
BRANCH  14  15
ATOM     15  C   UNL     1      97.092   8.968  15.741  1.00  0.00     0.041 C 
ATOM     16  O   UNL     1      96.718  10.036  16.294  1.00  0.00    -0.550 OA
ATOM     17  O   UNL     1      96.327   8.414  14.722  1.00  0.00    -0.550 OA
ENDBRANCH  14  15
ENDBRANCH  13  14
ENDBRANCH  12  13
ENDBRANCH  11  12
ENDBRANCH  10  11
ENDBRANCH   9  10
ENDBRANCH   8   9
ENDBRANCH   7   8
ENDBRANCH   6   7
ENDBRANCH   5   6
ENDBRANCH   4   5
ENDBRANCH   3   4
ENDBRANCH   2   3
ENDBRANCH   1   2
BRANCH   1  18
ATOM     18  C   UNL     1      99.836   2.824  23.483  1.00  0.00     0.000 C 
BRANCH  18  19
ATOM     19  C   UNL     1      99.059   2.092  24.592  1.00  0.00     0.000 C 
BRANCH  19  20
ATOM     20  C   UNL     1      97.538   2.012  24.342  1.00  0.00     0.000 C 
BRANCH  20  21
ATOM     21  C   UNL     1      96.738   2.912  25.301  1.00  0.00     0.000 C 
BRANCH  21  22
ATOM     22  C   UNL     1      97.585   3.458  26.467  1.00  0.00     0.000 C 
BRANCH  22  23
ATOM     23  C   UNL     1      97.209   4.871  26.951  1.00  0.00     0.000 C 
BRANCH  23  24
ATOM     24  C   UNL     1      98.431   5.784  27.146  1.00  0.00    -0.000 C 
BRANCH  24  25
ATOM     25  C   UNL     1      99.746   4.998  27.275  1.00  0.00    -0.000 C 
BRANCH  25  26
ATOM     26  C   UNL     1     100.970   5.909  27.466  1.00  0.00    -0.000 C 
BRANCH  26  27
ATOM     27  C   UNL     1     102.297   5.139  27.361  1.00  0.00    -0.000 C 
BRANCH  27  28
ATOM     28  C   UNL     1     102.100   3.613  27.397  1.00  0.00    -0.000 C 
BRANCH  28  29
ATOM     29  C   UNL     1     103.276   2.858  26.741  1.00  0.00    -0.000 C 
BRANCH  29  30
ATOM     30  C   UNL     1     102.957   2.311  25.340  1.00  0.00    -0.000 C 
BRANCH  30  31
ATOM     31  C   UNL     1     104.078   1.427  24.774  1.00  0.00    -0.003 C 
ATOM     32  C   UNL     1     105.427   1.773  25.402  1.00  0.00     0.004 C 
ENDBRANCH  30  31
ENDBRANCH  29  30
ENDBRANCH  28  29
ENDBRANCH  27  28
ENDBRANCH  26  27
ENDBRANCH  25  26
ENDBRANCH  24  25
ENDBRANCH  23  24
ENDBRANCH  22  23
ENDBRANCH  21  22
ENDBRANCH  20  21
ENDBRANCH  19  20
ENDBRANCH  18  19
ENDBRANCH   1  18
TORSDOF 28
ENDMDL
MODEL 9
REMARK VINA RESULT:    -4.232      1.321      3.500
REMARK INTER + INTRA:         -16.725
REMARK INTER:                 -11.962
REMARK INTRA:                  -4.764
REMARK UNBOUND:                -5.565
REMARK SMILES CCCCCCCCCCCCCCCCCCCCCCCCCCCCCC(=O)[O-]
REMARK SMILES IDX 16 1 17 2 18 3 19 4 20 5 21 6 22 7 23 8 24 9 25 10 26 11
REMARK SMILES IDX 27 12 28 13 29 14 30 15 31 16 32 17 15 18 14 19 13 20 12 21
REMARK SMILES IDX 11 22 10 23 9 24 8 25 7 26 6 27 5 28 4 29 3 30 2 31 1 32
REMARK H PARENT
REMARK Flexibility Score: inf
ROOT
ATOM      1  C   UNL     1      98.005   3.155  26.557  1.00  0.00     0.000 C 
ENDROOT
BRANCH   1   2
ATOM      2  C   UNL     1      97.012   3.406  25.406  1.00  0.00     0.000 C 
BRANCH   2   3
ATOM      3  C   UNL     1      97.631   3.514  23.998  1.00  0.00     0.000 C 
BRANCH   3   4
ATOM      4  C   UNL     1      98.908   4.371  23.959  1.00  0.00     0.000 C 
BRANCH   4   5
ATOM      5  C   UNL     1      99.100   5.088  22.609  1.00  0.00     0.000 C 
BRANCH   5   6
ATOM      6  C   UNL     1      97.976   6.070  22.231  1.00  0.00     0.000 C 
BRANCH   6   7
ATOM      7  C   UNL     1      97.739   7.149  23.303  1.00  0.00     0.000 C 
BRANCH   7   8
ATOM      8  C   UNL     1      96.357   7.028  23.965  1.00  0.00     0.000 C 
BRANCH   8   9
ATOM      9  C   UNL     1      95.342   6.292  23.074  1.00  0.00     0.000 C 
BRANCH   9  10
ATOM     10  C   UNL     1      94.214   7.213  22.578  1.00  0.00     0.000 C 
BRANCH  10  11
ATOM     11  C   UNL     1      94.511   7.939  21.250  1.00  0.00     0.000 C 
BRANCH  11  12
ATOM     12  C   UNL     1      94.767   6.982  20.066  1.00  0.00     0.000 C 
BRANCH  12  13
ATOM     13  C   UNL     1      95.503   7.679  18.906  1.00  0.00     0.006 C 
BRANCH  13  14
ATOM     14  C   UNL     1      96.986   7.287  18.843  1.00  0.00     0.053 C 
BRANCH  14  15
ATOM     15  C   UNL     1      97.870   8.494  18.765  1.00  0.00     0.041 C 
ATOM     16  O   UNL     1      98.631   8.786  19.726  1.00  0.00    -0.550 OA
ATOM     17  O   UNL     1      97.823   9.320  17.649  1.00  0.00    -0.550 OA
ENDBRANCH  14  15
ENDBRANCH  13  14
ENDBRANCH  12  13
ENDBRANCH  11  12
ENDBRANCH  10  11
ENDBRANCH   9  10
ENDBRANCH   8   9
ENDBRANCH   7   8
ENDBRANCH   6   7
ENDBRANCH   5   6
ENDBRANCH   4   5
ENDBRANCH   3   4
ENDBRANCH   2   3
ENDBRANCH   1   2
BRANCH   1  18
ATOM     18  C   UNL     1      97.856   4.151  27.717  1.00  0.00     0.000 C 
BRANCH  18  19
ATOM     19  C   UNL     1      97.710   5.606  27.238  1.00  0.00     0.000 C 
BRANCH  19  20
ATOM     20  C   UNL     1      99.055   6.322  26.991  1.00  0.00     0.000 C 
BRANCH  20  21
ATOM     21  C   UNL     1     100.203   5.720  27.822  1.00  0.00     0.000 C 
BRANCH  21  22
ATOM     22  C   UNL     1     101.355   5.176  26.956  1.00  0.00     0.000 C 
BRANCH  22  23
ATOM     23  C   UNL     1     101.452   3.641  26.876  1.00  0.00     0.000 C 
BRANCH  23  24
ATOM     24  C   UNL     1     102.782   3.093  27.418  1.00  0.00    -0.000 C 
BRANCH  24  25
ATOM     25  C   UNL     1     103.996   3.567  26.603  1.00  0.00    -0.000 C 
BRANCH  25  26
ATOM     26  C   UNL     1     104.568   2.471  25.689  1.00  0.00    -0.000 C 
BRANCH  26  27
ATOM     27  C   UNL     1     103.712   2.249  24.430  1.00  0.00    -0.000 C 
BRANCH  27  28
ATOM     28  C   UNL     1     103.745   0.790  23.943  1.00  0.00    -0.000 C 
BRANCH  28  29
ATOM     29  C   UNL     1     102.365   0.311  23.443  1.00  0.00    -0.000 C 
BRANCH  29  30
ATOM     30  C   UNL     1     101.233   1.323  23.687  1.00  0.00    -0.000 C 
BRANCH  30  31
ATOM     31  C   UNL     1     100.254   0.872  24.782  1.00  0.00    -0.003 C 
ATOM     32  C   UNL     1     100.207  -0.651  24.889  1.00  0.00     0.004 C 
ENDBRANCH  30  31
ENDBRANCH  29  30
ENDBRANCH  28  29
ENDBRANCH  27  28
ENDBRANCH  26  27
ENDBRANCH  25  26
ENDBRANCH  24  25
ENDBRANCH  23  24
ENDBRANCH  22  23
ENDBRANCH  21  22
ENDBRANCH  20  21
ENDBRANCH  19  20
ENDBRANCH  18  19
ENDBRANCH   1  18
TORSDOF 28
ENDMDL
