MODEL 1
REMARK VINA RESULT:    -4.020      0.000      0.000
REMARK INTER + INTRA:         -13.711
REMARK INTER:                 -10.130
REMARK INTRA:                  -3.581
REMARK UNBOUND:                -3.581
REMARK SMILES CCCCCCCCCCCCCCCCCCCCCCCCCCCC(=O)[O-]
REMARK SMILES IDX 15 1 16 2 17 3 18 4 19 5 20 6 21 7 22 8 23 9 24 10 25 11
REMARK SMILES IDX 26 12 27 13 28 14 29 15 30 16 14 17 13 18 12 19 11 20 10 21
REMARK SMILES IDX 9 22 8 23 7 24 6 25 5 26 4 27 3 28 2 29 1 30
REMARK H PARENT
REMARK Flexibility Score: inf
ROOT
ATOM      1  C   UNL     1     -34.315 -45.600  -9.623  1.00  0.00     0.000 C 
ENDROOT
BRANCH   1   2
ATOM      2  C   UNL     1     -35.031 -45.816 -10.971  1.00  0.00     0.000 C 
BRANCH   2   3
ATOM      3  C   UNL     1     -35.733 -47.186 -11.086  1.00  0.00     0.000 C 
BRANCH   3   4
ATOM      4  C   UNL     1     -35.093 -48.074 -12.170  1.00  0.00     0.000 C 
BRANCH   4   5
ATOM      5  C   UNL     1     -36.051 -49.158 -12.703  1.00  0.00     0.000 C 
BRANCH   5   6
ATOM      6  C   UNL     1     -36.767 -48.778 -14.013  1.00  0.00     0.000 C 
BRANCH   6   7
ATOM      7  C   UNL     1     -38.132 -48.086 -13.844  1.00  0.00     0.000 C 
BRANCH   7   8
ATOM      8  C   UNL     1     -38.260 -46.721 -14.546  1.00  0.00     0.000 C 
BRANCH   8   9
ATOM      9  C   UNL     1     -37.201 -45.712 -14.079  1.00  0.00     0.000 C 
BRANCH   9  10
ATOM     10  C   UNL     1     -36.214 -45.327 -15.194  1.00  0.00     0.000 C 
BRANCH  10  11
ATOM     11  C   UNL     1     -36.739 -45.618 -16.616  1.00  0.00     0.000 C 
BRANCH  11  12
ATOM     12  C   UNL     1     -35.950 -46.740 -17.310  1.00  0.00     0.006 C 
BRANCH  12  13
ATOM     13  C   UNL     1     -34.692 -47.106 -16.509  1.00  0.00     0.053 C 
BRANCH  13  14
ATOM     14  C   UNL     1     -34.052 -48.375 -16.994  1.00  0.00     0.041 C 
ATOM     15  O   UNL     1     -34.751 -49.321 -17.456  1.00  0.00    -0.550 OA
ATOM     16  O   UNL     1     -32.678 -48.539 -16.862  1.00  0.00    -0.550 OA
ENDBRANCH  13  14
ENDBRANCH  12  13
ENDBRANCH  11  12
ENDBRANCH  10  11
ENDBRANCH   9  10
ENDBRANCH   8   9
ENDBRANCH   7   8
ENDBRANCH   6   7
ENDBRANCH   5   6
ENDBRANCH   4   5
ENDBRANCH   3   4
ENDBRANCH   2   3
ENDBRANCH   1   2
BRANCH   1  17
ATOM     17  C   UNL     1     -34.543 -44.219  -8.983  1.00  0.00     0.000 C 
BRANCH  17  18
ATOM     18  C   UNL     1     -33.963 -44.114  -7.563  1.00  0.00     0.000 C 
BRANCH  18  19
ATOM     19  C   UNL     1     -33.566 -45.485  -6.988  1.00  0.00     0.000 C 
BRANCH  19  20
ATOM     20  C   UNL     1     -34.132 -45.726  -5.580  1.00  0.00     0.000 C 
BRANCH  20  21
ATOM     21  C   UNL     1     -34.154 -47.225  -5.246  1.00  0.00     0.000 C 
BRANCH  21  22
ATOM     22  C   UNL     1     -33.072 -48.013  -6.003  1.00  0.00    -0.000 C 
BRANCH  22  23
ATOM     23  C   UNL     1     -33.634 -49.257  -6.711  1.00  0.00    -0.000 C 
BRANCH  23  24
ATOM     24  C   UNL     1     -33.814 -49.044  -8.229  1.00  0.00    -0.000 C 
BRANCH  24  25
ATOM     25  C   UNL     1     -32.555 -48.507  -8.936  1.00  0.00    -0.000 C 
BRANCH  25  26
ATOM     26  C   UNL     1     -31.297 -49.381  -8.776  1.00  0.00    -0.000 C 
BRANCH  26  27
ATOM     27  C   UNL     1     -30.112 -48.704  -8.055  1.00  0.00    -0.000 C 
BRANCH  27  28
ATOM     28  C   UNL     1     -29.618 -49.426  -6.788  1.00  0.00    -0.000 C 
BRANCH  28  29
ATOM     29  C   UNL     1     -29.488 -48.491  -5.578  1.00  0.00    -0.003 C 
ATOM     30  C   UNL     1     -28.311 -47.533  -5.744  1.00  0.00     0.004 C 
ENDBRANCH  28  29
ENDBRANCH  27  28
ENDBRANCH  26  27
ENDBRANCH  25  26
ENDBRANCH  24  25
ENDBRANCH  23  24
ENDBRANCH  22  23
ENDBRANCH  21  22
ENDBRANCH  20  21
ENDBRANCH  19  20
ENDBRANCH  18  19
ENDBRANCH  17  18
ENDBRANCH   1  17
TORSDOF 26
ENDMDL
MODEL 2
REMARK VINA RESULT:    -4.013      3.576      9.578
REMARK INTER + INTRA:         -13.693
REMARK INTER:                 -10.859
REMARK INTRA:                  -2.834
REMARK UNBOUND:                -3.581
REMARK SMILES CCCCCCCCCCCCCCCCCCCCCCCCCCCC(=O)[O-]
REMARK SMILES IDX 15 1 16 2 17 3 18 4 19 5 20 6 21 7 22 8 23 9 24 10 25 11
REMARK SMILES IDX 26 12 27 13 28 14 29 15 30 16 14 17 13 18 12 19 11 20 10 21
REMARK SMILES IDX 9 22 8 23 7 24 6 25 5 26 4 27 3 28 2 29 1 30
REMARK H PARENT
REMARK Flexibility Score: inf
ROOT
ATOM      1  C   UNL     1     -34.940 -45.763 -10.446  1.00  0.00     0.000 C 
ENDROOT
BRANCH   1   2
ATOM      2  C   UNL     1     -33.963 -46.823  -9.901  1.00  0.00     0.000 C 
BRANCH   2   3
ATOM      3  C   UNL     1     -34.623 -48.194  -9.636  1.00  0.00     0.000 C 
BRANCH   3   4
ATOM      4  C   UNL     1     -33.683 -49.364  -9.985  1.00  0.00     0.000 C 
BRANCH   4   5
ATOM      5  C   UNL     1     -32.393 -48.908 -10.694  1.00  0.00     0.000 C 
BRANCH   5   6
ATOM      6  C   UNL     1     -31.209 -48.647  -9.743  1.00  0.00     0.000 C 
BRANCH   6   7
ATOM      7  C   UNL     1     -31.097 -49.610  -8.546  1.00  0.00     0.000 C 
BRANCH   7   8
ATOM      8  C   UNL     1     -29.729 -49.612  -7.840  1.00  0.00     0.000 C 
BRANCH   8   9
ATOM      9  C   UNL     1     -29.786 -49.002  -6.432  1.00  0.00     0.000 C 
BRANCH   9  10
ATOM     10  C   UNL     1     -30.460 -47.620  -6.408  1.00  0.00     0.000 C 
BRANCH  10  11
ATOM     11  C   UNL     1     -31.748 -47.572  -5.558  1.00  0.00     0.000 C 
BRANCH  11  12
ATOM     12  C   UNL     1     -32.980 -47.182  -6.389  1.00  0.00     0.006 C 
BRANCH  12  13
ATOM     13  C   UNL     1     -33.675 -45.946  -5.801  1.00  0.00     0.053 C 
BRANCH  13  14
ATOM     14  C   UNL     1     -34.661 -46.298  -4.725  1.00  0.00     0.041 C 
ATOM     15  O   UNL     1     -34.969 -47.501  -4.493  1.00  0.00    -0.550 OA
ATOM     16  O   UNL     1     -35.299 -45.280  -4.025  1.00  0.00    -0.550 OA
ENDBRANCH  13  14
ENDBRANCH  12  13
ENDBRANCH  11  12
ENDBRANCH  10  11
ENDBRANCH   9  10
ENDBRANCH   8   9
ENDBRANCH   7   8
ENDBRANCH   6   7
ENDBRANCH   5   6
ENDBRANCH   4   5
ENDBRANCH   3   4
ENDBRANCH   2   3
ENDBRANCH   1   2
BRANCH   1  17
ATOM     17  C   UNL     1     -35.427 -46.011 -11.885  1.00  0.00     0.000 C 
BRANCH  17  18
ATOM     18  C   UNL     1     -36.752 -46.788 -11.942  1.00  0.00     0.000 C 
BRANCH  18  19
ATOM     19  C   UNL     1     -36.723 -47.923 -12.981  1.00  0.00     0.000 C 
BRANCH  19  20
ATOM     20  C   UNL     1     -37.731 -47.711 -14.122  1.00  0.00     0.000 C 
BRANCH  20  21
ATOM     21  C   UNL     1     -38.636 -46.503 -13.837  1.00  0.00     0.000 C 
BRANCH  21  22
ATOM     22  C   UNL     1     -38.497 -45.399 -14.898  1.00  0.00    -0.000 C 
BRANCH  22  23
ATOM     23  C   UNL     1     -37.074 -45.310 -15.473  1.00  0.00    -0.000 C 
BRANCH  23  24
ATOM     24  C   UNL     1     -37.055 -45.357 -17.017  1.00  0.00    -0.000 C 
BRANCH  24  25
ATOM     25  C   UNL     1     -35.829 -46.081 -17.602  1.00  0.00    -0.000 C 
BRANCH  25  26
ATOM     26  C   UNL     1     -35.055 -46.962 -16.604  1.00  0.00    -0.000 C 
BRANCH  26  27
ATOM     27  C   UNL     1     -35.212 -48.484 -16.809  1.00  0.00    -0.000 C 
BRANCH  27  28
ATOM     28  C   UNL     1     -34.258 -49.106 -17.845  1.00  0.00    -0.000 C 
BRANCH  28  29
ATOM     29  C   UNL     1     -32.998 -49.711 -17.210  1.00  0.00    -0.003 C 
ATOM     30  C   UNL     1     -31.845 -48.710 -17.208  1.00  0.00     0.004 C 
ENDBRANCH  28  29
ENDBRANCH  27  28
ENDBRANCH  26  27
ENDBRANCH  25  26
ENDBRANCH  24  25
ENDBRANCH  23  24
ENDBRANCH  22  23
ENDBRANCH  21  22
ENDBRANCH  20  21
ENDBRANCH  19  20
ENDBRANCH  18  19
ENDBRANCH  17  18
ENDBRANCH   1  17
TORSDOF 26
ENDMDL
MODEL 3
REMARK VINA RESULT:    -4.006      3.128      8.796
REMARK INTER + INTRA:         -13.676
REMARK INTER:                  -9.596
REMARK INTRA:                  -4.080
REMARK UNBOUND:                -3.581
REMARK SMILES CCCCCCCCCCCCCCCCCCCCCCCCCCCC(=O)[O-]
REMARK SMILES IDX 15 1 16 2 17 3 18 4 19 5 20 6 21 7 22 8 23 9 24 10 25 11
REMARK SMILES IDX 26 12 27 13 28 14 29 15 30 16 14 17 13 18 12 19 11 20 10 21
REMARK SMILES IDX 9 22 8 23 7 24 6 25 5 26 4 27 3 28 2 29 1 30
REMARK H PARENT
REMARK Flexibility Score: inf
ROOT
ATOM      1  C   UNL     1     -34.596 -44.404  -9.143  1.00  0.00     0.000 C 
ENDROOT
BRANCH   1   2
ATOM      2  C   UNL     1     -33.966 -44.423  -7.736  1.00  0.00     0.000 C 
BRANCH   2   3
ATOM      3  C   UNL     1     -33.590 -45.838  -7.245  1.00  0.00     0.000 C 
BRANCH   3   4
ATOM      4  C   UNL     1     -33.996 -46.067  -5.777  1.00  0.00     0.000 C 
BRANCH   4   5
ATOM      5  C   UNL     1     -33.603 -47.464  -5.256  1.00  0.00     0.000 C 
BRANCH   5   6
ATOM      6  C   UNL     1     -34.555 -48.592  -5.694  1.00  0.00     0.000 C 
BRANCH   6   7
ATOM      7  C   UNL     1     -33.911 -49.718  -6.523  1.00  0.00     0.000 C 
BRANCH   7   8
ATOM      8  C   UNL     1     -34.620 -50.035  -7.852  1.00  0.00     0.000 C 
BRANCH   8   9
ATOM      9  C   UNL     1     -34.212 -49.083  -8.985  1.00  0.00     0.000 C 
BRANCH   9  10
ATOM     10  C   UNL     1     -33.211 -49.719  -9.965  1.00  0.00     0.000 C 
BRANCH  10  11
ATOM     11  C   UNL     1     -31.893 -48.927 -10.106  1.00  0.00     0.000 C 
BRANCH  11  12
ATOM     12  C   UNL     1     -31.477 -48.251  -8.790  1.00  0.00     0.006 C 
BRANCH  12  13
ATOM     13  C   UNL     1     -30.469 -49.116  -8.019  1.00  0.00     0.053 C 
BRANCH  13  14
ATOM     14  C   UNL     1     -29.966 -48.441  -6.775  1.00  0.00     0.041 C 
ATOM     15  O   UNL     1     -30.382 -47.295  -6.443  1.00  0.00    -0.550 OA
ATOM     16  O   UNL     1     -28.972 -49.055  -6.020  1.00  0.00    -0.550 OA
ENDBRANCH  13  14
ENDBRANCH  12  13
ENDBRANCH  11  12
ENDBRANCH  10  11
ENDBRANCH   9  10
ENDBRANCH   8   9
ENDBRANCH   7   8
ENDBRANCH   6   7
ENDBRANCH   5   6
ENDBRANCH   4   5
ENDBRANCH   3   4
ENDBRANCH   2   3
ENDBRANCH   1   2
BRANCH   1  17
ATOM     17  C   UNL     1     -34.315 -45.655  -9.994  1.00  0.00     0.000 C 
BRANCH  17  18
ATOM     18  C   UNL     1     -35.414 -45.931 -11.033  1.00  0.00     0.000 C 
BRANCH  18  19
ATOM     19  C   UNL     1     -35.175 -47.238 -11.809  1.00  0.00     0.000 C 
BRANCH  19  20
ATOM     20  C   UNL     1     -36.481 -47.951 -12.191  1.00  0.00     0.000 C 
BRANCH  20  21
ATOM     21  C   UNL     1     -37.697 -47.055 -11.910  1.00  0.00     0.000 C 
BRANCH  21  22
ATOM     22  C   UNL     1     -38.689 -47.023 -13.085  1.00  0.00    -0.000 C 
BRANCH  22  23
ATOM     23  C   UNL     1     -38.830 -45.620 -13.699  1.00  0.00    -0.000 C 
BRANCH  23  24
ATOM     24  C   UNL     1     -38.693 -45.630 -15.237  1.00  0.00    -0.000 C 
BRANCH  24  25
ATOM     25  C   UNL     1     -37.388 -44.996 -15.750  1.00  0.00    -0.000 C 
BRANCH  25  26
ATOM     26  C   UNL     1     -36.119 -45.399 -14.974  1.00  0.00    -0.000 C 
BRANCH  26  27
ATOM     27  C   UNL     1     -35.393 -46.653 -15.505  1.00  0.00    -0.000 C 
BRANCH  27  28
ATOM     28  C   UNL     1     -35.366 -46.794 -17.038  1.00  0.00    -0.000 C 
BRANCH  28  29
ATOM     29  C   UNL     1     -35.839 -48.173 -17.521  1.00  0.00    -0.003 C 
ATOM     30  C   UNL     1     -37.090 -48.621 -16.770  1.00  0.00     0.004 C 
ENDBRANCH  28  29
ENDBRANCH  27  28
ENDBRANCH  26  27
ENDBRANCH  25  26
ENDBRANCH  24  25
ENDBRANCH  23  24
ENDBRANCH  22  23
ENDBRANCH  21  22
ENDBRANCH  20  21
ENDBRANCH  19  20
ENDBRANCH  18  19
ENDBRANCH  17  18
ENDBRANCH   1  17
TORSDOF 26
ENDMDL
MODEL 4
REMARK VINA RESULT:    -3.995     17.100     19.546
REMARK INTER + INTRA:         -13.649
REMARK INTER:                 -10.078
REMARK INTRA:                  -3.572
REMARK UNBOUND:                -3.581
REMARK SMILES CCCCCCCCCCCCCCCCCCCCCCCCCCCC(=O)[O-]
REMARK SMILES IDX 15 1 16 2 17 3 18 4 19 5 20 6 21 7 22 8 23 9 24 10 25 11
REMARK SMILES IDX 26 12 27 13 28 14 29 15 30 16 14 17 13 18 12 19 11 20 10 21
REMARK SMILES IDX 9 22 8 23 7 24 6 25 5 26 4 27 3 28 2 29 1 30
REMARK H PARENT
REMARK Flexibility Score: inf
ROOT
ATOM      1  C   UNL     1     -25.624 -35.482 -12.651  1.00  0.00     0.000 C 
ENDROOT
BRANCH   1   2
ATOM      2  C   UNL     1     -26.074 -34.068 -13.069  1.00  0.00     0.000 C 
BRANCH   2   3
ATOM      3  C   UNL     1     -27.459 -34.036 -13.751  1.00  0.00     0.000 C 
BRANCH   3   4
ATOM      4  C   UNL     1     -28.449 -33.122 -13.004  1.00  0.00     0.000 C 
BRANCH   4   5
ATOM      5  C   UNL     1     -27.852 -32.511 -11.721  1.00  0.00     0.000 C 
BRANCH   5   6
ATOM      6  C   UNL     1     -27.727 -30.976 -11.752  1.00  0.00     0.000 C 
BRANCH   6   7
ATOM      7  C   UNL     1     -26.466 -30.401 -11.081  1.00  0.00     0.000 C 
BRANCH   7   8
ATOM      8  C   UNL     1     -25.577 -31.438 -10.371  1.00  0.00     0.000 C 
BRANCH   8   9
ATOM      9  C   UNL     1     -24.096 -31.034 -10.348  1.00  0.00     0.000 C 
BRANCH   9  10
ATOM     10  C   UNL     1     -23.707 -30.128 -11.528  1.00  0.00     0.000 C 
BRANCH  10  11
ATOM     11  C   UNL     1     -22.910 -30.855 -12.632  1.00  0.00     0.000 C 
BRANCH  11  12
ATOM     12  C   UNL     1     -22.168 -29.875 -13.555  1.00  0.00     0.006 C 
BRANCH  12  13
ATOM     13  C   UNL     1     -20.791 -30.427 -13.953  1.00  0.00     0.053 C 
BRANCH  13  14
ATOM     14  C   UNL     1     -20.776 -30.980 -15.349  1.00  0.00     0.041 C 
ATOM     15  O   UNL     1     -20.704 -32.224 -15.555  1.00  0.00    -0.550 OA
ATOM     16  O   UNL     1     -20.767 -30.105 -16.430  1.00  0.00    -0.550 OA
ENDBRANCH  13  14
ENDBRANCH  12  13
ENDBRANCH  11  12
ENDBRANCH  10  11
ENDBRANCH   9  10
ENDBRANCH   8   9
ENDBRANCH   7   8
ENDBRANCH   6   7
ENDBRANCH   5   6
ENDBRANCH   4   5
ENDBRANCH   3   4
ENDBRANCH   2   3
ENDBRANCH   1   2
BRANCH   1  17
ATOM     17  C   UNL     1     -24.103 -35.657 -12.493  1.00  0.00     0.000 C 
BRANCH  17  18
ATOM     18  C   UNL     1     -23.333 -34.332 -12.620  1.00  0.00     0.000 C 
BRANCH  18  19
ATOM     19  C   UNL     1     -21.864 -34.542 -13.029  1.00  0.00     0.000 C 
BRANCH  19  20
ATOM     20  C   UNL     1     -21.146 -35.581 -12.154  1.00  0.00     0.000 C 
BRANCH  20  21
ATOM     21  C   UNL     1     -19.625 -35.368 -12.187  1.00  0.00     0.000 C 
BRANCH  21  22
ATOM     22  C   UNL     1     -19.123 -34.522 -11.005  1.00  0.00    -0.000 C 
BRANCH  22  23
ATOM     23  C   UNL     1     -19.023 -33.027 -11.351  1.00  0.00    -0.000 C 
BRANCH  23  24
ATOM     24  C   UNL     1     -20.159 -32.195 -10.718  1.00  0.00    -0.000 C 
BRANCH  24  25
ATOM     25  C   UNL     1     -19.732 -31.409  -9.465  1.00  0.00    -0.000 C 
BRANCH  25  26
ATOM     26  C   UNL     1     -20.761 -30.378  -8.962  1.00  0.00    -0.000 C 
BRANCH  26  27
ATOM     27  C   UNL     1     -21.025 -30.398  -7.442  1.00  0.00    -0.000 C 
BRANCH  27  28
ATOM     28  C   UNL     1     -19.801 -30.734  -6.569  1.00  0.00    -0.000 C 
BRANCH  28  29
ATOM     29  C   UNL     1     -20.122 -31.732  -5.447  1.00  0.00    -0.003 C 
ATOM     30  C   UNL     1     -21.625 -31.807  -5.189  1.00  0.00     0.004 C 
ENDBRANCH  28  29
ENDBRANCH  27  28
ENDBRANCH  26  27
ENDBRANCH  25  26
ENDBRANCH  24  25
ENDBRANCH  23  24
ENDBRANCH  22  23
ENDBRANCH  21  22
ENDBRANCH  20  21
ENDBRANCH  19  20
ENDBRANCH  18  19
ENDBRANCH  17  18
ENDBRANCH   1  17
TORSDOF 26
ENDMDL
MODEL 5
REMARK VINA RESULT:    -3.976      1.724      2.740
REMARK INTER + INTRA:         -13.601
REMARK INTER:                  -9.649
REMARK INTRA:                  -3.952
REMARK UNBOUND:                -3.581
REMARK SMILES CCCCCCCCCCCCCCCCCCCCCCCCCCCC(=O)[O-]
REMARK SMILES IDX 15 1 16 2 17 3 18 4 19 5 20 6 21 7 22 8 23 9 24 10 25 11
REMARK SMILES IDX 26 12 27 13 28 14 29 15 30 16 14 17 13 18 12 19 11 20 10 21
REMARK SMILES IDX 9 22 8 23 7 24 6 25 5 26 4 27 3 28 2 29 1 30
REMARK H PARENT
REMARK Flexibility Score: inf
ROOT
ATOM      1  C   UNL     1     -34.189 -44.119 -11.031  1.00  0.00     0.000 C 
ENDROOT
BRANCH   1   2
ATOM      2  C   UNL     1     -34.997 -44.871 -12.108  1.00  0.00     0.000 C 
BRANCH   2   3
ATOM      3  C   UNL     1     -35.558 -46.226 -11.626  1.00  0.00     0.000 C 
BRANCH   3   4
ATOM      4  C   UNL     1     -36.921 -46.547 -12.269  1.00  0.00     0.000 C 
BRANCH   4   5
ATOM      5  C   UNL     1     -37.313 -48.032 -12.137  1.00  0.00     0.000 C 
BRANCH   5   6
ATOM      6  C   UNL     1     -36.612 -48.769 -10.980  1.00  0.00     0.000 C 
BRANCH   6   7
ATOM      7  C   UNL     1     -35.835 -50.038 -11.377  1.00  0.00     0.000 C 
BRANCH   7   8
ATOM      8  C   UNL     1     -35.397 -50.097 -12.852  1.00  0.00     0.000 C 
BRANCH   8   9
ATOM      9  C   UNL     1     -33.879 -49.950 -13.027  1.00  0.00     0.000 C 
BRANCH   9  10
ATOM     10  C   UNL     1     -33.453 -49.886 -14.503  1.00  0.00     0.000 C 
BRANCH  10  11
ATOM     11  C   UNL     1     -34.618 -49.587 -15.472  1.00  0.00     0.000 C 
BRANCH  11  12
ATOM     12  C   UNL     1     -34.606 -48.132 -15.965  1.00  0.00     0.006 C 
BRANCH  12  13
ATOM     13  C   UNL     1     -35.953 -47.446 -15.696  1.00  0.00     0.053 C 
BRANCH  13  14
ATOM     14  C   UNL     1     -36.007 -46.050 -16.247  1.00  0.00     0.041 C 
ATOM     15  O   UNL     1     -35.628 -45.800 -17.426  1.00  0.00    -0.550 OA
ATOM     16  O   UNL     1     -36.410 -45.006 -15.421  1.00  0.00    -0.550 OA
ENDBRANCH  13  14
ENDBRANCH  12  13
ENDBRANCH  11  12
ENDBRANCH  10  11
ENDBRANCH   9  10
ENDBRANCH   8   9
ENDBRANCH   7   8
ENDBRANCH   6   7
ENDBRANCH   5   6
ENDBRANCH   4   5
ENDBRANCH   3   4
ENDBRANCH   2   3
ENDBRANCH   1   2
BRANCH   1  17
ATOM     17  C   UNL     1     -34.803 -44.154  -9.620  1.00  0.00     0.000 C 
BRANCH  17  18
ATOM     18  C   UNL     1     -34.069 -45.118  -8.673  1.00  0.00     0.000 C 
BRANCH  18  19
ATOM     19  C   UNL     1     -33.846 -44.513  -7.276  1.00  0.00     0.000 C 
BRANCH  19  20
ATOM     20  C   UNL     1     -33.813 -45.575  -6.166  1.00  0.00     0.000 C 
BRANCH  20  21
ATOM     21  C   UNL     1     -32.617 -46.521  -6.346  1.00  0.00     0.000 C 
BRANCH  21  22
ATOM     22  C   UNL     1     -32.826 -47.876  -5.650  1.00  0.00    -0.000 C 
BRANCH  22  23
ATOM     23  C   UNL     1     -34.069 -48.618  -6.166  1.00  0.00    -0.000 C 
BRANCH  23  24
ATOM     24  C   UNL     1     -33.762 -49.510  -7.388  1.00  0.00    -0.000 C 
BRANCH  24  25
ATOM     25  C   UNL     1     -33.700 -48.741  -8.721  1.00  0.00    -0.000 C 
BRANCH  25  26
ATOM     26  C   UNL     1     -32.325 -48.749  -9.414  1.00  0.00    -0.000 C 
BRANCH  26  27
ATOM     27  C   UNL     1     -31.227 -49.557  -8.690  1.00  0.00    -0.000 C 
BRANCH  27  28
ATOM     28  C   UNL     1     -30.147 -48.713  -7.989  1.00  0.00    -0.000 C 
BRANCH  28  29
ATOM     29  C   UNL     1     -29.513 -49.429  -6.788  1.00  0.00    -0.003 C 
ATOM     30  C   UNL     1     -29.059 -48.431  -5.727  1.00  0.00     0.004 C 
ENDBRANCH  28  29
ENDBRANCH  27  28
ENDBRANCH  26  27
ENDBRANCH  25  26
ENDBRANCH  24  25
ENDBRANCH  23  24
ENDBRANCH  22  23
ENDBRANCH  21  22
ENDBRANCH  20  21
ENDBRANCH  19  20
ENDBRANCH  18  19
ENDBRANCH  17  18
ENDBRANCH   1  17
TORSDOF 26
ENDMDL
MODEL 6
REMARK VINA RESULT:    -3.963      1.678      3.634
REMARK INTER + INTRA:         -13.568
REMARK INTER:                 -10.980
REMARK INTRA:                  -2.588
REMARK UNBOUND:                -3.581
REMARK SMILES CCCCCCCCCCCCCCCCCCCCCCCCCCCC(=O)[O-]
REMARK SMILES IDX 15 1 16 2 17 3 18 4 19 5 20 6 21 7 22 8 23 9 24 10 25 11
REMARK SMILES IDX 26 12 27 13 28 14 29 15 30 16 14 17 13 18 12 19 11 20 10 21
REMARK SMILES IDX 9 22 8 23 7 24 6 25 5 26 4 27 3 28 2 29 1 30
REMARK H PARENT
REMARK Flexibility Score: inf
ROOT
ATOM      1  C   UNL     1     -34.243 -45.206  -9.376  1.00  0.00     0.000 C 
ENDROOT
BRANCH   1   2
ATOM      2  C   UNL     1     -34.670 -44.558 -10.708  1.00  0.00     0.000 C 
BRANCH   2   3
ATOM      3  C   UNL     1     -35.503 -45.492 -11.611  1.00  0.00     0.000 C 
BRANCH   3   4
ATOM      4  C   UNL     1     -35.291 -45.189 -13.107  1.00  0.00     0.000 C 
BRANCH   4   5
ATOM      5  C   UNL     1     -36.216 -46.014 -14.024  1.00  0.00     0.000 C 
BRANCH   5   6
ATOM      6  C   UNL     1     -36.839 -45.208 -15.180  1.00  0.00     0.000 C 
BRANCH   6   7
ATOM      7  C   UNL     1     -36.962 -45.959 -16.519  1.00  0.00     0.000 C 
BRANCH   7   8
ATOM      8  C   UNL     1     -35.667 -46.027 -17.348  1.00  0.00     0.000 C 
BRANCH   8   9
ATOM      9  C   UNL     1     -34.916 -47.354 -17.170  1.00  0.00     0.000 C 
BRANCH   9  10
ATOM     10  C   UNL     1     -35.581 -48.520 -17.921  1.00  0.00     0.000 C 
BRANCH  10  11
ATOM     11  C   UNL     1     -34.582 -49.414 -18.688  1.00  0.00     0.000 C 
BRANCH  11  12
ATOM     12  C   UNL     1     -33.297 -49.670 -17.886  1.00  0.00     0.006 C 
BRANCH  12  13
ATOM     13  C   UNL     1     -32.052 -49.502 -18.769  1.00  0.00     0.053 C 
BRANCH  13  14
ATOM     14  C   UNL     1     -30.895 -48.902 -18.023  1.00  0.00     0.041 C 
ATOM     15  O   UNL     1     -30.837 -48.954 -16.762  1.00  0.00    -0.550 OA
ATOM     16  O   UNL     1     -29.912 -48.214 -18.726  1.00  0.00    -0.550 OA
ENDBRANCH  13  14
ENDBRANCH  12  13
ENDBRANCH  11  12
ENDBRANCH  10  11
ENDBRANCH   9  10
ENDBRANCH   8   9
ENDBRANCH   7   8
ENDBRANCH   6   7
ENDBRANCH   5   6
ENDBRANCH   4   5
ENDBRANCH   3   4
ENDBRANCH   2   3
ENDBRANCH   1   2
BRANCH   1  17
ATOM     17  C   UNL     1     -34.251 -44.258  -8.163  1.00  0.00     0.000 C 
BRANCH  17  18
ATOM     18  C   UNL     1     -33.846 -44.957  -6.855  1.00  0.00     0.000 C 
BRANCH  18  19
ATOM     19  C   UNL     1     -33.096 -46.277  -7.102  1.00  0.00     0.000 C 
BRANCH  19  20
ATOM     20  C   UNL     1     -33.276 -47.286  -5.957  1.00  0.00     0.000 C 
BRANCH  20  21
ATOM     21  C   UNL     1     -31.946 -47.978  -5.621  1.00  0.00     0.000 C 
BRANCH  21  22
ATOM     22  C   UNL     1     -30.729 -47.079  -5.895  1.00  0.00    -0.000 C 
BRANCH  22  23
ATOM     23  C   UNL     1     -29.499 -47.877  -6.359  1.00  0.00    -0.000 C 
BRANCH  23  24
ATOM     24  C   UNL     1     -29.765 -49.397  -6.410  1.00  0.00    -0.000 C 
BRANCH  24  25
ATOM     25  C   UNL     1     -29.752 -49.984  -7.833  1.00  0.00    -0.000 C 
BRANCH  25  26
ATOM     26  C   UNL     1     -31.128 -50.048  -8.523  1.00  0.00    -0.000 C 
BRANCH  26  27
ATOM     27  C   UNL     1     -31.432 -48.887  -9.494  1.00  0.00    -0.000 C 
BRANCH  27  28
ATOM     28  C   UNL     1     -32.415 -49.225 -10.630  1.00  0.00    -0.000 C 
BRANCH  28  29
ATOM     29  C   UNL     1     -33.717 -48.413 -10.556  1.00  0.00    -0.003 C 
ATOM     30  C   UNL     1     -34.731 -49.082  -9.631  1.00  0.00     0.004 C 
ENDBRANCH  28  29
ENDBRANCH  27  28
ENDBRANCH  26  27
ENDBRANCH  25  26
ENDBRANCH  24  25
ENDBRANCH  23  24
ENDBRANCH  22  23
ENDBRANCH  21  22
ENDBRANCH  20  21
ENDBRANCH  19  20
ENDBRANCH  18  19
ENDBRANCH  17  18
ENDBRANCH   1  17
TORSDOF 26
ENDMDL
MODEL 7
REMARK VINA RESULT:    -3.920      3.225      8.928
REMARK INTER + INTRA:         -13.459
REMARK INTER:                  -9.963
REMARK INTRA:                  -3.496
REMARK UNBOUND:                -3.581
REMARK SMILES CCCCCCCCCCCCCCCCCCCCCCCCCCCC(=O)[O-]
REMARK SMILES IDX 15 1 16 2 17 3 18 4 19 5 20 6 21 7 22 8 23 9 24 10 25 11
REMARK SMILES IDX 26 12 27 13 28 14 29 15 30 16 14 17 13 18 12 19 11 20 10 21
REMARK SMILES IDX 9 22 8 23 7 24 6 25 5 26 4 27 3 28 2 29 1 30
REMARK H PARENT
REMARK Flexibility Score: inf
ROOT
ATOM      1  C   UNL     1     -34.441 -44.251  -8.902  1.00  0.00     0.000 C 
ENDROOT
BRANCH   1   2
ATOM      2  C   UNL     1     -33.958 -44.476  -7.456  1.00  0.00     0.000 C 
BRANCH   2   3
ATOM      3  C   UNL     1     -33.496 -45.922  -7.176  1.00  0.00     0.000 C 
BRANCH   3   4
ATOM      4  C   UNL     1     -33.866 -46.381  -5.753  1.00  0.00     0.000 C 
BRANCH   4   5
ATOM      5  C   UNL     1     -33.464 -47.842  -5.469  1.00  0.00     0.000 C 
BRANCH   5   6
ATOM      6  C   UNL     1     -34.558 -48.874  -5.804  1.00  0.00     0.000 C 
BRANCH   6   7
ATOM      7  C   UNL     1     -34.144 -49.982  -6.789  1.00  0.00     0.000 C 
BRANCH   7   8
ATOM      8  C   UNL     1     -34.815 -49.907  -8.172  1.00  0.00     0.000 C 
BRANCH   8   9
ATOM      9  C   UNL     1     -34.135 -48.898  -9.109  1.00  0.00     0.000 C 
BRANCH   9  10
ATOM     10  C   UNL     1     -33.106 -49.554 -10.045  1.00  0.00     0.000 C 
BRANCH  10  11
ATOM     11  C   UNL     1     -31.716 -48.883 -10.006  1.00  0.00     0.000 C 
BRANCH  11  12
ATOM     12  C   UNL     1     -31.406 -48.268  -8.633  1.00  0.00     0.006 C 
BRANCH  12  13
ATOM     13  C   UNL     1     -30.569 -49.227  -7.774  1.00  0.00     0.053 C 
BRANCH  13  14
ATOM     14  C   UNL     1     -29.823 -48.518  -6.681  1.00  0.00     0.041 C 
ATOM     15  O   UNL     1     -28.922 -49.106  -6.020  1.00  0.00    -0.550 OA
ATOM     16  O   UNL     1     -30.183 -47.218  -6.342  1.00  0.00    -0.550 OA
ENDBRANCH  13  14
ENDBRANCH  12  13
ENDBRANCH  11  12
ENDBRANCH  10  11
ENDBRANCH   9  10
ENDBRANCH   8   9
ENDBRANCH   7   8
ENDBRANCH   6   7
ENDBRANCH   5   6
ENDBRANCH   4   5
ENDBRANCH   3   4
ENDBRANCH   2   3
ENDBRANCH   1   2
BRANCH   1  17
ATOM     17  C   UNL     1     -34.138 -45.407  -9.872  1.00  0.00     0.000 C 
BRANCH  17  18
ATOM     18  C   UNL     1     -35.040 -45.394 -11.118  1.00  0.00     0.000 C 
BRANCH  18  19
ATOM     19  C   UNL     1     -35.747 -46.741 -11.346  1.00  0.00     0.000 C 
BRANCH  19  20
ATOM     20  C   UNL     1     -36.239 -46.918 -12.791  1.00  0.00     0.000 C 
BRANCH  20  21
ATOM     21  C   UNL     1     -36.148 -45.595 -13.567  1.00  0.00     0.000 C 
BRANCH  21  22
ATOM     22  C   UNL     1     -36.812 -45.677 -14.951  1.00  0.00    -0.000 C 
BRANCH  22  23
ATOM     23  C   UNL     1     -35.786 -45.768 -16.093  1.00  0.00    -0.000 C 
BRANCH  23  24
ATOM     24  C   UNL     1     -36.429 -45.582 -17.484  1.00  0.00    -0.000 C 
BRANCH  24  25
ATOM     25  C   UNL     1     -37.185 -46.823 -17.992  1.00  0.00    -0.000 C 
BRANCH  25  26
ATOM     26  C   UNL     1     -36.318 -47.851 -18.744  1.00  0.00    -0.000 C 
BRANCH  26  27
ATOM     27  C   UNL     1     -35.696 -48.957 -17.864  1.00  0.00    -0.000 C 
BRANCH  27  28
ATOM     28  C   UNL     1     -34.158 -49.012 -17.873  1.00  0.00    -0.000 C 
BRANCH  28  29
ATOM     29  C   UNL     1     -33.543 -48.785 -16.484  1.00  0.00    -0.003 C 
ATOM     30  C   UNL     1     -34.541 -49.118 -15.378  1.00  0.00     0.004 C 
ENDBRANCH  28  29
ENDBRANCH  27  28
ENDBRANCH  26  27
ENDBRANCH  25  26
ENDBRANCH  24  25
ENDBRANCH  23  24
ENDBRANCH  22  23
ENDBRANCH  21  22
ENDBRANCH  20  21
ENDBRANCH  19  20
ENDBRANCH  18  19
ENDBRANCH  17  18
ENDBRANCH   1  17
TORSDOF 26
ENDMDL
MODEL 8
REMARK VINA RESULT:    -3.914      2.136      4.535
REMARK INTER + INTRA:         -13.444
REMARK INTER:                  -9.996
REMARK INTRA:                  -3.448
REMARK UNBOUND:                -3.581
REMARK SMILES CCCCCCCCCCCCCCCCCCCCCCCCCCCC(=O)[O-]
REMARK SMILES IDX 15 1 16 2 17 3 18 4 19 5 20 6 21 7 22 8 23 9 24 10 25 11
REMARK SMILES IDX 26 12 27 13 28 14 29 15 30 16 14 17 13 18 12 19 11 20 10 21
REMARK SMILES IDX 9 22 8 23 7 24 6 25 5 26 4 27 3 28 2 29 1 30
REMARK H PARENT
REMARK Flexibility Score: inf
ROOT
ATOM      1  C   UNL     1     -34.984 -49.310 -10.129  1.00  0.00     0.000 C 
ENDROOT
BRANCH   1   2
ATOM      2  C   UNL     1     -36.253 -49.461 -10.991  1.00  0.00     0.000 C 
BRANCH   2   3
ATOM      3  C   UNL     1     -37.517 -48.857 -10.343  1.00  0.00     0.000 C 
BRANCH   3   4
ATOM      4  C   UNL     1     -38.488 -48.284 -11.393  1.00  0.00     0.000 C 
BRANCH   4   5
ATOM      5  C   UNL     1     -38.211 -48.809 -12.816  1.00  0.00     0.000 C 
BRANCH   5   6
ATOM      6  C   UNL     1     -38.120 -47.706 -13.888  1.00  0.00     0.000 C 
BRANCH   6   7
ATOM      7  C   UNL     1     -37.282 -46.474 -13.501  1.00  0.00     0.000 C 
BRANCH   7   8
ATOM      8  C   UNL     1     -35.759 -46.658 -13.628  1.00  0.00     0.000 C 
BRANCH   8   9
ATOM      9  C   UNL     1     -35.375 -47.742 -14.646  1.00  0.00     0.000 C 
BRANCH   9  10
ATOM     10  C   UNL     1     -34.967 -47.161 -16.010  1.00  0.00     0.000 C 
BRANCH  10  11
ATOM     11  C   UNL     1     -35.583 -47.908 -17.212  1.00  0.00     0.000 C 
BRANCH  11  12
ATOM     12  C   UNL     1     -36.716 -47.109 -17.875  1.00  0.00     0.006 C 
BRANCH  12  13
ATOM     13  C   UNL     1     -36.618 -45.617 -17.523  1.00  0.00     0.053 C 
BRANCH  13  14
ATOM     14  C   UNL     1     -37.949 -45.024 -17.158  1.00  0.00     0.041 C 
ATOM     15  O   UNL     1     -38.086 -44.327 -16.114  1.00  0.00    -0.550 OA
ATOM     16  O   UNL     1     -39.061 -45.311 -17.943  1.00  0.00    -0.550 OA
ENDBRANCH  13  14
ENDBRANCH  12  13
ENDBRANCH  11  12
ENDBRANCH  10  11
ENDBRANCH   9  10
ENDBRANCH   8   9
ENDBRANCH   7   8
ENDBRANCH   6   7
ENDBRANCH   5   6
ENDBRANCH   4   5
ENDBRANCH   3   4
ENDBRANCH   2   3
ENDBRANCH   1   2
BRANCH   1  17
ATOM     17  C   UNL     1     -33.926 -48.347 -10.699  1.00  0.00     0.000 C 
BRANCH  17  18
ATOM     18  C   UNL     1     -32.520 -48.968 -10.752  1.00  0.00     0.000 C 
BRANCH  18  19
ATOM     19  C   UNL     1     -31.584 -48.396  -9.673  1.00  0.00     0.000 C 
BRANCH  19  20
ATOM     20  C   UNL     1     -31.218 -49.428  -8.595  1.00  0.00     0.000 C 
BRANCH  20  21
ATOM     21  C   UNL     1     -29.834 -49.131  -7.999  1.00  0.00     0.000 C 
BRANCH  21  22
ATOM     22  C   UNL     1     -29.902 -48.757  -6.509  1.00  0.00    -0.000 C 
BRANCH  22  23
ATOM     23  C   UNL     1     -30.796 -47.534  -6.248  1.00  0.00    -0.000 C 
BRANCH  23  24
ATOM     24  C   UNL     1     -32.063 -47.887  -5.439  1.00  0.00    -0.000 C 
BRANCH  24  25
ATOM     25  C   UNL     1     -33.327 -47.140  -5.905  1.00  0.00    -0.000 C 
BRANCH  25  26
ATOM     26  C   UNL     1     -33.095 -46.100  -7.017  1.00  0.00    -0.000 C 
BRANCH  26  27
ATOM     27  C   UNL     1     -33.875 -44.778  -6.854  1.00  0.00    -0.000 C 
BRANCH  27  28
ATOM     28  C   UNL     1     -34.146 -44.012  -8.162  1.00  0.00    -0.000 C 
BRANCH  28  29
ATOM     29  C   UNL     1     -34.543 -44.935  -9.324  1.00  0.00    -0.003 C 
ATOM     30  C   UNL     1     -34.302 -44.260 -10.672  1.00  0.00     0.004 C 
ENDBRANCH  28  29
ENDBRANCH  27  28
ENDBRANCH  26  27
ENDBRANCH  25  26
ENDBRANCH  24  25
ENDBRANCH  23  24
ENDBRANCH  22  23
ENDBRANCH  21  22
ENDBRANCH  20  21
ENDBRANCH  19  20
ENDBRANCH  18  19
ENDBRANCH  17  18
ENDBRANCH   1  17
TORSDOF 26
ENDMDL
MODEL 9
REMARK VINA RESULT:    -3.840      2.177      4.820
REMARK INTER + INTRA:         -13.259
REMARK INTER:                 -10.049
REMARK INTRA:                  -3.210
REMARK UNBOUND:                -3.581
REMARK SMILES CCCCCCCCCCCCCCCCCCCCCCCCCCCC(=O)[O-]
REMARK SMILES IDX 15 1 16 2 17 3 18 4 19 5 20 6 21 7 22 8 23 9 24 10 25 11
REMARK SMILES IDX 26 12 27 13 28 14 29 15 30 16 14 17 13 18 12 19 11 20 10 21
REMARK SMILES IDX 9 22 8 23 7 24 6 25 5 26 4 27 3 28 2 29 1 30
REMARK H PARENT
REMARK Flexibility Score: inf
ROOT
ATOM      1  C   UNL     1     -35.375 -46.803 -13.088  1.00  0.00     0.000 C 
ENDROOT
BRANCH   1   2
ATOM      2  C   UNL     1     -35.932 -45.623 -13.908  1.00  0.00     0.000 C 
BRANCH   2   3
ATOM      3  C   UNL     1     -37.441 -45.740 -14.214  1.00  0.00     0.000 C 
BRANCH   3   4
ATOM      4  C   UNL     1     -37.736 -45.620 -15.722  1.00  0.00     0.000 C 
BRANCH   4   5
ATOM      5  C   UNL     1     -36.490 -45.249 -16.550  1.00  0.00     0.000 C 
BRANCH   5   6
ATOM      6  C   UNL     1     -36.180 -46.229 -17.698  1.00  0.00     0.000 C 
BRANCH   6   7
ATOM      7  C   UNL     1     -35.690 -47.622 -17.264  1.00  0.00     0.000 C 
BRANCH   7   8
ATOM      8  C   UNL     1     -34.251 -47.665 -16.719  1.00  0.00     0.000 C 
BRANCH   8   9
ATOM      9  C   UNL     1     -33.914 -48.997 -16.034  1.00  0.00     0.000 C 
BRANCH   9  10
ATOM     10  C   UNL     1     -32.777 -49.757 -16.736  1.00  0.00     0.000 C 
BRANCH  10  11
ATOM     11  C   UNL     1     -32.955 -49.864 -18.266  1.00  0.00     0.000 C 
BRANCH  11  12
ATOM     12  C   UNL     1     -31.631 -49.660 -19.021  1.00  0.00     0.006 C 
BRANCH  12  13
ATOM     13  C   UNL     1     -30.745 -48.626 -18.312  1.00  0.00     0.053 C 
BRANCH  13  14
ATOM     14  C   UNL     1     -29.444 -48.399 -19.027  1.00  0.00     0.041 C 
ATOM     15  O   UNL     1     -28.492 -49.223 -18.923  1.00  0.00    -0.550 OA
ATOM     16  O   UNL     1     -29.259 -47.226 -19.752  1.00  0.00    -0.550 OA
ENDBRANCH  13  14
ENDBRANCH  12  13
ENDBRANCH  11  12
ENDBRANCH  10  11
ENDBRANCH   9  10
ENDBRANCH   8   9
ENDBRANCH   7   8
ENDBRANCH   6   7
ENDBRANCH   5   6
ENDBRANCH   4   5
ENDBRANCH   3   4
ENDBRANCH   2   3
ENDBRANCH   1   2
BRANCH   1  17
ATOM     17  C   UNL     1     -36.388 -47.925 -12.800  1.00  0.00     0.000 C 
BRANCH  17  18
ATOM     18  C   UNL     1     -35.741 -49.319 -12.758  1.00  0.00     0.000 C 
BRANCH  18  19
ATOM     19  C   UNL     1     -34.632 -49.421 -11.696  1.00  0.00     0.000 C 
BRANCH  19  20
ATOM     20  C   UNL     1     -35.172 -49.318 -10.261  1.00  0.00     0.000 C 
BRANCH  20  21
ATOM     21  C   UNL     1     -34.093 -48.788  -9.305  1.00  0.00     0.000 C 
BRANCH  21  22
ATOM     22  C   UNL     1     -33.139 -47.793  -9.987  1.00  0.00    -0.000 C 
BRANCH  22  23
ATOM     23  C   UNL     1     -31.673 -48.251  -9.935  1.00  0.00    -0.000 C 
BRANCH  23  24
ATOM     24  C   UNL     1     -31.395 -49.217  -8.763  1.00  0.00    -0.000 C 
BRANCH  24  25
ATOM     25  C   UNL     1     -30.012 -49.026  -8.114  1.00  0.00    -0.000 C 
BRANCH  25  26
ATOM     26  C   UNL     1     -30.041 -48.631  -6.625  1.00  0.00    -0.000 C 
BRANCH  26  27
ATOM     27  C   UNL     1     -30.994 -47.470  -6.270  1.00  0.00    -0.000 C 
BRANCH  27  28
ATOM     28  C   UNL     1     -32.260 -47.875  -5.494  1.00  0.00    -0.000 C 
BRANCH  28  29
ATOM     29  C   UNL     1     -33.499 -47.069  -5.908  1.00  0.00    -0.003 C 
ATOM     30  C   UNL     1     -34.488 -46.942  -4.751  1.00  0.00     0.004 C 
ENDBRANCH  28  29
ENDBRANCH  27  28
ENDBRANCH  26  27
ENDBRANCH  25  26
ENDBRANCH  24  25
ENDBRANCH  23  24
ENDBRANCH  22  23
ENDBRANCH  21  22
ENDBRANCH  20  21
ENDBRANCH  19  20
ENDBRANCH  18  19
ENDBRANCH  17  18
ENDBRANCH   1  17
TORSDOF 26
ENDMDL
