MODEL 1
REMARK VINA RESULT:    -3.808      0.000      0.000
REMARK INTER + INTRA:          -8.841
REMARK INTER:                  -6.924
REMARK INTRA:                  -1.917
REMARK UNBOUND:                -1.917
REMARK SMILES CCCCCCCCCCCCCCCC(=O)[O-]
REMARK SMILES IDX 9 1 10 2 11 3 12 4 13 5 14 6 15 7 16 8 17 9 18 10 8 11 7 12
REMARK SMILES IDX 6 13 5 14 4 15 3 16 2 17 1 18
REMARK H PARENT
REMARK Flexibility Score: inf
ROOT
ATOM      1  C   UNL     1     162.885 164.056 187.944  1.00  0.00     0.000 C 
ENDROOT
BRANCH   1   2
ATOM      2  C   UNL     1     161.957 163.762 189.133  1.00  0.00     0.000 C 
BRANCH   2   3
ATOM      3  C   UNL     1     160.480 163.636 188.717  1.00  0.00     0.000 C 
BRANCH   3   4
ATOM      4  C   UNL     1     159.877 162.273 189.088  1.00  0.00     0.000 C 
BRANCH   4   5
ATOM      5  C   UNL     1     160.150 161.196 188.028  1.00  0.00     0.000 C 
BRANCH   5   6
ATOM      6  C   UNL     1     160.006 161.770 186.612  1.00  0.00     0.006 C 
BRANCH   6   7
ATOM      7  C   UNL     1     160.433 160.769 185.531  1.00  0.00     0.053 C 
BRANCH   7   8
ATOM      8  C   UNL     1     161.737 161.151 184.902  1.00  0.00     0.041 C 
ATOM      9  O   UNL     1     162.638 160.287 184.735  1.00  0.00    -0.550 OA
ATOM     10  O   UNL     1     161.972 162.468 184.530  1.00  0.00    -0.550 OA
ENDBRANCH   7   8
ENDBRANCH   6   7
ENDBRANCH   5   6
ENDBRANCH   4   5
ENDBRANCH   3   4
ENDBRANCH   2   3
ENDBRANCH   1   2
BRANCH   1  11
ATOM     11  C   UNL     1     163.764 162.850 187.569  1.00  0.00     0.000 C 
BRANCH  11  12
ATOM     12  C   UNL     1     163.582 161.669 188.536  1.00  0.00    -0.000 C 
BRANCH  12  13
ATOM     13  C   UNL     1     164.296 160.393 188.056  1.00  0.00    -0.000 C 
BRANCH  13  14
ATOM     14  C   UNL     1     165.785 160.362 188.443  1.00  0.00    -0.000 C 
BRANCH  14  15
ATOM     15  C   UNL     1     166.073 160.587 189.942  1.00  0.00    -0.000 C 
BRANCH  15  16
ATOM     16  C   UNL     1     166.608 161.984 190.301  1.00  0.00    -0.000 C 
BRANCH  16  17
ATOM     17  C   UNL     1     167.196 162.727 189.092  1.00  0.00    -0.003 C 
ATOM     18  C   UNL     1     167.635 164.137 189.473  1.00  0.00     0.004 C 
ENDBRANCH  16  17
ENDBRANCH  15  16
ENDBRANCH  14  15
ENDBRANCH  13  14
ENDBRANCH  12  13
ENDBRANCH  11  12
ENDBRANCH   1  11
TORSDOF 14
ENDMDL
MODEL 2
REMARK VINA RESULT:    -3.737      1.224      1.673
REMARK INTER + INTRA:          -8.713
REMARK INTER:                  -6.822
REMARK INTRA:                  -1.891
REMARK UNBOUND:                -1.917
REMARK SMILES CCCCCCCCCCCCCCCC(=O)[O-]
REMARK SMILES IDX 9 1 10 2 11 3 12 4 13 5 14 6 15 7 16 8 17 9 18 10 8 11 7 12
REMARK SMILES IDX 6 13 5 14 4 15 3 16 2 17 1 18
REMARK H PARENT
REMARK Flexibility Score: inf
ROOT
ATOM      1  C   UNL     1     162.445 163.781 188.775  1.00  0.00     0.000 C 
ENDROOT
BRANCH   1   2
ATOM      2  C   UNL     1     160.958 163.399 188.850  1.00  0.00     0.000 C 
BRANCH   2   3
ATOM      3  C   UNL     1     160.104 164.130 187.797  1.00  0.00     0.000 C 
BRANCH   3   4
ATOM      4  C   UNL     1     159.877 163.287 186.533  1.00  0.00     0.000 C 
BRANCH   4   5
ATOM      5  C   UNL     1     160.520 163.908 185.284  1.00  0.00     0.000 C 
BRANCH   5   6
ATOM      6  C   UNL     1     161.801 163.157 184.894  1.00  0.00     0.006 C 
BRANCH   6   7
ATOM      7  C   UNL     1     161.581 161.642 184.800  1.00  0.00     0.053 C 
BRANCH   7   8
ATOM      8  C   UNL     1     162.789 160.937 184.265  1.00  0.00     0.041 C 
ATOM      9  O   UNL     1     163.584 160.358 185.051  1.00  0.00    -0.550 OA
ATOM     10  O   UNL     1     163.056 160.948 182.902  1.00  0.00    -0.550 OA
ENDBRANCH   7   8
ENDBRANCH   6   7
ENDBRANCH   5   6
ENDBRANCH   4   5
ENDBRANCH   3   4
ENDBRANCH   2   3
ENDBRANCH   1   2
BRANCH   1  11
ATOM     11  C   UNL     1     163.302 162.687 188.114  1.00  0.00     0.000 C 
BRANCH  11  12
ATOM     12  C   UNL     1     162.721 161.280 188.323  1.00  0.00    -0.000 C 
BRANCH  12  13
ATOM     13  C   UNL     1     163.800 160.237 188.664  1.00  0.00    -0.000 C 
BRANCH  13  14
ATOM     14  C   UNL     1     165.221 160.824 188.652  1.00  0.00    -0.000 C 
BRANCH  14  15
ATOM     15  C   UNL     1     166.075 160.490 189.893  1.00  0.00    -0.000 C 
BRANCH  15  16
ATOM     16  C   UNL     1     166.742 161.699 190.570  1.00  0.00    -0.000 C 
BRANCH  16  17
ATOM     17  C   UNL     1     166.238 163.043 190.023  1.00  0.00    -0.003 C 
ATOM     18  C   UNL     1     167.357 163.804 189.318  1.00  0.00     0.004 C 
ENDBRANCH  16  17
ENDBRANCH  15  16
ENDBRANCH  14  15
ENDBRANCH  13  14
ENDBRANCH  12  13
ENDBRANCH  11  12
ENDBRANCH   1  11
TORSDOF 14
ENDMDL
MODEL 3
REMARK VINA RESULT:    -3.700     11.223     13.563
REMARK INTER + INTRA:          -8.645
REMARK INTER:                  -6.751
REMARK INTRA:                  -1.894
REMARK UNBOUND:                -1.917
REMARK SMILES CCCCCCCCCCCCCCCC(=O)[O-]
REMARK SMILES IDX 9 1 10 2 11 3 12 4 13 5 14 6 15 7 16 8 17 9 18 10 8 11 7 12
REMARK SMILES IDX 6 13 5 14 4 15 3 16 2 17 1 18
REMARK H PARENT
REMARK Flexibility Score: inf
ROOT
ATOM      1  C   UNL     1     173.711 162.339 186.291  1.00  0.00     0.000 C 
ENDROOT
BRANCH   1   2
ATOM      2  C   UNL     1     173.219 161.760 184.955  1.00  0.00     0.000 C 
BRANCH   2   3
ATOM      3  C   UNL     1     173.699 160.315 184.722  1.00  0.00     0.000 C 
BRANCH   3   4
ATOM      4  C   UNL     1     175.204 160.145 184.983  1.00  0.00     0.000 C 
BRANCH   4   5
ATOM      5  C   UNL     1     176.060 160.485 183.754  1.00  0.00     0.000 C 
BRANCH   5   6
ATOM      6  C   UNL     1     176.772 161.833 183.936  1.00  0.00     0.006 C 
BRANCH   6   7
ATOM      7  C   UNL     1     177.673 162.181 182.745  1.00  0.00     0.053 C 
BRANCH   7   8
ATOM      8  C   UNL     1     178.710 161.128 182.505  1.00  0.00     0.041 C 
ATOM      9  O   UNL     1     178.632 160.381 181.494  1.00  0.00    -0.550 OA
ATOM     10  O   UNL     1     179.744 160.949 183.414  1.00  0.00    -0.550 OA
ENDBRANCH   7   8
ENDBRANCH   6   7
ENDBRANCH   5   6
ENDBRANCH   4   5
ENDBRANCH   3   4
ENDBRANCH   2   3
ENDBRANCH   1   2
BRANCH   1  11
ATOM     11  C   UNL     1     173.057 161.657 187.506  1.00  0.00     0.000 C 
BRANCH  11  12
ATOM     12  C   UNL     1     174.008 161.561 188.709  1.00  0.00    -0.000 C 
BRANCH  12  13
ATOM     13  C   UNL     1     175.181 160.595 188.463  1.00  0.00    -0.000 C 
BRANCH  13  14
ATOM     14  C   UNL     1     176.551 161.241 188.735  1.00  0.00    -0.000 C 
BRANCH  14  15
ATOM     15  C   UNL     1     176.967 162.334 187.729  1.00  0.00    -0.000 C 
BRANCH  15  16
ATOM     16  C   UNL     1     176.990 163.765 188.293  1.00  0.00    -0.000 C 
BRANCH  16  17
ATOM     17  C   UNL     1     176.930 163.802 189.827  1.00  0.00    -0.003 C 
ATOM     18  C   UNL     1     175.665 164.505 190.311  1.00  0.00     0.004 C 
ENDBRANCH  16  17
ENDBRANCH  15  16
ENDBRANCH  14  15
ENDBRANCH  13  14
ENDBRANCH  12  13
ENDBRANCH  11  12
ENDBRANCH   1  11
TORSDOF 14
ENDMDL
MODEL 4
REMARK VINA RESULT:    -3.699      2.482      6.280
REMARK INTER + INTRA:          -8.644
REMARK INTER:                  -6.955
REMARK INTRA:                  -1.689
REMARK UNBOUND:                -1.917
REMARK SMILES CCCCCCCCCCCCCCCC(=O)[O-]
REMARK SMILES IDX 9 1 10 2 11 3 12 4 13 5 14 6 15 7 16 8 17 9 18 10 8 11 7 12
REMARK SMILES IDX 6 13 5 14 4 15 3 16 2 17 1 18
REMARK H PARENT
REMARK Flexibility Score: inf
ROOT
ATOM      1  C   UNL     1     163.492 162.552 188.428  1.00  0.00     0.000 C 
ENDROOT
BRANCH   1   2
ATOM      2  C   UNL     1     163.129 161.058 188.429  1.00  0.00     0.000 C 
BRANCH   2   3
ATOM      3  C   UNL     1     164.369 160.145 188.448  1.00  0.00     0.000 C 
BRANCH   3   4
ATOM      4  C   UNL     1     164.969 159.996 189.854  1.00  0.00     0.000 C 
BRANCH   4   5
ATOM      5  C   UNL     1     166.449 160.405 189.912  1.00  0.00     0.000 C 
BRANCH   5   6
ATOM      6  C   UNL     1     166.923 160.947 188.556  1.00  0.00     0.006 C 
BRANCH   6   7
ATOM      7  C   UNL     1     168.167 160.214 188.039  1.00  0.00     0.053 C 
BRANCH   7   8
ATOM      8  C   UNL     1     168.298 160.322 186.550  1.00  0.00     0.041 C 
ATOM      9  O   UNL     1     167.275 160.493 185.835  1.00  0.00    -0.550 OA
ATOM     10  O   UNL     1     169.544 160.199 185.950  1.00  0.00    -0.550 OA
ENDBRANCH   7   8
ENDBRANCH   6   7
ENDBRANCH   5   6
ENDBRANCH   4   5
ENDBRANCH   3   4
ENDBRANCH   2   3
ENDBRANCH   1   2
BRANCH   1  11
ATOM     11  C   UNL     1     162.287 163.452 188.751  1.00  0.00     0.000 C 
BRANCH  11  12
ATOM     12  C   UNL     1     160.997 162.647 188.975  1.00  0.00    -0.000 C 
BRANCH  12  13
ATOM     13  C   UNL     1     159.879 163.030 187.990  1.00  0.00    -0.000 C 
BRANCH  13  14
ATOM     14  C   UNL     1     160.126 164.387 187.307  1.00  0.00    -0.000 C 
BRANCH  14  15
ATOM     15  C   UNL     1     160.147 164.345 185.765  1.00  0.00    -0.000 C 
BRANCH  15  16
ATOM     16  C   UNL     1     160.066 162.938 185.148  1.00  0.00    -0.000 C 
BRANCH  16  17
ATOM     17  C   UNL     1     161.445 162.364 184.790  1.00  0.00    -0.003 C 
ATOM     18  C   UNL     1     161.546 160.893 185.182  1.00  0.00     0.004 C 
ENDBRANCH  16  17
ENDBRANCH  15  16
ENDBRANCH  14  15
ENDBRANCH  13  14
ENDBRANCH  12  13
ENDBRANCH  11  12
ENDBRANCH   1  11
TORSDOF 14
ENDMDL
MODEL 5
REMARK VINA RESULT:    -3.659      2.778      6.487
REMARK INTER + INTRA:          -8.572
REMARK INTER:                  -6.622
REMARK INTRA:                  -1.950
REMARK UNBOUND:                -1.917
REMARK SMILES CCCCCCCCCCCCCCCC(=O)[O-]
REMARK SMILES IDX 9 1 10 2 11 3 12 4 13 5 14 6 15 7 16 8 17 9 18 10 8 11 7 12
REMARK SMILES IDX 6 13 5 14 4 15 3 16 2 17 1 18
REMARK H PARENT
REMARK Flexibility Score: inf
ROOT
ATOM      1  C   UNL     1     162.858 161.200 188.364  1.00  0.00     0.000 C 
ENDROOT
BRANCH   1   2
ATOM      2  C   UNL     1     163.990 160.168 188.482  1.00  0.00     0.000 C 
BRANCH   2   3
ATOM      3  C   UNL     1     165.217 160.531 187.625  1.00  0.00     0.000 C 
BRANCH   3   4
ATOM      4  C   UNL     1     166.526 160.505 188.428  1.00  0.00     0.000 C 
BRANCH   4   5
ATOM      5  C   UNL     1     166.292 160.583 189.944  1.00  0.00     0.000 C 
BRANCH   5   6
ATOM      6  C   UNL     1     166.584 161.995 190.473  1.00  0.00     0.006 C 
BRANCH   6   7
ATOM      7  C   UNL     1     167.459 162.807 189.510  1.00  0.00     0.053 C 
BRANCH   7   8
ATOM      8  C   UNL     1     167.244 164.281 189.672  1.00  0.00     0.041 C 
ATOM      9  O   UNL     1     166.165 164.809 189.294  1.00  0.00    -0.550 OA
ATOM     10  O   UNL     1     168.248 165.076 190.208  1.00  0.00    -0.550 OA
ENDBRANCH   7   8
ENDBRANCH   6   7
ENDBRANCH   5   6
ENDBRANCH   4   5
ENDBRANCH   3   4
ENDBRANCH   2   3
ENDBRANCH   1   2
BRANCH   1  11
ATOM     11  C   UNL     1     163.380 162.648 188.345  1.00  0.00     0.000 C 
BRANCH  11  12
ATOM     12  C   UNL     1     162.359 163.648 188.910  1.00  0.00    -0.000 C 
BRANCH  12  13
ATOM     13  C   UNL     1     160.979 163.013 189.155  1.00  0.00    -0.000 C 
BRANCH  13  14
ATOM     14  C   UNL     1     159.875 163.633 188.281  1.00  0.00    -0.000 C 
BRANCH  14  15
ATOM     15  C   UNL     1     160.317 164.028 186.857  1.00  0.00    -0.000 C 
BRANCH  15  16
ATOM     16  C   UNL     1     160.500 162.853 185.881  1.00  0.00    -0.000 C 
BRANCH  16  17
ATOM     17  C   UNL     1     161.866 162.869 185.179  1.00  0.00    -0.003 C 
ATOM     18  C   UNL     1     162.231 161.483 184.656  1.00  0.00     0.004 C 
ENDBRANCH  16  17
ENDBRANCH  15  16
ENDBRANCH  14  15
ENDBRANCH  13  14
ENDBRANCH  12  13
ENDBRANCH  11  12
ENDBRANCH   1  11
TORSDOF 14
ENDMDL
MODEL 6
REMARK VINA RESULT:    -3.628      1.412      2.424
REMARK INTER + INTRA:          -8.515
REMARK INTER:                  -6.995
REMARK INTRA:                  -1.520
REMARK UNBOUND:                -1.917
REMARK SMILES CCCCCCCCCCCCCCCC(=O)[O-]
REMARK SMILES IDX 9 1 10 2 11 3 12 4 13 5 14 6 15 7 16 8 17 9 18 10 8 11 7 12
REMARK SMILES IDX 6 13 5 14 4 15 3 16 2 17 1 18
REMARK H PARENT
REMARK Flexibility Score: inf
ROOT
ATOM      1  C   UNL     1     161.113 163.663 188.920  1.00  0.00     0.000 C 
ENDROOT
BRANCH   1   2
ATOM      2  C   UNL     1     160.381 164.590 187.936  1.00  0.00     0.000 C 
BRANCH   2   3
ATOM      3  C   UNL     1     161.146 164.772 186.611  1.00  0.00     0.000 C 
BRANCH   3   4
ATOM      4  C   UNL     1     160.278 164.463 185.382  1.00  0.00     0.000 C 
BRANCH   4   5
ATOM      5  C   UNL     1     159.876 162.983 185.298  1.00  0.00     0.000 C 
BRANCH   5   6
ATOM      6  C   UNL     1     160.362 162.355 183.985  1.00  0.00     0.006 C 
BRANCH   6   7
ATOM      7  C   UNL     1     161.886 162.434 183.831  1.00  0.00     0.053 C 
BRANCH   7   8
ATOM      8  C   UNL     1     162.564 161.209 184.364  1.00  0.00     0.041 C 
ATOM      9  O   UNL     1     161.880 160.253 184.817  1.00  0.00    -0.550 OA
ATOM     10  O   UNL     1     163.950 161.137 184.393  1.00  0.00    -0.550 OA
ENDBRANCH   7   8
ENDBRANCH   6   7
ENDBRANCH   5   6
ENDBRANCH   4   5
ENDBRANCH   3   4
ENDBRANCH   2   3
ENDBRANCH   1   2
BRANCH   1  11
ATOM     11  C   UNL     1     160.507 162.249 188.959  1.00  0.00     0.000 C 
BRANCH  11  12
ATOM     12  C   UNL     1     161.324 161.237 188.140  1.00  0.00    -0.000 C 
BRANCH  12  13
ATOM     13  C   UNL     1     162.823 161.581 188.097  1.00  0.00    -0.000 C 
BRANCH  13  14
ATOM     14  C   UNL     1     163.707 160.468 188.686  1.00  0.00    -0.000 C 
BRANCH  14  15
ATOM     15  C   UNL     1     165.226 160.702 188.550  1.00  0.00    -0.000 C 
BRANCH  15  16
ATOM     16  C   UNL     1     166.042 160.446 189.828  1.00  0.00    -0.000 C 
BRANCH  16  17
ATOM     17  C   UNL     1     166.665 161.727 190.404  1.00  0.00    -0.003 C 
ATOM     18  C   UNL     1     166.033 162.971 189.788  1.00  0.00     0.004 C 
ENDBRANCH  16  17
ENDBRANCH  15  16
ENDBRANCH  14  15
ENDBRANCH  13  14
ENDBRANCH  12  13
ENDBRANCH  11  12
ENDBRANCH   1  11
TORSDOF 14
ENDMDL
MODEL 7
REMARK VINA RESULT:    -3.546      3.071      6.217
REMARK INTER + INTRA:          -8.365
REMARK INTER:                  -6.561
REMARK INTRA:                  -1.804
REMARK UNBOUND:                -1.917
REMARK SMILES CCCCCCCCCCCCCCCC(=O)[O-]
REMARK SMILES IDX 9 1 10 2 11 3 12 4 13 5 14 6 15 7 16 8 17 9 18 10 8 11 7 12
REMARK SMILES IDX 6 13 5 14 4 15 3 16 2 17 1 18
REMARK H PARENT
REMARK Flexibility Score: inf
ROOT
ATOM      1  C   UNL     1     162.760 161.450 188.071  1.00  0.00     0.000 C 
ENDROOT
BRANCH   1   2
ATOM      2  C   UNL     1     163.733 160.346 188.515  1.00  0.00     0.000 C 
BRANCH   2   3
ATOM      3  C   UNL     1     164.955 160.224 187.585  1.00  0.00     0.000 C 
BRANCH   3   4
ATOM      4  C   UNL     1     166.160 161.035 188.086  1.00  0.00     0.000 C 
BRANCH   4   5
ATOM      5  C   UNL     1     166.694 160.530 189.435  1.00  0.00     0.000 C 
BRANCH   5   6
ATOM      6  C   UNL     1     166.608 161.627 190.505  1.00  0.00     0.006 C 
BRANCH   6   7
ATOM      7  C   UNL     1     166.106 162.959 189.934  1.00  0.00     0.053 C 
BRANCH   7   8
ATOM      8  C   UNL     1     167.155 164.025 190.005  1.00  0.00     0.041 C 
ATOM      9  O   UNL     1     166.966 165.055 190.704  1.00  0.00    -0.550 OA
ATOM     10  O   UNL     1     168.328 163.898 189.271  1.00  0.00    -0.550 OA
ENDBRANCH   7   8
ENDBRANCH   6   7
ENDBRANCH   5   6
ENDBRANCH   4   5
ENDBRANCH   3   4
ENDBRANCH   2   3
ENDBRANCH   1   2
BRANCH   1  11
ATOM     11  C   UNL     1     161.420 161.392 188.826  1.00  0.00     0.000 C 
BRANCH  11  12
ATOM     12  C   UNL     1     160.292 162.117 188.075  1.00  0.00    -0.000 C 
BRANCH  12  13
ATOM     13  C   UNL     1     159.876 163.433 188.756  1.00  0.00    -0.000 C 
BRANCH  13  14
ATOM     14  C   UNL     1     159.950 164.643 187.809  1.00  0.00    -0.000 C 
BRANCH  14  15
ATOM     15  C   UNL     1     161.152 164.641 186.842  1.00  0.00    -0.000 C 
BRANCH  15  16
ATOM     16  C   UNL     1     162.256 165.660 187.172  1.00  0.00    -0.000 C 
BRANCH  16  17
ATOM     17  C   UNL     1     163.458 165.027 187.889  1.00  0.00    -0.003 C 
ATOM     18  C   UNL     1     164.440 164.425 186.888  1.00  0.00     0.004 C 
ENDBRANCH  16  17
ENDBRANCH  15  16
ENDBRANCH  14  15
ENDBRANCH  13  14
ENDBRANCH  12  13
ENDBRANCH  11  12
ENDBRANCH   1  11
TORSDOF 14
ENDMDL
MODEL 8
REMARK VINA RESULT:    -3.545      2.015      3.901
REMARK INTER + INTRA:          -8.364
REMARK INTER:                  -6.417
REMARK INTRA:                  -1.947
REMARK UNBOUND:                -1.917
REMARK SMILES CCCCCCCCCCCCCCCC(=O)[O-]
REMARK SMILES IDX 9 1 10 2 11 3 12 4 13 5 14 6 15 7 16 8 17 9 18 10 8 11 7 12
REMARK SMILES IDX 6 13 5 14 4 15 3 16 2 17 1 18
REMARK H PARENT
REMARK Flexibility Score: inf
ROOT
ATOM      1  C   UNL     1     161.097 164.873 185.916  1.00  0.00     0.000 C 
ENDROOT
BRANCH   1   2
ATOM      2  C   UNL     1     159.940 164.128 185.229  1.00  0.00     0.000 C 
BRANCH   2   3
ATOM      3  C   UNL     1     160.420 162.925 184.397  1.00  0.00     0.000 C 
BRANCH   3   4
ATOM      4  C   UNL     1     160.057 161.579 185.043  1.00  0.00     0.000 C 
BRANCH   4   5
ATOM      5  C   UNL     1     161.265 160.638 185.169  1.00  0.00     0.000 C 
BRANCH   5   6
ATOM      6  C   UNL     1     162.520 161.269 184.550  1.00  0.00     0.006 C 
BRANCH   6   7
ATOM      7  C   UNL     1     163.314 160.270 183.700  1.00  0.00     0.053 C 
BRANCH   7   8
ATOM      8  C   UNL     1     163.608 160.811 182.335  1.00  0.00     0.041 C 
ATOM      9  O   UNL     1     163.030 161.854 181.928  1.00  0.00    -0.550 OA
ATOM     10  O   UNL     1     164.495 160.147 181.498  1.00  0.00    -0.550 OA
ENDBRANCH   7   8
ENDBRANCH   6   7
ENDBRANCH   5   6
ENDBRANCH   4   5
ENDBRANCH   3   4
ENDBRANCH   2   3
ENDBRANCH   1   2
BRANCH   1  11
ATOM     11  C   UNL     1     160.878 165.032 187.431  1.00  0.00     0.000 C 
BRANCH  11  12
ATOM     12  C   UNL     1     159.875 164.011 187.989  1.00  0.00    -0.000 C 
BRANCH  12  13
ATOM     13  C   UNL     1     160.411 163.268 189.226  1.00  0.00    -0.000 C 
BRANCH  13  14
ATOM     14  C   UNL     1     161.036 161.906 188.877  1.00  0.00    -0.000 C 
BRANCH  14  15
ATOM     15  C   UNL     1     162.469 161.973 188.308  1.00  0.00    -0.000 C 
BRANCH  15  16
ATOM     16  C   UNL     1     163.281 160.673 188.430  1.00  0.00    -0.000 C 
BRANCH  16  17
ATOM     17  C   UNL     1     164.780 160.879 188.166  1.00  0.00    -0.003 C 
ATOM     18  C   UNL     1     165.316 162.078 188.942  1.00  0.00     0.004 C 
ENDBRANCH  16  17
ENDBRANCH  15  16
ENDBRANCH  14  15
ENDBRANCH  13  14
ENDBRANCH  12  13
ENDBRANCH  11  12
ENDBRANCH   1  11
TORSDOF 14
ENDMDL
MODEL 9
REMARK VINA RESULT:    -3.545      1.569      2.573
REMARK INTER + INTRA:          -8.363
REMARK INTER:                  -6.400
REMARK INTRA:                  -1.963
REMARK UNBOUND:                -1.917
REMARK SMILES CCCCCCCCCCCCCCCC(=O)[O-]
REMARK SMILES IDX 9 1 10 2 11 3 12 4 13 5 14 6 15 7 16 8 17 9 18 10 8 11 7 12
REMARK SMILES IDX 6 13 5 14 4 15 3 16 2 17 1 18
REMARK H PARENT
REMARK Flexibility Score: inf
ROOT
ATOM      1  C   UNL     1     161.687 164.278 187.489  1.00  0.00     0.000 C 
ENDROOT
BRANCH   1   2
ATOM      2  C   UNL     1     160.245 163.792 187.711  1.00  0.00     0.000 C 
BRANCH   2   3
ATOM      3  C   UNL     1     159.875 162.600 186.809  1.00  0.00     0.000 C 
BRANCH   3   4
ATOM      4  C   UNL     1     160.764 162.508 185.560  1.00  0.00     0.000 C 
BRANCH   4   5
ATOM      5  C   UNL     1     161.362 161.107 185.361  1.00  0.00     0.000 C 
BRANCH   5   6
ATOM      6  C   UNL     1     162.805 161.193 184.847  1.00  0.00     0.006 C 
BRANCH   6   7
ATOM      7  C   UNL     1     162.896 160.992 183.329  1.00  0.00     0.053 C 
BRANCH   7   8
ATOM      8  C   UNL     1     163.201 162.273 182.615  1.00  0.00     0.041 C 
ATOM      9  O   UNL     1     164.265 162.900 182.865  1.00  0.00    -0.550 OA
ATOM     10  O   UNL     1     162.296 162.792 181.699  1.00  0.00    -0.550 OA
ENDBRANCH   7   8
ENDBRANCH   6   7
ENDBRANCH   5   6
ENDBRANCH   4   5
ENDBRANCH   3   4
ENDBRANCH   2   3
ENDBRANCH   1   2
BRANCH   1  11
ATOM     11  C   UNL     1     162.637 163.835 188.616  1.00  0.00     0.000 C 
BRANCH  11  12
ATOM     12  C   UNL     1     163.550 162.674 188.192  1.00  0.00    -0.000 C 
BRANCH  12  13
ATOM     13  C   UNL     1     162.959 161.296 188.542  1.00  0.00    -0.000 C 
BRANCH  13  14
ATOM     14  C   UNL     1     164.016 160.179 188.546  1.00  0.00    -0.000 C 
BRANCH  14  15
ATOM     15  C   UNL     1     165.244 160.440 187.650  1.00  0.00    -0.000 C 
BRANCH  15  16
ATOM     16  C   UNL     1     166.577 160.605 188.401  1.00  0.00    -0.000 C 
BRANCH  16  17
ATOM     17  C   UNL     1     166.396 160.690 189.924  1.00  0.00    -0.003 C 
ATOM     18  C   UNL     1     166.607 162.116 190.424  1.00  0.00     0.004 C 
ENDBRANCH  16  17
ENDBRANCH  15  16
ENDBRANCH  14  15
ENDBRANCH  13  14
ENDBRANCH  12  13
ENDBRANCH  11  12
ENDBRANCH   1  11
TORSDOF 14
ENDMDL
