MODEL 1
REMARK VINA RESULT:    -3.768      0.000      0.000
REMARK INTER + INTRA:          -6.604
REMARK INTER:                  -4.980
REMARK INTRA:                  -1.624
REMARK UNBOUND:                -1.624
REMARK SMILES CC[C@@H](C=C[C@H](C)[C@@H]1CC[C@@H]2[C@H]3CC=C4C[C@@H](O)CC[C@]4(C)[C@H]3CC[C@@]21C)C(C)C
REMARK SMILES IDX 6 1 7 2 5 3 4 4 3 5 2 6 1 7 28 8 29 9 30 10 8 11 9 12 26 13
REMARK SMILES IDX 10 14 11 15 25 16 27 17 12 18 24 19 23 20 13 21 21 22 14 23
REMARK SMILES IDX 15 24 20 25 22 26 16 27 19 28 17 29 18 30
REMARK H PARENT 18 31
REMARK Flexibility Score: inf
ROOT
ATOM      1  C   UNL     1      42.670   2.621  -8.647  1.00  0.00     0.012 C 
ATOM      2  C   UNL     1      43.608   1.437  -8.921  1.00  0.00     0.012 C 
ENDROOT
BRANCH   1   3
ATOM      3  C   UNL     1      42.027   2.399  -7.288  1.00  0.00    -0.028 C 
ATOM      4  C   UNL     1      40.747   2.681  -6.979  1.00  0.00    -0.027 C 
BRANCH   4   5
ATOM      5  C   UNL     1      39.745   3.335  -7.922  1.00  0.00     0.014 C 
BRANCH   5   6
ATOM      6  C   UNL     1      38.767   4.297  -7.186  1.00  0.00     0.004 C 
ATOM      7  C   UNL     1      39.015   5.793  -7.422  1.00  0.00     0.004 C 
ENDBRANCH   5   6
BRANCH   5   8
ATOM      8  C   UNL     1      39.016   2.304  -8.840  1.00  0.00    -0.011 C 
ATOM      9  C   UNL     1      39.495   0.852  -8.671  1.00  0.00     0.008 C 
ATOM     10  C   UNL     1      39.088   2.717 -10.321  1.00  0.00     0.008 C 
ENDBRANCH   5   8
ENDBRANCH   4   5
ENDBRANCH   1   3
BRANCH   1  11
ATOM     11  C   UNL     1      43.403   4.004  -8.666  1.00  0.00     0.002 C 
ATOM     12  C   UNL     1      43.306   4.705  -7.299  1.00  0.00     0.005 C 
ATOM     13  C   UNL     1      42.943   5.081  -9.705  1.00  0.00    -0.026 C 
ATOM     14  C   UNL     1      43.290   6.205  -7.558  1.00  0.00     0.005 C 
ATOM     15  C   UNL     1      43.456   6.397  -9.069  1.00  0.00    -0.001 C 
ATOM     16  C   UNL     1      41.395   5.122  -9.837  1.00  0.00     0.007 C 
ATOM     17  C   UNL     1      43.624   4.851 -11.079  1.00  0.00     0.012 C 
ATOM     18  C   UNL     1      42.804   7.736  -9.552  1.00  0.00     0.000 C 
ATOM     19  C   UNL     1      40.900   6.353 -10.592  1.00  0.00     0.005 C 
ATOM     20  C   UNL     1      41.280   7.672  -9.876  1.00  0.00     0.003 C 
ATOM     21  C   UNL     1      43.565   8.432 -10.695  1.00  0.00     0.031 C 
ATOM     22  C   UNL     1      40.738   8.990 -10.620  1.00  0.00    -0.008 C 
ATOM     23  C   UNL     1      43.085   9.853 -10.746  1.00  0.00    -0.027 C 
ATOM     24  C   UNL     1      41.771  10.126 -10.594  1.00  0.00    -0.065 C 
ATOM     25  C   UNL     1      39.453   9.477  -9.891  1.00  0.00     0.014 C 
ATOM     26  C   UNL     1      40.401   8.733 -12.117  1.00  0.00     0.016 C 
ATOM     27  C   UNL     1      41.353  11.533 -10.220  1.00  0.00     0.063 C 
ATOM     28  C   UNL     1      38.885  10.802 -10.436  1.00  0.00     0.033 C 
ATOM     29  C   UNL     1      39.951  11.887 -10.739  1.00  0.00     0.118 C 
BRANCH  29  30
ATOM     30  O   UNL     1      40.023  12.125 -12.122  1.00  0.00    -0.393 OA
ATOM     31  H   UNL     1      39.099  12.053 -12.477  1.00  0.00     0.210 HD
ENDBRANCH  29  30
ENDBRANCH   1  11
TORSDOF 6
ENDMDL
MODEL 2
REMARK VINA RESULT:    -3.682      2.989      8.020
REMARK INTER + INTRA:          -6.489
REMARK INTER:                  -7.087
REMARK INTRA:                   0.598
REMARK UNBOUND:                -1.624
REMARK SMILES CC[C@@H](C=C[C@H](C)[C@@H]1CC[C@@H]2[C@H]3CC=C4C[C@@H](O)CC[C@]4(C)[C@H]3CC[C@@]21C)C(C)C
REMARK SMILES IDX 6 1 7 2 5 3 4 4 3 5 2 6 1 7 28 8 29 9 30 10 8 11 9 12 26 13
REMARK SMILES IDX 10 14 11 15 25 16 27 17 12 18 24 19 23 20 13 21 21 22 14 23
REMARK SMILES IDX 15 24 20 25 22 26 16 27 19 28 17 29 18 30
REMARK H PARENT 18 31
REMARK Flexibility Score: inf
ROOT
ATOM      1  C   UNL     1      41.013   9.096  -9.752  1.00  0.00     0.012 C 
ATOM      2  C   UNL     1      42.290   9.253  -8.916  1.00  0.00     0.012 C 
ENDROOT
BRANCH   1   3
ATOM      3  C   UNL     1      41.424   8.991 -11.212  1.00  0.00    -0.028 C 
ATOM      4  C   UNL     1      41.352   9.989 -12.113  1.00  0.00    -0.027 C 
BRANCH   4   5
ATOM      5  C   UNL     1      40.779  11.373 -11.837  1.00  0.00     0.014 C 
BRANCH   5   6
ATOM      6  C   UNL     1      41.442  12.064 -10.610  1.00  0.00     0.004 C 
ATOM      7  C   UNL     1      42.975  12.125 -10.639  1.00  0.00     0.004 C 
ENDBRANCH   5   6
BRANCH   5   8
ATOM      8  C   UNL     1      39.218  11.380 -11.777  1.00  0.00    -0.011 C 
ATOM      9  C   UNL     1      38.635  11.883 -10.445  1.00  0.00     0.008 C 
ATOM     10  C   UNL     1      38.634  10.000 -12.125  1.00  0.00     0.008 C 
ENDBRANCH   5   8
ENDBRANCH   4   5
ENDBRANCH   1   3
BRANCH   1  11
ATOM     11  C   UNL     1      40.165   7.842  -9.350  1.00  0.00     0.002 C 
ATOM     12  C   UNL     1      39.689   7.937  -7.890  1.00  0.00     0.005 C 
ATOM     13  C   UNL     1      40.821   6.426  -9.470  1.00  0.00    -0.026 C 
ATOM     14  C   UNL     1      39.605   6.517  -7.347  1.00  0.00     0.005 C 
ATOM     15  C   UNL     1      39.956   5.577  -8.505  1.00  0.00    -0.001 C 
ATOM     16  C   UNL     1      42.298   6.439  -8.989  1.00  0.00     0.007 C 
ATOM     17  C   UNL     1      40.698   5.880 -10.916  1.00  0.00     0.012 C 
ATOM     18  C   UNL     1      40.562   4.230  -7.987  1.00  0.00     0.000 C 
ATOM     19  C   UNL     1      42.867   5.035  -8.796  1.00  0.00     0.005 C 
ATOM     20  C   UNL     1      42.098   4.234  -7.718  1.00  0.00     0.003 C 
ATOM     21  C   UNL     1      40.168   2.998  -8.822  1.00  0.00     0.031 C 
ATOM     22  C   UNL     1      42.696   2.765  -7.456  1.00  0.00    -0.008 C 
ATOM     23  C   UNL     1      40.453   1.785  -7.985  1.00  0.00    -0.027 C 
ATOM     24  C   UNL     1      41.585   1.724  -7.251  1.00  0.00    -0.065 C 
ATOM     25  C   UNL     1      43.572   2.809  -6.172  1.00  0.00     0.014 C 
ATOM     26  C   UNL     1      43.565   2.255  -8.642  1.00  0.00     0.016 C 
ATOM     27  C   UNL     1      41.665   0.734  -6.108  1.00  0.00     0.063 C 
ATOM     28  C   UNL     1      44.124   1.435  -5.739  1.00  0.00     0.033 C 
ATOM     29  C   UNL     1      43.104   0.270  -5.831  1.00  0.00     0.118 C 
BRANCH  29  30
ATOM     30  O   UNL     1      43.491  -0.637  -6.831  1.00  0.00    -0.393 OA
ATOM     31  H   UNL     1      44.351  -0.309  -7.202  1.00  0.00     0.210 HD
ENDBRANCH  29  30
ENDBRANCH   1  11
TORSDOF 6
ENDMDL
MODEL 3
REMARK VINA RESULT:    -3.623      1.134      1.937
REMARK INTER + INTRA:          -6.412
REMARK INTER:                  -6.116
REMARK INTRA:                  -0.297
REMARK UNBOUND:                -1.624
REMARK SMILES CC[C@@H](C=C[C@H](C)[C@@H]1CC[C@@H]2[C@H]3CC=C4C[C@@H](O)CC[C@]4(C)[C@H]3CC[C@@]21C)C(C)C
REMARK SMILES IDX 6 1 7 2 5 3 4 4 3 5 2 6 1 7 28 8 29 9 30 10 8 11 9 12 26 13
REMARK SMILES IDX 10 14 11 15 25 16 27 17 12 18 24 19 23 20 13 21 21 22 14 23
REMARK SMILES IDX 15 24 20 25 22 26 16 27 19 28 17 29 18 30
REMARK H PARENT 18 31
REMARK Flexibility Score: inf
ROOT
ATOM      1  C   UNL     1      41.810   2.676  -8.607  1.00  0.00     0.012 C 
ATOM      2  C   UNL     1      42.699   1.659  -7.878  1.00  0.00     0.012 C 
ENDROOT
BRANCH   1   3
ATOM      3  C   UNL     1      40.762   3.168  -7.621  1.00  0.00    -0.028 C 
ATOM      4  C   UNL     1      39.450   2.866  -7.669  1.00  0.00    -0.027 C 
BRANCH   4   5
ATOM      5  C   UNL     1      38.784   2.038  -8.760  1.00  0.00     0.014 C 
BRANCH   5   6
ATOM      6  C   UNL     1      39.612   0.777  -9.146  1.00  0.00     0.004 C 
ATOM      7  C   UNL     1      38.873  -0.561  -9.009  1.00  0.00     0.004 C 
ENDBRANCH   5   6
BRANCH   5   8
ATOM      8  C   UNL     1      38.358   2.895  -9.995  1.00  0.00    -0.011 C 
ATOM      9  C   UNL     1      36.843   3.127 -10.116  1.00  0.00     0.008 C 
ATOM     10  C   UNL     1      38.912   2.308 -11.305  1.00  0.00     0.008 C 
ENDBRANCH   5   8
ENDBRANCH   4   5
ENDBRANCH   1   3
BRANCH   1  11
ATOM     11  C   UNL     1      42.611   3.895  -9.177  1.00  0.00     0.002 C 
ATOM     12  C   UNL     1      43.235   4.731  -8.045  1.00  0.00     0.005 C 
ATOM     13  C   UNL     1      41.856   4.931 -10.076  1.00  0.00    -0.026 C 
ATOM     14  C   UNL     1      43.279   6.176  -8.521  1.00  0.00     0.005 C 
ATOM     15  C   UNL     1      42.755   6.188  -9.961  1.00  0.00    -0.001 C 
ATOM     16  C   UNL     1      40.438   5.240  -9.523  1.00  0.00     0.007 C 
ATOM     17  C   UNL     1      41.800   4.449 -11.548  1.00  0.00     0.012 C 
ATOM     18  C   UNL     1      42.118   7.569 -10.329  1.00  0.00     0.000 C 
ATOM     19  C   UNL     1      39.801   6.461 -10.181  1.00  0.00     0.005 C 
ATOM     20  C   UNL     1      40.620   7.752  -9.938  1.00  0.00     0.003 C 
ATOM     21  C   UNL     1      42.347   8.001 -11.788  1.00  0.00     0.031 C 
ATOM     22  C   UNL     1      39.957   9.068 -10.581  1.00  0.00    -0.008 C 
ATOM     23  C   UNL     1      42.068   9.474 -11.864  1.00  0.00    -0.027 C 
ATOM     24  C   UNL     1      41.013   9.995 -11.202  1.00  0.00    -0.065 C 
ATOM     25  C   UNL     1      39.216   9.849  -9.458  1.00  0.00     0.014 C 
ATOM     26  C   UNL     1      38.943   8.733 -11.713  1.00  0.00     0.016 C 
ATOM     27  C   UNL     1      40.982  11.484 -10.926  1.00  0.00     0.063 C 
ATOM     28  C   UNL     1      38.622  11.197  -9.915  1.00  0.00     0.033 C 
ATOM     29  C   UNL     1      39.551  12.035 -10.832  1.00  0.00     0.118 C 
BRANCH  29  30
ATOM     30  O   UNL     1      39.009  12.120 -12.125  1.00  0.00    -0.393 OA
ATOM     31  H   UNL     1      38.477  12.957 -12.161  1.00  0.00     0.210 HD
ENDBRANCH  29  30
ENDBRANCH   1  11
TORSDOF 6
ENDMDL
MODEL 4
REMARK VINA RESULT:    -3.225      1.521      3.815
REMARK INTER + INTRA:          -5.885
REMARK INTER:                  -4.078
REMARK INTRA:                  -1.808
REMARK UNBOUND:                -1.624
REMARK SMILES CC[C@@H](C=C[C@H](C)[C@@H]1CC[C@@H]2[C@H]3CC=C4C[C@@H](O)CC[C@]4(C)[C@H]3CC[C@@]21C)C(C)C
REMARK SMILES IDX 6 1 7 2 5 3 4 4 3 5 2 6 1 7 28 8 29 9 30 10 8 11 9 12 26 13
REMARK SMILES IDX 10 14 11 15 25 16 27 17 12 18 24 19 23 20 13 21 21 22 14 23
REMARK SMILES IDX 15 24 20 25 22 26 16 27 19 28 17 29 18 30
REMARK H PARENT 18 31
REMARK Flexibility Score: inf
ROOT
ATOM      1  C   UNL     1      39.719   1.909  -8.781  1.00  0.00     0.012 C 
ATOM      2  C   UNL     1      38.635   0.834  -8.623  1.00  0.00     0.012 C 
ENDROOT
BRANCH   1   3
ATOM      3  C   UNL     1      41.064   1.204  -8.861  1.00  0.00    -0.028 C 
ATOM      4  C   UNL     1      42.166   1.555  -8.171  1.00  0.00    -0.027 C 
BRANCH   4   5
ATOM      5  C   UNL     1      42.271   2.760  -7.246  1.00  0.00     0.014 C 
BRANCH   5   6
ATOM      6  C   UNL     1      43.201   3.873  -7.812  1.00  0.00     0.004 C 
ATOM      7  C   UNL     1      43.613   3.701  -9.280  1.00  0.00     0.004 C 
ENDBRANCH   5   6
BRANCH   5   8
ATOM      8  C   UNL     1      42.612   2.365  -5.774  1.00  0.00    -0.011 C 
ATOM      9  C   UNL     1      43.830   1.436  -5.631  1.00  0.00     0.008 C 
ATOM     10  C   UNL     1      41.394   1.758  -5.056  1.00  0.00     0.008 C 
ENDBRANCH   5   8
ENDBRANCH   4   5
ENDBRANCH   1   3
BRANCH   1  11
ATOM     11  C   UNL     1      39.516   2.806 -10.048  1.00  0.00     0.002 C 
ATOM     12  C   UNL     1      40.715   2.696 -11.007  1.00  0.00     0.005 C 
ATOM     13  C   UNL     1      39.299   4.344  -9.848  1.00  0.00    -0.026 C 
ATOM     14  C   UNL     1      40.857   4.037 -11.712  1.00  0.00     0.005 C 
ATOM     15  C   UNL     1      39.699   4.918 -11.231  1.00  0.00    -0.001 C 
ATOM     16  C   UNL     1      40.234   4.913  -8.746  1.00  0.00     0.007 C 
ATOM     17  C   UNL     1      37.811   4.659  -9.550  1.00  0.00     0.012 C 
ATOM     18  C   UNL     1      40.065   6.438 -11.305  1.00  0.00     0.000 C 
ATOM     19  C   UNL     1      40.278   6.440  -8.741  1.00  0.00     0.005 C 
ATOM     20  C   UNL     1      40.823   7.015 -10.071  1.00  0.00     0.003 C 
ATOM     21  C   UNL     1      38.887   7.353 -11.685  1.00  0.00     0.031 C 
ATOM     22  C   UNL     1      40.924   8.619 -10.086  1.00  0.00    -0.008 C 
ATOM     23  C   UNL     1      39.469   8.666 -12.123  1.00  0.00    -0.027 C 
ATOM     24  C   UNL     1      40.503   9.205 -11.443  1.00  0.00    -0.065 C 
ATOM     25  C   UNL     1      42.401   9.025  -9.813  1.00  0.00     0.014 C 
ATOM     26  C   UNL     1      40.013   9.285  -9.016  1.00  0.00     0.016 C 
ATOM     27  C   UNL     1      41.347  10.268 -12.113  1.00  0.00     0.063 C 
ATOM     28  C   UNL     1      42.664  10.542  -9.908  1.00  0.00     0.033 C 
ATOM     29  C   UNL     1      41.973  11.244 -11.105  1.00  0.00     0.118 C 
BRANCH  29  30
ATOM     30  O   UNL     1      40.979  12.124 -10.645  1.00  0.00    -0.393 OA
ATOM     31  H   UNL     1      40.118  11.633 -10.682  1.00  0.00     0.210 HD
ENDBRANCH  29  30
ENDBRANCH   1  11
TORSDOF 6
ENDMDL
MODEL 5
REMARK VINA RESULT:    -2.767     12.292     14.178
REMARK INTER + INTRA:          -5.280
REMARK INTER:                  -3.822
REMARK INTRA:                  -1.458
REMARK UNBOUND:                -1.624
REMARK SMILES CC[C@@H](C=C[C@H](C)[C@@H]1CC[C@@H]2[C@H]3CC=C4C[C@@H](O)CC[C@]4(C)[C@H]3CC[C@@]21C)C(C)C
REMARK SMILES IDX 6 1 7 2 5 3 4 4 3 5 2 6 1 7 28 8 29 9 30 10 8 11 9 12 26 13
REMARK SMILES IDX 10 14 11 15 25 16 27 17 12 18 24 19 23 20 13 21 21 22 14 23
REMARK SMILES IDX 15 24 20 25 22 26 16 27 19 28 17 29 18 30
REMARK H PARENT 18 31
REMARK Flexibility Score: inf
ROOT
ATOM      1  C   UNL     1      38.942   7.588   7.223  1.00  0.00     0.012 C 
ATOM      2  C   UNL     1      40.128   7.180   8.109  1.00  0.00     0.012 C 
ENDROOT
BRANCH   1   3
ATOM      3  C   UNL     1      37.733   7.779   8.125  1.00  0.00    -0.028 C 
ATOM      4  C   UNL     1      36.601   7.052   8.070  1.00  0.00    -0.027 C 
BRANCH   4   5
ATOM      5  C   UNL     1      36.314   5.961   7.047  1.00  0.00     0.014 C 
BRANCH   5   6
ATOM      6  C   UNL     1      35.809   6.529   5.688  1.00  0.00     0.004 C 
ATOM      7  C   UNL     1      36.638   6.130   4.460  1.00  0.00     0.004 C 
ENDBRANCH   5   6
BRANCH   5   8
ATOM      8  C   UNL     1      35.403   4.825   7.614  1.00  0.00    -0.011 C 
ATOM      9  C   UNL     1      35.161   3.659   6.641  1.00  0.00     0.008 C 
ATOM     10  C   UNL     1      34.061   5.380   8.122  1.00  0.00     0.008 C 
ENDBRANCH   5   8
ENDBRANCH   4   5
ENDBRANCH   1   3
BRANCH   1  11
ATOM     11  C   UNL     1      39.206   8.898   6.408  1.00  0.00     0.002 C 
ATOM     12  C   UNL     1      37.914   9.415   5.750  1.00  0.00     0.005 C 
ATOM     13  C   UNL     1      40.260   8.859   5.251  1.00  0.00    -0.026 C 
ATOM     14  C   UNL     1      38.310  10.106   4.453  1.00  0.00     0.005 C 
ATOM     15  C   UNL     1      39.840  10.069   4.378  1.00  0.00    -0.001 C 
ATOM     16  C   UNL     1      40.155   7.546   4.427  1.00  0.00     0.007 C 
ATOM     17  C   UNL     1      41.694   9.071   5.801  1.00  0.00     0.012 C 
ATOM     18  C   UNL     1      40.343  10.100   2.896  1.00  0.00     0.000 C 
ATOM     19  C   UNL     1      40.939   7.607   3.118  1.00  0.00     0.005 C 
ATOM     20  C   UNL     1      40.421   8.720   2.175  1.00  0.00     0.003 C 
ATOM     21  C   UNL     1      41.651  10.885   2.690  1.00  0.00     0.031 C 
ATOM     22  C   UNL     1      41.195   8.786   0.768  1.00  0.00    -0.008 C 
ATOM     23  C   UNL     1      41.764  11.182   1.223  1.00  0.00    -0.027 C 
ATOM     24  C   UNL     1      41.438  10.235   0.317  1.00  0.00    -0.065 C 
ATOM     25  C   UNL     1      40.327   8.075  -0.309  1.00  0.00     0.014 C 
ATOM     26  C   UNL     1      42.591   8.101   0.822  1.00  0.00     0.016 C 
ATOM     27  C   UNL     1      41.141  10.653  -1.107  1.00  0.00     0.063 C 
ATOM     28  C   UNL     1      40.903   8.159  -1.738  1.00  0.00     0.033 C 
ATOM     29  C   UNL     1      41.469   9.551  -2.125  1.00  0.00     0.118 C 
BRANCH  29  30
ATOM     30  O   UNL     1      42.863   9.480  -2.288  1.00  0.00    -0.393 OA
ATOM     31  H   UNL     1      43.263   9.527  -1.381  1.00  0.00     0.210 HD
ENDBRANCH  29  30
ENDBRANCH   1  11
TORSDOF 6
ENDMDL
MODEL 6
REMARK VINA RESULT:    -2.326      2.559      7.139
REMARK INTER + INTRA:          -4.698
REMARK INTER:                  -5.658
REMARK INTRA:                   0.959
REMARK UNBOUND:                -1.624
REMARK SMILES CC[C@@H](C=C[C@H](C)[C@@H]1CC[C@@H]2[C@H]3CC=C4C[C@@H](O)CC[C@]4(C)[C@H]3CC[C@@]21C)C(C)C
REMARK SMILES IDX 6 1 7 2 5 3 4 4 3 5 2 6 1 7 28 8 29 9 30 10 8 11 9 12 26 13
REMARK SMILES IDX 10 14 11 15 25 16 27 17 12 18 24 19 23 20 13 21 21 22 14 23
REMARK SMILES IDX 15 24 20 25 22 26 16 27 19 28 17 29 18 30
REMARK H PARENT 18 31
REMARK Flexibility Score: inf
ROOT
ATOM      1  C   UNL     1      43.016   9.867  -9.870  1.00  0.00     0.012 C 
ATOM      2  C   UNL     1      43.833  10.555  -8.768  1.00  0.00     0.012 C 
ENDROOT
BRANCH   1   3
ATOM      3  C   UNL     1      43.166  10.687 -11.141  1.00  0.00    -0.028 C 
ATOM      4  C   UNL     1      42.148  11.190 -11.866  1.00  0.00    -0.027 C 
BRANCH   4   5
ATOM      5  C   UNL     1      40.671  10.960 -11.572  1.00  0.00     0.014 C 
BRANCH   5   6
ATOM      6  C   UNL     1      40.057  12.073 -10.674  1.00  0.00     0.004 C 
ATOM      7  C   UNL     1      38.524  12.125 -10.648  1.00  0.00     0.004 C 
ENDBRANCH   5   6
BRANCH   5   8
ATOM      8  C   UNL     1      40.376   9.518 -11.050  1.00  0.00    -0.011 C 
ATOM      9  C   UNL     1      39.481   8.677 -11.976  1.00  0.00     0.008 C 
ATOM     10  C   UNL     1      39.792   9.542  -9.627  1.00  0.00     0.008 C 
ENDBRANCH   5   8
ENDBRANCH   4   5
ENDBRANCH   1   3
BRANCH   1  11
ATOM     11  C   UNL     1      43.464   8.391 -10.137  1.00  0.00     0.002 C 
ATOM     12  C   UNL     1      43.203   7.986 -11.599  1.00  0.00     0.005 C 
ATOM     13  C   UNL     1      42.824   7.248  -9.281  1.00  0.00    -0.026 C 
ATOM     14  C   UNL     1      42.900   6.494 -11.608  1.00  0.00     0.005 C 
ATOM     15  C   UNL     1      43.056   5.999 -10.167  1.00  0.00    -0.001 C 
ATOM     16  C   UNL     1      41.301   7.476  -9.072  1.00  0.00     0.007 C 
ATOM     17  C   UNL     1      43.565   7.088  -7.929  1.00  0.00     0.012 C 
ATOM     18  C   UNL     1      42.165   4.741  -9.893  1.00  0.00     0.000 C 
ATOM     19  C   UNL     1      40.591   6.243  -8.520  1.00  0.00     0.005 C 
ATOM     20  C   UNL     1      40.691   5.031  -9.478  1.00  0.00     0.003 C 
ATOM     21  C   UNL     1      42.799   3.716  -8.936  1.00  0.00     0.031 C 
ATOM     22  C   UNL     1      39.916   3.725  -8.949  1.00  0.00    -0.008 C 
ATOM     23  C   UNL     1      42.051   2.426  -9.109  1.00  0.00    -0.027 C 
ATOM     24  C   UNL     1      40.706   2.438  -9.233  1.00  0.00    -0.065 C 
ATOM     25  C   UNL     1      38.546   3.632  -9.679  1.00  0.00     0.014 C 
ATOM     26  C   UNL     1      39.667   3.760  -7.414  1.00  0.00     0.016 C 
ATOM     27  C   UNL     1      40.013   1.229  -9.826  1.00  0.00     0.063 C 
ATOM     28  C   UNL     1      37.740   2.360  -9.346  1.00  0.00     0.033 C 
ATOM     29  C   UNL     1      38.580   1.056  -9.300  1.00  0.00     0.118 C 
BRANCH  29  30
ATOM     30  O   UNL     1      38.633   0.558  -7.987  1.00  0.00    -0.393 OA
ATOM     31  H   UNL     1      38.168   1.218  -7.409  1.00  0.00     0.210 HD
ENDBRANCH  29  30
ENDBRANCH   1  11
TORSDOF 6
ENDMDL
MODEL 7
REMARK VINA RESULT:    -2.202     14.421     16.681
REMARK INTER + INTRA:          -4.534
REMARK INTER:                  -4.721
REMARK INTRA:                   0.187
REMARK UNBOUND:                -1.624
REMARK SMILES CC[C@@H](C=C[C@H](C)[C@@H]1CC[C@@H]2[C@H]3CC=C4C[C@@H](O)CC[C@]4(C)[C@H]3CC[C@@]21C)C(C)C
REMARK SMILES IDX 6 1 7 2 5 3 4 4 3 5 2 6 1 7 28 8 29 9 30 10 8 11 9 12 26 13
REMARK SMILES IDX 10 14 11 15 25 16 27 17 12 18 24 19 23 20 13 21 21 22 14 23
REMARK SMILES IDX 15 24 20 25 22 26 16 27 19 28 17 29 18 30
REMARK H PARENT 18 31
REMARK Flexibility Score: inf
ROOT
ATOM      1  C   UNL     1      35.392   6.267   7.325  1.00  0.00     0.012 C 
ATOM      2  C   UNL     1      35.267   4.919   8.047  1.00  0.00     0.012 C 
ENDROOT
BRANCH   1   3
ATOM      3  C   UNL     1      33.999   6.864   7.211  1.00  0.00    -0.028 C 
ATOM      4  C   UNL     1      33.461   7.373   6.085  1.00  0.00    -0.027 C 
BRANCH   4   5
ATOM      5  C   UNL     1      34.187   7.499   4.752  1.00  0.00     0.014 C 
BRANCH   5   6
ATOM      6  C   UNL     1      35.330   6.455   4.589  1.00  0.00     0.004 C 
ATOM      7  C   UNL     1      36.319   6.736   3.450  1.00  0.00     0.004 C 
ENDBRANCH   5   6
BRANCH   5   8
ATOM      8  C   UNL     1      34.644   8.962   4.449  1.00  0.00    -0.011 C 
ATOM      9  C   UNL     1      34.580   9.912   5.657  1.00  0.00     0.008 C 
ATOM     10  C   UNL     1      33.869   9.560   3.262  1.00  0.00     0.008 C 
ENDBRANCH   5   8
ENDBRANCH   4   5
ENDBRANCH   1   3
BRANCH   1  11
ATOM     11  C   UNL     1      36.339   7.274   8.062  1.00  0.00     0.002 C 
ATOM     12  C   UNL     1      35.751   8.696   8.059  1.00  0.00     0.005 C 
ATOM     13  C   UNL     1      37.805   7.442   7.537  1.00  0.00    -0.026 C 
ATOM     14  C   UNL     1      36.920   9.670   8.033  1.00  0.00     0.005 C 
ATOM     15  C   UNL     1      38.200   8.832   8.098  1.00  0.00    -0.001 C 
ATOM     16  C   UNL     1      37.856   7.461   5.984  1.00  0.00     0.007 C 
ATOM     17  C   UNL     1      38.732   6.347   8.123  1.00  0.00     0.012 C 
ATOM     18  C   UNL     1      39.404   9.569   7.421  1.00  0.00     0.000 C 
ATOM     19  C   UNL     1      39.205   7.933   5.445  1.00  0.00     0.005 C 
ATOM     20  C   UNL     1      39.535   9.382   5.879  1.00  0.00     0.003 C 
ATOM     21  C   UNL     1      40.760   9.323   8.106  1.00  0.00     0.031 C 
ATOM     22  C   UNL     1      40.929   9.929   5.293  1.00  0.00    -0.008 C 
ATOM     23  C   UNL     1      41.698  10.394   7.630  1.00  0.00    -0.027 C 
ATOM     24  C   UNL     1      41.696  10.762   6.331  1.00  0.00    -0.065 C 
ATOM     25  C   UNL     1      40.629  10.832   4.063  1.00  0.00     0.014 C 
ATOM     26  C   UNL     1      41.883   8.781   4.855  1.00  0.00     0.016 C 
ATOM     27  C   UNL     1      42.305  12.094   5.945  1.00  0.00     0.063 C 
ATOM     28  C   UNL     1      41.876  11.514   3.464  1.00  0.00     0.033 C 
ATOM     29  C   UNL     1      42.861  12.094   4.513  1.00  0.00     0.118 C 
BRANCH  29  30
ATOM     30  O   UNL     1      44.069  11.377   4.493  1.00  0.00    -0.393 OA
ATOM     31  H   UNL     1      43.872  10.468   4.839  1.00  0.00     0.210 HD
ENDBRANCH  29  30
ENDBRANCH   1  11
TORSDOF 6
ENDMDL
