MODEL 1
REMARK VINA RESULT:    11.860      0.000      0.000
REMARK INTER + INTRA:          18.424
REMARK INTER:                  18.793
REMARK INTRA:                  -0.370
REMARK UNBOUND:                -0.370
REMARK SMILES CCCCCCCCCCCC(=O)[O-]
REMARK SMILES IDX 7 1 8 2 9 3 10 4 11 5 12 6 13 7 14 8 6 9 5 10 4 11 3 12 2 13
REMARK SMILES IDX 1 14
REMARK H PARENT
REMARK Flexibility Score: inf
ROOT
ATOM      1  C   UNL     1      52.841  56.110  24.992  1.00  0.00     0.000 C 
ENDROOT
BRANCH   1   2
ATOM      2  C   UNL     1      53.537  55.990  26.352  1.00  0.00     0.000 C 
BRANCH   2   3
ATOM      3  C   UNL     1      52.540  55.596  27.448  1.00  0.00     0.000 C 
BRANCH   3   4
ATOM      4  C   UNL     1      52.794  54.163  27.934  1.00  0.00     0.006 C 
BRANCH   4   5
ATOM      5  C   UNL     1      51.950  53.845  29.171  1.00  0.00     0.053 C 
BRANCH   5   6
ATOM      6  C   UNL     1      51.083  52.652  28.922  1.00  0.00     0.041 C 
ATOM      7  O   UNL     1      50.353  52.196  29.840  1.00  0.00    -0.550 OA
ATOM      8  O   UNL     1      51.119  52.012  27.689  1.00  0.00    -0.550 OA
ENDBRANCH   5   6
ENDBRANCH   4   5
ENDBRANCH   3   4
ENDBRANCH   2   3
ENDBRANCH   1   2
BRANCH   1   9
ATOM      9  C   UNL     1      53.832  56.537  23.901  1.00  0.00     0.000 C 
BRANCH   9  10
ATOM     10  C   UNL     1      55.072  55.631  23.900  1.00  0.00    -0.000 C 
BRANCH  10  11
ATOM     11  C   UNL     1      56.379  56.417  24.088  1.00  0.00    -0.000 C 
BRANCH  11  12
ATOM     12  C   UNL     1      56.451  57.125  25.454  1.00  0.00    -0.000 C 
BRANCH  12  13
ATOM     13  C   UNL     1      57.820  56.958  26.130  1.00  0.00    -0.003 C 
ATOM     14  C   UNL     1      58.247  55.495  26.246  1.00  0.00     0.004 C 
ENDBRANCH  12  13
ENDBRANCH  11  12
ENDBRANCH  10  11
ENDBRANCH   9  10
ENDBRANCH   1   9
TORSDOF 10
ENDMDL
MODEL 2
REMARK VINA RESULT:    12.772      9.512     11.176
REMARK INTER + INTRA:          19.868
REMARK INTER:                  20.447
REMARK INTRA:                  -0.579
REMARK UNBOUND:                -0.370
REMARK SMILES CCCCCCCCCCCC(=O)[O-]
REMARK SMILES IDX 7 1 8 2 9 3 10 4 11 5 12 6 13 7 14 8 6 9 5 10 4 11 3 12 2 13
REMARK SMILES IDX 1 14
REMARK H PARENT
REMARK Flexibility Score: inf
ROOT
ATOM      1  C   UNL     1      57.161  47.687  18.290  1.00  0.00     0.000 C 
ENDROOT
BRANCH   1   2
ATOM      2  C   UNL     1      55.922  48.035  19.123  1.00  0.00     0.000 C 
BRANCH   2   3
ATOM      3  C   UNL     1      55.999  47.398  20.515  1.00  0.00     0.000 C 
BRANCH   3   4
ATOM      4  C   UNL     1      56.785  48.287  21.487  1.00  0.00     0.006 C 
BRANCH   4   5
ATOM      5  C   UNL     1      57.776  47.459  22.310  1.00  0.00     0.053 C 
BRANCH   5   6
ATOM      6  C   UNL     1      57.047  46.561  23.259  1.00  0.00     0.041 C 
ATOM      7  O   UNL     1      57.085  45.313  23.107  1.00  0.00    -0.550 OA
ATOM      8  O   UNL     1      56.284  47.107  24.284  1.00  0.00    -0.550 OA
ENDBRANCH   5   6
ENDBRANCH   4   5
ENDBRANCH   3   4
ENDBRANCH   2   3
ENDBRANCH   1   2
BRANCH   1   9
ATOM      9  C   UNL     1      57.213  48.522  17.004  1.00  0.00     0.000 C 
BRANCH   9  10
ATOM     10  C   UNL     1      55.859  49.195  16.731  1.00  0.00    -0.000 C 
BRANCH  10  11
ATOM     11  C   UNL     1      55.978  50.398  15.782  1.00  0.00    -0.000 C 
BRANCH  11  12
ATOM     12  C   UNL     1      54.701  50.626  14.953  1.00  0.00    -0.000 C 
BRANCH  12  13
ATOM     13  C   UNL     1      53.632  49.554  15.214  1.00  0.00    -0.003 C 
ATOM     14  C   UNL     1      52.279  50.152  15.597  1.00  0.00     0.004 C 
ENDBRANCH  12  13
ENDBRANCH  11  12
ENDBRANCH  10  11
ENDBRANCH   9  10
ENDBRANCH   1   9
TORSDOF 10
ENDMDL
MODEL 3
REMARK VINA RESULT:    12.948      3.224      6.505
REMARK INTER + INTRA:          20.149
REMARK INTER:                  20.705
REMARK INTRA:                  -0.556
REMARK UNBOUND:                -0.370
REMARK SMILES CCCCCCCCCCCC(=O)[O-]
REMARK SMILES IDX 7 1 8 2 9 3 10 4 11 5 12 6 13 7 14 8 6 9 5 10 4 11 3 12 2 13
REMARK SMILES IDX 1 14
REMARK H PARENT
REMARK Flexibility Score: inf
ROOT
ATOM      1  C   UNL     1      53.783  54.908  25.256  1.00  0.00     0.000 C 
ENDROOT
BRANCH   1   2
ATOM      2  C   UNL     1      53.792  55.228  23.757  1.00  0.00     0.000 C 
BRANCH   2   3
ATOM      3  C   UNL     1      54.635  56.475  23.465  1.00  0.00     0.000 C 
BRANCH   3   4
ATOM      4  C   UNL     1      56.102  56.250  23.850  1.00  0.00     0.006 C 
BRANCH   4   5
ATOM      5  C   UNL     1      56.498  57.125  25.042  1.00  0.00     0.053 C 
BRANCH   5   6
ATOM      6  C   UNL     1      57.491  56.414  25.907  1.00  0.00     0.041 C 
ATOM      7  O   UNL     1      57.743  55.196  25.714  1.00  0.00    -0.550 OA
ATOM      8  O   UNL     1      58.103  57.086  26.958  1.00  0.00    -0.550 OA
ENDBRANCH   5   6
ENDBRANCH   4   5
ENDBRANCH   3   4
ENDBRANCH   2   3
ENDBRANCH   1   2
BRANCH   1   9
ATOM      9  C   UNL     1      53.030  55.986  26.045  1.00  0.00     0.000 C 
BRANCH   9  10
ATOM     10  C   UNL     1      52.971  55.634  27.539  1.00  0.00    -0.000 C 
BRANCH  10  11
ATOM     11  C   UNL     1      52.715  54.139  27.784  1.00  0.00    -0.000 C 
BRANCH  11  12
ATOM     12  C   UNL     1      51.353  53.875  28.452  1.00  0.00    -0.000 C 
BRANCH  12  13
ATOM     13  C   UNL     1      51.143  52.391  28.792  1.00  0.00    -0.003 C 
ATOM     14  C   UNL     1      50.386  52.188  30.105  1.00  0.00     0.004 C 
ENDBRANCH  12  13
ENDBRANCH  11  12
ENDBRANCH  10  11
ENDBRANCH   9  10
ENDBRANCH   1   9
TORSDOF 10
ENDMDL
MODEL 4
REMARK VINA RESULT:    13.017     12.967     14.305
REMARK INTER + INTRA:          20.257
REMARK INTER:                  20.655
REMARK INTRA:                  -0.398
REMARK UNBOUND:                -0.370
REMARK SMILES CCCCCCCCCCCC(=O)[O-]
REMARK SMILES IDX 7 1 8 2 9 3 10 4 11 5 12 6 13 7 14 8 6 9 5 10 4 11 3 12 2 13
REMARK SMILES IDX 1 14
REMARK H PARENT
REMARK Flexibility Score: inf
ROOT
ATOM      1  C   UNL     1      55.330  43.422  20.110  1.00  0.00     0.000 C 
ENDROOT
BRANCH   1   2
ATOM      2  C   UNL     1      56.272  44.632  20.093  1.00  0.00     0.000 C 
BRANCH   2   3
ATOM      3  C   UNL     1      55.505  45.930  20.373  1.00  0.00     0.000 C 
BRANCH   3   4
ATOM      4  C   UNL     1      56.373  47.158  20.071  1.00  0.00     0.006 C 
BRANCH   4   5
ATOM      5  C   UNL     1      56.486  48.066  21.299  1.00  0.00     0.053 C 
BRANCH   5   6
ATOM      6  C   UNL     1      57.258  47.385  22.384  1.00  0.00     0.041 C 
ATOM      7  O   UNL     1      56.666  46.950  23.406  1.00  0.00    -0.550 OA
ATOM      8  O   UNL     1      58.640  47.275  22.290  1.00  0.00    -0.550 OA
ENDBRANCH   5   6
ENDBRANCH   4   5
ENDBRANCH   3   4
ENDBRANCH   2   3
ENDBRANCH   1   2
BRANCH   1   9
ATOM      9  C   UNL     1      55.956  42.247  20.872  1.00  0.00     0.000 C 
BRANCH   9  10
ATOM     10  C   UNL     1      54.872  41.296  21.401  1.00  0.00    -0.000 C 
BRANCH  10  11
ATOM     11  C   UNL     1      54.985  39.883  20.807  1.00  0.00    -0.000 C 
BRANCH  11  12
ATOM     12  C   UNL     1      56.442  39.475  20.523  1.00  0.00    -0.000 C 
BRANCH  12  13
ATOM     13  C   UNL     1      57.000  38.513  21.583  1.00  0.00    -0.003 C 
ATOM     14  C   UNL     1      57.077  37.070  21.087  1.00  0.00     0.004 C 
ENDBRANCH  12  13
ENDBRANCH  11  12
ENDBRANCH  10  11
ENDBRANCH   9  10
ENDBRANCH   1   9
TORSDOF 10
ENDMDL
MODEL 5
REMARK VINA RESULT:    13.190      9.679     11.476
REMARK INTER + INTRA:          20.532
REMARK INTER:                  21.007
REMARK INTRA:                  -0.475
REMARK UNBOUND:                -0.370
REMARK SMILES CCCCCCCCCCCC(=O)[O-]
REMARK SMILES IDX 7 1 8 2 9 3 10 4 11 5 12 6 13 7 14 8 6 9 5 10 4 11 3 12 2 13
REMARK SMILES IDX 1 14
REMARK H PARENT
REMARK Flexibility Score: inf
ROOT
ATOM      1  C   UNL     1      56.931  48.623  16.796  1.00  0.00     0.000 C 
ENDROOT
BRANCH   1   2
ATOM      2  C   UNL     1      57.101  47.763  18.054  1.00  0.00     0.000 C 
BRANCH   2   3
ATOM      3  C   UNL     1      56.006  48.070  19.082  1.00  0.00     0.000 C 
BRANCH   3   4
ATOM      4  C   UNL     1      56.189  47.226  20.350  1.00  0.00     0.006 C 
BRANCH   4   5
ATOM      5  C   UNL     1      56.646  48.094  21.526  1.00  0.00     0.053 C 
BRANCH   5   6
ATOM      6  C   UNL     1      57.452  47.285  22.492  1.00  0.00     0.041 C 
ATOM      7  O   UNL     1      56.880  46.620  23.395  1.00  0.00    -0.550 OA
ATOM      8  O   UNL     1      58.840  47.304  22.426  1.00  0.00    -0.550 OA
ENDBRANCH   5   6
ENDBRANCH   4   5
ENDBRANCH   3   4
ENDBRANCH   2   3
ENDBRANCH   1   2
BRANCH   1   9
ATOM      9  C   UNL     1      55.974  49.794  17.054  1.00  0.00     0.000 C 
BRANCH   9  10
ATOM     10  C   UNL     1      56.002  50.794  15.889  1.00  0.00    -0.000 C 
BRANCH  10  11
ATOM     11  C   UNL     1      54.873  50.553  14.875  1.00  0.00    -0.000 C 
BRANCH  11  12
ATOM     12  C   UNL     1      53.998  49.340  15.242  1.00  0.00    -0.000 C 
BRANCH  12  13
ATOM     13  C   UNL     1      52.575  49.745  15.655  1.00  0.00    -0.003 C 
ATOM     14  C   UNL     1      52.132  51.067  15.028  1.00  0.00     0.004 C 
ENDBRANCH  12  13
ENDBRANCH  11  12
ENDBRANCH  10  11
ENDBRANCH   9  10
ENDBRANCH   1   9
TORSDOF 10
ENDMDL
MODEL 6
REMARK VINA RESULT:    13.650     11.711     12.859
REMARK INTER + INTRA:          21.261
REMARK INTER:                  21.629
REMARK INTRA:                  -0.368
REMARK UNBOUND:                -0.370
REMARK SMILES CCCCCCCCCCCC(=O)[O-]
REMARK SMILES IDX 7 1 8 2 9 3 10 4 11 5 12 6 13 7 14 8 6 9 5 10 4 11 3 12 2 13
REMARK SMILES IDX 1 14
REMARK H PARENT
REMARK Flexibility Score: inf
ROOT
ATOM      1  C   UNL     1      56.317  46.855  20.599  1.00  0.00     0.000 C 
ENDROOT
BRANCH   1   2
ATOM      2  C   UNL     1      55.554  45.584  20.207  1.00  0.00     0.000 C 
BRANCH   2   3
ATOM      3  C   UNL     1      56.327  44.328  20.625  1.00  0.00     0.000 C 
BRANCH   3   4
ATOM      4  C   UNL     1      55.568  43.056  20.227  1.00  0.00     0.006 C 
BRANCH   4   5
ATOM      5  C   UNL     1      55.567  42.037  21.370  1.00  0.00     0.053 C 
BRANCH   5   6
ATOM      6  C   UNL     1      55.158  40.688  20.869  1.00  0.00     0.041 C 
ATOM      7  O   UNL     1      53.964  40.471  20.533  1.00  0.00    -0.550 OA
ATOM      8  O   UNL     1      56.086  39.655  20.819  1.00  0.00    -0.550 OA
ENDBRANCH   5   6
ENDBRANCH   4   5
ENDBRANCH   3   4
ENDBRANCH   2   3
ENDBRANCH   1   2
BRANCH   1   9
ATOM      9  C   UNL     1      56.232  47.912  19.491  1.00  0.00     0.000 C 
BRANCH   9  10
ATOM     10  C   UNL     1      57.146  47.548  18.312  1.00  0.00    -0.000 C 
BRANCH  10  11
ATOM     11  C   UNL     1      57.041  48.549  17.151  1.00  0.00    -0.000 C 
BRANCH  11  12
ATOM     12  C   UNL     1      55.633  49.159  17.022  1.00  0.00    -0.000 C 
BRANCH  12  13
ATOM     13  C   UNL     1      55.569  50.270  15.963  1.00  0.00    -0.003 C 
ATOM     14  C   UNL     1      54.392  50.103  15.003  1.00  0.00     0.004 C 
ENDBRANCH  12  13
ENDBRANCH  11  12
ENDBRANCH  10  11
ENDBRANCH   9  10
ENDBRANCH   1   9
TORSDOF 10
ENDMDL
MODEL 7
REMARK VINA RESULT:    13.736     13.222     14.034
REMARK INTER + INTRA:          21.397
REMARK INTER:                  21.658
REMARK INTRA:                  -0.262
REMARK UNBOUND:                -0.370
REMARK SMILES CCCCCCCCCCCC(=O)[O-]
REMARK SMILES IDX 7 1 8 2 9 3 10 4 11 5 12 6 13 7 14 8 6 9 5 10 4 11 3 12 2 13
REMARK SMILES IDX 1 14
REMARK H PARENT
REMARK Flexibility Score: inf
ROOT
ATOM      1  C   UNL     1      55.399  43.629  20.124  1.00  0.00     0.000 C 
ENDROOT
BRANCH   1   2
ATOM      2  C   UNL     1      56.011  42.437  20.868  1.00  0.00     0.000 C 
BRANCH   2   3
ATOM      3  C   UNL     1      54.930  41.427  21.271  1.00  0.00     0.000 C 
BRANCH   3   4
ATOM      4  C   UNL     1      55.212  40.046  20.664  1.00  0.00     0.006 C 
BRANCH   4   5
ATOM      5  C   UNL     1      55.787  39.091  21.713  1.00  0.00     0.053 C 
BRANCH   5   6
ATOM      6  C   UNL     1      57.003  38.401  21.183  1.00  0.00     0.041 C 
ATOM      7  O   UNL     1      57.932  39.067  20.654  1.00  0.00    -0.550 OA
ATOM      8  O   UNL     1      57.090  37.014  21.227  1.00  0.00    -0.550 OA
ENDBRANCH   5   6
ENDBRANCH   4   5
ENDBRANCH   3   4
ENDBRANCH   2   3
ENDBRANCH   1   2
BRANCH   1   9
ATOM      9  C   UNL     1      56.303  44.865  20.226  1.00  0.00     0.000 C 
BRANCH   9  10
ATOM     10  C   UNL     1      55.482  46.157  20.113  1.00  0.00    -0.000 C 
BRANCH  10  11
ATOM     11  C   UNL     1      56.362  47.416  20.083  1.00  0.00    -0.000 C 
BRANCH  11  12
ATOM     12  C   UNL     1      56.539  48.047  21.476  1.00  0.00    -0.000 C 
BRANCH  12  13
ATOM     13  C   UNL     1      57.248  47.106  22.462  1.00  0.00    -0.003 C 
ATOM     14  C   UNL     1      56.565  47.059  23.828  1.00  0.00     0.004 C 
ENDBRANCH  12  13
ENDBRANCH  11  12
ENDBRANCH  10  11
ENDBRANCH   9  10
ENDBRANCH   1   9
TORSDOF 10
ENDMDL
MODEL 8
REMARK VINA RESULT:    13.965     11.783     13.651
REMARK INTER + INTRA:          21.759
REMARK INTER:                  22.157
REMARK INTRA:                  -0.398
REMARK UNBOUND:                -0.370
REMARK SMILES CCCCCCCCCCCC(=O)[O-]
REMARK SMILES IDX 7 1 8 2 9 3 10 4 11 5 12 6 13 7 14 8 6 9 5 10 4 11 3 12 2 13
REMARK SMILES IDX 1 14
REMARK H PARENT
REMARK Flexibility Score: inf
ROOT
ATOM      1  C   UNL     1      56.288  47.167  20.548  1.00  0.00     0.000 C 
ENDROOT
BRANCH   1   2
ATOM      2  C   UNL     1      56.156  48.095  19.335  1.00  0.00     0.000 C 
BRANCH   2   3
ATOM      3  C   UNL     1      57.199  47.755  18.265  1.00  0.00     0.000 C 
BRANCH   3   4
ATOM      4  C   UNL     1      56.868  48.441  16.934  1.00  0.00     0.006 C 
BRANCH   4   5
ATOM      5  C   UNL     1      55.580  49.261  17.044  1.00  0.00     0.053 C 
BRANCH   5   6
ATOM      6  C   UNL     1      55.489  50.247  15.923  1.00  0.00     0.041 C 
ATOM      7  O   UNL     1      54.559  50.164  15.078  1.00  0.00    -0.550 OA
ATOM      8  O   UNL     1      56.461  51.230  15.781  1.00  0.00    -0.550 OA
ENDBRANCH   5   6
ENDBRANCH   4   5
ENDBRANCH   3   4
ENDBRANCH   2   3
ENDBRANCH   1   2
BRANCH   1   9
ATOM      9  C   UNL     1      55.381  45.938  20.403  1.00  0.00     0.000 C 
BRANCH   9  10
ATOM     10  C   UNL     1      56.208  44.675  20.118  1.00  0.00    -0.000 C 
BRANCH  10  11
ATOM     11  C   UNL     1      55.355  43.397  20.119  1.00  0.00    -0.000 C 
BRANCH  11  12
ATOM     12  C   UNL     1      55.931  42.303  21.036  1.00  0.00    -0.000 C 
BRANCH  12  13
ATOM     13  C   UNL     1      54.995  41.091  21.164  1.00  0.00    -0.003 C 
ATOM     14  C   UNL     1      55.714  39.764  20.928  1.00  0.00     0.004 C 
ENDBRANCH  12  13
ENDBRANCH  11  12
ENDBRANCH  10  11
ENDBRANCH   9  10
ENDBRANCH   1   9
TORSDOF 10
ENDMDL
MODEL 9
REMARK VINA RESULT:    14.164     10.061     11.906
REMARK INTER + INTRA:          22.075
REMARK INTER:                  22.757
REMARK INTRA:                  -0.682
REMARK UNBOUND:                -0.370
REMARK SMILES CCCCCCCCCCCC(=O)[O-]
REMARK SMILES IDX 7 1 8 2 9 3 10 4 11 5 12 6 13 7 14 8 6 9 5 10 4 11 3 12 2 13
REMARK SMILES IDX 1 14
REMARK H PARENT
REMARK Flexibility Score: inf
ROOT
ATOM      1  C   UNL     1      57.473  48.056  17.880  1.00  0.00     0.000 C 
ENDROOT
BRANCH   1   2
ATOM      2  C   UNL     1      56.462  48.468  16.803  1.00  0.00     0.000 C 
BRANCH   2   3
ATOM      3  C   UNL     1      56.851  49.807  16.166  1.00  0.00     0.000 C 
BRANCH   3   4
ATOM      4  C   UNL     1      55.633  50.729  16.034  1.00  0.00     0.006 C 
BRANCH   4   5
ATOM      5  C   UNL     1      54.708  50.259  14.908  1.00  0.00     0.053 C 
BRANCH   5   6
ATOM      6  C   UNL     1      53.310  50.091  15.414  1.00  0.00     0.041 C 
ATOM      7  O   UNL     1      53.044  49.196  16.257  1.00  0.00    -0.550 OA
ATOM      8  O   UNL     1      52.290  50.894  14.916  1.00  0.00    -0.550 OA
ENDBRANCH   5   6
ENDBRANCH   4   5
ENDBRANCH   3   4
ENDBRANCH   2   3
ENDBRANCH   1   2
BRANCH   1   9
ATOM      9  C   UNL     1      56.793  47.250  18.994  1.00  0.00     0.000 C 
BRANCH   9  10
ATOM     10  C   UNL     1      55.901  48.152  19.859  1.00  0.00    -0.000 C 
BRANCH  10  11
ATOM     11  C   UNL     1      56.484  48.393  21.260  1.00  0.00    -0.000 C 
BRANCH  11  12
ATOM     12  C   UNL     1      56.619  47.093  22.075  1.00  0.00    -0.000 C 
BRANCH  12  13
ATOM     13  C   UNL     1      58.069  46.813  22.499  1.00  0.00    -0.003 C 
ATOM     14  C   UNL     1      59.008  47.979  22.195  1.00  0.00     0.004 C 
ENDBRANCH  12  13
ENDBRANCH  11  12
ENDBRANCH  10  11
ENDBRANCH   9  10
ENDBRANCH   1   9
TORSDOF 10
ENDMDL
