MODEL 1
REMARK VINA RESULT:    -4.722      0.000      0.000
REMARK INTER + INTRA:          -5.312
REMARK INTER:                  -5.136
REMARK INTRA:                  -0.176
REMARK UNBOUND:                -0.176
REMARK SMILES C[C@@H]1[C@H](C)CC[C@@]2(C(=O)[O-])CC[C@]3(C)C(=CC[C@@H]4[C@@]5(C)CC[C@H](O)C(C)(C)[C@@H]5CC[C@@]43C)[C@@H]12
REMARK SMILES IDX 7 1 6 2 11 3 33 4 5 5 12 6 15 7 2 8 3 9 13 10 16 11 1 12
REMARK SMILES IDX 4 13 14 14 31 15 17 16 18 17 30 18 32 19 19 20 29 21 28 22
REMARK SMILES IDX 21 23 20 24 25 25 22 26 23 27 26 28 27 29 8 30 9 31 10 32
REMARK SMILES IDX 24 33
REMARK H PARENT 24 34
REMARK Flexibility Score: inf
ROOT
ATOM      1  C   UNL     1       9.806  -8.042  26.730  1.00  0.00     0.017 C 
ATOM      2  C   UNL     1      11.159  -8.330  25.914  1.00  0.00     0.014 C 
ATOM      3  C   UNL     1       9.624  -6.444  26.882  1.00  0.00     0.014 C 
ATOM      4  C   UNL     1       8.540  -8.644  26.026  1.00  0.00     0.030 C 
ATOM      5  C   UNL     1      11.008  -8.872  24.480  1.00  0.00     0.004 C 
ATOM      6  C   UNL     1       8.148  -5.912  26.964  1.00  0.00     0.013 C 
ATOM      7  C   UNL     1       7.026  -8.153  26.711  1.00  0.00    -0.063 C 
ATOM      8  C   UNL     1       8.510  -8.729  24.441  1.00  0.00    -0.003 C 
ATOM      9  C   UNL     1       9.832  -8.296  23.749  1.00  0.00    -0.011 C 
ATOM     10  C   UNL     1       7.107  -6.810  27.642  1.00  0.00    -0.006 C 
ATOM     11  C   UNL     1       5.711  -8.328  26.031  1.00  0.00    -0.027 C 
ATOM     12  C   UNL     1       7.939 -10.125  23.991  1.00  0.00     0.008 C 
ATOM     13  C   UNL     1       9.971  -8.640  22.204  1.00  0.00     0.008 C 
ATOM     14  C   UNL     1       7.669  -7.074  29.079  1.00  0.00     0.017 C 
ATOM     15  C   UNL     1       5.649  -6.066  27.847  1.00  0.00    -0.020 C 
ATOM     16  C   UNL     1       5.239  -7.045  25.474  1.00  0.00     0.032 C 
ATOM     17  C   UNL     1       4.612  -6.205  26.636  1.00  0.00     0.006 C 
ATOM     18  C   UNL     1       5.850  -4.540  28.098  1.00  0.00     0.008 C 
ATOM     19  C   UNL     1       4.912  -6.711  29.125  1.00  0.00     0.012 C 
ATOM     20  C   UNL     1       3.823  -4.882  26.207  1.00  0.00    -0.025 C 
ATOM     21  C   UNL     1       4.598  -3.719  28.400  1.00  0.00     0.005 C 
ATOM     22  C   UNL     1       3.401  -4.162  27.528  1.00  0.00     0.003 C 
ATOM     23  C   UNL     1       2.558  -5.344  25.362  1.00  0.00     0.010 C 
ATOM     24  C   UNL     1       4.712  -3.927  25.309  1.00  0.00     0.012 C 
ATOM     25  C   UNL     1       2.217  -3.053  27.451  1.00  0.00    -0.006 C 
ATOM     26  C   UNL     1       1.214  -4.826  25.912  1.00  0.00     0.033 C 
ATOM     27  C   UNL     1       1.208  -3.296  26.230  1.00  0.00     0.120 C 
ATOM     28  C   UNL     1       2.755  -1.568  27.420  1.00  0.00     0.014 C 
ATOM     29  C   UNL     1       1.364  -3.138  28.774  1.00  0.00     0.014 C 
ENDROOT
BRANCH   1  30
ATOM     30  C   UNL     1      10.021  -8.754  28.107  1.00  0.00     0.048 C 
ATOM     31  O   UNL     1      10.756  -8.307  28.995  1.00  0.00    -0.550 OA
ATOM     32  O   UNL     1       9.452 -10.049  28.355  1.00  0.00    -0.550 OA
ENDBRANCH   1  30
BRANCH  27  33
ATOM     33  O   UNL     1       1.459  -2.621  25.008  1.00  0.00    -0.393 OA
ATOM     34  H   UNL     1       2.333  -2.862  24.618  1.00  0.00     0.210 HD
ENDBRANCH  27  33
TORSDOF 2
ENDMDL
MODEL 2
REMARK VINA RESULT:    -4.633      1.722      8.385
REMARK INTER + INTRA:          -5.215
REMARK INTER:                  -5.198
REMARK INTRA:                  -0.017
REMARK UNBOUND:                -0.176
REMARK SMILES C[C@@H]1[C@H](C)CC[C@@]2(C(=O)[O-])CC[C@]3(C)C(=CC[C@@H]4[C@@]5(C)CC[C@H](O)C(C)(C)[C@@H]5CC[C@@]43C)[C@@H]12
REMARK SMILES IDX 7 1 6 2 11 3 33 4 5 5 12 6 15 7 2 8 3 9 13 10 16 11 1 12
REMARK SMILES IDX 4 13 14 14 31 15 17 16 18 17 30 18 32 19 19 20 29 21 28 22
REMARK SMILES IDX 21 23 20 24 25 25 22 26 23 27 26 28 27 29 8 30 9 31 10 32
REMARK SMILES IDX 24 33
REMARK H PARENT 24 34
REMARK Flexibility Score: inf
ROOT
ATOM      1  C   UNL     1       1.329  -3.775  25.313  1.00  0.00     0.017 C 
ATOM      2  C   UNL     1       0.500  -2.404  25.411  1.00  0.00     0.014 C 
ATOM      3  C   UNL     1       2.812  -3.444  24.766  1.00  0.00     0.014 C 
ATOM      4  C   UNL     1       1.438  -4.512  26.693  1.00  0.00     0.030 C 
ATOM      5  C   UNL     1       0.190  -1.873  26.824  1.00  0.00     0.004 C 
ATOM      6  C   UNL     1       3.965  -4.398  25.245  1.00  0.00     0.013 C 
ATOM      7  C   UNL     1       2.531  -5.857  26.714  1.00  0.00    -0.063 C 
ATOM      8  C   UNL     1       1.485  -3.647  28.024  1.00  0.00    -0.003 C 
ATOM      9  C   UNL     1       1.297  -2.120  27.805  1.00  0.00    -0.011 C 
ATOM     10  C   UNL     1       3.613  -5.869  25.488  1.00  0.00    -0.006 C 
ATOM     11  C   UNL     1       3.037  -6.496  27.962  1.00  0.00    -0.027 C 
ATOM     12  C   UNL     1       0.552  -4.293  29.115  1.00  0.00     0.008 C 
ATOM     13  C   UNL     1       1.035  -1.244  29.104  1.00  0.00     0.008 C 
ATOM     14  C   UNL     1       3.019  -6.376  24.130  1.00  0.00     0.017 C 
ATOM     15  C   UNL     1       4.935  -6.807  25.791  1.00  0.00    -0.020 C 
ATOM     16  C   UNL     1       4.426  -6.078  28.233  1.00  0.00     0.032 C 
ATOM     17  C   UNL     1       5.380  -6.922  27.324  1.00  0.00     0.006 C 
ATOM     18  C   UNL     1       6.169  -6.275  25.000  1.00  0.00     0.008 C 
ATOM     19  C   UNL     1       4.623  -8.314  25.316  1.00  0.00     0.012 C 
ATOM     20  C   UNL     1       6.944  -6.799  27.632  1.00  0.00    -0.025 C 
ATOM     21  C   UNL     1       7.457  -7.091  25.099  1.00  0.00     0.005 C 
ATOM     22  C   UNL     1       7.685  -7.625  26.532  1.00  0.00     0.003 C 
ATOM     23  C   UNL     1       7.185  -7.406  29.082  1.00  0.00     0.010 C 
ATOM     24  C   UNL     1       7.432  -5.292  27.624  1.00  0.00     0.012 C 
ATOM     25  C   UNL     1       9.221  -8.072  26.814  1.00  0.00    -0.006 C 
ATOM     26  C   UNL     1       8.232  -8.537  29.121  1.00  0.00     0.033 C 
ATOM     27  C   UNL     1       9.561  -8.196  28.375  1.00  0.00     0.120 C 
ATOM     28  C   UNL     1      10.281  -7.141  26.102  1.00  0.00     0.014 C 
ATOM     29  C   UNL     1       9.454  -9.496  26.180  1.00  0.00     0.014 C 
ENDROOT
BRANCH   1  30
ATOM     30  C   UNL     1       0.507  -4.659  24.317  1.00  0.00     0.048 C 
ATOM     31  O   UNL     1       0.242  -4.311  23.160  1.00  0.00    -0.550 OA
ATOM     32  O   UNL     1      -0.092  -5.888  24.757  1.00  0.00    -0.550 OA
ENDBRANCH   1  30
BRANCH  27  33
ATOM     33  O   UNL     1      10.123  -7.070  29.031  1.00  0.00    -0.393 OA
ATOM     34  H   UNL     1       9.538  -6.276  28.984  1.00  0.00     0.210 HD
ENDBRANCH  27  33
TORSDOF 2
ENDMDL
MODEL 3
REMARK VINA RESULT:    -4.413      2.066      3.871
REMARK INTER + INTRA:          -4.976
REMARK INTER:                  -4.878
REMARK INTRA:                  -0.098
REMARK UNBOUND:                -0.176
REMARK SMILES C[C@@H]1[C@H](C)CC[C@@]2(C(=O)[O-])CC[C@]3(C)C(=CC[C@@H]4[C@@]5(C)CC[C@H](O)C(C)(C)[C@@H]5CC[C@@]43C)[C@@H]12
REMARK SMILES IDX 7 1 6 2 11 3 33 4 5 5 12 6 15 7 2 8 3 9 13 10 16 11 1 12
REMARK SMILES IDX 4 13 14 14 31 15 17 16 18 17 30 18 32 19 19 20 29 21 28 22
REMARK SMILES IDX 21 23 20 24 25 25 22 26 23 27 26 28 27 29 8 30 9 31 10 32
REMARK SMILES IDX 24 33
REMARK H PARENT 24 34
REMARK Flexibility Score: inf
ROOT
ATOM      1  C   UNL     1       8.708  -8.325  24.994  1.00  0.00     0.017 C 
ATOM      2  C   UNL     1       9.535  -9.679  25.240  1.00  0.00     0.014 C 
ATOM      3  C   UNL     1       7.164  -8.707  24.712  1.00  0.00     0.014 C 
ATOM      4  C   UNL     1       8.784  -7.344  26.216  1.00  0.00     0.030 C 
ATOM      5  C   UNL     1      10.024  -9.950  26.676  1.00  0.00     0.004 C 
ATOM      6  C   UNL     1       6.089  -7.647  25.149  1.00  0.00     0.013 C 
ATOM      7  C   UNL     1       7.711  -5.986  26.126  1.00  0.00    -0.063 C 
ATOM      8  C   UNL     1       8.906  -7.948  27.679  1.00  0.00    -0.003 C 
ATOM      9  C   UNL     1       9.056  -9.494  27.726  1.00  0.00    -0.011 C 
ATOM     10  C   UNL     1       6.478  -6.168  25.067  1.00  0.00    -0.006 C 
ATOM     11  C   UNL     1       7.376  -5.115  27.288  1.00  0.00    -0.027 C 
ATOM     12  C   UNL     1       9.977  -7.141  28.504  1.00  0.00     0.008 C 
ATOM     13  C   UNL     1       9.481 -10.125  29.121  1.00  0.00     0.008 C 
ATOM     14  C   UNL     1       6.892  -5.936  23.574  1.00  0.00     0.017 C 
ATOM     15  C   UNL     1       5.211  -5.151  25.356  1.00  0.00    -0.020 C 
ATOM     16  C   UNL     1       6.031  -5.434  27.807  1.00  0.00     0.032 C 
ATOM     17  C   UNL     1       4.971  -4.744  26.886  1.00  0.00     0.006 C 
ATOM     18  C   UNL     1       3.882  -5.782  24.842  1.00  0.00     0.008 C 
ATOM     19  C   UNL     1       5.467  -3.766  24.574  1.00  0.00     0.012 C 
ATOM     20  C   UNL     1       3.460  -4.762  27.408  1.00  0.00    -0.025 C 
ATOM     21  C   UNL     1       2.622  -4.924  24.951  1.00  0.00     0.005 C 
ATOM     22  C   UNL     1       2.586  -4.130  26.276  1.00  0.00     0.003 C 
ATOM     23  C   UNL     1       3.414  -3.893  28.739  1.00  0.00     0.010 C 
ATOM     24  C   UNL     1       2.967  -6.230  27.742  1.00  0.00     0.012 C 
ATOM     25  C   UNL     1       1.103  -3.594  26.664  1.00  0.00    -0.006 C 
ATOM     26  C   UNL     1       2.388  -2.742  28.700  1.00  0.00     0.033 C 
ATOM     27  C   UNL     1       0.970  -3.175  28.206  1.00  0.00     0.120 C 
ATOM     28  C   UNL     1      -0.046  -4.607  26.279  1.00  0.00     0.014 C 
ATOM     29  C   UNL     1       0.797  -2.304  25.811  1.00  0.00     0.014 C 
ENDROOT
BRANCH   1  30
ATOM     30  C   UNL     1       9.398  -7.664  23.755  1.00  0.00     0.048 C 
ATOM     31  O   UNL     1       9.435  -8.191  22.637  1.00  0.00    -0.550 OA
ATOM     32  O   UNL     1      10.139  -6.441  23.899  1.00  0.00    -0.550 OA
ENDBRANCH   1  30
BRANCH  27  33
ATOM     33  O   UNL     1       0.493  -4.145  29.125  1.00  0.00    -0.393 OA
ATOM     34  H   UNL     1       1.063  -4.216  29.927  1.00  0.00     0.210 HD
ENDBRANCH  27  33
TORSDOF 2
ENDMDL
MODEL 4
REMARK VINA RESULT:    -4.298      1.782      8.046
REMARK INTER + INTRA:          -4.851
REMARK INTER:                  -4.679
REMARK INTRA:                  -0.172
REMARK UNBOUND:                -0.176
REMARK SMILES C[C@@H]1[C@H](C)CC[C@@]2(C(=O)[O-])CC[C@]3(C)C(=CC[C@@H]4[C@@]5(C)CC[C@H](O)C(C)(C)[C@@H]5CC[C@@]43C)[C@@H]12
REMARK SMILES IDX 7 1 6 2 11 3 33 4 5 5 12 6 15 7 2 8 3 9 13 10 16 11 1 12
REMARK SMILES IDX 4 13 14 14 31 15 17 16 18 17 30 18 32 19 19 20 29 21 28 22
REMARK SMILES IDX 21 23 20 24 25 25 22 26 23 27 26 28 27 29 8 30 9 31 10 32
REMARK SMILES IDX 24 33
REMARK H PARENT 24 34
REMARK Flexibility Score: inf
ROOT
ATOM      1  C   UNL     1       2.049  -4.044  27.660  1.00  0.00     0.017 C 
ATOM      2  C   UNL     1       0.876  -4.062  28.757  1.00  0.00     0.014 C 
ATOM      3  C   UNL     1       3.469  -4.149  28.421  1.00  0.00     0.014 C 
ATOM      4  C   UNL     1       1.924  -5.219  26.628  1.00  0.00     0.030 C 
ATOM      5  C   UNL     1       0.002  -5.329  28.826  1.00  0.00     0.004 C 
ATOM      6  C   UNL     1       4.635  -4.849  27.634  1.00  0.00     0.013 C 
ATOM      7  C   UNL     1       3.290  -5.412  25.579  1.00  0.00    -0.063 C 
ATOM      8  C   UNL     1       1.305  -6.599  27.108  1.00  0.00    -0.003 C 
ATOM      9  C   UNL     1       0.769  -6.592  28.566  1.00  0.00    -0.011 C 
ATOM     10  C   UNL     1       4.659  -4.689  26.110  1.00  0.00    -0.006 C 
ATOM     11  C   UNL     1       3.540  -6.629  24.757  1.00  0.00    -0.027 C 
ATOM     12  C   UNL     1       0.301  -7.141  26.022  1.00  0.00     0.008 C 
ATOM     13  C   UNL     1      -0.125  -7.832  29.001  1.00  0.00     0.008 C 
ATOM     14  C   UNL     1       4.690  -3.143  25.863  1.00  0.00     0.017 C 
ATOM     15  C   UNL     1       6.029  -5.294  25.419  1.00  0.00    -0.020 C 
ATOM     16  C   UNL     1       4.595  -7.461  25.366  1.00  0.00     0.032 C 
ATOM     17  C   UNL     1       5.984  -6.839  25.003  1.00  0.00     0.006 C 
ATOM     18  C   UNL     1       7.243  -5.119  26.380  1.00  0.00     0.008 C 
ATOM     19  C   UNL     1       6.323  -4.487  24.056  1.00  0.00     0.012 C 
ATOM     20  C   UNL     1       7.270  -7.720  25.361  1.00  0.00    -0.025 C 
ATOM     21  C   UNL     1       8.611  -5.545  25.851  1.00  0.00     0.005 C 
ATOM     22  C   UNL     1       8.521  -6.847  25.022  1.00  0.00     0.003 C 
ATOM     23  C   UNL     1       7.206  -9.029  24.462  1.00  0.00     0.010 C 
ATOM     24  C   UNL     1       7.286  -8.150  26.886  1.00  0.00     0.012 C 
ATOM     25  C   UNL     1       9.951  -7.596  24.843  1.00  0.00    -0.006 C 
ATOM     26  C   UNL     1       8.465  -9.258  23.600  1.00  0.00     0.033 C 
ATOM     27  C   UNL     1       9.806  -9.126  24.390  1.00  0.00     0.120 C 
ATOM     28  C   UNL     1      10.870  -7.497  26.124  1.00  0.00     0.014 C 
ATOM     29  C   UNL     1      10.766  -6.859  23.712  1.00  0.00     0.014 C 
ENDROOT
BRANCH   1  30
ATOM     30  C   UNL     1       1.867  -2.679  26.917  1.00  0.00     0.048 C 
ATOM     31  O   UNL     1       2.094  -1.583  27.442  1.00  0.00    -0.550 OA
ATOM     32  O   UNL     1       1.299  -2.638  25.598  1.00  0.00    -0.550 OA
ENDBRANCH   1  30
BRANCH  27  33
ATOM     33  O   UNL     1       9.789 -10.125  25.398  1.00  0.00    -0.393 OA
ATOM     34  H   UNL     1       9.805 -11.038  25.023  1.00  0.00     0.210 HD
ENDBRANCH  27  33
TORSDOF 2
ENDMDL
MODEL 5
REMARK VINA RESULT:    -3.804      2.454      8.038
REMARK INTER + INTRA:          -4.314
REMARK INTER:                  -4.134
REMARK INTRA:                  -0.180
REMARK UNBOUND:                -0.176
REMARK SMILES C[C@@H]1[C@H](C)CC[C@@]2(C(=O)[O-])CC[C@]3(C)C(=CC[C@@H]4[C@@]5(C)CC[C@H](O)C(C)(C)[C@@H]5CC[C@@]43C)[C@@H]12
REMARK SMILES IDX 7 1 6 2 11 3 33 4 5 5 12 6 15 7 2 8 3 9 13 10 16 11 1 12
REMARK SMILES IDX 4 13 14 14 31 15 17 16 18 17 30 18 32 19 19 20 29 21 28 22
REMARK SMILES IDX 21 23 20 24 25 25 22 26 23 27 26 28 27 29 8 30 9 31 10 32
REMARK SMILES IDX 24 33
REMARK H PARENT 24 34
REMARK Flexibility Score: inf
ROOT
ATOM      1  C   UNL     1       1.207  -6.878  26.509  1.00  0.00     0.017 C 
ATOM      2  C   UNL     1      -0.123  -6.189  25.931  1.00  0.00     0.014 C 
ATOM      3  C   UNL     1       1.863  -7.789  25.348  1.00  0.00     0.014 C 
ATOM      4  C   UNL     1       2.262  -5.827  27.002  1.00  0.00     0.030 C 
ATOM      5  C   UNL     1      -0.072  -4.670  25.678  1.00  0.00     0.004 C 
ATOM      6  C   UNL     1       3.424  -7.958  25.388  1.00  0.00     0.013 C 
ATOM      7  C   UNL     1       3.815  -6.487  27.395  1.00  0.00    -0.063 C 
ATOM      8  C   UNL     1       2.348  -4.422  26.267  1.00  0.00    -0.003 C 
ATOM      9  C   UNL     1       1.262  -4.198  25.179  1.00  0.00    -0.011 C 
ATOM     10  C   UNL     1       4.101  -7.968  26.762  1.00  0.00    -0.006 C 
ATOM     11  C   UNL     1       5.046  -5.665  27.569  1.00  0.00    -0.027 C 
ATOM     12  C   UNL     1       2.486  -3.270  27.331  1.00  0.00     0.008 C 
ATOM     13  C   UNL     1       1.106  -2.717  24.625  1.00  0.00     0.008 C 
ATOM     14  C   UNL     1       3.410  -9.132  27.549  1.00  0.00     0.017 C 
ATOM     15  C   UNL     1       5.705  -8.351  26.689  1.00  0.00    -0.020 C 
ATOM     16  C   UNL     1       5.919  -5.778  26.384  1.00  0.00     0.032 C 
ATOM     17  C   UNL     1       6.711  -7.123  26.482  1.00  0.00     0.006 C 
ATOM     18  C   UNL     1       5.969  -9.354  25.526  1.00  0.00     0.008 C 
ATOM     19  C   UNL     1       6.139  -9.037  28.079  1.00  0.00     0.012 C 
ATOM     20  C   UNL     1       7.891  -7.329  25.422  1.00  0.00    -0.025 C 
ATOM     21  C   UNL     1       7.395  -9.883  25.381  1.00  0.00     0.005 C 
ATOM     22  C   UNL     1       8.442  -8.775  25.639  1.00  0.00     0.003 C 
ATOM     23  C   UNL     1       8.995  -6.228  25.730  1.00  0.00     0.010 C 
ATOM     24  C   UNL     1       7.386  -7.141  23.932  1.00  0.00     0.012 C 
ATOM     25  C   UNL     1       9.913  -9.130  25.047  1.00  0.00    -0.006 C 
ATOM     26  C   UNL     1      10.402  -6.806  25.983  1.00  0.00     0.033 C 
ATOM     27  C   UNL     1      10.861  -7.846  24.911  1.00  0.00     0.120 C 
ATOM     28  C   UNL     1       9.859  -9.911  23.674  1.00  0.00     0.014 C 
ATOM     29  C   UNL     1      10.627 -10.124  26.041  1.00  0.00     0.014 C 
ENDROOT
BRANCH   1  30
ATOM     30  C   UNL     1       0.711  -7.725  27.727  1.00  0.00     0.048 C 
ATOM     31  O   UNL     1       0.057  -8.768  27.608  1.00  0.00    -0.550 OA
ATOM     32  O   UNL     1       0.897  -7.250  29.070  1.00  0.00    -0.550 OA
ENDBRANCH   1  30
BRANCH  27  33
ATOM     33  O   UNL     1      10.895  -7.166  23.666  1.00  0.00    -0.393 OA
ATOM     34  H   UNL     1      10.716  -7.767  22.904  1.00  0.00     0.210 HD
ENDBRANCH  27  33
TORSDOF 2
ENDMDL
MODEL 6
REMARK VINA RESULT:    -3.305      1.903      8.276
REMARK INTER + INTRA:          -3.771
REMARK INTER:                  -3.592
REMARK INTRA:                  -0.179
REMARK UNBOUND:                -0.176
REMARK SMILES C[C@@H]1[C@H](C)CC[C@@]2(C(=O)[O-])CC[C@]3(C)C(=CC[C@@H]4[C@@]5(C)CC[C@H](O)C(C)(C)[C@@H]5CC[C@@]43C)[C@@H]12
REMARK SMILES IDX 7 1 6 2 11 3 33 4 5 5 12 6 15 7 2 8 3 9 13 10 16 11 1 12
REMARK SMILES IDX 4 13 14 14 31 15 17 16 18 17 30 18 32 19 19 20 29 21 28 22
REMARK SMILES IDX 21 23 20 24 25 25 22 26 23 27 26 28 27 29 8 30 9 31 10 32
REMARK SMILES IDX 24 33
REMARK H PARENT 24 34
REMARK Flexibility Score: inf
ROOT
ATOM      1  C   UNL     1       1.309  -5.426  25.079  1.00  0.00     0.017 C 
ATOM      2  C   UNL     1       0.293  -4.185  25.136  1.00  0.00     0.014 C 
ATOM      3  C   UNL     1       2.744  -4.895  24.562  1.00  0.00     0.014 C 
ATOM      4  C   UNL     1       1.486  -6.123  26.473  1.00  0.00     0.030 C 
ATOM      5  C   UNL     1      -0.125  -3.686  26.533  1.00  0.00     0.004 C 
ATOM      6  C   UNL     1       4.007  -5.670  25.083  1.00  0.00     0.013 C 
ATOM      7  C   UNL     1       2.757  -7.300  26.541  1.00  0.00    -0.063 C 
ATOM      8  C   UNL     1       1.376  -5.244  27.790  1.00  0.00    -0.003 C 
ATOM      9  C   UNL     1       0.980  -3.762  27.543  1.00  0.00    -0.011 C 
ATOM     10  C   UNL     1       3.861  -7.173  25.341  1.00  0.00    -0.006 C 
ATOM     11  C   UNL     1       3.316  -7.845  27.810  1.00  0.00    -0.027 C 
ATOM     12  C   UNL     1       0.516  -6.002  28.869  1.00  0.00     0.008 C 
ATOM     13  C   UNL     1       0.564  -2.916  28.822  1.00  0.00     0.008 C 
ATOM     14  C   UNL     1       3.379  -7.776  23.978  1.00  0.00     0.017 C 
ATOM     15  C   UNL     1       5.294  -7.911  25.690  1.00  0.00    -0.020 C 
ATOM     16  C   UNL     1       4.625  -7.231  28.108  1.00  0.00     0.032 C 
ATOM     17  C   UNL     1       5.711  -7.943  27.235  1.00  0.00     0.006 C 
ATOM     18  C   UNL     1       6.460  -7.220  24.920  1.00  0.00     0.008 C 
ATOM     19  C   UNL     1       5.210  -9.453  25.232  1.00  0.00     0.012 C 
ATOM     20  C   UNL     1       7.234  -7.596  27.578  1.00  0.00    -0.025 C 
ATOM     21  C   UNL     1       7.848  -7.844  25.063  1.00  0.00     0.005 C 
ATOM     22  C   UNL     1       8.112  -8.322  26.508  1.00  0.00     0.003 C 
ATOM     23  C   UNL     1       7.521  -8.144  29.043  1.00  0.00     0.010 C 
ATOM     24  C   UNL     1       7.504  -6.035  27.557  1.00  0.00     0.012 C 
ATOM     25  C   UNL     1       9.688  -8.544  26.834  1.00  0.00    -0.006 C 
ATOM     26  C   UNL     1       8.716  -9.116  29.124  1.00  0.00     0.033 C 
ATOM     27  C   UNL     1      10.002  -8.599  28.405  1.00  0.00     0.120 C 
ATOM     28  C   UNL     1      10.624  -7.481  26.133  1.00  0.00     0.014 C 
ATOM     29  C   UNL     1      10.136  -9.928  26.228  1.00  0.00     0.014 C 
ENDROOT
BRANCH   1  30
ATOM     30  C   UNL     1       0.646  -6.429  24.077  1.00  0.00     0.048 C 
ATOM     31  O   UNL     1       0.620  -6.251  22.854  1.00  0.00    -0.550 OA
ATOM     32  O   UNL     1      -0.084  -7.568  24.563  1.00  0.00    -0.550 OA
ENDBRANCH   1  30
BRANCH  27  33
ATOM     33  O   UNL     1      10.382  -7.397  29.055  1.00  0.00    -0.393 OA
ATOM     34  H   UNL     1      10.459  -6.638  28.429  1.00  0.00     0.210 HD
ENDBRANCH  27  33
TORSDOF 2
ENDMDL
MODEL 7
REMARK VINA RESULT:    -3.009      1.757      8.256
REMARK INTER + INTRA:          -3.449
REMARK INTER:                  -3.269
REMARK INTRA:                  -0.179
REMARK UNBOUND:                -0.176
REMARK SMILES C[C@@H]1[C@H](C)CC[C@@]2(C(=O)[O-])CC[C@]3(C)C(=CC[C@@H]4[C@@]5(C)CC[C@H](O)C(C)(C)[C@@H]5CC[C@@]43C)[C@@H]12
REMARK SMILES IDX 7 1 6 2 11 3 33 4 5 5 12 6 15 7 2 8 3 9 13 10 16 11 1 12
REMARK SMILES IDX 4 13 14 14 31 15 17 16 18 17 30 18 32 19 19 20 29 21 28 22
REMARK SMILES IDX 21 23 20 24 25 25 22 26 23 27 26 28 27 29 8 30 9 31 10 32
REMARK SMILES IDX 24 33
REMARK H PARENT 24 34
REMARK Flexibility Score: inf
ROOT
ATOM      1  C   UNL     1       2.637  -4.667  25.279  1.00  0.00     0.017 C 
ATOM      2  C   UNL     1       1.824  -3.306  25.531  1.00  0.00     0.014 C 
ATOM      3  C   UNL     1       3.785  -4.387  24.178  1.00  0.00     0.014 C 
ATOM      4  C   UNL     1       3.298  -5.224  26.588  1.00  0.00     0.030 C 
ATOM      5  C   UNL     1       2.034  -2.607  26.888  1.00  0.00     0.004 C 
ATOM      6  C   UNL     1       5.088  -5.258  24.288  1.00  0.00     0.013 C 
ATOM      7  C   UNL     1       4.398  -6.541  26.343  1.00  0.00    -0.063 C 
ATOM      8  C   UNL     1       3.787  -4.199  27.697  1.00  0.00    -0.003 C 
ATOM      9  C   UNL     1       3.441  -2.714  27.398  1.00  0.00    -0.011 C 
ATOM     10  C   UNL     1       4.941  -6.692  24.808  1.00  0.00    -0.006 C 
ATOM     11  C   UNL     1       5.370  -7.012  27.369  1.00  0.00    -0.027 C 
ATOM     12  C   UNL     1       3.370  -4.716  29.124  1.00  0.00     0.008 C 
ATOM     13  C   UNL     1       3.631  -1.686  28.594  1.00  0.00     0.008 C 
ATOM     14  C   UNL     1       3.915  -7.373  23.841  1.00  0.00     0.017 C 
ATOM     15  C   UNL     1       6.335  -7.567  24.689  1.00  0.00    -0.020 C 
ATOM     16  C   UNL     1       6.733  -6.545  27.046  1.00  0.00     0.032 C 
ATOM     17  C   UNL     1       7.327  -7.483  25.943  1.00  0.00     0.006 C 
ATOM     18  C   UNL     1       7.149  -7.122  23.438  1.00  0.00     0.008 C 
ATOM     19  C   UNL     1       5.958  -9.126  24.539  1.00  0.00     0.012 C 
ATOM     20  C   UNL     1       8.882  -7.301  25.621  1.00  0.00    -0.025 C 
ATOM     21  C   UNL     1       8.428  -7.901  23.132  1.00  0.00     0.005 C 
ATOM     22  C   UNL     1       9.206  -8.248  24.421  1.00  0.00     0.003 C 
ATOM     23  C   UNL     1       9.683  -7.718  26.930  1.00  0.00     0.010 C 
ATOM     24  C   UNL     1       9.241  -5.801  25.262  1.00  0.00     0.012 C 
ATOM     25  C   UNL     1      10.760  -8.635  24.149  1.00  0.00    -0.006 C 
ATOM     26  C   UNL     1      10.735  -8.822  26.695  1.00  0.00     0.033 C 
ATOM     27  C   UNL     1      11.666  -8.559  25.469  1.00  0.00     0.120 C 
ATOM     28  C   UNL     1      11.419  -7.787  22.991  1.00  0.00     0.014 C 
ATOM     29  C   UNL     1      10.823 -10.125  23.636  1.00  0.00     0.014 C 
ENDROOT
BRANCH   1  30
ATOM     30  C   UNL     1       1.556  -5.680  24.772  1.00  0.00     0.048 C 
ATOM     31  O   UNL     1       1.049  -5.625  23.646  1.00  0.00    -0.550 OA
ATOM     32  O   UNL     1       1.009  -6.667  25.661  1.00  0.00    -0.550 OA
ENDBRANCH   1  30
BRANCH  27  33
ATOM     33  O   UNL     1      12.364  -7.352  25.734  1.00  0.00    -0.393 OA
ATOM     34  H   UNL     1      13.335  -7.492  25.832  1.00  0.00     0.210 HD
ENDBRANCH  27  33
TORSDOF 2
ENDMDL
MODEL 8
REMARK VINA RESULT:    -2.973      1.623      8.318
REMARK INTER + INTRA:          -3.410
REMARK INTER:                  -3.249
REMARK INTRA:                  -0.161
REMARK UNBOUND:                -0.176
REMARK SMILES C[C@@H]1[C@H](C)CC[C@@]2(C(=O)[O-])CC[C@]3(C)C(=CC[C@@H]4[C@@]5(C)CC[C@H](O)C(C)(C)[C@@H]5CC[C@@]43C)[C@@H]12
REMARK SMILES IDX 7 1 6 2 11 3 33 4 5 5 12 6 15 7 2 8 3 9 13 10 16 11 1 12
REMARK SMILES IDX 4 13 14 14 31 15 17 16 18 17 30 18 32 19 19 20 29 21 28 22
REMARK SMILES IDX 21 23 20 24 25 25 22 26 23 27 26 28 27 29 8 30 9 31 10 32
REMARK SMILES IDX 24 33
REMARK H PARENT 24 34
REMARK Flexibility Score: inf
ROOT
ATOM      1  C   UNL     1       1.773  -4.464  25.231  1.00  0.00     0.017 C 
ATOM      2  C   UNL     1       0.979  -3.085  25.450  1.00  0.00     0.014 C 
ATOM      3  C   UNL     1       3.028  -4.187  24.253  1.00  0.00     0.014 C 
ATOM      4  C   UNL     1       2.290  -5.079  26.578  1.00  0.00     0.030 C 
ATOM      5  C   UNL     1       1.079  -2.433  26.842  1.00  0.00     0.004 C 
ATOM      6  C   UNL     1       4.289  -5.102  24.457  1.00  0.00     0.013 C 
ATOM      7  C   UNL     1       3.370  -6.422  26.395  1.00  0.00    -0.063 C 
ATOM      8  C   UNL     1       2.701  -4.103  27.761  1.00  0.00    -0.003 C 
ATOM      9  C   UNL     1       2.427  -2.600  27.479  1.00  0.00    -0.011 C 
ATOM     10  C   UNL     1       4.053  -6.545  24.913  1.00  0.00    -0.006 C 
ATOM     11  C   UNL     1       4.227  -6.953  27.492  1.00  0.00    -0.027 C 
ATOM     12  C   UNL     1       2.136  -4.649  29.125  1.00  0.00     0.008 C 
ATOM     13  C   UNL     1       2.532  -1.614  28.720  1.00  0.00     0.008 C 
ATOM     14  C   UNL     1       3.103  -7.164  23.833  1.00  0.00     0.017 C 
ATOM     15  C   UNL     1       5.426  -7.460  24.899  1.00  0.00    -0.020 C 
ATOM     16  C   UNL     1       5.627  -6.520  27.314  1.00  0.00     0.032 C 
ATOM     17  C   UNL     1       6.296  -7.443  26.242  1.00  0.00     0.006 C 
ATOM     18  C   UNL     1       6.368  -7.003  23.744  1.00  0.00     0.008 C 
ATOM     19  C   UNL     1       5.021  -9.000  24.663  1.00  0.00     0.012 C 
ATOM     20  C   UNL     1       7.880  -7.301  26.074  1.00  0.00    -0.025 C 
ATOM     21  C   UNL     1       7.647  -7.813  23.535  1.00  0.00     0.005 C 
ATOM     22  C   UNL     1       8.289  -8.222  24.880  1.00  0.00     0.003 C 
ATOM     23  C   UNL     1       8.541  -7.782  27.438  1.00  0.00     0.010 C 
ATOM     24  C   UNL     1       8.313  -5.803  25.799  1.00  0.00     0.012 C 
ATOM     25  C   UNL     1       9.850  -8.650  24.743  1.00  0.00    -0.006 C 
ATOM     26  C   UNL     1       9.578  -8.911  27.268  1.00  0.00     0.033 C 
ATOM     27  C   UNL     1      10.628  -8.641  26.144  1.00  0.00     0.120 C 
ATOM     28  C   UNL     1      10.640  -7.789  23.680  1.00  0.00     0.014 C 
ATOM     29  C   UNL     1       9.919 -10.125  24.190  1.00  0.00     0.014 C 
ENDROOT
BRANCH   1  30
ATOM     30  C   UNL     1       0.717  -5.426  24.593  1.00  0.00     0.048 C 
ATOM     31  O   UNL     1       0.386  -5.378  23.402  1.00  0.00    -0.550 OA
ATOM     32  O   UNL     1      -0.018  -6.349  25.413  1.00  0.00    -0.550 OA
ENDBRANCH   1  30
BRANCH  27  33
ATOM     33  O   UNL     1      11.332  -7.465  26.512  1.00  0.00    -0.393 OA
ATOM     34  H   UNL     1      12.307  -7.605  26.547  1.00  0.00     0.210 HD
ENDBRANCH  27  33
TORSDOF 2
ENDMDL
