MODEL 1
REMARK VINA RESULT:    -5.236      0.000      0.000
REMARK INTER + INTRA:          -6.692
REMARK INTER:                  -6.307
REMARK INTRA:                  -0.385
REMARK UNBOUND:                -0.385
REMARK SMILES O=c1c(O)c(-c2ccc(O)cc2O)oc2cc(O)cc(O)c12
REMARK SMILES IDX 5 1 3 2 2 3 1 4 22 5 20 6 19 7 17 8 16 9 15 10 14 11 6 12
REMARK SMILES IDX 8 13 7 14 9 15 11 16 12 17 10 18 13 20 4 22 21 24 18 26
REMARK H PARENT 10 19 13 21 4 23 21 25 18 27
REMARK Flexibility Score: inf
ROOT
ATOM      1  C   UNL     1      54.152  22.599  52.135  1.00  0.00     0.184 A 
ATOM      2  C   UNL     1      54.821  22.983  53.311  1.00  0.00     0.208 A 
ATOM      3  C   UNL     1      54.070  23.207  54.475  1.00  0.00     0.238 A 
ATOM      4  O   UNL     1      54.660  23.540  55.539  1.00  0.00    -0.285 OA
ATOM      5  C   UNL     1      52.667  23.065  54.437  1.00  0.00     0.111 A 
ATOM      6  C   UNL     1      51.838  23.276  55.564  1.00  0.00     0.134 A 
ATOM      7  C   UNL     1      50.448  23.122  55.443  1.00  0.00     0.093 A 
ATOM      8  C   UNL     1      49.874  22.765  54.221  1.00  0.00     0.123 A 
ATOM      9  C   UNL     1      50.689  22.555  53.104  1.00  0.00     0.094 A 
ATOM     10  C   UNL     1      52.076  22.700  53.204  1.00  0.00     0.146 A 
ATOM     11  O   UNL     1      52.827  22.490  52.130  1.00  0.00    -0.451 OA
ENDROOT
BRANCH   1  12
ATOM     12  C   UNL     1      54.883  22.336  50.878  1.00  0.00     0.063 A 
ATOM     13  C   UNL     1      55.947  20.733  49.391  1.00  0.00     0.047 A 
ATOM     14  C   UNL     1      55.250  21.016  50.568  1.00  0.00     0.020 A 
ATOM     15  C   UNL     1      56.299  21.767  48.516  1.00  0.00     0.119 A 
ATOM     16  C   UNL     1      55.959  23.087  48.829  1.00  0.00     0.093 A 
ATOM     17  C   UNL     1      55.264  23.381  50.011  1.00  0.00     0.130 A 
BRANCH  15  18
ATOM     18  O   UNL     1      56.991  21.496  47.338  1.00  0.00    -0.508 OA
ATOM     19  H   UNL     1      57.617  22.175  46.923  1.00  0.00     0.293 HD
ENDBRANCH  15  18
BRANCH  17  20
ATOM     20  O   UNL     1      54.973  24.707  50.334  1.00  0.00    -0.507 OA
ATOM     21  H   UNL     1      54.103  24.965  50.785  1.00  0.00     0.293 HD
ENDBRANCH  17  20
ENDBRANCH   1  12
BRANCH   2  22
ATOM     22  O   UNL     1      56.206  23.160  53.304  1.00  0.00    -0.502 OA
ATOM     23  H   UNL     1      56.648  23.965  52.879  1.00  0.00     0.293 HD
ENDBRANCH   2  22
BRANCH   6  24
ATOM     24  O   UNL     1      52.380  23.635  56.799  1.00  0.00    -0.507 OA
ATOM     25  H   UNL     1      52.605  24.597  57.023  1.00  0.00     0.293 HD
ENDBRANCH   6  24
BRANCH   8  26
ATOM     26  O   UNL     1      48.491  22.621  54.129  1.00  0.00    -0.508 OA
ATOM     27  H   UNL     1      47.860  23.293  54.549  1.00  0.00     0.293 HD
ENDBRANCH   8  26
TORSDOF 6
ENDMDL
MODEL 2
REMARK VINA RESULT:    -5.103      5.349      9.193
REMARK INTER + INTRA:          -6.531
REMARK INTER:                  -6.492
REMARK INTRA:                  -0.039
REMARK UNBOUND:                -0.385
REMARK SMILES O=c1c(O)c(-c2ccc(O)cc2O)oc2cc(O)cc(O)c12
REMARK SMILES IDX 5 1 3 2 2 3 1 4 22 5 20 6 19 7 17 8 16 9 15 10 14 11 6 12
REMARK SMILES IDX 8 13 7 14 9 15 11 16 12 17 10 18 13 20 4 22 21 24 18 26
REMARK H PARENT 10 19 13 21 4 23 21 25 18 27
REMARK Flexibility Score: inf
ROOT
ATOM      1  C   UNL     1      46.365  22.621  55.973  1.00  0.00     0.184 A 
ATOM      2  C   UNL     1      45.535  23.755  55.931  1.00  0.00     0.208 A 
ATOM      3  C   UNL     1      44.187  23.622  56.298  1.00  0.00     0.238 A 
ATOM      4  O   UNL     1      43.435  24.635  56.275  1.00  0.00    -0.285 OA
ATOM      5  C   UNL     1      43.691  22.358  56.680  1.00  0.00     0.111 A 
ATOM      6  C   UNL     1      42.345  22.138  57.060  1.00  0.00     0.134 A 
ATOM      7  C   UNL     1      41.927  20.848  57.419  1.00  0.00     0.093 A 
ATOM      8  C   UNL     1      42.823  19.777  57.402  1.00  0.00     0.123 A 
ATOM      9  C   UNL     1      44.154  19.989  57.028  1.00  0.00     0.094 A 
ATOM     10  C   UNL     1      44.592  21.267  56.669  1.00  0.00     0.146 A 
ATOM     11  O   UNL     1      45.861  21.441  56.322  1.00  0.00    -0.451 OA
ENDROOT
BRANCH   1  12
ATOM     12  C   UNL     1      47.796  22.694  55.610  1.00  0.00     0.063 A 
ATOM     13  C   UNL     1      49.899  23.912  55.690  1.00  0.00     0.047 A 
ATOM     14  C   UNL     1      48.546  23.808  56.021  1.00  0.00     0.020 A 
ATOM     15  C   UNL     1      50.517  22.910  54.933  1.00  0.00     0.119 A 
ATOM     16  C   UNL     1      49.772  21.809  54.499  1.00  0.00     0.093 A 
ATOM     17  C   UNL     1      48.411  21.700  54.822  1.00  0.00     0.130 A 
BRANCH  15  18
ATOM     18  O   UNL     1      51.866  23.001  54.600  1.00  0.00    -0.508 OA
ATOM     19  H   UNL     1      52.400  22.187  54.324  1.00  0.00     0.293 HD
ENDBRANCH  15  18
BRANCH  17  20
ATOM     20  O   UNL     1      47.669  20.620  54.343  1.00  0.00    -0.507 OA
ATOM     21  H   UNL     1      47.366  20.570  53.377  1.00  0.00     0.293 HD
ENDBRANCH  17  20
ENDBRANCH   1  12
BRANCH   2  22
ATOM     22  O   UNL     1      46.046  24.983  55.505  1.00  0.00    -0.502 OA
ATOM     23  H   UNL     1      47.007  25.096  55.205  1.00  0.00     0.293 HD
ENDBRANCH   2  22
BRANCH   6  24
ATOM     24  O   UNL     1      41.425  23.187  57.086  1.00  0.00    -0.507 OA
ATOM     25  H   UNL     1      41.717  24.150  57.201  1.00  0.00     0.293 HD
ENDBRANCH   6  24
BRANCH   8  26
ATOM     26  O   UNL     1      42.380  18.506  57.762  1.00  0.00    -0.508 OA
ATOM     27  H   UNL     1      43.029  17.743  57.916  1.00  0.00     0.293 HD
ENDBRANCH   8  26
TORSDOF 6
ENDMDL
MODEL 3
REMARK VINA RESULT:    -5.052      2.171      4.052
REMARK INTER + INTRA:          -6.470
REMARK INTER:                  -6.058
REMARK INTRA:                  -0.412
REMARK UNBOUND:                -0.385
REMARK SMILES O=c1c(O)c(-c2ccc(O)cc2O)oc2cc(O)cc(O)c12
REMARK SMILES IDX 5 1 3 2 2 3 1 4 22 5 20 6 19 7 17 8 16 9 15 10 14 11 6 12
REMARK SMILES IDX 8 13 7 14 9 15 11 16 12 17 10 18 13 20 4 22 21 24 18 26
REMARK H PARENT 10 19 13 21 4 23 21 25 18 27
REMARK Flexibility Score: inf
ROOT
ATOM      1  C   UNL     1      55.417  23.090  50.436  1.00  0.00     0.184 A 
ATOM      2  C   UNL     1      54.040  23.353  50.549  1.00  0.00     0.208 A 
ATOM      3  C   UNL     1      53.387  23.035  51.750  1.00  0.00     0.238 A 
ATOM      4  O   UNL     1      52.154  23.276  51.869  1.00  0.00    -0.285 OA
ATOM      5  C   UNL     1      54.115  22.442  52.803  1.00  0.00     0.111 A 
ATOM      6  C   UNL     1      53.531  22.087  54.043  1.00  0.00     0.134 A 
ATOM      7  C   UNL     1      54.322  21.493  55.038  1.00  0.00     0.093 A 
ATOM      8  C   UNL     1      55.679  21.246  54.818  1.00  0.00     0.123 A 
ATOM      9  C   UNL     1      56.261  21.595  53.595  1.00  0.00     0.094 A 
ATOM     10  C   UNL     1      55.491  22.190  52.591  1.00  0.00     0.146 A 
ATOM     11  O   UNL     1      56.070  22.516  51.441  1.00  0.00    -0.451 OA
ENDROOT
BRANCH   1  12
ATOM     12  C   UNL     1      56.168  23.411  49.203  1.00  0.00     0.063 A 
ATOM     13  C   UNL     1      57.224  25.087  47.793  1.00  0.00     0.047 A 
ATOM     14  C   UNL     1      56.519  24.747  48.950  1.00  0.00     0.020 A 
ATOM     15  C   UNL     1      57.573  24.098  46.867  1.00  0.00     0.119 A 
ATOM     16  C   UNL     1      57.207  22.768  47.099  1.00  0.00     0.093 A 
ATOM     17  C   UNL     1      56.495  22.419  48.256  1.00  0.00     0.130 A 
BRANCH  15  18
ATOM     18  O   UNL     1      58.279  24.424  45.711  1.00  0.00    -0.508 OA
ATOM     19  H   UNL     1      59.281  24.292  45.647  1.00  0.00     0.293 HD
ENDBRANCH  15  18
BRANCH  17  20
ATOM     20  O   UNL     1      56.093  21.098  48.452  1.00  0.00    -0.507 OA
ATOM     21  H   UNL     1      55.193  20.870  48.858  1.00  0.00     0.293 HD
ENDBRANCH  17  20
ENDBRANCH   1  12
BRANCH   2  22
ATOM     22  O   UNL     1      53.338  23.898  49.472  1.00  0.00    -0.502 OA
ATOM     23  H   UNL     1      52.415  24.302  49.575  1.00  0.00     0.293 HD
ENDBRANCH   2  22
BRANCH   6  24
ATOM     24  O   UNL     1      52.178  22.320  54.294  1.00  0.00    -0.507 OA
ATOM     25  H   UNL     1      51.865  22.787  55.136  1.00  0.00     0.293 HD
ENDBRANCH   6  24
BRANCH   8  26
ATOM     26  O   UNL     1      56.440  20.654  55.824  1.00  0.00    -0.508 OA
ATOM     27  H   UNL     1      57.218  21.141  56.255  1.00  0.00     0.293 HD
ENDBRANCH   8  26
TORSDOF 6
ENDMDL
MODEL 4
REMARK VINA RESULT:    -5.037      2.250      4.297
REMARK INTER + INTRA:          -6.452
REMARK INTER:                  -6.058
REMARK INTRA:                  -0.395
REMARK UNBOUND:                -0.385
REMARK SMILES O=c1c(O)c(-c2ccc(O)cc2O)oc2cc(O)cc(O)c12
REMARK SMILES IDX 5 1 3 2 2 3 1 4 22 5 20 6 19 7 17 8 16 9 15 10 14 11 6 12
REMARK SMILES IDX 8 13 7 14 9 15 11 16 12 17 10 18 13 20 4 22 21 24 18 26
REMARK H PARENT 10 19 13 21 4 23 21 25 18 27
REMARK Flexibility Score: inf
ROOT
ATOM      1  C   UNL     1      54.408  23.537  52.143  1.00  0.00     0.184 A 
ATOM      2  C   UNL     1      53.289  23.162  52.908  1.00  0.00     0.208 A 
ATOM      3  C   UNL     1      53.449  22.963  54.288  1.00  0.00     0.238 A 
ATOM      4  O   UNL     1      52.451  22.637  54.987  1.00  0.00    -0.285 OA
ATOM      5  C   UNL     1      54.723  23.120  54.871  1.00  0.00     0.111 A 
ATOM      6  C   UNL     1      54.970  22.934  56.253  1.00  0.00     0.134 A 
ATOM      7  C   UNL     1      56.270  23.102  56.755  1.00  0.00     0.093 A 
ATOM      8  C   UNL     1      57.323  23.449  55.907  1.00  0.00     0.123 A 
ATOM      9  C   UNL     1      57.085  23.635  54.541  1.00  0.00     0.094 A 
ATOM     10  C   UNL     1      55.797  23.475  54.020  1.00  0.00     0.146 A 
ATOM     11  O   UNL     1      55.598  23.662  52.721  1.00  0.00    -0.451 OA
ENDROOT
BRANCH   1  12
ATOM     12  C   UNL     1      54.307  23.774  50.687  1.00  0.00     0.063 A 
ATOM     13  C   UNL     1      53.442  25.123  48.858  1.00  0.00     0.047 A 
ATOM     14  C   UNL     1      53.562  24.873  50.227  1.00  0.00     0.020 A 
ATOM     15  C   UNL     1      54.050  24.270  47.931  1.00  0.00     0.119 A 
ATOM     16  C   UNL     1      54.773  23.160  48.379  1.00  0.00     0.093 A 
ATOM     17  C   UNL     1      54.895  22.898  49.752  1.00  0.00     0.130 A 
BRANCH  15  18
ATOM     18  O   UNL     1      53.939  24.512  46.564  1.00  0.00    -0.508 OA
ATOM     19  H   UNL     1      53.044  24.699  46.130  1.00  0.00     0.293 HD
ENDBRANCH  15  18
BRANCH  17  20
ATOM     20  O   UNL     1      55.577  21.761  50.184  1.00  0.00    -0.507 OA
ATOM     21  H   UNL     1      55.962  21.091  49.528  1.00  0.00     0.293 HD
ENDBRANCH  17  20
ENDBRANCH   1  12
BRANCH   2  22
ATOM     22  O   UNL     1      52.050  22.969  52.293  1.00  0.00    -0.502 OA
ATOM     23  H   UNL     1      51.320  22.404  52.709  1.00  0.00     0.293 HD
ENDBRANCH   2  22
BRANCH   6  24
ATOM     24  O   UNL     1      53.939  22.586  57.127  1.00  0.00    -0.507 OA
ATOM     25  H   UNL     1      53.458  23.280  57.687  1.00  0.00     0.293 HD
ENDBRANCH   6  24
BRANCH   8  26
ATOM     26  O   UNL     1      58.604  23.608  56.433  1.00  0.00    -0.508 OA
ATOM     27  H   UNL     1      59.204  22.812  56.613  1.00  0.00     0.293 HD
ENDBRANCH   8  26
TORSDOF 6
ENDMDL
MODEL 5
REMARK VINA RESULT:    -4.981      3.216      4.762
REMARK INTER + INTRA:          -6.384
REMARK INTER:                  -5.967
REMARK INTRA:                  -0.417
REMARK UNBOUND:                -0.385
REMARK SMILES O=c1c(O)c(-c2ccc(O)cc2O)oc2cc(O)cc(O)c12
REMARK SMILES IDX 5 1 3 2 2 3 1 4 22 5 20 6 19 7 17 8 16 9 15 10 14 11 6 12
REMARK SMILES IDX 8 13 7 14 9 15 11 16 12 17 10 18 13 20 4 22 21 24 18 26
REMARK H PARENT 10 19 13 21 4 23 21 25 18 27
REMARK Flexibility Score: inf
ROOT
ATOM      1  C   UNL     1      55.464  23.029  52.122  1.00  0.00     0.184 A 
ATOM      2  C   UNL     1      54.984  21.879  52.774  1.00  0.00     0.208 A 
ATOM      3  C   UNL     1      55.435  21.600  54.073  1.00  0.00     0.238 A 
ATOM      4  O   UNL     1      55.004  20.578  54.674  1.00  0.00    -0.285 OA
ATOM      5  C   UNL     1      56.370  22.461  54.686  1.00  0.00     0.111 A 
ATOM      6  C   UNL     1      56.878  22.249  55.990  1.00  0.00     0.134 A 
ATOM      7  C   UNL     1      57.813  23.148  56.526  1.00  0.00     0.093 A 
ATOM      8  C   UNL     1      58.250  24.249  55.786  1.00  0.00     0.123 A 
ATOM      9  C   UNL     1      57.751  24.463  54.497  1.00  0.00     0.094 A 
ATOM     10  C   UNL     1      56.817  23.581  53.945  1.00  0.00     0.146 A 
ATOM     11  O   UNL     1      56.357  23.810  52.721  1.00  0.00    -0.451 OA
ENDROOT
BRANCH   1  12
ATOM     12  C   UNL     1      55.020  23.387  50.758  1.00  0.00     0.063 A 
ATOM     13  C   UNL     1      55.384  23.264  48.356  1.00  0.00     0.047 A 
ATOM     14  C   UNL     1      55.772  22.939  49.659  1.00  0.00     0.020 A 
ATOM     15  C   UNL     1      54.250  24.054  48.137  1.00  0.00     0.119 A 
ATOM     16  C   UNL     1      53.510  24.524  49.226  1.00  0.00     0.093 A 
ATOM     17  C   UNL     1      53.895  24.207  50.537  1.00  0.00     0.130 A 
BRANCH  15  18
ATOM     18  O   UNL     1      53.852  24.381  46.843  1.00  0.00    -0.508 OA
ATOM     19  H   UNL     1      54.198  25.210  46.376  1.00  0.00     0.293 HD
ENDBRANCH  15  18
BRANCH  17  20
ATOM     20  O   UNL     1      53.176  24.723  51.616  1.00  0.00    -0.507 OA
ATOM     21  H   UNL     1      53.631  24.978  52.484  1.00  0.00     0.293 HD
ENDBRANCH  17  20
ENDBRANCH   1  12
BRANCH   2  22
ATOM     22  O   UNL     1      54.094  21.022  52.123  1.00  0.00    -0.502 OA
ATOM     23  H   UNL     1      54.120  20.872  51.122  1.00  0.00     0.293 HD
ENDBRANCH   2  22
BRANCH   6  24
ATOM     24  O   UNL     1      56.463  21.159  56.755  1.00  0.00    -0.507 OA
ATOM     25  H   UNL     1      55.894  21.276  57.585  1.00  0.00     0.293 HD
ENDBRANCH   6  24
BRANCH   8  26
ATOM     26  O   UNL     1      59.180  25.125  56.342  1.00  0.00    -0.508 OA
ATOM     27  H   UNL     1      60.160  25.089  56.085  1.00  0.00     0.293 HD
ENDBRANCH   8  26
TORSDOF 6
ENDMDL
MODEL 6
REMARK VINA RESULT:    -4.968      2.258      4.041
REMARK INTER + INTRA:          -6.369
REMARK INTER:                  -5.958
REMARK INTRA:                  -0.411
REMARK UNBOUND:                -0.385
REMARK SMILES O=c1c(O)c(-c2ccc(O)cc2O)oc2cc(O)cc(O)c12
REMARK SMILES IDX 5 1 3 2 2 3 1 4 22 5 20 6 19 7 17 8 16 9 15 10 14 11 6 12
REMARK SMILES IDX 8 13 7 14 9 15 11 16 12 17 10 18 13 20 4 22 21 24 18 26
REMARK H PARENT 10 19 13 21 4 23 21 25 18 27
REMARK Flexibility Score: inf
ROOT
ATOM      1  C   UNL     1      51.409  22.753  54.387  1.00  0.00     0.184 A 
ATOM      2  C   UNL     1      51.443  23.699  55.428  1.00  0.00     0.208 A 
ATOM      3  C   UNL     1      50.338  23.800  56.286  1.00  0.00     0.238 A 
ATOM      4  O   UNL     1      50.360  24.637  57.230  1.00  0.00    -0.285 OA
ATOM      5  C   UNL     1      49.214  22.973  56.076  1.00  0.00     0.111 A 
ATOM      6  C   UNL     1      48.059  23.016  56.892  1.00  0.00     0.134 A 
ATOM      7  C   UNL     1      46.979  22.165  56.613  1.00  0.00     0.093 A 
ATOM      8  C   UNL     1      47.030  21.277  55.536  1.00  0.00     0.123 A 
ATOM      9  C   UNL     1      48.170  21.230  54.726  1.00  0.00     0.094 A 
ATOM     10  C   UNL     1      49.258  22.068  54.989  1.00  0.00     0.146 A 
ATOM     11  O   UNL     1      50.329  21.999  54.207  1.00  0.00    -0.451 OA
ENDROOT
BRANCH   1  12
ATOM     12  C   UNL     1      52.545  22.585  53.455  1.00  0.00     0.063 A 
ATOM     13  C   UNL     1      53.634  23.217  51.375  1.00  0.00     0.047 A 
ATOM     14  C   UNL     1      52.578  23.354  52.279  1.00  0.00     0.020 A 
ATOM     15  C   UNL     1      54.660  22.300  51.625  1.00  0.00     0.119 A 
ATOM     16  C   UNL     1      54.622  21.513  52.781  1.00  0.00     0.093 A 
ATOM     17  C   UNL     1      53.564  21.641  53.692  1.00  0.00     0.130 A 
BRANCH  15  18
ATOM     18  O   UNL     1      55.719  22.157  50.731  1.00  0.00    -0.508 OA
ATOM     19  H   UNL     1      56.351  22.923  50.532  1.00  0.00     0.293 HD
ENDBRANCH  15  18
BRANCH  17  20
ATOM     20  O   UNL     1      53.513  20.817  54.817  1.00  0.00    -0.507 OA
ATOM     21  H   UNL     1      53.540  21.197  55.756  1.00  0.00     0.293 HD
ENDBRANCH  17  20
ENDBRANCH   1  12
BRANCH   2  22
ATOM     22  O   UNL     1      52.551  24.535  55.581  1.00  0.00    -0.502 OA
ATOM     23  H   UNL     1      52.553  25.321  56.219  1.00  0.00     0.293 HD
ENDBRANCH   2  22
BRANCH   6  24
ATOM     24  O   UNL     1      47.975  23.892  57.975  1.00  0.00    -0.507 OA
ATOM     25  H   UNL     1      47.119  24.385  58.197  1.00  0.00     0.293 HD
ENDBRANCH   6  24
BRANCH   8  26
ATOM     26  O   UNL     1      45.943  20.444  55.281  1.00  0.00    -0.508 OA
ATOM     27  H   UNL     1      45.062  20.560  55.769  1.00  0.00     0.293 HD
ENDBRANCH   8  26
TORSDOF 6
ENDMDL
MODEL 7
REMARK VINA RESULT:    -4.934      1.313      1.866
REMARK INTER + INTRA:          -6.328
REMARK INTER:                  -5.900
REMARK INTRA:                  -0.428
REMARK UNBOUND:                -0.385
REMARK SMILES O=c1c(O)c(-c2ccc(O)cc2O)oc2cc(O)cc(O)c12
REMARK SMILES IDX 5 1 3 2 2 3 1 4 22 5 20 6 19 7 17 8 16 9 15 10 14 11 6 12
REMARK SMILES IDX 8 13 7 14 9 15 11 16 12 17 10 18 13 20 4 22 21 24 18 26
REMARK H PARENT 10 19 13 21 4 23 21 25 18 27
REMARK Flexibility Score: inf
ROOT
ATOM      1  C   UNL     1      55.061  22.984  51.675  1.00  0.00     0.184 A 
ATOM      2  C   UNL     1      55.820  22.988  52.859  1.00  0.00     0.208 A 
ATOM      3  C   UNL     1      55.154  22.892  54.090  1.00  0.00     0.238 A 
ATOM      4  O   UNL     1      55.825  22.884  55.159  1.00  0.00    -0.285 OA
ATOM      5  C   UNL     1      53.746  22.815  54.117  1.00  0.00     0.111 A 
ATOM      6  C   UNL     1      52.999  22.720  55.316  1.00  0.00     0.134 A 
ATOM      7  C   UNL     1      51.598  22.656  55.258  1.00  0.00     0.093 A 
ATOM      8  C   UNL     1      50.933  22.687  54.031  1.00  0.00     0.123 A 
ATOM      9  C   UNL     1      51.666  22.780  52.843  1.00  0.00     0.094 A 
ATOM     10  C   UNL     1      53.062  22.843  52.878  1.00  0.00     0.146 A 
ATOM     11  O   UNL     1      53.734  22.926  51.736  1.00  0.00    -0.451 OA
ENDROOT
BRANCH   1  12
ATOM     12  C   UNL     1      55.699  23.070  50.345  1.00  0.00     0.063 A 
ATOM     13  C   UNL     1      56.770  24.434  48.640  1.00  0.00     0.047 A 
ATOM     14  C   UNL     1      56.166  24.316  49.894  1.00  0.00     0.020 A 
ATOM     15  C   UNL     1      56.900  23.312  47.814  1.00  0.00     0.119 A 
ATOM     16  C   UNL     1      56.416  22.073  48.244  1.00  0.00     0.093 A 
ATOM     17  C   UNL     1      55.804  21.947  49.500  1.00  0.00     0.130 A 
BRANCH  15  18
ATOM     18  O   UNL     1      57.503  23.418  46.563  1.00  0.00    -0.508 OA
ATOM     19  H   UNL     1      57.841  24.305  46.211  1.00  0.00     0.293 HD
ENDBRANCH  15  18
BRANCH  17  20
ATOM     20  O   UNL     1      55.282  20.715  49.897  1.00  0.00    -0.507 OA
ATOM     21  H   UNL     1      55.869  19.894  49.990  1.00  0.00     0.293 HD
ENDBRANCH  17  20
ENDBRANCH   1  12
BRANCH   2  22
ATOM     22  O   UNL     1      57.210  23.112  52.801  1.00  0.00    -0.502 OA
ATOM     23  H   UNL     1      57.701  23.901  53.203  1.00  0.00     0.293 HD
ENDBRANCH   2  22
BRANCH   6  24
ATOM     24  O   UNL     1      53.634  22.688  56.558  1.00  0.00    -0.507 OA
ATOM     25  H   UNL     1      53.174  23.015  57.400  1.00  0.00     0.293 HD
ENDBRANCH   6  24
BRANCH   8  26
ATOM     26  O   UNL     1      49.541  22.622  54.003  1.00  0.00    -0.508 OA
ATOM     27  H   UNL     1      49.035  21.893  54.492  1.00  0.00     0.293 HD
ENDBRANCH   8  26
TORSDOF 6
ENDMDL
MODEL 8
REMARK VINA RESULT:    -4.831      1.780      6.625
REMARK INTER + INTRA:          -6.204
REMARK INTER:                  -5.795
REMARK INTRA:                  -0.409
REMARK UNBOUND:                -0.385
REMARK SMILES O=c1c(O)c(-c2ccc(O)cc2O)oc2cc(O)cc(O)c12
REMARK SMILES IDX 5 1 3 2 2 3 1 4 22 5 20 6 19 7 17 8 16 9 15 10 14 11 6 12
REMARK SMILES IDX 8 13 7 14 9 15 11 16 12 17 10 18 13 20 4 22 21 24 18 26
REMARK H PARENT 10 19 13 21 4 23 21 25 18 27
REMARK Flexibility Score: inf
ROOT
ATOM      1  C   UNL     1      53.244  23.003  52.577  1.00  0.00     0.184 A 
ATOM      2  C   UNL     1      54.257  22.028  52.533  1.00  0.00     0.208 A 
ATOM      3  C   UNL     1      54.991  21.869  51.348  1.00  0.00     0.238 A 
ATOM      4  O   UNL     1      55.910  21.005  51.299  1.00  0.00    -0.285 OA
ATOM      5  C   UNL     1      54.687  22.669  50.227  1.00  0.00     0.111 A 
ATOM      6  C   UNL     1      55.377  22.568  48.995  1.00  0.00     0.134 A 
ATOM      7  C   UNL     1      55.008  23.396  47.923  1.00  0.00     0.093 A 
ATOM      8  C   UNL     1      53.967  24.317  48.057  1.00  0.00     0.123 A 
ATOM      9  C   UNL     1      53.282  24.420  49.273  1.00  0.00     0.094 A 
ATOM     10  C   UNL     1      53.635  23.607  50.354  1.00  0.00     0.146 A 
ATOM     11  O   UNL     1      52.972  23.730  51.498  1.00  0.00    -0.451 OA
ENDROOT
BRANCH   1  12
ATOM     12  C   UNL     1      52.441  23.230  53.797  1.00  0.00     0.063 A 
ATOM     13  C   UNL     1      52.156  24.406  55.907  1.00  0.00     0.047 A 
ATOM     14  C   UNL     1      52.888  24.170  54.741  1.00  0.00     0.020 A 
ATOM     15  C   UNL     1      50.976  23.694  56.153  1.00  0.00     0.119 A 
ATOM     16  C   UNL     1      50.536  22.740  55.231  1.00  0.00     0.093 A 
ATOM     17  C   UNL     1      51.268  22.493  54.059  1.00  0.00     0.130 A 
BRANCH  15  18
ATOM     18  O   UNL     1      50.237  23.924  57.310  1.00  0.00    -0.508 OA
ATOM     19  H   UNL     1      49.429  23.360  57.543  1.00  0.00     0.293 HD
ENDBRANCH  15  18
BRANCH  17  20
ATOM     20  O   UNL     1      50.844  21.504  53.171  1.00  0.00    -0.507 OA
ATOM     21  H   UNL     1      50.385  20.661  53.495  1.00  0.00     0.293 HD
ENDBRANCH  17  20
ENDBRANCH   1  12
BRANCH   2  22
ATOM     22  O   UNL     1      54.503  21.220  53.645  1.00  0.00    -0.502 OA
ATOM     23  H   UNL     1      54.179  21.463  54.574  1.00  0.00     0.293 HD
ENDBRANCH   2  22
BRANCH   6  24
ATOM     24  O   UNL     1      56.421  21.658  48.827  1.00  0.00    -0.507 OA
ATOM     25  H   UNL     1      57.390  21.931  48.941  1.00  0.00     0.293 HD
ENDBRANCH   6  24
BRANCH   8  26
ATOM     26  O   UNL     1      53.621  25.125  46.976  1.00  0.00    -0.508 OA
ATOM     27  H   UNL     1      52.679  25.134  46.603  1.00  0.00     0.293 HD
ENDBRANCH   8  26
TORSDOF 6
ENDMDL
MODEL 9
REMARK VINA RESULT:    -4.819      1.516      2.004
REMARK INTER + INTRA:          -6.189
REMARK INTER:                  -5.790
REMARK INTRA:                  -0.399
REMARK UNBOUND:                -0.385
REMARK SMILES O=c1c(O)c(-c2ccc(O)cc2O)oc2cc(O)cc(O)c12
REMARK SMILES IDX 5 1 3 2 2 3 1 4 22 5 20 6 19 7 17 8 16 9 15 10 14 11 6 12
REMARK SMILES IDX 8 13 7 14 9 15 11 16 12 17 10 18 13 20 4 22 21 24 18 26
REMARK H PARENT 10 19 13 21 4 23 21 25 18 27
REMARK Flexibility Score: inf
ROOT
ATOM      1  C   UNL     1      52.959  23.195  52.506  1.00  0.00     0.184 A 
ATOM      2  C   UNL     1      53.353  23.984  53.601  1.00  0.00     0.208 A 
ATOM      3  C   UNL     1      52.532  24.022  54.739  1.00  0.00     0.238 A 
ATOM      4  O   UNL     1      52.881  24.717  55.732  1.00  0.00    -0.285 OA
ATOM      5  C   UNL     1      51.326  23.291  54.752  1.00  0.00     0.111 A 
ATOM      6  C   UNL     1      50.441  23.279  55.856  1.00  0.00     0.134 A 
ATOM      7  C   UNL     1      49.255  22.531  55.788  1.00  0.00     0.093 A 
ATOM      8  C   UNL     1      48.937  21.800  54.641  1.00  0.00     0.123 A 
ATOM      9  C   UNL     1      49.809  21.808  53.547  1.00  0.00     0.094 A 
ATOM     10  C   UNL     1      50.997  22.544  53.595  1.00  0.00     0.146 A 
ATOM     11  O   UNL     1      51.808  22.531  52.545  1.00  0.00    -0.451 OA
ENDROOT
BRANCH   1  12
ATOM     12  C   UNL     1      53.783  23.101  51.282  1.00  0.00     0.063 A 
ATOM     13  C   UNL     1      54.193  23.818  48.995  1.00  0.00     0.047 A 
ATOM     14  C   UNL     1      53.439  23.886  50.169  1.00  0.00     0.020 A 
ATOM     15  C   UNL     1      55.290  22.953  48.913  1.00  0.00     0.119 A 
ATOM     16  C   UNL     1      55.625  22.151  50.008  1.00  0.00     0.093 A 
ATOM     17  C   UNL     1      54.870  22.209  51.189  1.00  0.00     0.130 A 
BRANCH  15  18
ATOM     18  O   UNL     1      56.051  22.880  47.748  1.00  0.00    -0.508 OA
ATOM     19  H   UNL     1      57.029  22.619  47.770  1.00  0.00     0.293 HD
ENDBRANCH  15  18
BRANCH  17  20
ATOM     20  O   UNL     1      55.186  21.368  52.256  1.00  0.00    -0.507 OA
ATOM     21  H   UNL     1      56.140  21.083  52.444  1.00  0.00     0.293 HD
ENDBRANCH  17  20
ENDBRANCH   1  12
BRANCH   2  22
ATOM     22  O   UNL     1      54.531  24.733  53.539  1.00  0.00    -0.502 OA
ATOM     23  H   UNL     1      55.447  24.312  53.640  1.00  0.00     0.293 HD
ENDBRANCH   2  22
BRANCH   6  24
ATOM     24  O   UNL     1      50.728  23.999  57.016  1.00  0.00    -0.507 OA
ATOM     25  H   UNL     1      50.472  24.974  57.116  1.00  0.00     0.293 HD
ENDBRANCH   6  24
BRANCH   8  26
ATOM     26  O   UNL     1      47.753  21.068  54.600  1.00  0.00    -0.508 OA
ATOM     27  H   UNL     1      47.271  20.794  55.449  1.00  0.00     0.293 HD
ENDBRANCH   8  26
TORSDOF 6
ENDMDL
