MODEL 1
REMARK VINA RESULT:    -7.155      0.000      0.000
REMARK INTER + INTRA:         -11.989
REMARK INTER:                 -10.501
REMARK INTRA:                  -1.487
REMARK UNBOUND:                -1.487
REMARK SMILES O=c1c(O[C@@H]2O[C@@H](CO)[C@@H](O)[C@@H](O)[C@@H]2O)c(-c2ccc(O)c(O)c2)oc2cc(O)cc(O)c12
REMARK SMILES IDX 4 1 3 2 16 3 25 4 2 5 26 6 1 7 33 8 27 9 31 10 28 11 30 12
REMARK SMILES IDX 17 13 18 14 19 15 20 16 24 17 22 18 21 19 23 21 32 23 29 25
REMARK SMILES IDX 5 27 14 28 6 29 12 30 7 31 10 32 15 33 13 35 8 37 9 38 11 40
REMARK H PARENT 21 20 23 22 32 24 29 26 15 34 13 36 9 39 11 41
REMARK Flexibility Score: inf
ROOT
ATOM      1  O   UNL     1      -0.027 -22.361  26.431  1.00  0.00    -0.454 OA
ENDROOT
BRANCH   1   2
ATOM      2  C   UNL     1       0.700 -23.020  27.443  1.00  0.00     0.214 A 
ATOM      3  C   UNL     1       0.669 -22.476  28.741  1.00  0.00     0.180 A 
ATOM      4  O   UNL     1       1.274 -23.102  29.741  1.00  0.00    -0.452 OA
ATOM      5  C   UNL     1       1.421 -24.218  27.235  1.00  0.00     0.239 A 
ATOM      6  C   UNL     1       1.974 -24.218  29.589  1.00  0.00     0.146 A 
ATOM      7  O   UNL     1       1.378 -24.784  26.113  1.00  0.00    -0.285 OA
ATOM      8  C   UNL     1       2.129 -24.809  28.309  1.00  0.00     0.111 A 
ATOM      9  C   UNL     1       2.553 -24.803  30.717  1.00  0.00     0.094 A 
ATOM     10  C   UNL     1       2.941 -25.976  28.194  1.00  0.00     0.134 A 
ATOM     11  C   UNL     1       3.288 -25.981  30.604  1.00  0.00     0.123 A 
ATOM     12  C   UNL     1       3.477 -26.563  29.347  1.00  0.00     0.093 A 
BRANCH   3  13
ATOM     13  C   UNL     1      -0.048 -21.216  29.042  1.00  0.00     0.025 A 
ATOM     14  C   UNL     1       0.533 -19.963  28.775  1.00  0.00     0.016 A 
ATOM     15  C   UNL     1      -0.156 -18.786  29.079  1.00  0.00     0.051 A 
ATOM     16  C   UNL     1      -1.424 -18.840  29.667  1.00  0.00     0.157 A 
ATOM     17  C   UNL     1      -1.312 -21.266  29.652  1.00  0.00     0.062 A 
ATOM     18  C   UNL     1      -2.005 -20.086  29.958  1.00  0.00     0.158 A 
BRANCH  16  19
ATOM     19  O   UNL     1      -2.088 -17.649  29.956  1.00  0.00    -0.504 OA
ATOM     20  H   UNL     1      -2.687 -17.189  29.281  1.00  0.00     0.293 HD
ENDBRANCH  16  19
BRANCH  18  21
ATOM     21  O   UNL     1      -3.265 -20.147  30.550  1.00  0.00    -0.504 OA
ATOM     22  H   UNL     1      -3.797 -19.309  30.755  1.00  0.00     0.293 HD
ENDBRANCH  18  21
ENDBRANCH   3  13
BRANCH  10  23
ATOM     23  O   UNL     1       3.277 -26.572  26.975  1.00  0.00    -0.507 OA
ATOM     24  H   UNL     1       3.941 -26.191  26.317  1.00  0.00     0.293 HD
ENDBRANCH  10  23
BRANCH  11  25
ATOM     25  O   UNL     1       3.838 -26.561  31.745  1.00  0.00    -0.508 OA
ATOM     26  H   UNL     1       4.780 -26.933  31.749  1.00  0.00     0.293 HD
ENDBRANCH  11  25
ENDBRANCH   1   2
BRANCH   1  27
ATOM     27  C   UNL     1       0.499 -21.592  25.349  1.00  0.00     0.339 C 
ATOM     28  C   UNL     1      -0.532 -20.493  24.953  1.00  0.00     0.214 C 
ATOM     29  O   UNL     1       1.759 -21.058  25.751  1.00  0.00    -0.332 OA
ATOM     30  C   UNL     1      -0.075 -19.129  25.471  1.00  0.00     0.180 C 
ATOM     31  C   UNL     1       2.242 -20.048  24.877  1.00  0.00     0.179 C 
ATOM     32  C   UNL     1       1.313 -18.792  24.890  1.00  0.00     0.177 C 
BRANCH  28  33
ATOM     33  O   UNL     1      -1.810 -20.784  25.461  1.00  0.00    -0.384 OA
ATOM     34  H   UNL     1      -2.461 -20.526  24.758  1.00  0.00     0.211 HD
ENDBRANCH  28  33
BRANCH  30  35
ATOM     35  O   UNL     1      -1.015 -18.146  25.119  1.00  0.00    -0.387 OA
ATOM     36  H   UNL     1      -1.911 -18.565  25.208  1.00  0.00     0.211 HD
ENDBRANCH  30  35
BRANCH  31  37
ATOM     37  C   UNL     1       2.569 -20.621  23.475  1.00  0.00     0.191 C 
BRANCH  37  38
ATOM     38  O   UNL     1       3.640 -19.932  22.888  1.00  0.00    -0.394 OA
ATOM     39  H   UNL     1       3.789 -20.340  21.996  1.00  0.00     0.210 HD
ENDBRANCH  37  38
ENDBRANCH  31  37
BRANCH  32  40
ATOM     40  O   UNL     1       1.169 -18.243  23.603  1.00  0.00    -0.387 OA
ATOM     41  H   UNL     1       2.080 -18.181  23.211  1.00  0.00     0.211 HD
ENDBRANCH  32  40
ENDBRANCH   1  27
TORSDOF 12
ENDMDL
MODEL 2
REMARK VINA RESULT:    -7.001      2.641      5.334
REMARK INTER + INTRA:         -11.762
REMARK INTER:                 -10.284
REMARK INTRA:                  -1.478
REMARK UNBOUND:                -1.487
REMARK SMILES O=c1c(O[C@@H]2O[C@@H](CO)[C@@H](O)[C@@H](O)[C@@H]2O)c(-c2ccc(O)c(O)c2)oc2cc(O)cc(O)c12
REMARK SMILES IDX 4 1 3 2 16 3 25 4 2 5 26 6 1 7 33 8 27 9 31 10 28 11 30 12
REMARK SMILES IDX 17 13 18 14 19 15 20 16 24 17 22 18 21 19 23 21 32 23 29 25
REMARK SMILES IDX 5 27 14 28 6 29 12 30 7 31 10 32 15 33 13 35 8 37 9 38 11 40
REMARK H PARENT 21 20 23 22 32 24 29 26 15 34 13 36 9 39 11 41
REMARK Flexibility Score: inf
ROOT
ATOM      1  O   UNL     1       0.988 -20.358  28.393  1.00  0.00    -0.454 OA
ENDROOT
BRANCH   1   2
ATOM      2  C   UNL     1       0.377 -21.540  28.857  1.00  0.00     0.214 A 
ATOM      3  C   UNL     1       0.433 -22.681  28.034  1.00  0.00     0.180 A 
ATOM      4  O   UNL     1      -0.061 -23.835  28.460  1.00  0.00    -0.452 OA
ATOM      5  C   UNL     1      -0.251 -21.654  30.118  1.00  0.00     0.239 A 
ATOM      6  C   UNL     1      -0.672 -23.983  29.627  1.00  0.00     0.146 A 
ATOM      7  O   UNL     1      -0.222 -20.683  30.918  1.00  0.00    -0.285 OA
ATOM      8  C   UNL     1      -0.846 -22.880  30.501  1.00  0.00     0.111 A 
ATOM      9  C   UNL     1      -1.136 -25.252  29.983  1.00  0.00     0.094 A 
ATOM     10  C   UNL     1      -1.562 -23.084  31.718  1.00  0.00     0.134 A 
ATOM     11  C   UNL     1      -1.774 -25.454  31.205  1.00  0.00     0.123 A 
ATOM     12  C   UNL     1      -1.982 -24.373  32.066  1.00  0.00     0.093 A 
BRANCH   3  13
ATOM     13  C   UNL     1       1.057 -22.645  26.692  1.00  0.00     0.025 A 
ATOM     14  C   UNL     1       2.357 -23.137  26.476  1.00  0.00     0.016 A 
ATOM     15  C   UNL     1       2.931 -23.081  25.204  1.00  0.00     0.051 A 
ATOM     16  C   UNL     1       2.227 -22.520  24.134  1.00  0.00     0.157 A 
ATOM     17  C   UNL     1       0.362 -22.061  25.620  1.00  0.00     0.062 A 
ATOM     18  C   UNL     1       0.937 -22.004  24.342  1.00  0.00     0.158 A 
BRANCH  16  19
ATOM     19  O   UNL     1       2.826 -22.480  22.875  1.00  0.00    -0.504 OA
ATOM     20  H   UNL     1       2.726 -23.236  22.208  1.00  0.00     0.293 HD
ENDBRANCH  16  19
BRANCH  18  21
ATOM     21  O   UNL     1       0.232 -21.436  23.282  1.00  0.00    -0.504 OA
ATOM     22  H   UNL     1       0.048 -21.953  22.430  1.00  0.00     0.293 HD
ENDBRANCH  18  21
ENDBRANCH   3  13
BRANCH  10  23
ATOM     23  O   UNL     1      -1.913 -22.053  32.595  1.00  0.00    -0.507 OA
ATOM     24  H   UNL     1      -2.737 -22.055  33.178  1.00  0.00     0.293 HD
ENDBRANCH  10  23
BRANCH  11  25
ATOM     25  O   UNL     1      -2.209 -26.732  31.550  1.00  0.00    -0.508 OA
ATOM     26  H   UNL     1      -2.200 -27.053  32.511  1.00  0.00     0.293 HD
ENDBRANCH  11  25
ENDBRANCH   1   2
BRANCH   1  27
ATOM     27  C   UNL     1       0.349 -19.123  28.067  1.00  0.00     0.339 C 
ATOM     28  C   UNL     1       1.223 -18.352  27.033  1.00  0.00     0.214 C 
ATOM     29  O   UNL     1      -0.963 -19.412  27.588  1.00  0.00    -0.332 OA
ATOM     30  C   UNL     1       0.601 -18.450  25.640  1.00  0.00     0.180 C 
ATOM     31  C   UNL     1      -1.587 -18.299  26.966  1.00  0.00     0.179 C 
ATOM     32  C   UNL     1      -0.829 -17.873  25.668  1.00  0.00     0.177 C 
BRANCH  28  33
ATOM     33  O   UNL     1       2.535 -18.852  26.997  1.00  0.00    -0.384 OA
ATOM     34  H   UNL     1       2.499 -19.710  26.498  1.00  0.00     0.211 HD
ENDBRANCH  28  33
BRANCH  30  35
ATOM     35  O   UNL     1       1.399 -17.762  24.712  1.00  0.00    -0.387 OA
ATOM     36  H   UNL     1       0.875 -16.972  24.417  1.00  0.00     0.211 HD
ENDBRANCH  30  35
BRANCH  31  37
ATOM     37  C   UNL     1      -1.859 -17.161  27.981  1.00  0.00     0.191 C 
BRANCH  37  38
ATOM     38  O   UNL     1      -3.062 -16.502  27.687  1.00  0.00    -0.394 OA
ATOM     39  H   UNL     1      -3.749 -17.205  27.551  1.00  0.00     0.210 HD
ENDBRANCH  37  38
ENDBRANCH  31  37
BRANCH  32  40
ATOM     40  O   UNL     1      -0.778 -16.473  25.534  1.00  0.00    -0.387 OA
ATOM     41  H   UNL     1      -0.327 -16.122  26.346  1.00  0.00     0.211 HD
ENDBRANCH  32  40
ENDBRANCH   1  27
TORSDOF 12
ENDMDL
MODEL 3
REMARK VINA RESULT:    -6.987      2.529      4.955
REMARK INTER + INTRA:         -11.742
REMARK INTER:                 -10.478
REMARK INTRA:                  -1.264
REMARK UNBOUND:                -1.487
REMARK SMILES O=c1c(O[C@@H]2O[C@@H](CO)[C@@H](O)[C@@H](O)[C@@H]2O)c(-c2ccc(O)c(O)c2)oc2cc(O)cc(O)c12
REMARK SMILES IDX 4 1 3 2 16 3 25 4 2 5 26 6 1 7 33 8 27 9 31 10 28 11 30 12
REMARK SMILES IDX 17 13 18 14 19 15 20 16 24 17 22 18 21 19 23 21 32 23 29 25
REMARK SMILES IDX 5 27 14 28 6 29 12 30 7 31 10 32 15 33 13 35 8 37 9 38 11 40
REMARK H PARENT 21 20 23 22 32 24 29 26 15 34 13 36 9 39 11 41
REMARK Flexibility Score: inf
ROOT
ATOM      1  O   UNL     1      -0.270 -20.284  29.165  1.00  0.00    -0.454 OA
ENDROOT
BRANCH   1   2
ATOM      2  C   UNL     1      -0.514 -21.653  29.397  1.00  0.00     0.214 A 
ATOM      3  C   UNL     1       0.020 -22.584  28.487  1.00  0.00     0.180 A 
ATOM      4  O   UNL     1      -0.119 -23.884  28.705  1.00  0.00    -0.452 OA
ATOM      5  C   UNL     1      -1.226 -22.141  30.517  1.00  0.00     0.239 A 
ATOM      6  C   UNL     1      -0.793 -24.386  29.731  1.00  0.00     0.146 A 
ATOM      7  O   UNL     1      -1.621 -21.340  31.402  1.00  0.00    -0.285 OA
ATOM      8  C   UNL     1      -1.430 -23.534  30.668  1.00  0.00     0.111 A 
ATOM      9  C   UNL     1      -0.856 -25.774  29.875  1.00  0.00     0.094 A 
ATOM     10  C   UNL     1      -2.190 -24.128  31.719  1.00  0.00     0.134 A 
ATOM     11  C   UNL     1      -1.544 -26.343  30.944  1.00  0.00     0.123 A 
ATOM     12  C   UNL     1      -2.205 -25.521  31.861  1.00  0.00     0.093 A 
BRANCH   3  13
ATOM     13  C   UNL     1       0.764 -22.157  27.280  1.00  0.00     0.025 A 
ATOM     14  C   UNL     1       2.140 -21.870  27.335  1.00  0.00     0.016 A 
ATOM     15  C   UNL     1       2.821 -21.456  26.186  1.00  0.00     0.051 A 
ATOM     16  C   UNL     1       2.138 -21.306  24.975  1.00  0.00     0.157 A 
ATOM     17  C   UNL     1       0.078 -21.984  26.067  1.00  0.00     0.062 A 
ATOM     18  C   UNL     1       0.759 -21.568  24.915  1.00  0.00     0.158 A 
BRANCH  16  19
ATOM     19  O   UNL     1       2.845 -20.894  23.846  1.00  0.00    -0.504 OA
ATOM     20  H   UNL     1       3.271 -21.554  23.207  1.00  0.00     0.293 HD
ENDBRANCH  16  19
BRANCH  18  21
ATOM     21  O   UNL     1       0.072 -21.414  23.712  1.00  0.00    -0.504 OA
ATOM     22  H   UNL     1      -0.259 -20.508  23.402  1.00  0.00     0.293 HD
ENDBRANCH  18  21
ENDBRANCH   3  13
BRANCH  10  23
ATOM     23  O   UNL     1      -2.970 -23.399  32.622  1.00  0.00    -0.507 OA
ATOM     24  H   UNL     1      -3.575 -23.811  33.317  1.00  0.00     0.293 HD
ENDBRANCH  10  23
BRANCH  11  25
ATOM     25  O   UNL     1      -1.577 -27.730  31.081  1.00  0.00    -0.508 OA
ATOM     26  H   UNL     1      -1.528 -28.343  30.276  1.00  0.00     0.293 HD
ENDBRANCH  11  25
ENDBRANCH   1   2
BRANCH   1  27
ATOM     27  C   UNL     1      -0.771 -19.486  28.092  1.00  0.00     0.339 C 
ATOM     28  C   UNL     1      -1.934 -18.593  28.618  1.00  0.00     0.214 C 
ATOM     29  O   UNL     1       0.313 -18.733  27.551  1.00  0.00    -0.332 OA
ATOM     30  C   UNL     1      -1.456 -17.150  28.789  1.00  0.00     0.180 C 
ATOM     31  C   UNL     1      -0.109 -17.696  26.678  1.00  0.00     0.179 C 
ATOM     32  C   UNL     1      -0.939 -16.612  27.439  1.00  0.00     0.177 C 
BRANCH  28  33
ATOM     33  O   UNL     1      -2.431 -19.070  29.843  1.00  0.00    -0.384 OA
ATOM     34  H   UNL     1      -1.830 -19.807  30.127  1.00  0.00     0.211 HD
ENDBRANCH  28  33
BRANCH  30  35
ATOM     35  O   UNL     1      -2.507 -16.354  29.273  1.00  0.00    -0.387 OA
ATOM     36  H   UNL     1      -2.636 -16.603  30.226  1.00  0.00     0.211 HD
ENDBRANCH  30  35
BRANCH  31  37
ATOM     37  C   UNL     1      -0.772 -18.266  25.400  1.00  0.00     0.191 C 
BRANCH  37  38
ATOM     38  O   UNL     1       0.138 -18.300  24.333  1.00  0.00    -0.394 OA
ATOM     39  H   UNL     1       0.610 -17.428  24.331  1.00  0.00     0.210 HD
ENDBRANCH  37  38
ENDBRANCH  31  37
BRANCH  32  40
ATOM     40  O   UNL     1      -2.020 -16.151  26.666  1.00  0.00    -0.387 OA
ATOM     41  H   UNL     1      -2.315 -16.912  26.100  1.00  0.00     0.211 HD
ENDBRANCH  32  40
ENDBRANCH   1  27
TORSDOF 12
ENDMDL
MODEL 4
REMARK VINA RESULT:    -6.766      2.697      8.274
REMARK INTER + INTRA:         -11.418
REMARK INTER:                  -9.999
REMARK INTRA:                  -1.419
REMARK UNBOUND:                -1.487
REMARK SMILES O=c1c(O[C@@H]2O[C@@H](CO)[C@@H](O)[C@@H](O)[C@@H]2O)c(-c2ccc(O)c(O)c2)oc2cc(O)cc(O)c12
REMARK SMILES IDX 4 1 3 2 16 3 25 4 2 5 26 6 1 7 33 8 27 9 31 10 28 11 30 12
REMARK SMILES IDX 17 13 18 14 19 15 20 16 24 17 22 18 21 19 23 21 32 23 29 25
REMARK SMILES IDX 5 27 14 28 6 29 12 30 7 31 10 32 15 33 13 35 8 37 9 38 11 40
REMARK H PARENT 21 20 23 22 32 24 29 26 15 34 13 36 9 39 11 41
REMARK Flexibility Score: inf
ROOT
ATOM      1  O   UNL     1      -0.999 -20.485  28.602  1.00  0.00    -0.454 OA
ENDROOT
BRANCH   1   2
ATOM      2  C   UNL     1      -1.067 -19.220  27.982  1.00  0.00     0.214 A 
ATOM      3  C   UNL     1      -0.395 -19.047  26.758  1.00  0.00     0.180 A 
ATOM      4  O   UNL     1      -0.493 -17.899  26.101  1.00  0.00    -0.452 OA
ATOM      5  C   UNL     1      -1.807 -18.134  28.502  1.00  0.00     0.239 A 
ATOM      6  C   UNL     1      -1.161 -16.849  26.558  1.00  0.00     0.146 A 
ATOM      7  O   UNL     1      -2.503 -18.292  29.536  1.00  0.00    -0.285 OA
ATOM      8  C   UNL     1      -1.814 -16.895  27.816  1.00  0.00     0.111 A 
ATOM      9  C   UNL     1      -1.215 -15.697  25.771  1.00  0.00     0.094 A 
ATOM     10  C   UNL     1      -2.468 -15.717  28.284  1.00  0.00     0.134 A 
ATOM     11  C   UNL     1      -1.915 -14.574  26.208  1.00  0.00     0.123 A 
ATOM     12  C   UNL     1      -2.539 -14.589  27.458  1.00  0.00     0.093 A 
BRANCH   3  13
ATOM     13  C   UNL     1       0.415 -20.128  26.152  1.00  0.00     0.025 A 
ATOM     14  C   UNL     1       1.796 -20.231  26.400  1.00  0.00     0.016 A 
ATOM     15  C   UNL     1       2.545 -21.252  25.807  1.00  0.00     0.051 A 
ATOM     16  C   UNL     1       1.933 -22.171  24.950  1.00  0.00     0.157 A 
ATOM     17  C   UNL     1      -0.191 -21.039  25.273  1.00  0.00     0.062 A 
ATOM     18  C   UNL     1       0.559 -22.064  24.677  1.00  0.00     0.158 A 
BRANCH  16  19
ATOM     19  O   UNL     1       2.706 -23.180  24.375  1.00  0.00    -0.504 OA
ATOM     20  H   UNL     1       2.499 -24.162  24.515  1.00  0.00     0.293 HD
ENDBRANCH  16  19
BRANCH  18  21
ATOM     21  O   UNL     1      -0.056 -22.973  23.818  1.00  0.00    -0.504 OA
ATOM     22  H   UNL     1      -0.719 -23.659  24.157  1.00  0.00     0.293 HD
ENDBRANCH  18  21
ENDBRANCH   3  13
BRANCH  10  23
ATOM     23  O   UNL     1      -3.031 -15.596  29.559  1.00  0.00    -0.507 OA
ATOM     24  H   UNL     1      -3.860 -15.060  29.768  1.00  0.00     0.293 HD
ENDBRANCH  10  23
BRANCH  11  25
ATOM     25  O   UNL     1      -1.975 -13.442  25.397  1.00  0.00    -0.508 OA
ATOM     26  H   UNL     1      -2.684 -13.341  24.681  1.00  0.00     0.293 HD
ENDBRANCH  11  25
ENDBRANCH   1   2
BRANCH   1  27
ATOM     27  C   UNL     1      -0.340 -20.816  29.825  1.00  0.00     0.339 C 
ATOM     28  C   UNL     1      -1.399 -21.280  30.868  1.00  0.00     0.214 C 
ATOM     29  O   UNL     1       0.646 -21.808  29.547  1.00  0.00    -0.332 OA
ATOM     30  C   UNL     1      -1.351 -22.800  31.027  1.00  0.00     0.180 C 
ATOM     31  C   UNL     1       1.164 -22.423  30.717  1.00  0.00     0.179 C 
ATOM     32  C   UNL     1       0.061 -23.231  31.472  1.00  0.00     0.177 C 
BRANCH  28  33
ATOM     33  O   UNL     1      -2.696 -20.890  30.490  1.00  0.00    -0.384 OA
ATOM     34  H   UNL     1      -2.705 -19.897  30.493  1.00  0.00     0.211 HD
ENDBRANCH  28  33
BRANCH  30  35
ATOM     35  O   UNL     1      -2.316 -23.212  31.961  1.00  0.00    -0.387 OA
ATOM     36  H   UNL     1      -2.689 -24.069  31.626  1.00  0.00     0.211 HD
ENDBRANCH  30  35
BRANCH  31  37
ATOM     37  C   UNL     1       1.960 -21.413  31.581  1.00  0.00     0.191 C 
BRANCH  37  38
ATOM     38  O   UNL     1       3.338 -21.669  31.513  1.00  0.00    -0.394 OA
ATOM     39  H   UNL     1       3.618 -21.480  30.580  1.00  0.00     0.210 HD
ENDBRANCH  37  38
ENDBRANCH  31  37
BRANCH  32  40
ATOM     40  O   UNL     1       0.182 -23.092  32.867  1.00  0.00    -0.387 OA
ATOM     41  H   UNL     1       0.942 -23.666  33.150  1.00  0.00     0.211 HD
ENDBRANCH  32  40
ENDBRANCH   1  27
TORSDOF 12
ENDMDL
MODEL 5
REMARK VINA RESULT:    -6.506      2.266      2.795
REMARK INTER + INTRA:         -11.035
REMARK INTER:                  -9.970
REMARK INTRA:                  -1.065
REMARK UNBOUND:                -1.487
REMARK SMILES O=c1c(O[C@@H]2O[C@@H](CO)[C@@H](O)[C@@H](O)[C@@H]2O)c(-c2ccc(O)c(O)c2)oc2cc(O)cc(O)c12
REMARK SMILES IDX 4 1 3 2 16 3 25 4 2 5 26 6 1 7 33 8 27 9 31 10 28 11 30 12
REMARK SMILES IDX 17 13 18 14 19 15 20 16 24 17 22 18 21 19 23 21 32 23 29 25
REMARK SMILES IDX 5 27 14 28 6 29 12 30 7 31 10 32 15 33 13 35 8 37 9 38 11 40
REMARK H PARENT 21 20 23 22 32 24 29 26 15 34 13 36 9 39 11 41
REMARK Flexibility Score: inf
ROOT
ATOM      1  O   UNL     1       1.721 -21.704  27.374  1.00  0.00    -0.454 OA
ENDROOT
BRANCH   1   2
ATOM      2  C   UNL     1       1.018 -22.693  28.091  1.00  0.00     0.214 A 
ATOM      3  C   UNL     1      -0.295 -22.403  28.505  1.00  0.00     0.180 A 
ATOM      4  O   UNL     1      -1.022 -23.329  29.115  1.00  0.00    -0.452 OA
ATOM      5  C   UNL     1       1.544 -23.974  28.378  1.00  0.00     0.239 A 
ATOM      6  C   UNL     1      -0.564 -24.536  29.419  1.00  0.00     0.146 A 
ATOM      7  O   UNL     1       2.673 -24.299  27.928  1.00  0.00    -0.285 OA
ATOM      8  C   UNL     1       0.770 -24.905  29.111  1.00  0.00     0.111 A 
ATOM      9  C   UNL     1      -1.426 -25.440  30.044  1.00  0.00     0.094 A 
ATOM     10  C   UNL     1       1.227 -26.195  29.513  1.00  0.00     0.134 A 
ATOM     11  C   UNL     1      -0.989 -26.722  30.372  1.00  0.00     0.123 A 
ATOM     12  C   UNL     1       0.331 -27.094  30.104  1.00  0.00     0.093 A 
BRANCH   3  13
ATOM     13  C   UNL     1      -0.916 -21.081  28.259  1.00  0.00     0.025 A 
ATOM     14  C   UNL     1      -1.567 -20.794  27.046  1.00  0.00     0.016 A 
ATOM     15  C   UNL     1      -2.135 -19.536  26.830  1.00  0.00     0.051 A 
ATOM     16  C   UNL     1      -2.049 -18.543  27.811  1.00  0.00     0.157 A 
ATOM     17  C   UNL     1      -0.812 -20.075  29.233  1.00  0.00     0.062 A 
ATOM     18  C   UNL     1      -1.381 -18.811  29.018  1.00  0.00     0.158 A 
BRANCH  16  19
ATOM     19  O   UNL     1      -2.627 -17.298  27.568  1.00  0.00    -0.504 OA
ATOM     20  H   UNL     1      -3.124 -16.786  28.287  1.00  0.00     0.293 HD
ENDBRANCH  16  19
BRANCH  18  21
ATOM     21  O   UNL     1      -1.285 -17.824  29.997  1.00  0.00    -0.504 OA
ATOM     22  H   UNL     1      -0.702 -17.005  29.870  1.00  0.00     0.293 HD
ENDBRANCH  18  21
ENDBRANCH   3  13
BRANCH  10  23
ATOM     23  O   UNL     1       2.552 -26.625  29.386  1.00  0.00    -0.507 OA
ATOM     24  H   UNL     1       2.838 -27.452  28.884  1.00  0.00     0.293 HD
ENDBRANCH  10  23
BRANCH  11  25
ATOM     25  O   UNL     1      -1.872 -27.616  30.975  1.00  0.00    -0.508 OA
ATOM     26  H   UNL     1      -2.665 -27.996  30.473  1.00  0.00     0.293 HD
ENDBRANCH  11  25
ENDBRANCH   1   2
BRANCH   1  27
ATOM     27  C   UNL     1       1.512 -21.305  26.019  1.00  0.00     0.339 C 
ATOM     28  C   UNL     1       1.801 -19.780  25.884  1.00  0.00     0.214 C 
ATOM     29  O   UNL     1       2.342 -22.108  25.183  1.00  0.00    -0.332 OA
ATOM     30  C   UNL     1       3.152 -19.558  25.203  1.00  0.00     0.180 C 
ATOM     31  C   UNL     1       2.440 -21.617  23.855  1.00  0.00     0.179 C 
ATOM     32  C   UNL     1       3.148 -20.225  23.813  1.00  0.00     0.177 C 
BRANCH  28  33
ATOM     33  O   UNL     1       1.799 -19.146  27.138  1.00  0.00    -0.384 OA
ATOM     34  H   UNL     1       2.158 -19.803  27.790  1.00  0.00     0.211 HD
ENDBRANCH  28  33
BRANCH  30  35
ATOM     35  O   UNL     1       3.410 -18.181  25.095  1.00  0.00    -0.387 OA
ATOM     36  H   UNL     1       2.665 -17.715  25.556  1.00  0.00     0.211 HD
ENDBRANCH  30  35
BRANCH  31  37
ATOM     37  C   UNL     1       1.077 -21.692  23.121  1.00  0.00     0.191 C 
BRANCH  37  38
ATOM     38  O   UNL     1       0.551 -22.991  23.170  1.00  0.00    -0.394 OA
ATOM     39  H   UNL     1       0.344 -23.181  24.121  1.00  0.00     0.210 HD
ENDBRANCH  37  38
ENDBRANCH  31  37
BRANCH  32  40
ATOM     40  O   UNL     1       2.547 -19.366  22.875  1.00  0.00    -0.387 OA
ATOM     41  H   UNL     1       2.030 -18.692  23.390  1.00  0.00     0.211 HD
ENDBRANCH  32  40
ENDBRANCH   1  27
TORSDOF 12
ENDMDL
MODEL 6
REMARK VINA RESULT:    -6.497      2.920      5.617
REMARK INTER + INTRA:         -11.023
REMARK INTER:                  -9.499
REMARK INTRA:                  -1.524
REMARK UNBOUND:                -1.487
REMARK SMILES O=c1c(O[C@@H]2O[C@@H](CO)[C@@H](O)[C@@H](O)[C@@H]2O)c(-c2ccc(O)c(O)c2)oc2cc(O)cc(O)c12
REMARK SMILES IDX 4 1 3 2 16 3 25 4 2 5 26 6 1 7 33 8 27 9 31 10 28 11 30 12
REMARK SMILES IDX 17 13 18 14 19 15 20 16 24 17 22 18 21 19 23 21 32 23 29 25
REMARK SMILES IDX 5 27 14 28 6 29 12 30 7 31 10 32 15 33 13 35 8 37 9 38 11 40
REMARK H PARENT 21 20 23 22 32 24 29 26 15 34 13 36 9 39 11 41
REMARK Flexibility Score: inf
ROOT
ATOM      1  O   UNL     1      -0.716 -19.245  26.438  1.00  0.00    -0.454 OA
ENDROOT
BRANCH   1   2
ATOM      2  C   UNL     1      -0.801 -20.135  27.528  1.00  0.00     0.214 A 
ATOM      3  C   UNL     1      -0.051 -21.324  27.472  1.00  0.00     0.180 A 
ATOM      4  O   UNL     1      -0.039 -22.155  28.505  1.00  0.00    -0.452 OA
ATOM      5  C   UNL     1      -1.563 -19.877  28.691  1.00  0.00     0.239 A 
ATOM      6  C   UNL     1      -0.751 -21.961  29.608  1.00  0.00     0.146 A 
ATOM      7  O   UNL     1      -2.156 -18.775  28.815  1.00  0.00    -0.285 OA
ATOM      8  C   UNL     1      -1.596 -20.830  29.737  1.00  0.00     0.111 A 
ATOM      9  C   UNL     1      -0.645 -22.892  30.643  1.00  0.00     0.094 A 
ATOM     10  C   UNL     1      -2.383 -20.703  30.920  1.00  0.00     0.134 A 
ATOM     11  C   UNL     1      -1.367 -22.722  31.823  1.00  0.00     0.123 A 
ATOM     12  C   UNL     1      -2.229 -21.631  31.958  1.00  0.00     0.093 A 
BRANCH   3  13
ATOM     13  C   UNL     1       0.760 -21.679  26.285  1.00  0.00     0.025 A 
ATOM     14  C   UNL     1       2.114 -21.312  26.190  1.00  0.00     0.016 A 
ATOM     15  C   UNL     1       2.858 -21.646  25.055  1.00  0.00     0.051 A 
ATOM     16  C   UNL     1       2.260 -22.334  23.995  1.00  0.00     0.157 A 
ATOM     17  C   UNL     1       0.157 -22.351  25.209  1.00  0.00     0.062 A 
ATOM     18  C   UNL     1       0.902 -22.687  24.070  1.00  0.00     0.158 A 
BRANCH  16  19
ATOM     19  O   UNL     1       3.029 -22.656  22.876  1.00  0.00    -0.504 OA
ATOM     20  H   UNL     1       3.513 -21.950  22.334  1.00  0.00     0.293 HD
ENDBRANCH  16  19
BRANCH  18  21
ATOM     21  O   UNL     1       0.298 -23.367  23.013  1.00  0.00    -0.504 OA
ATOM     22  H   UNL     1       0.708 -24.206  22.620  1.00  0.00     0.293 HD
ENDBRANCH  18  21
ENDBRANCH   3  13
BRANCH  10  23
ATOM     23  O   UNL     1      -3.349 -19.709  31.108  1.00  0.00    -0.507 OA
ATOM     24  H   UNL     1      -3.632 -19.351  32.008  1.00  0.00     0.293 HD
ENDBRANCH  10  23
BRANCH  11  25
ATOM     25  O   UNL     1      -1.230 -23.651  32.853  1.00  0.00    -0.508 OA
ATOM     26  H   UNL     1      -0.342 -23.800  33.317  1.00  0.00     0.293 HD
ENDBRANCH  11  25
ENDBRANCH   1   2
BRANCH   1  27
ATOM     27  C   UNL     1       0.219 -18.180  26.261  1.00  0.00     0.339 C 
ATOM     28  C   UNL     1       0.462 -17.961  24.738  1.00  0.00     0.214 C 
ATOM     29  O   UNL     1      -0.291 -17.023  26.919  1.00  0.00    -0.332 OA
ATOM     30  C   UNL     1      -0.274 -16.708  24.262  1.00  0.00     0.180 C 
ATOM     31  C   UNL     1       0.401 -15.833  26.573  1.00  0.00     0.179 C 
ATOM     32  C   UNL     1       0.214 -15.484  25.062  1.00  0.00     0.177 C 
BRANCH  28  33
ATOM     33  O   UNL     1       0.036 -19.070  23.987  1.00  0.00    -0.384 OA
ATOM     34  H   UNL     1      -0.124 -18.743  23.063  1.00  0.00     0.211 HD
ENDBRANCH  28  33
BRANCH  30  35
ATOM     35  O   UNL     1      -0.058 -16.523  22.886  1.00  0.00    -0.387 OA
ATOM     36  H   UNL     1       0.925 -16.503  22.752  1.00  0.00     0.211 HD
ENDBRANCH  30  35
BRANCH  31  37
ATOM     37  C   UNL     1       1.868 -15.865  27.072  1.00  0.00     0.191 C 
BRANCH  37  38
ATOM     38  O   UNL     1       2.375 -14.567  27.227  1.00  0.00    -0.394 OA
ATOM     39  H   UNL     1       2.000 -14.022  26.487  1.00  0.00     0.210 HD
ENDBRANCH  37  38
ENDBRANCH  31  37
BRANCH  32  40
ATOM     40  O   UNL     1       1.402 -14.988  24.494  1.00  0.00    -0.387 OA
ATOM     41  H   UNL     1       2.143 -15.558  24.830  1.00  0.00     0.211 HD
ENDBRANCH  32  40
ENDBRANCH   1  27
TORSDOF 12
ENDMDL
MODEL 7
REMARK VINA RESULT:    -6.486      2.808      5.550
REMARK INTER + INTRA:         -11.006
REMARK INTER:                  -9.629
REMARK INTRA:                  -1.377
REMARK UNBOUND:                -1.487
REMARK SMILES O=c1c(O[C@@H]2O[C@@H](CO)[C@@H](O)[C@@H](O)[C@@H]2O)c(-c2ccc(O)c(O)c2)oc2cc(O)cc(O)c12
REMARK SMILES IDX 4 1 3 2 16 3 25 4 2 5 26 6 1 7 33 8 27 9 31 10 28 11 30 12
REMARK SMILES IDX 17 13 18 14 19 15 20 16 24 17 22 18 21 19 23 21 32 23 29 25
REMARK SMILES IDX 5 27 14 28 6 29 12 30 7 31 10 32 15 33 13 35 8 37 9 38 11 40
REMARK H PARENT 21 20 23 22 32 24 29 26 15 34 13 36 9 39 11 41
REMARK Flexibility Score: inf
ROOT
ATOM      1  O   UNL     1      -0.592 -20.135  28.810  1.00  0.00    -0.454 OA
ENDROOT
BRANCH   1   2
ATOM      2  C   UNL     1      -0.806 -21.496  29.108  1.00  0.00     0.214 A 
ATOM      3  C   UNL     1      -0.391 -22.454  28.164  1.00  0.00     0.180 A 
ATOM      4  O   UNL     1      -0.501 -23.747  28.433  1.00  0.00    -0.452 OA
ATOM      5  C   UNL     1      -1.373 -21.952  30.320  1.00  0.00     0.239 A 
ATOM      6  C   UNL     1      -1.042 -24.219  29.548  1.00  0.00     0.146 A 
ATOM      7  O   UNL     1      -1.653 -21.125  31.226  1.00  0.00    -0.285 OA
ATOM      8  C   UNL     1      -1.557 -23.339  30.534  1.00  0.00     0.111 A 
ATOM      9  C   UNL     1      -1.087 -25.602  29.737  1.00  0.00     0.094 A 
ATOM     10  C   UNL     1      -2.180 -23.902  31.687  1.00  0.00     0.134 A 
ATOM     11  C   UNL     1      -1.637 -26.140  30.898  1.00  0.00     0.123 A 
ATOM     12  C   UNL     1      -2.178 -25.291  31.867  1.00  0.00     0.093 A 
BRANCH   3  13
ATOM     13  C   UNL     1       0.198 -22.062  26.863  1.00  0.00     0.025 A 
ATOM     14  C   UNL     1       1.533 -22.368  26.543  1.00  0.00     0.016 A 
ATOM     15  C   UNL     1       2.072 -21.977  25.315  1.00  0.00     0.051 A 
ATOM     16  C   UNL     1       1.296 -21.265  24.396  1.00  0.00     0.157 A 
ATOM     17  C   UNL     1      -0.573 -21.327  25.947  1.00  0.00     0.062 A 
ATOM     18  C   UNL     1      -0.033 -20.934  24.714  1.00  0.00     0.158 A 
BRANCH  16  19
ATOM     19  O   UNL     1       1.860 -20.891  23.177  1.00  0.00    -0.504 OA
ATOM     20  H   UNL     1       1.491 -21.215  22.291  1.00  0.00     0.293 HD
ENDBRANCH  16  19
BRANCH  18  21
ATOM     21  O   UNL     1      -0.810 -20.218  23.805  1.00  0.00    -0.504 OA
ATOM     22  H   UNL     1      -0.510 -20.072  22.849  1.00  0.00     0.293 HD
ENDBRANCH  18  21
ENDBRANCH   3  13
BRANCH  10  23
ATOM     23  O   UNL     1      -2.841 -23.146  32.661  1.00  0.00    -0.507 OA
ATOM     24  H   UNL     1      -2.391 -22.474  33.265  1.00  0.00     0.293 HD
ENDBRANCH  10  23
BRANCH  11  25
ATOM     25  O   UNL     1      -1.652 -27.522  31.076  1.00  0.00    -0.508 OA
ATOM     26  H   UNL     1      -2.487 -28.069  30.900  1.00  0.00     0.293 HD
ENDBRANCH  11  25
ENDBRANCH   1   2
BRANCH   1  27
ATOM     27  C   UNL     1       0.558 -19.350  29.127  1.00  0.00     0.339 C 
ATOM     28  C   UNL     1       0.193 -18.339  30.255  1.00  0.00     0.214 C 
ATOM     29  O   UNL     1       1.617 -20.234  29.488  1.00  0.00    -0.332 OA
ATOM     30  C   UNL     1       0.778 -18.805  31.589  1.00  0.00     0.180 C 
ATOM     31  C   UNL     1       2.715 -19.572  30.097  1.00  0.00     0.179 C 
ATOM     32  C   UNL     1       2.309 -18.938  31.466  1.00  0.00     0.177 C 
BRANCH  28  33
ATOM     33  O   UNL     1      -1.199 -18.192  30.378  1.00  0.00    -0.384 OA
ATOM     34  H   UNL     1      -1.444 -17.372  29.874  1.00  0.00     0.211 HD
ENDBRANCH  28  33
BRANCH  30  35
ATOM     35  O   UNL     1       0.435 -17.894  32.602  1.00  0.00    -0.387 OA
ATOM     36  H   UNL     1       0.317 -17.012  32.163  1.00  0.00     0.211 HD
ENDBRANCH  30  35
BRANCH  31  37
ATOM     37  C   UNL     1       3.421 -18.614  29.104  1.00  0.00     0.191 C 
BRANCH  37  38
ATOM     38  O   UNL     1       3.923 -19.317  27.999  1.00  0.00    -0.394 OA
ATOM     39  H   UNL     1       3.624 -18.829  27.189  1.00  0.00     0.210 HD
ENDBRANCH  37  38
ENDBRANCH  31  37
BRANCH  32  40
ATOM     40  O   UNL     1       2.912 -17.681  31.654  1.00  0.00    -0.387 OA
ATOM     41  H   UNL     1       2.572 -17.087  30.933  1.00  0.00     0.211 HD
ENDBRANCH  32  40
ENDBRANCH   1  27
TORSDOF 12
ENDMDL
MODEL 8
REMARK VINA RESULT:    -6.370      3.707      8.207
REMARK INTER + INTRA:         -10.836
REMARK INTER:                  -9.200
REMARK INTRA:                  -1.636
REMARK UNBOUND:                -1.487
REMARK SMILES O=c1c(O[C@@H]2O[C@@H](CO)[C@@H](O)[C@@H](O)[C@@H]2O)c(-c2ccc(O)c(O)c2)oc2cc(O)cc(O)c12
REMARK SMILES IDX 4 1 3 2 16 3 25 4 2 5 26 6 1 7 33 8 27 9 31 10 28 11 30 12
REMARK SMILES IDX 17 13 18 14 19 15 20 16 24 17 22 18 21 19 23 21 32 23 29 25
REMARK SMILES IDX 5 27 14 28 6 29 12 30 7 31 10 32 15 33 13 35 8 37 9 38 11 40
REMARK H PARENT 21 20 23 22 32 24 29 26 15 34 13 36 9 39 11 41
REMARK Flexibility Score: inf
ROOT
ATOM      1  O   UNL     1       0.382 -17.117  26.827  1.00  0.00    -0.454 OA
ENDROOT
BRANCH   1   2
ATOM      2  C   UNL     1      -0.303 -16.071  27.479  1.00  0.00     0.214 A 
ATOM      3  C   UNL     1      -0.790 -16.309  28.778  1.00  0.00     0.180 A 
ATOM      4  O   UNL     1      -1.373 -15.332  29.460  1.00  0.00    -0.452 OA
ATOM      5  C   UNL     1      -0.488 -14.787  26.917  1.00  0.00     0.239 A 
ATOM      6  C   UNL     1      -1.582 -14.119  28.967  1.00  0.00     0.146 A 
ATOM      7  O   UNL     1       0.030 -14.514  25.804  1.00  0.00    -0.285 OA
ATOM      8  C   UNL     1      -1.194 -13.798  27.642  1.00  0.00     0.111 A 
ATOM      9  C   UNL     1      -2.187 -13.161  29.783  1.00  0.00     0.094 A 
ATOM     10  C   UNL     1      -1.496 -12.495  27.143  1.00  0.00     0.134 A 
ATOM     11  C   UNL     1      -2.416 -11.871  29.309  1.00  0.00     0.123 A 
ATOM     12  C   UNL     1      -2.069 -11.543  27.996  1.00  0.00     0.093 A 
BRANCH   3  13
ATOM     13  C   UNL     1      -0.653 -17.629  29.433  1.00  0.00     0.025 A 
ATOM     14  C   UNL     1       0.551 -18.020  30.045  1.00  0.00     0.016 A 
ATOM     15  C   UNL     1       0.663 -19.276  30.647  1.00  0.00     0.051 A 
ATOM     16  C   UNL     1      -0.416 -20.165  30.633  1.00  0.00     0.157 A 
ATOM     17  C   UNL     1      -1.728 -18.533  29.402  1.00  0.00     0.062 A 
ATOM     18  C   UNL     1      -1.618 -19.794  30.004  1.00  0.00     0.158 A 
BRANCH  16  19
ATOM     19  O   UNL     1      -0.276 -21.411  31.243  1.00  0.00    -0.504 OA
ATOM     20  H   UNL     1      -0.537 -22.272  30.777  1.00  0.00     0.293 HD
ENDBRANCH  16  19
BRANCH  18  21
ATOM     21  O   UNL     1      -2.695 -20.679  29.981  1.00  0.00    -0.504 OA
ATOM     22  H   UNL     1      -2.665 -21.564  30.473  1.00  0.00     0.293 HD
ENDBRANCH  18  21
ENDBRANCH   3  13
BRANCH  10  23
ATOM     23  O   UNL     1      -1.286 -12.102  25.818  1.00  0.00    -0.507 OA
ATOM     24  H   UNL     1      -1.860 -12.390  25.039  1.00  0.00     0.293 HD
ENDBRANCH  10  23
BRANCH  11  25
ATOM     25  O   UNL     1      -3.000 -10.924  30.147  1.00  0.00    -0.508 OA
ATOM     26  H   UNL     1      -2.897  -9.930  29.977  1.00  0.00     0.293 HD
ENDBRANCH  11  25
ENDBRANCH   1   2
BRANCH   1  27
ATOM     27  C   UNL     1      -0.189 -18.190  26.076  1.00  0.00     0.339 C 
ATOM     28  C   UNL     1       0.264 -18.073  24.590  1.00  0.00     0.214 C 
ATOM     29  O   UNL     1       0.200 -19.418  26.686  1.00  0.00    -0.332 OA
ATOM     30  C   UNL     1       1.343 -19.113  24.285  1.00  0.00     0.180 C 
ATOM     31  C   UNL     1      -0.062 -20.552  25.873  1.00  0.00     0.179 C 
ATOM     32  C   UNL     1       0.795 -20.527  24.567  1.00  0.00     0.177 C 
BRANCH  28  33
ATOM     33  O   UNL     1       0.758 -16.788  24.305  1.00  0.00    -0.384 OA
ATOM     34  H   UNL     1       0.557 -16.224  25.097  1.00  0.00     0.211 HD
ENDBRANCH  28  33
BRANCH  30  35
ATOM     35  O   UNL     1       1.754 -18.995  22.947  1.00  0.00    -0.387 OA
ATOM     36  H   UNL     1       2.360 -18.210  22.904  1.00  0.00     0.211 HD
ENDBRANCH  30  35
BRANCH  31  37
ATOM     37  C   UNL     1      -1.583 -20.764  25.668  1.00  0.00     0.191 C 
BRANCH  37  38
ATOM     38  O   UNL     1      -2.224 -21.018  26.889  1.00  0.00    -0.394 OA
ATOM     39  H   UNL     1      -2.297 -22.003  26.976  1.00  0.00     0.210 HD
ENDBRANCH  37  38
ENDBRANCH  31  37
BRANCH  32  40
ATOM     40  O   UNL     1       0.058 -20.980  23.457  1.00  0.00    -0.387 OA
ATOM     41  H   UNL     1      -0.630 -21.606  23.804  1.00  0.00     0.211 HD
ENDBRANCH  32  40
ENDBRANCH   1  27
TORSDOF 12
ENDMDL
MODEL 9
REMARK VINA RESULT:    -6.333      5.260      9.296
REMARK INTER + INTRA:         -10.782
REMARK INTER:                  -9.144
REMARK INTRA:                  -1.637
REMARK UNBOUND:                -1.487
REMARK SMILES O=c1c(O[C@@H]2O[C@@H](CO)[C@@H](O)[C@@H](O)[C@@H]2O)c(-c2ccc(O)c(O)c2)oc2cc(O)cc(O)c12
REMARK SMILES IDX 4 1 3 2 16 3 25 4 2 5 26 6 1 7 33 8 27 9 31 10 28 11 30 12
REMARK SMILES IDX 17 13 18 14 19 15 20 16 24 17 22 18 21 19 23 21 32 23 29 25
REMARK SMILES IDX 5 27 14 28 6 29 12 30 7 31 10 32 15 33 13 35 8 37 9 38 11 40
REMARK H PARENT 21 20 23 22 32 24 29 26 15 34 13 36 9 39 11 41
REMARK Flexibility Score: inf
ROOT
ATOM      1  O   UNL     1      -1.381 -14.865  28.778  1.00  0.00    -0.454 OA
ENDROOT
BRANCH   1   2
ATOM      2  C   UNL     1      -1.171 -15.683  27.650  1.00  0.00     0.214 A 
ATOM      3  C   UNL     1      -0.570 -15.104  26.516  1.00  0.00     0.180 A 
ATOM      4  O   UNL     1      -0.282 -15.852  25.459  1.00  0.00    -0.452 OA
ATOM      5  C   UNL     1      -1.490 -17.060  27.611  1.00  0.00     0.239 A 
ATOM      6  C   UNL     1      -0.578 -17.142  25.373  1.00  0.00     0.146 A 
ATOM      7  O   UNL     1      -1.927 -17.627  28.644  1.00  0.00    -0.285 OA
ATOM      8  C   UNL     1      -1.249 -17.805  26.431  1.00  0.00     0.111 A 
ATOM      9  C   UNL     1      -0.209 -17.837  24.219  1.00  0.00     0.094 A 
ATOM     10  C   UNL     1      -1.595 -19.178  26.261  1.00  0.00     0.134 A 
ATOM     11  C   UNL     1      -0.491 -19.195  24.091  1.00  0.00     0.123 A 
ATOM     12  C   UNL     1      -1.179 -19.859  25.110  1.00  0.00     0.093 A 
BRANCH   3  13
ATOM     13  C   UNL     1      -0.219 -13.667  26.467  1.00  0.00     0.025 A 
ATOM     14  C   UNL     1       1.030 -13.204  26.918  1.00  0.00     0.016 A 
ATOM     15  C   UNL     1       1.336 -11.841  26.875  1.00  0.00     0.051 A 
ATOM     16  C   UNL     1       0.397 -10.921  26.399  1.00  0.00     0.157 A 
ATOM     17  C   UNL     1      -1.167 -12.737  26.010  1.00  0.00     0.062 A 
ATOM     18  C   UNL     1      -0.863 -11.369  25.966  1.00  0.00     0.158 A 
BRANCH  16  19
ATOM     19  O   UNL     1       0.732  -9.567  26.365  1.00  0.00    -0.504 OA
ATOM     20  H   UNL     1       0.043  -8.838  26.509  1.00  0.00     0.293 HD
ENDBRANCH  16  19
BRANCH  18  21
ATOM     21  O   UNL     1      -1.805 -10.456  25.496  1.00  0.00    -0.504 OA
ATOM     22  H   UNL     1      -2.420 -10.679  24.722  1.00  0.00     0.293 HD
ENDBRANCH  18  21
ENDBRANCH   3  13
BRANCH  10  23
ATOM     23  O   UNL     1      -2.370 -19.904  27.171  1.00  0.00    -0.507 OA
ATOM     24  H   UNL     1      -2.270 -19.854  28.174  1.00  0.00     0.293 HD
ENDBRANCH  10  23
BRANCH  11  25
ATOM     25  O   UNL     1      -0.094 -19.875  22.941  1.00  0.00    -0.508 OA
ATOM     26  H   UNL     1       0.883 -20.054  22.743  1.00  0.00     0.293 HD
ENDBRANCH  11  25
ENDBRANCH   1   2
BRANCH   1  27
ATOM     27  C   UNL     1      -2.633 -14.413  29.298  1.00  0.00     0.339 C 
ATOM     28  C   UNL     1      -2.467 -12.963  29.843  1.00  0.00     0.214 C 
ATOM     29  O   UNL     1      -3.609 -14.515  28.264  1.00  0.00    -0.332 OA
ATOM     30  C   UNL     1      -3.091 -11.961  28.873  1.00  0.00     0.180 C 
ATOM     31  C   UNL     1      -4.816 -13.831  28.567  1.00  0.00     0.179 C 
ATOM     32  C   UNL     1      -4.585 -12.290  28.676  1.00  0.00     0.177 C 
BRANCH  28  33
ATOM     33  O   UNL     1      -1.113 -12.643  30.042  1.00  0.00    -0.384 OA
ATOM     34  H   UNL     1      -1.063 -11.654  30.121  1.00  0.00     0.211 HD
ENDBRANCH  28  33
BRANCH  30  35
ATOM     35  O   UNL     1      -2.929 -10.655  29.366  1.00  0.00    -0.387 OA
ATOM     36  H   UNL     1      -2.074 -10.647  29.871  1.00  0.00     0.211 HD
ENDBRANCH  30  35
BRANCH  31  37
ATOM     37  C   UNL     1      -5.550 -14.481  29.766  1.00  0.00     0.191 C 
BRANCH  37  38
ATOM     38  O   UNL     1      -6.918 -14.171  29.747  1.00  0.00    -0.394 OA
ATOM     39  H   UNL     1      -7.373 -14.910  29.267  1.00  0.00     0.210 HD
ENDBRANCH  37  38
ENDBRANCH  31  37
BRANCH  32  40
ATOM     40  O   UNL     1      -5.337 -11.727  29.724  1.00  0.00    -0.387 OA
ATOM     41  H   UNL     1      -6.295 -11.841  29.485  1.00  0.00     0.211 HD
ENDBRANCH  32  40
ENDBRANCH   1  27
TORSDOF 12
ENDMDL
