MODEL 1
REMARK VINA RESULT:   148.478      0.000      0.000
REMARK INTER + INTRA:         152.818
REMARK INTER:                 152.818
REMARK INTRA:                   0.000
REMARK UNBOUND:                 0.000
REMARK SMILES CC1(C)CC[C@@]2(C)CC[C@@]3(C)C(=CC[C@H]4[C@]5(C)CC[C@H](O)C(C)(C)[C@H]5CC[C@@]43C)[C@H]2C1
REMARK SMILES IDX 1 1 2 2 4 3 5 4 6 5 8 6 9 7 10 8 12 9 13 10 14 11 15 12
REMARK SMILES IDX 28 13 27 14 26 15 25 16 16 17 18 18 19 19 20 20 22 21 23 22
REMARK SMILES IDX 24 23 17 24 29 25 30 26 31 27 11 28 7 29 3 30 21 31
REMARK H PARENT 21 32
REMARK Flexibility Score: inf
ROOT
ATOM      1  C   UNL     1     -27.693  20.875 -14.779  1.00  0.00     0.011 C 
ATOM      2  C   UNL     1     -28.151  21.711 -13.557  1.00  0.00    -0.035 C 
ATOM      3  C   UNL     1     -29.518  21.213 -13.028  1.00  0.00     0.007 C 
ATOM      4  C   UNL     1     -30.671  21.462 -14.009  1.00  0.00     0.008 C 
ATOM      5  C   UNL     1     -30.812  22.944 -14.474  1.00  0.00    -0.026 C 
ATOM      6  C   UNL     1     -31.395  23.805 -13.325  1.00  0.00     0.008 C 
ATOM      7  C   UNL     1     -31.617  25.270 -13.735  1.00  0.00     0.012 C 
ATOM      8  C   UNL     1     -30.352  25.985 -14.331  1.00  0.00    -0.006 C 
ATOM      9  C   UNL     1     -29.485  25.033 -15.178  1.00  0.00    -0.064 C 
ATOM     10  C   UNL     1     -28.577  25.545 -16.046  1.00  0.00    -0.027 C 
ATOM     11  C   UNL     1     -28.438  27.010 -16.400  1.00  0.00     0.032 C 
ATOM     12  C   UNL     1     -29.439  27.973 -15.691  1.00  0.00     0.006 C 
ATOM     13  C   UNL     1     -30.768  27.239 -15.258  1.00  0.00    -0.020 C 
ATOM     14  C   UNL     1     -31.708  28.231 -14.493  1.00  0.00     0.008 C 
ATOM     15  C   UNL     1     -31.868  29.603 -15.168  1.00  0.00     0.005 C 
ATOM     16  C   UNL     1     -30.491  30.273 -15.417  1.00  0.00     0.003 C 
ATOM     17  C   UNL     1     -29.594  29.399 -16.376  1.00  0.00    -0.025 C 
ATOM     18  C   UNL     1     -28.178  30.057 -16.452  1.00  0.00     0.010 C 
ATOM     19  C   UNL     1     -28.193  31.552 -16.812  1.00  0.00     0.033 C 
ATOM     20  C   UNL     1     -29.091  32.391 -15.884  1.00  0.00     0.120 C 
ATOM     21  C   UNL     1     -30.545  31.822 -15.735  1.00  0.00    -0.006 C 
ATOM     22  C   UNL     1     -31.236  32.584 -14.569  1.00  0.00     0.014 C 
ATOM     23  C   UNL     1     -31.356  32.151 -17.015  1.00  0.00     0.014 C 
ATOM     24  C   UNL     1     -30.169  29.294 -17.831  1.00  0.00     0.012 C 
ATOM     25  C   UNL     1     -31.552  26.745 -16.525  1.00  0.00     0.012 C 
ATOM     26  C   UNL     1     -29.437  23.523 -14.924  1.00  0.00     0.022 C 
ATOM     27  C   UNL     1     -28.281  23.207 -13.939  1.00  0.00     0.015 C 
ATOM     28  C   UNL     1     -29.461  26.401 -13.108  1.00  0.00     0.017 C 
ATOM     29  C   UNL     1     -31.790  22.935 -15.678  1.00  0.00     0.012 C 
ATOM     30  C   UNL     1     -27.081  21.560 -12.430  1.00  0.00     0.011 C 
ENDROOT
BRANCH  20  31
ATOM     31  O   UNL     1     -28.461  32.593 -14.638  1.00  0.00    -0.393 OA
ATOM     32  H   UNL     1     -28.237  31.710 -14.251  1.00  0.00     0.210 HD
ENDBRANCH  20  31
TORSDOF 1
ENDMDL
