MODEL 1
REMARK VINA RESULT:    -5.295      0.000      0.000
REMARK INTER + INTRA:         -11.255
REMARK INTER:                 -10.248
REMARK INTRA:                  -1.008
REMARK UNBOUND:                -1.008
REMARK SMILES CCCCCCCCCCCCCCCCCC(=O)[O-]
REMARK SMILES IDX 10 1 11 2 12 3 13 4 14 5 15 6 16 7 17 8 18 9 19 10 20 11
REMARK SMILES IDX 9 12 8 13 7 14 6 15 5 16 4 17 3 18 2 19 1 20
REMARK H PARENT
REMARK Flexibility Score: inf
ROOT
ATOM      1  C   UNL     1     -16.469  -4.973  22.213  1.00  0.00     0.000 C 
ENDROOT
BRANCH   1   2
ATOM      2  C   UNL     1     -15.859  -6.367  22.440  1.00  0.00     0.000 C 
BRANCH   2   3
ATOM      3  C   UNL     1     -15.551  -7.098  21.115  1.00  0.00     0.000 C 
BRANCH   3   4
ATOM      4  C   UNL     1     -14.937  -6.188  20.034  1.00  0.00     0.000 C 
BRANCH   4   5
ATOM      5  C   UNL     1     -15.627  -6.261  18.658  1.00  0.00     0.000 C 
BRANCH   5   6
ATOM      6  C   UNL     1     -14.789  -6.919  17.542  1.00  0.00     0.000 C 
BRANCH   6   7
ATOM      7  C   UNL     1     -13.744  -5.999  16.879  1.00  0.00     0.006 C 
BRANCH   7   8
ATOM      8  C   UNL     1     -14.327  -4.728  16.241  1.00  0.00     0.053 C 
BRANCH   8   9
ATOM      9  C   UNL     1     -15.247  -5.042  15.102  1.00  0.00     0.041 C 
ATOM     10  O   UNL     1     -16.494  -4.977  15.258  1.00  0.00    -0.550 OA
ATOM     11  O   UNL     1     -14.727  -5.437  13.876  1.00  0.00    -0.550 OA
ENDBRANCH   8   9
ENDBRANCH   7   8
ENDBRANCH   6   7
ENDBRANCH   5   6
ENDBRANCH   4   5
ENDBRANCH   3   4
ENDBRANCH   2   3
ENDBRANCH   1   2
BRANCH   1  12
ATOM     12  C   UNL     1     -17.882  -5.036  21.610  1.00  0.00     0.000 C 
BRANCH  12  13
ATOM     13  C   UNL     1     -18.820  -5.968  22.397  1.00  0.00    -0.000 C 
BRANCH  13  14
ATOM     14  C   UNL     1     -19.953  -5.196  23.108  1.00  0.00    -0.000 C 
BRANCH  14  15
ATOM     15  C   UNL     1     -20.948  -6.106  23.853  1.00  0.00    -0.000 C 
BRANCH  15  16
ATOM     16  C   UNL     1     -22.428  -5.697  23.723  1.00  0.00    -0.000 C 
BRANCH  16  17
ATOM     17  C   UNL     1     -23.328  -6.134  24.894  1.00  0.00    -0.000 C 
BRANCH  17  18
ATOM     18  C   UNL     1     -22.546  -6.837  26.016  1.00  0.00    -0.000 C 
BRANCH  18  19
ATOM     19  C   UNL     1     -22.800  -6.208  27.394  1.00  0.00    -0.003 C 
ATOM     20  C   UNL     1     -22.661  -4.685  27.388  1.00  0.00     0.004 C 
ENDBRANCH  18  19
ENDBRANCH  17  18
ENDBRANCH  16  17
ENDBRANCH  15  16
ENDBRANCH  14  15
ENDBRANCH  13  14
ENDBRANCH  12  13
ENDBRANCH   1  12
TORSDOF 16
ENDMDL
MODEL 2
REMARK VINA RESULT:    -5.273      1.824      2.707
REMARK INTER + INTRA:         -11.213
REMARK INTER:                  -9.421
REMARK INTRA:                  -1.793
REMARK UNBOUND:                -1.008
REMARK SMILES CCCCCCCCCCCCCCCCCC(=O)[O-]
REMARK SMILES IDX 10 1 11 2 12 3 13 4 14 5 15 6 16 7 17 8 18 9 19 10 20 11
REMARK SMILES IDX 9 12 8 13 7 14 6 15 5 16 4 17 3 18 2 19 1 20
REMARK H PARENT
REMARK Flexibility Score: inf
ROOT
ATOM      1  C   UNL     1     -18.868  -5.989  22.200  1.00  0.00     0.000 C 
ENDROOT
BRANCH   1   2
ATOM      2  C   UNL     1     -18.204  -4.625  22.457  1.00  0.00     0.000 C 
BRANCH   2   3
ATOM      3  C   UNL     1     -16.662  -4.709  22.444  1.00  0.00     0.000 C 
BRANCH   3   4
ATOM      4  C   UNL     1     -16.120  -6.151  22.462  1.00  0.00     0.000 C 
BRANCH   4   5
ATOM      5  C   UNL     1     -15.013  -6.440  21.430  1.00  0.00     0.000 C 
BRANCH   5   6
ATOM      6  C   UNL     1     -15.183  -5.725  20.073  1.00  0.00     0.000 C 
BRANCH   6   7
ATOM      7  C   UNL     1     -15.720  -6.608  18.930  1.00  0.00     0.006 C 
BRANCH   7   8
ATOM      8  C   UNL     1     -17.039  -6.118  18.311  1.00  0.00     0.053 C 
BRANCH   8   9
ATOM      9  C   UNL     1     -17.109  -4.623  18.251  1.00  0.00     0.041 C 
ATOM     10  O   UNL     1     -17.885  -3.994  19.018  1.00  0.00    -0.550 OA
ATOM     11  O   UNL     1     -16.341  -3.926  17.327  1.00  0.00    -0.550 OA
ENDBRANCH   8   9
ENDBRANCH   7   8
ENDBRANCH   6   7
ENDBRANCH   5   6
ENDBRANCH   4   5
ENDBRANCH   3   4
ENDBRANCH   2   3
ENDBRANCH   1   2
BRANCH   1  12
ATOM     12  C   UNL     1     -20.090  -6.232  23.101  1.00  0.00     0.000 C 
BRANCH  12  13
ATOM     13  C   UNL     1     -20.684  -4.926  23.657  1.00  0.00    -0.000 C 
BRANCH  13  14
ATOM     14  C   UNL     1     -21.943  -4.480  22.883  1.00  0.00    -0.000 C 
BRANCH  14  15
ATOM     15  C   UNL     1     -23.244  -4.591  23.700  1.00  0.00    -0.000 C 
BRANCH  15  16
ATOM     16  C   UNL     1     -23.809  -6.019  23.834  1.00  0.00    -0.000 C 
BRANCH  16  17
ATOM     17  C   UNL     1     -24.065  -6.483  25.280  1.00  0.00    -0.000 C 
BRANCH  17  18
ATOM     18  C   UNL     1     -22.774  -6.869  26.020  1.00  0.00    -0.000 C 
BRANCH  18  19
ATOM     19  C   UNL     1     -22.672  -6.217  27.408  1.00  0.00    -0.003 C 
ATOM     20  C   UNL     1     -22.631  -4.690  27.347  1.00  0.00     0.004 C 
ENDBRANCH  18  19
ENDBRANCH  17  18
ENDBRANCH  16  17
ENDBRANCH  15  16
ENDBRANCH  14  15
ENDBRANCH  13  14
ENDBRANCH  12  13
ENDBRANCH   1  12
TORSDOF 16
ENDMDL
MODEL 3
REMARK VINA RESULT:    -5.200     12.785     15.076
REMARK INTER + INTRA:         -11.071
REMARK INTER:                  -8.924
REMARK INTRA:                  -2.147
REMARK UNBOUND:                -1.008
REMARK SMILES CCCCCCCCCCCCCCCCCC(=O)[O-]
REMARK SMILES IDX 10 1 11 2 12 3 13 4 14 5 15 6 16 7 17 8 18 9 19 10 20 11
REMARK SMILES IDX 9 12 8 13 7 14 6 15 5 16 4 17 3 18 2 19 1 20
REMARK H PARENT
REMARK Flexibility Score: inf
ROOT
ATOM      1  C   UNL     1     -16.076   1.916  29.319  1.00  0.00     0.000 C 
ENDROOT
BRANCH   1   2
ATOM      2  C   UNL     1     -15.269   2.494  28.144  1.00  0.00     0.000 C 
BRANCH   2   3
ATOM      3  C   UNL     1     -13.857   2.953  28.569  1.00  0.00     0.000 C 
BRANCH   3   4
ATOM      4  C   UNL     1     -13.633   4.472  28.438  1.00  0.00     0.000 C 
BRANCH   4   5
ATOM      5  C   UNL     1     -14.832   5.342  28.862  1.00  0.00     0.000 C 
BRANCH   5   6
ATOM      6  C   UNL     1     -14.741   5.928  30.286  1.00  0.00     0.000 C 
BRANCH   6   7
ATOM      7  C   UNL     1     -14.637   7.465  30.357  1.00  0.00     0.006 C 
BRANCH   7   8
ATOM      8  C   UNL     1     -13.953   8.000  31.625  1.00  0.00     0.053 C 
BRANCH   8   9
ATOM      9  C   UNL     1     -14.789   9.029  32.322  1.00  0.00     0.041 C 
ATOM     10  O   UNL     1     -14.246  10.032  32.855  1.00  0.00    -0.550 OA
ATOM     11  O   UNL     1     -16.166   8.865  32.409  1.00  0.00    -0.550 OA
ENDBRANCH   8   9
ENDBRANCH   7   8
ENDBRANCH   6   7
ENDBRANCH   5   6
ENDBRANCH   4   5
ENDBRANCH   3   4
ENDBRANCH   2   3
ENDBRANCH   1   2
BRANCH   1  12
ATOM     12  C   UNL     1     -15.300   1.952  30.646  1.00  0.00     0.000 C 
BRANCH  12  13
ATOM     13  C   UNL     1     -16.163   2.439  31.823  1.00  0.00    -0.000 C 
BRANCH  13  14
ATOM     14  C   UNL     1     -17.204   3.493  31.390  1.00  0.00    -0.000 C 
BRANCH  14  15
ATOM     15  C   UNL     1     -18.511   3.444  32.204  1.00  0.00    -0.000 C 
BRANCH  15  16
ATOM     16  C   UNL     1     -19.743   2.937  31.430  1.00  0.00    -0.000 C 
BRANCH  16  17
ATOM     17  C   UNL     1     -20.268   1.559  31.875  1.00  0.00    -0.000 C 
BRANCH  17  18
ATOM     18  C   UNL     1     -19.241   0.434  31.668  1.00  0.00    -0.000 C 
BRANCH  18  19
ATOM     19  C   UNL     1     -19.145  -0.014  30.201  1.00  0.00    -0.003 C 
ATOM     20  C   UNL     1     -18.079  -1.086  29.975  1.00  0.00     0.004 C 
ENDBRANCH  18  19
ENDBRANCH  17  18
ENDBRANCH  16  17
ENDBRANCH  15  16
ENDBRANCH  14  15
ENDBRANCH  13  14
ENDBRANCH  12  13
ENDBRANCH   1  12
TORSDOF 16
ENDMDL
MODEL 4
REMARK VINA RESULT:    -5.196     15.210     17.419
REMARK INTER + INTRA:         -11.064
REMARK INTER:                  -8.560
REMARK INTRA:                  -2.504
REMARK UNBOUND:                -1.008
REMARK SMILES CCCCCCCCCCCCCCCCCC(=O)[O-]
REMARK SMILES IDX 10 1 11 2 12 3 13 4 14 5 15 6 16 7 17 8 18 9 19 10 20 11
REMARK SMILES IDX 9 12 8 13 7 14 6 15 5 16 4 17 3 18 2 19 1 20
REMARK H PARENT
REMARK Flexibility Score: inf
ROOT
ATOM      1  C   UNL     1     -14.209  10.724  28.579  1.00  0.00     0.000 C 
ENDROOT
BRANCH   1   2
ATOM      2  C   UNL     1     -14.547   9.275  28.186  1.00  0.00     0.000 C 
BRANCH   2   3
ATOM      3  C   UNL     1     -13.292   8.459  27.811  1.00  0.00     0.000 C 
BRANCH   3   4
ATOM      4  C   UNL     1     -13.365   6.979  28.235  1.00  0.00     0.000 C 
BRANCH   4   5
ATOM      5  C   UNL     1     -14.341   6.684  29.390  1.00  0.00     0.000 C 
BRANCH   5   6
ATOM      6  C   UNL     1     -14.771   5.209  29.520  1.00  0.00     0.000 C 
BRANCH   6   7
ATOM      7  C   UNL     1     -15.287   4.797  30.913  1.00  0.00     0.006 C 
BRANCH   7   8
ATOM      8  C   UNL     1     -15.757   3.337  31.013  1.00  0.00     0.053 C 
BRANCH   8   9
ATOM      9  C   UNL     1     -17.196   3.237  31.420  1.00  0.00     0.041 C 
ATOM     10  O   UNL     1     -17.514   2.633  32.478  1.00  0.00    -0.550 OA
ATOM     11  O   UNL     1     -18.187   3.785  30.616  1.00  0.00    -0.550 OA
ENDBRANCH   8   9
ENDBRANCH   7   8
ENDBRANCH   6   7
ENDBRANCH   5   6
ENDBRANCH   4   5
ENDBRANCH   3   4
ENDBRANCH   2   3
ENDBRANCH   1   2
BRANCH   1  12
ATOM     12  C   UNL     1     -14.671  11.075  30.003  1.00  0.00     0.000 C 
BRANCH  12  13
ATOM     13  C   UNL     1     -14.756   9.840  30.917  1.00  0.00    -0.000 C 
BRANCH  13  14
ATOM     14  C   UNL     1     -15.532  10.128  32.221  1.00  0.00    -0.000 C 
BRANCH  14  15
ATOM     15  C   UNL     1     -16.900   9.424  32.295  1.00  0.00    -0.000 C 
BRANCH  15  16
ATOM     16  C   UNL     1     -16.931   7.996  31.716  1.00  0.00    -0.000 C 
BRANCH  16  17
ATOM     17  C   UNL     1     -17.772   7.832  30.437  1.00  0.00    -0.000 C 
BRANCH  17  18
ATOM     18  C   UNL     1     -18.503   9.124  30.035  1.00  0.00    -0.000 C 
BRANCH  18  19
ATOM     19  C   UNL     1     -18.162   9.573  28.605  1.00  0.00    -0.003 C 
ATOM     20  C   UNL     1     -18.037  11.092  28.473  1.00  0.00     0.004 C 
ENDBRANCH  18  19
ENDBRANCH  17  18
ENDBRANCH  16  17
ENDBRANCH  15  16
ENDBRANCH  14  15
ENDBRANCH  13  14
ENDBRANCH  12  13
ENDBRANCH   1  12
TORSDOF 16
ENDMDL
MODEL 5
REMARK VINA RESULT:    -5.188      4.687      8.448
REMARK INTER + INTRA:         -11.049
REMARK INTER:                  -9.069
REMARK INTRA:                  -1.980
REMARK UNBOUND:                -1.008
REMARK SMILES CCCCCCCCCCCCCCCCCC(=O)[O-]
REMARK SMILES IDX 10 1 11 2 12 3 13 4 14 5 15 6 16 7 17 8 18 9 19 10 20 11
REMARK SMILES IDX 9 12 8 13 7 14 6 15 5 16 4 17 3 18 2 19 1 20
REMARK H PARENT
REMARK Flexibility Score: inf
ROOT
ATOM      1  C   UNL     1     -15.340  -6.084  19.571  1.00  0.00     0.000 C 
ENDROOT
BRANCH   1   2
ATOM      2  C   UNL     1     -15.265  -7.090  20.733  1.00  0.00     0.000 C 
BRANCH   2   3
ATOM      3  C   UNL     1     -15.464  -6.418  22.109  1.00  0.00     0.000 C 
BRANCH   3   4
ATOM      4  C   UNL     1     -16.802  -5.665  22.243  1.00  0.00     0.000 C 
BRANCH   4   5
ATOM      5  C   UNL     1     -16.671  -4.148  22.477  1.00  0.00     0.000 C 
BRANCH   5   6
ATOM      6  C   UNL     1     -17.029  -3.267  21.263  1.00  0.00     0.000 C 
BRANCH   6   7
ATOM      7  C   UNL     1     -15.980  -2.198  20.897  1.00  0.00     0.006 C 
BRANCH   7   8
ATOM      8  C   UNL     1     -15.778  -1.110  21.965  1.00  0.00     0.053 C 
BRANCH   8   9
ATOM      9  C   UNL     1     -14.708  -0.136  21.579  1.00  0.00     0.041 C 
ATOM     10  O   UNL     1     -13.680  -0.008  22.295  1.00  0.00    -0.550 OA
ATOM     11  O   UNL     1     -14.859   0.652  20.445  1.00  0.00    -0.550 OA
ENDBRANCH   8   9
ENDBRANCH   7   8
ENDBRANCH   6   7
ENDBRANCH   5   6
ENDBRANCH   4   5
ENDBRANCH   3   4
ENDBRANCH   2   3
ENDBRANCH   1   2
BRANCH   1  12
ATOM     12  C   UNL     1     -15.903  -6.707  18.283  1.00  0.00     0.000 C 
BRANCH  12  13
ATOM     13  C   UNL     1     -14.918  -6.621  17.105  1.00  0.00    -0.000 C 
BRANCH  13  14
ATOM     14  C   UNL     1     -15.478  -5.787  15.932  1.00  0.00    -0.000 C 
BRANCH  14  15
ATOM     15  C   UNL     1     -14.677  -4.501  15.650  1.00  0.00    -0.000 C 
BRANCH  15  16
ATOM     16  C   UNL     1     -13.707  -4.078  16.771  1.00  0.00    -0.000 C 
BRANCH  16  17
ATOM     17  C   UNL     1     -14.184  -2.892  17.629  1.00  0.00    -0.000 C 
BRANCH  17  18
ATOM     18  C   UNL     1     -15.612  -2.441  17.281  1.00  0.00    -0.000 C 
BRANCH  18  19
ATOM     19  C   UNL     1     -15.779  -0.915  17.337  1.00  0.00    -0.003 C 
ATOM     20  C   UNL     1     -14.684  -0.169  16.574  1.00  0.00     0.004 C 
ENDBRANCH  18  19
ENDBRANCH  17  18
ENDBRANCH  16  17
ENDBRANCH  15  16
ENDBRANCH  14  15
ENDBRANCH  13  14
ENDBRANCH  12  13
ENDBRANCH   1  12
TORSDOF 16
ENDMDL
MODEL 6
REMARK VINA RESULT:    -5.188      4.555      8.442
REMARK INTER + INTRA:         -11.048
REMARK INTER:                  -8.843
REMARK INTRA:                  -2.205
REMARK UNBOUND:                -1.008
REMARK SMILES CCCCCCCCCCCCCCCCCC(=O)[O-]
REMARK SMILES IDX 10 1 11 2 12 3 13 4 14 5 15 6 16 7 17 8 18 9 19 10 20 11
REMARK SMILES IDX 9 12 8 13 7 14 6 15 5 16 4 17 3 18 2 19 1 20
REMARK H PARENT
REMARK Flexibility Score: inf
ROOT
ATOM      1  C   UNL     1     -17.041  -4.617  16.524  1.00  0.00     0.000 C 
ENDROOT
BRANCH   1   2
ATOM      2  C   UNL     1     -17.089  -5.892  17.385  1.00  0.00     0.000 C 
BRANCH   2   3
ATOM      3  C   UNL     1     -15.765  -6.686  17.336  1.00  0.00     0.000 C 
BRANCH   3   4
ATOM      4  C   UNL     1     -14.946  -6.605  18.639  1.00  0.00     0.000 C 
BRANCH   4   5
ATOM      5  C   UNL     1     -15.780  -6.653  19.933  1.00  0.00     0.000 C 
BRANCH   5   6
ATOM      6  C   UNL     1     -15.081  -6.078  21.182  1.00  0.00     0.000 C 
BRANCH   6   7
ATOM      7  C   UNL     1     -15.999  -5.845  22.398  1.00  0.00     0.006 C 
BRANCH   7   8
ATOM      8  C   UNL     1     -17.346  -5.186  22.063  1.00  0.00     0.053 C 
BRANCH   8   9
ATOM      9  C   UNL     1     -17.475  -3.827  22.679  1.00  0.00     0.041 C 
ATOM     10  O   UNL     1     -16.517  -3.012  22.622  1.00  0.00    -0.550 OA
ATOM     11  O   UNL     1     -18.643  -3.470  23.341  1.00  0.00    -0.550 OA
ENDBRANCH   8   9
ENDBRANCH   7   8
ENDBRANCH   6   7
ENDBRANCH   5   6
ENDBRANCH   4   5
ENDBRANCH   3   4
ENDBRANCH   2   3
ENDBRANCH   1   2
BRANCH   1  12
ATOM     12  C   UNL     1     -16.376  -3.436  17.251  1.00  0.00     0.000 C 
BRANCH  12  13
ATOM     13  C   UNL     1     -14.916  -3.222  16.819  1.00  0.00    -0.000 C 
BRANCH  13  14
ATOM     14  C   UNL     1     -14.067  -2.560  17.926  1.00  0.00    -0.000 C 
BRANCH  14  15
ATOM     15  C   UNL     1     -14.749  -2.554  19.308  1.00  0.00    -0.000 C 
BRANCH  15  16
ATOM     16  C   UNL     1     -15.346  -1.199  19.734  1.00  0.00    -0.000 C 
BRANCH  16  17
ATOM     17  C   UNL     1     -15.180  -0.064  18.707  1.00  0.00    -0.000 C 
BRANCH  17  18
ATOM     18  C   UNL     1     -16.490   0.275  17.976  1.00  0.00    -0.000 C 
BRANCH  18  19
ATOM     19  C   UNL     1     -16.252   0.791  16.549  1.00  0.00    -0.003 C 
ATOM     20  C   UNL     1     -14.885   0.391  15.991  1.00  0.00     0.004 C 
ENDBRANCH  18  19
ENDBRANCH  17  18
ENDBRANCH  16  17
ENDBRANCH  15  16
ENDBRANCH  14  15
ENDBRANCH  13  14
ENDBRANCH  12  13
ENDBRANCH   1  12
TORSDOF 16
ENDMDL
MODEL 7
REMARK VINA RESULT:    -5.181     16.389     18.907
REMARK INTER + INTRA:         -11.035
REMARK INTER:                  -8.199
REMARK INTRA:                  -2.836
REMARK UNBOUND:                -1.008
REMARK SMILES CCCCCCCCCCCCCCCCCC(=O)[O-]
REMARK SMILES IDX 10 1 11 2 12 3 13 4 14 5 15 6 16 7 17 8 18 9 19 10 20 11
REMARK SMILES IDX 9 12 8 13 7 14 6 15 5 16 4 17 3 18 2 19 1 20
REMARK H PARENT
REMARK Flexibility Score: inf
ROOT
ATOM      1  C   UNL     1     -17.594   9.558  28.932  1.00  0.00     0.000 C 
ENDROOT
BRANCH   1   2
ATOM      2  C   UNL     1     -18.462   9.182  30.146  1.00  0.00     0.000 C 
BRANCH   2   3
ATOM      3  C   UNL     1     -17.717   8.264  31.140  1.00  0.00     0.000 C 
BRANCH   3   4
ATOM      4  C   UNL     1     -17.023   9.025  32.285  1.00  0.00     0.000 C 
BRANCH   4   5
ATOM      5  C   UNL     1     -15.529   8.696  32.469  1.00  0.00     0.000 C 
BRANCH   5   6
ATOM      6  C   UNL     1     -14.609   9.183  31.332  1.00  0.00     0.000 C 
BRANCH   6   7
ATOM      7  C   UNL     1     -13.810   8.076  30.615  1.00  0.00     0.006 C 
BRANCH   7   8
ATOM      8  C   UNL     1     -14.554   7.406  29.449  1.00  0.00     0.053 C 
BRANCH   8   9
ATOM      9  C   UNL     1     -15.164   6.098  29.850  1.00  0.00     0.041 C 
ATOM     10  O   UNL     1     -14.842   5.556  30.941  1.00  0.00    -0.550 OA
ATOM     11  O   UNL     1     -16.065   5.461  29.006  1.00  0.00    -0.550 OA
ENDBRANCH   8   9
ENDBRANCH   7   8
ENDBRANCH   6   7
ENDBRANCH   5   6
ENDBRANCH   4   5
ENDBRANCH   3   4
ENDBRANCH   2   3
ENDBRANCH   1   2
BRANCH   1  12
ATOM     12  C   UNL     1     -16.861  10.896  29.120  1.00  0.00     0.000 C 
BRANCH  12  13
ATOM     13  C   UNL     1     -17.323  11.969  28.118  1.00  0.00    -0.000 C 
BRANCH  13  14
ATOM     14  C   UNL     1     -16.170  12.896  27.678  1.00  0.00    -0.000 C 
BRANCH  14  15
ATOM     15  C   UNL     1     -14.908  12.773  28.555  1.00  0.00    -0.000 C 
BRANCH  15  16
ATOM     16  C   UNL     1     -13.648  12.279  27.818  1.00  0.00    -0.000 C 
BRANCH  16  17
ATOM     17  C   UNL     1     -13.200  10.852  28.185  1.00  0.00    -0.000 C 
BRANCH  17  18
ATOM     18  C   UNL     1     -12.974   9.963  26.951  1.00  0.00    -0.000 C 
BRANCH  18  19
ATOM     19  C   UNL     1     -14.091  10.111  25.905  1.00  0.00    -0.003 C 
ATOM     20  C   UNL     1     -15.336   9.289  26.244  1.00  0.00     0.004 C 
ENDBRANCH  18  19
ENDBRANCH  17  18
ENDBRANCH  16  17
ENDBRANCH  15  16
ENDBRANCH  14  15
ENDBRANCH  13  14
ENDBRANCH  12  13
ENDBRANCH   1  12
TORSDOF 16
ENDMDL
MODEL 8
REMARK VINA RESULT:    -5.138      4.393      7.433
REMARK INTER + INTRA:         -10.951
REMARK INTER:                  -8.726
REMARK INTRA:                  -2.226
REMARK UNBOUND:                -1.008
REMARK SMILES CCCCCCCCCCCCCCCCCC(=O)[O-]
REMARK SMILES IDX 10 1 11 2 12 3 13 4 14 5 15 6 16 7 17 8 18 9 19 10 20 11
REMARK SMILES IDX 9 12 8 13 7 14 6 15 5 16 4 17 3 18 2 19 1 20
REMARK H PARENT
REMARK Flexibility Score: inf
ROOT
ATOM      1  C   UNL     1     -17.006  -4.792  21.877  1.00  0.00     0.000 C 
ENDROOT
BRANCH   1   2
ATOM      2  C   UNL     1     -16.257  -5.985  22.497  1.00  0.00     0.000 C 
BRANCH   2   3
ATOM      3  C   UNL     1     -15.137  -6.519  21.578  1.00  0.00     0.000 C 
BRANCH   3   4
ATOM      4  C   UNL     1     -15.086  -5.833  20.199  1.00  0.00     0.000 C 
BRANCH   4   5
ATOM      5  C   UNL     1     -15.291  -6.775  18.998  1.00  0.00     0.000 C 
BRANCH   5   6
ATOM      6  C   UNL     1     -16.311  -6.284  17.951  1.00  0.00     0.000 C 
BRANCH   6   7
ATOM      7  C   UNL     1     -17.714  -5.961  18.504  1.00  0.00     0.006 C 
BRANCH   7   8
ATOM      8  C   UNL     1     -18.359  -4.699  17.909  1.00  0.00     0.053 C 
BRANCH   8   9
ATOM      9  C   UNL     1     -19.827  -4.876  17.674  1.00  0.00     0.041 C 
ATOM     10  O   UNL     1     -20.644  -4.010  18.083  1.00  0.00    -0.550 OA
ATOM     11  O   UNL     1     -20.297  -6.014  17.029  1.00  0.00    -0.550 OA
ENDBRANCH   8   9
ENDBRANCH   7   8
ENDBRANCH   6   7
ENDBRANCH   5   6
ENDBRANCH   4   5
ENDBRANCH   3   4
ENDBRANCH   2   3
ENDBRANCH   1   2
BRANCH   1  12
ATOM     12  C   UNL     1     -16.896  -3.516  22.728  1.00  0.00     0.000 C 
BRANCH  12  13
ATOM     13  C   UNL     1     -16.509  -2.282  21.896  1.00  0.00    -0.000 C 
BRANCH  13  14
ATOM     14  C   UNL     1     -16.271  -2.627  20.410  1.00  0.00    -0.000 C 
BRANCH  14  15
ATOM     15  C   UNL     1     -14.948  -2.071  19.850  1.00  0.00    -0.000 C 
BRANCH  15  16
ATOM     16  C   UNL     1     -14.550  -2.608  18.461  1.00  0.00    -0.000 C 
BRANCH  16  17
ATOM     17  C   UNL     1     -15.428  -2.113  17.297  1.00  0.00    -0.000 C 
BRANCH  17  18
ATOM     18  C   UNL     1     -15.709  -0.603  17.364  1.00  0.00    -0.000 C 
BRANCH  18  19
ATOM     19  C   UNL     1     -15.055   0.170  16.208  1.00  0.00    -0.003 C 
ATOM     20  C   UNL     1     -13.745   0.848  16.613  1.00  0.00     0.004 C 
ENDBRANCH  18  19
ENDBRANCH  17  18
ENDBRANCH  16  17
ENDBRANCH  15  16
ENDBRANCH  14  15
ENDBRANCH  13  14
ENDBRANCH  12  13
ENDBRANCH   1  12
TORSDOF 16
ENDMDL
MODEL 9
REMARK VINA RESULT:    -5.133      4.440      7.998
REMARK INTER + INTRA:         -10.942
REMARK INTER:                  -8.357
REMARK INTRA:                  -2.585
REMARK UNBOUND:                -1.008
REMARK SMILES CCCCCCCCCCCCCCCCCC(=O)[O-]
REMARK SMILES IDX 10 1 11 2 12 3 13 4 14 5 15 6 16 7 17 8 18 9 19 10 20 11
REMARK SMILES IDX 9 12 8 13 7 14 6 15 5 16 4 17 3 18 2 19 1 20
REMARK H PARENT
REMARK Flexibility Score: inf
ROOT
ATOM      1  C   UNL     1     -15.271  -6.757  21.417  1.00  0.00     0.000 C 
ENDROOT
BRANCH   1   2
ATOM      2  C   UNL     1     -16.045  -6.004  22.514  1.00  0.00     0.000 C 
BRANCH   2   3
ATOM      3  C   UNL     1     -17.549  -5.871  22.189  1.00  0.00     0.000 C 
BRANCH   3   4
ATOM      4  C   UNL     1     -18.042  -4.413  22.121  1.00  0.00     0.000 C 
BRANCH   4   5
ATOM      5  C   UNL     1     -17.148  -3.392  22.849  1.00  0.00     0.000 C 
BRANCH   5   6
ATOM      6  C   UNL     1     -16.819  -2.120  22.042  1.00  0.00     0.000 C 
BRANCH   6   7
ATOM      7  C   UNL     1     -15.734  -2.292  20.960  1.00  0.00     0.006 C 
BRANCH   7   8
ATOM      8  C   UNL     1     -15.485  -1.042  20.102  1.00  0.00     0.053 C 
BRANCH   8   9
ATOM      9  C   UNL     1     -14.738   0.016  20.855  1.00  0.00     0.041 C 
ATOM     10  O   UNL     1     -14.900   1.232  20.569  1.00  0.00    -0.550 OA
ATOM     11  O   UNL     1     -13.840  -0.342  21.852  1.00  0.00    -0.550 OA
ENDBRANCH   8   9
ENDBRANCH   7   8
ENDBRANCH   6   7
ENDBRANCH   5   6
ENDBRANCH   4   5
ENDBRANCH   3   4
ENDBRANCH   2   3
ENDBRANCH   1   2
BRANCH   1  12
ATOM     12  C   UNL     1     -15.095  -5.922  20.138  1.00  0.00     0.000 C 
BRANCH  12  13
ATOM     13  C   UNL     1     -15.679  -6.614  18.895  1.00  0.00    -0.000 C 
BRANCH  13  14
ATOM     14  C   UNL     1     -17.148  -6.213  18.637  1.00  0.00    -0.000 C 
BRANCH  14  15
ATOM     15  C   UNL     1     -17.324  -5.223  17.470  1.00  0.00    -0.000 C 
BRANCH  15  16
ATOM     16  C   UNL     1     -16.860  -3.782  17.762  1.00  0.00    -0.000 C 
BRANCH  16  17
ATOM     17  C   UNL     1     -15.734  -3.266  16.848  1.00  0.00    -0.000 C 
BRANCH  17  18
ATOM     18  C   UNL     1     -14.331  -3.604  17.381  1.00  0.00    -0.000 C 
BRANCH  18  19
ATOM     19  C   UNL     1     -13.573  -4.579  16.467  1.00  0.00    -0.003 C 
ATOM     20  C   UNL     1     -14.418  -5.073  15.293  1.00  0.00     0.004 C 
ENDBRANCH  18  19
ENDBRANCH  17  18
ENDBRANCH  16  17
ENDBRANCH  15  16
ENDBRANCH  14  15
ENDBRANCH  13  14
ENDBRANCH  12  13
ENDBRANCH   1  12
TORSDOF 16
ENDMDL
