MODEL 1
REMARK VINA RESULT:    -4.055      0.000      0.000
REMARK INTER + INTRA:          -9.261
REMARK INTER:                  -7.611
REMARK INTRA:                  -1.650
REMARK UNBOUND:                -1.650
REMARK SMILES CCCCCCCCC=CCCCCCCCC(=O)[O-]
REMARK SMILES IDX 10 1 9 2 11 3 12 4 13 5 14 6 15 7 16 8 17 9 18 10 19 11
REMARK SMILES IDX 20 12 8 13 7 14 6 15 5 16 4 17 3 18 2 19 1 20
REMARK H PARENT
REMARK Flexibility Score: inf
ROOT
ATOM      1  C   UNL     1      34.090  10.034  48.190  1.00  0.00    -0.031 C 
ATOM      2  C   UNL     1      33.132   9.771  49.097  1.00  0.00    -0.031 C 
ENDROOT
BRANCH   1   3
ATOM      3  C   UNL     1      33.900   9.959  46.695  1.00  0.00     0.027 C 
BRANCH   3   4
ATOM      4  C   UNL     1      35.149  10.462  45.965  1.00  0.00     0.004 C 
BRANCH   4   5
ATOM      5  C   UNL     1      36.298  10.717  46.953  1.00  0.00     0.000 C 
BRANCH   5   6
ATOM      6  C   UNL     1      36.956  12.092  46.756  1.00  0.00     0.000 C 
BRANCH   6   7
ATOM      7  C   UNL     1      35.977  13.253  46.994  1.00  0.00     0.000 C 
BRANCH   7   8
ATOM      8  C   UNL     1      35.707  14.084  45.726  1.00  0.00     0.006 C 
BRANCH   8   9
ATOM      9  C   UNL     1      36.445  15.434  45.693  1.00  0.00     0.053 C 
BRANCH   9  10
ATOM     10  C   UNL     1      35.585  16.573  46.151  1.00  0.00     0.041 C 
ATOM     11  O   UNL     1      35.694  17.705  45.610  1.00  0.00    -0.550 OA
ATOM     12  O   UNL     1      34.639  16.378  47.149  1.00  0.00    -0.550 OA
ENDBRANCH   9  10
ENDBRANCH   8   9
ENDBRANCH   7   8
ENDBRANCH   6   7
ENDBRANCH   5   6
ENDBRANCH   4   5
ENDBRANCH   3   4
ENDBRANCH   1   3
BRANCH   2  13
ATOM     13  C   UNL     1      31.694   9.457  48.761  1.00  0.00     0.027 C 
BRANCH  13  14
ATOM     14  C   UNL     1      31.034   8.577  49.832  1.00  0.00     0.004 C 
BRANCH  14  15
ATOM     15  C   UNL     1      29.604   8.166  49.441  1.00  0.00     0.000 C 
BRANCH  15  16
ATOM     16  C   UNL     1      29.452   6.646  49.274  1.00  0.00     0.000 C 
BRANCH  16  17
ATOM     17  C   UNL     1      29.915   6.155  47.892  1.00  0.00    -0.000 C 
BRANCH  17  18
ATOM     18  C   UNL     1      31.058   5.128  47.975  1.00  0.00    -0.000 C 
BRANCH  18  19
ATOM     19  C   UNL     1      32.464   5.763  47.954  1.00  0.00    -0.003 C 
ATOM     20  C   UNL     1      32.750   6.502  46.645  1.00  0.00     0.004 C 
ENDBRANCH  18  19
ENDBRANCH  17  18
ENDBRANCH  16  17
ENDBRANCH  15  16
ENDBRANCH  14  15
ENDBRANCH  13  14
ENDBRANCH   2  13
TORSDOF 15
ENDMDL
MODEL 2
REMARK VINA RESULT:    -4.007     19.642     21.454
REMARK INTER + INTRA:          -9.170
REMARK INTER:                  -7.153
REMARK INTRA:                  -2.017
REMARK UNBOUND:                -1.650
REMARK SMILES CCCCCCCCC=CCCCCCCCC(=O)[O-]
REMARK SMILES IDX 10 1 9 2 11 3 12 4 13 5 14 6 15 7 16 8 17 9 18 10 19 11
REMARK SMILES IDX 20 12 8 13 7 14 6 15 5 16 4 17 3 18 2 19 1 20
REMARK H PARENT
REMARK Flexibility Score: inf
ROOT
ATOM      1  C   UNL     1      20.352  12.644  35.500  1.00  0.00    -0.031 C 
ATOM      2  C   UNL     1      20.947  13.534  34.685  1.00  0.00    -0.031 C 
ENDROOT
BRANCH   1   3
ATOM      3  C   UNL     1      18.891  12.667  35.875  1.00  0.00     0.027 C 
BRANCH   3   4
ATOM      4  C   UNL     1      18.577  11.572  36.899  1.00  0.00     0.004 C 
BRANCH   4   5
ATOM      5  C   UNL     1      17.885  10.375  36.229  1.00  0.00     0.000 C 
BRANCH   5   6
ATOM      6  C   UNL     1      18.822   9.597  35.291  1.00  0.00     0.000 C 
BRANCH   6   7
ATOM      7  C   UNL     1      18.229   9.415  33.884  1.00  0.00     0.000 C 
BRANCH   7   8
ATOM      8  C   UNL     1      18.730  10.466  32.877  1.00  0.00     0.006 C 
BRANCH   8   9
ATOM      9  C   UNL     1      20.240  10.389  32.592  1.00  0.00     0.053 C 
BRANCH   9  10
ATOM     10  C   UNL     1      20.548  10.331  31.126  1.00  0.00     0.041 C 
ATOM     11  O   UNL     1      19.870  11.011  30.310  1.00  0.00    -0.550 OA
ATOM     12  O   UNL     1      21.603   9.556  30.662  1.00  0.00    -0.550 OA
ENDBRANCH   9  10
ENDBRANCH   8   9
ENDBRANCH   7   8
ENDBRANCH   6   7
ENDBRANCH   5   6
ENDBRANCH   4   5
ENDBRANCH   3   4
ENDBRANCH   1   3
BRANCH   2  13
ATOM     13  C   UNL     1      20.226  14.633  33.942  1.00  0.00     0.027 C 
BRANCH  13  14
ATOM     14  C   UNL     1      19.748  14.171  32.558  1.00  0.00     0.004 C 
BRANCH  14  15
ATOM     15  C   UNL     1      20.915  13.990  31.573  1.00  0.00     0.000 C 
BRANCH  15  16
ATOM     16  C   UNL     1      20.953  15.086  30.495  1.00  0.00     0.000 C 
BRANCH  16  17
ATOM     17  C   UNL     1      19.605  15.812  30.345  1.00  0.00    -0.000 C 
BRANCH  17  18
ATOM     18  C   UNL     1      19.701  17.316  30.654  1.00  0.00    -0.000 C 
BRANCH  18  19
ATOM     19  C   UNL     1      20.974  17.708  31.434  1.00  0.00    -0.003 C 
ATOM     20  C   UNL     1      21.890  18.631  30.629  1.00  0.00     0.004 C 
ENDBRANCH  18  19
ENDBRANCH  17  18
ENDBRANCH  16  17
ENDBRANCH  15  16
ENDBRANCH  14  15
ENDBRANCH  13  14
ENDBRANCH   2  13
TORSDOF 15
ENDMDL
MODEL 3
REMARK VINA RESULT:    -4.000     19.349     20.316
REMARK INTER + INTRA:          -9.159
REMARK INTER:                  -7.456
REMARK INTRA:                  -1.702
REMARK UNBOUND:                -1.650
REMARK SMILES CCCCCCCCC=CCCCCCCCC(=O)[O-]
REMARK SMILES IDX 10 1 9 2 11 3 12 4 13 5 14 6 15 7 16 8 17 9 18 10 19 11
REMARK SMILES IDX 20 12 8 13 7 14 6 15 5 16 4 17 3 18 2 19 1 20
REMARK H PARENT
REMARK Flexibility Score: inf
ROOT
ATOM      1  C   UNL     1      20.822  11.491  35.507  1.00  0.00    -0.031 C 
ATOM      2  C   UNL     1      20.473  10.191  35.511  1.00  0.00    -0.031 C 
ENDROOT
BRANCH   1   3
ATOM      3  C   UNL     1      19.903  12.628  35.879  1.00  0.00     0.027 C 
BRANCH   3   4
ATOM      4  C   UNL     1      19.981  13.750  34.839  1.00  0.00     0.004 C 
BRANCH   4   5
ATOM      5  C   UNL     1      21.226  13.592  33.953  1.00  0.00     0.000 C 
BRANCH   5   6
ATOM      6  C   UNL     1      20.951  13.925  32.478  1.00  0.00     0.000 C 
BRANCH   6   7
ATOM      7  C   UNL     1      20.224  15.268  32.302  1.00  0.00     0.000 C 
BRANCH   7   8
ATOM      8  C   UNL     1      19.930  15.606  30.829  1.00  0.00     0.006 C 
BRANCH   8   9
ATOM      9  C   UNL     1      20.998  16.493  30.165  1.00  0.00     0.053 C 
BRANCH   9  10
ATOM     10  C   UNL     1      20.880  17.933  30.564  1.00  0.00     0.041 C 
ATOM     11  O   UNL     1      19.760  18.509  30.533  1.00  0.00    -0.550 OA
ATOM     12  O   UNL     1      21.997  18.632  31.003  1.00  0.00    -0.550 OA
ENDBRANCH   9  10
ENDBRANCH   8   9
ENDBRANCH   7   8
ENDBRANCH   6   7
ENDBRANCH   5   6
ENDBRANCH   4   5
ENDBRANCH   3   4
ENDBRANCH   1   3
BRANCH   2  13
ATOM     13  C   UNL     1      19.140   9.663  35.983  1.00  0.00     0.027 C 
BRANCH  13  14
ATOM     14  C   UNL     1      18.056   9.796  34.903  1.00  0.00     0.004 C 
BRANCH  14  15
ATOM     15  C   UNL     1      18.646   9.757  33.483  1.00  0.00     0.000 C 
BRANCH  15  16
ATOM     16  C   UNL     1      18.447  11.079  32.726  1.00  0.00     0.000 C 
BRANCH  16  17
ATOM     17  C   UNL     1      18.533  10.904  31.200  1.00  0.00    -0.000 C 
BRANCH  17  18
ATOM     18  C   UNL     1      19.530   9.810  30.781  1.00  0.00    -0.000 C 
BRANCH  18  19
ATOM     19  C   UNL     1      21.000  10.278  30.785  1.00  0.00    -0.003 C 
ATOM     20  C   UNL     1      21.949   9.226  30.207  1.00  0.00     0.004 C 
ENDBRANCH  18  19
ENDBRANCH  17  18
ENDBRANCH  16  17
ENDBRANCH  15  16
ENDBRANCH  14  15
ENDBRANCH  13  14
ENDBRANCH   2  13
TORSDOF 15
ENDMDL
MODEL 4
REMARK VINA RESULT:    -3.992      1.124      2.135
REMARK INTER + INTRA:          -9.143
REMARK INTER:                  -7.621
REMARK INTRA:                  -1.522
REMARK UNBOUND:                -1.650
REMARK SMILES CCCCCCCCC=CCCCCCCCC(=O)[O-]
REMARK SMILES IDX 10 1 9 2 11 3 12 4 13 5 14 6 15 7 16 8 17 9 18 10 19 11
REMARK SMILES IDX 20 12 8 13 7 14 6 15 5 16 4 17 3 18 2 19 1 20
REMARK H PARENT
REMARK Flexibility Score: inf
ROOT
ATOM      1  C   UNL     1      35.219   9.421  46.008  1.00  0.00    -0.031 C 
ATOM      2  C   UNL     1      34.084   8.832  46.425  1.00  0.00    -0.031 C 
ENDROOT
BRANCH   1   3
ATOM      3  C   UNL     1      36.101  10.291  46.870  1.00  0.00     0.027 C 
BRANCH   3   4
ATOM      4  C   UNL     1      35.761  11.771  46.672  1.00  0.00     0.004 C 
BRANCH   4   5
ATOM      5  C   UNL     1      35.143  12.012  45.286  1.00  0.00     0.000 C 
BRANCH   5   6
ATOM      6  C   UNL     1      35.135  13.498  44.890  1.00  0.00     0.000 C 
BRANCH   6   7
ATOM      7  C   UNL     1      35.840  14.388  45.926  1.00  0.00     0.000 C 
BRANCH   7   8
ATOM      8  C   UNL     1      36.541  15.606  45.296  1.00  0.00     0.006 C 
BRANCH   8   9
ATOM      9  C   UNL     1      35.914  16.957  45.684  1.00  0.00     0.053 C 
BRANCH   9  10
ATOM     10  C   UNL     1      35.487  17.004  47.120  1.00  0.00     0.041 C 
ATOM     11  O   UNL     1      36.343  17.161  48.030  1.00  0.00    -0.550 OA
ATOM     12  O   UNL     1      34.142  16.909  47.453  1.00  0.00    -0.550 OA
ENDBRANCH   9  10
ENDBRANCH   8   9
ENDBRANCH   7   8
ENDBRANCH   6   7
ENDBRANCH   5   6
ENDBRANCH   4   5
ENDBRANCH   3   4
ENDBRANCH   1   3
BRANCH   2  13
ATOM     13  C   UNL     1      33.568   8.868  47.843  1.00  0.00     0.027 C 
BRANCH  13  14
ATOM     14  C   UNL     1      32.479   9.934  48.030  1.00  0.00     0.004 C 
BRANCH  14  15
ATOM     15  C   UNL     1      31.716   9.755  49.354  1.00  0.00     0.000 C 
BRANCH  15  16
ATOM     16  C   UNL     1      31.344   8.290  49.627  1.00  0.00     0.000 C 
BRANCH  16  17
ATOM     17  C   UNL     1      30.052   7.865  48.910  1.00  0.00    -0.000 C 
BRANCH  17  18
ATOM     18  C   UNL     1      30.106   6.418  48.390  1.00  0.00    -0.000 C 
BRANCH  18  19
ATOM     19  C   UNL     1      31.156   6.198  47.282  1.00  0.00    -0.003 C 
ATOM     20  C   UNL     1      32.332   5.342  47.754  1.00  0.00     0.004 C 
ENDBRANCH  18  19
ENDBRANCH  17  18
ENDBRANCH  16  17
ENDBRANCH  15  16
ENDBRANCH  14  15
ENDBRANCH  13  14
ENDBRANCH   2  13
TORSDOF 15
ENDMDL
MODEL 5
REMARK VINA RESULT:    -3.981      3.597      8.760
REMARK INTER + INTRA:          -9.123
REMARK INTER:                  -7.695
REMARK INTRA:                  -1.428
REMARK UNBOUND:                -1.650
REMARK SMILES CCCCCCCCC=CCCCCCCCC(=O)[O-]
REMARK SMILES IDX 10 1 9 2 11 3 12 4 13 5 14 6 15 7 16 8 17 9 18 10 19 11
REMARK SMILES IDX 20 12 8 13 7 14 6 15 5 16 4 17 3 18 2 19 1 20
REMARK H PARENT
REMARK Flexibility Score: inf
ROOT
ATOM      1  C   UNL     1      34.221   9.331  46.574  1.00  0.00    -0.031 C 
ATOM      2  C   UNL     1      35.444   9.714  46.165  1.00  0.00    -0.031 C 
ENDROOT
BRANCH   1   3
ATOM      3  C   UNL     1      33.799   9.207  48.017  1.00  0.00     0.027 C 
BRANCH   3   4
ATOM      4  C   UNL     1      33.189  10.520  48.518  1.00  0.00     0.004 C 
BRANCH   4   5
ATOM      5  C   UNL     1      31.712  10.329  48.897  1.00  0.00     0.000 C 
BRANCH   5   6
ATOM      6  C   UNL     1      31.442   8.972  49.567  1.00  0.00     0.000 C 
BRANCH   6   7
ATOM      7  C   UNL     1      30.161   8.302  49.046  1.00  0.00     0.000 C 
BRANCH   7   8
ATOM      8  C   UNL     1      30.285   6.772  48.930  1.00  0.00     0.006 C 
BRANCH   8   9
ATOM      9  C   UNL     1      30.672   6.281  47.523  1.00  0.00     0.053 C 
BRANCH   9  10
ATOM     10  C   UNL     1      32.150   6.080  47.370  1.00  0.00     0.041 C 
ATOM     11  O   UNL     1      32.838   5.675  48.344  1.00  0.00    -0.550 OA
ATOM     12  O   UNL     1      32.763   6.304  46.144  1.00  0.00    -0.550 OA
ENDBRANCH   9  10
ENDBRANCH   8   9
ENDBRANCH   7   8
ENDBRANCH   6   7
ENDBRANCH   5   6
ENDBRANCH   4   5
ENDBRANCH   3   4
ENDBRANCH   1   3
BRANCH   2  13
ATOM     13  C   UNL     1      36.551  10.174  47.082  1.00  0.00     0.027 C 
BRANCH  13  14
ATOM     14  C   UNL     1      36.987  11.614  46.776  1.00  0.00     0.004 C 
BRANCH  14  15
ATOM     15  C   UNL     1      35.789  12.535  46.494  1.00  0.00     0.000 C 
BRANCH  15  16
ATOM     16  C   UNL     1      35.743  13.750  47.434  1.00  0.00     0.000 C 
BRANCH  16  17
ATOM     17  C   UNL     1      35.461  15.064  46.686  1.00  0.00    -0.000 C 
BRANCH  17  18
ATOM     18  C   UNL     1      36.210  15.161  45.346  1.00  0.00    -0.000 C 
BRANCH  18  19
ATOM     19  C   UNL     1      36.831  16.549  45.083  1.00  0.00    -0.003 C 
ATOM     20  C   UNL     1      36.036  17.678  45.740  1.00  0.00     0.004 C 
ENDBRANCH  18  19
ENDBRANCH  17  18
ENDBRANCH  16  17
ENDBRANCH  15  16
ENDBRANCH  14  15
ENDBRANCH  13  14
ENDBRANCH   2  13
TORSDOF 15
ENDMDL
MODEL 6
REMARK VINA RESULT:    -3.928      3.914      9.434
REMARK INTER + INTRA:          -9.023
REMARK INTER:                  -7.451
REMARK INTRA:                  -1.573
REMARK UNBOUND:                -1.650
REMARK SMILES CCCCCCCCC=CCCCCCCCC(=O)[O-]
REMARK SMILES IDX 10 1 9 2 11 3 12 4 13 5 14 6 15 7 16 8 17 9 18 10 19 11
REMARK SMILES IDX 20 12 8 13 7 14 6 15 5 16 4 17 3 18 2 19 1 20
REMARK H PARENT
REMARK Flexibility Score: inf
ROOT
ATOM      1  C   UNL     1      35.711  11.588  46.671  1.00  0.00    -0.031 C 
ATOM      2  C   UNL     1      35.859  12.910  46.466  1.00  0.00    -0.031 C 
ENDROOT
BRANCH   1   3
ATOM      3  C   UNL     1      34.937  10.661  45.766  1.00  0.00     0.027 C 
BRANCH   3   4
ATOM      4  C   UNL     1      34.331   9.504  46.567  1.00  0.00     0.004 C 
BRANCH   4   5
ATOM      5  C   UNL     1      33.389  10.028  47.661  1.00  0.00     0.000 C 
BRANCH   5   6
ATOM      6  C   UNL     1      32.538   8.915  48.294  1.00  0.00     0.000 C 
BRANCH   6   7
ATOM      7  C   UNL     1      32.843   7.530  47.702  1.00  0.00     0.000 C 
BRANCH   7   8
ATOM      8  C   UNL     1      31.949   6.417  48.279  1.00  0.00     0.006 C 
BRANCH   8   9
ATOM      9  C   UNL     1      30.657   6.174  47.478  1.00  0.00     0.053 C 
BRANCH   9  10
ATOM     10  C   UNL     1      29.423   6.341  48.311  1.00  0.00     0.041 C 
ATOM     11  O   UNL     1      29.411   7.161  49.268  1.00  0.00    -0.550 OA
ATOM     12  O   UNL     1      28.274   5.620  48.012  1.00  0.00    -0.550 OA
ENDBRANCH   9  10
ENDBRANCH   8   9
ENDBRANCH   7   8
ENDBRANCH   6   7
ENDBRANCH   5   6
ENDBRANCH   4   5
ENDBRANCH   3   4
ENDBRANCH   1   3
BRANCH   2  13
ATOM     13  C   UNL     1      35.359  13.651  45.250  1.00  0.00     0.027 C 
BRANCH  13  14
ATOM     14  C   UNL     1      36.129  14.958  45.019  1.00  0.00     0.004 C 
BRANCH  14  15
ATOM     15  C   UNL     1      37.356  15.078  45.939  1.00  0.00     0.000 C 
BRANCH  15  16
ATOM     16  C   UNL     1      37.524  16.492  46.517  1.00  0.00     0.000 C 
BRANCH  16  17
ATOM     17  C   UNL     1      36.321  17.400  46.214  1.00  0.00    -0.000 C 
BRANCH  17  18
ATOM     18  C   UNL     1      35.496  17.737  47.468  1.00  0.00    -0.000 C 
BRANCH  18  19
ATOM     19  C   UNL     1      34.297  16.792  47.692  1.00  0.00    -0.003 C 
ATOM     20  C   UNL     1      34.601  15.694  48.711  1.00  0.00     0.004 C 
ENDBRANCH  18  19
ENDBRANCH  17  18
ENDBRANCH  16  17
ENDBRANCH  15  16
ENDBRANCH  14  15
ENDBRANCH  13  14
ENDBRANCH   2  13
TORSDOF 15
ENDMDL
MODEL 7
REMARK VINA RESULT:    -3.810      3.607      8.202
REMARK INTER + INTRA:          -8.801
REMARK INTER:                  -6.453
REMARK INTRA:                  -2.347
REMARK UNBOUND:                -1.650
REMARK SMILES CCCCCCCCC=CCCCCCCCC(=O)[O-]
REMARK SMILES IDX 10 1 9 2 11 3 12 4 13 5 14 6 15 7 16 8 17 9 18 10 19 11
REMARK SMILES IDX 20 12 8 13 7 14 6 15 5 16 4 17 3 18 2 19 1 20
REMARK H PARENT
REMARK Flexibility Score: inf
ROOT
ATOM      1  C   UNL     1      34.262   9.982  46.309  1.00  0.00    -0.031 C 
ATOM      2  C   UNL     1      35.461   9.860  45.711  1.00  0.00    -0.031 C 
ENDROOT
BRANCH   1   3
ATOM      3  C   UNL     1      33.952   9.523  47.712  1.00  0.00     0.027 C 
BRANCH   3   4
ATOM      4  C   UNL     1      32.543   9.960  48.126  1.00  0.00     0.004 C 
BRANCH   4   5
ATOM      5  C   UNL     1      32.353   9.833  49.645  1.00  0.00     0.000 C 
BRANCH   5   6
ATOM      6  C   UNL     1      31.530   8.595  50.039  1.00  0.00     0.000 C 
BRANCH   6   7
ATOM      7  C   UNL     1      30.423   8.275  49.021  1.00  0.00     0.000 C 
BRANCH   7   8
ATOM      8  C   UNL     1      30.189   6.764  48.840  1.00  0.00     0.006 C 
BRANCH   8   9
ATOM      9  C   UNL     1      30.703   6.207  47.500  1.00  0.00     0.053 C 
BRANCH   9  10
ATOM     10  C   UNL     1      32.199   6.134  47.443  1.00  0.00     0.041 C 
ATOM     11  O   UNL     1      32.850   5.708  48.433  1.00  0.00    -0.550 OA
ATOM     12  O   UNL     1      32.874   6.503  46.286  1.00  0.00    -0.550 OA
ENDBRANCH   9  10
ENDBRANCH   8   9
ENDBRANCH   7   8
ENDBRANCH   6   7
ENDBRANCH   5   6
ENDBRANCH   4   5
ENDBRANCH   3   4
ENDBRANCH   1   3
BRANCH   2  13
ATOM     13  C   UNL     1      36.706   9.337  46.385  1.00  0.00     0.027 C 
BRANCH  13  14
ATOM     14  C   UNL     1      37.648  10.472  46.812  1.00  0.00     0.004 C 
BRANCH  14  15
ATOM     15  C   UNL     1      37.679  10.655  48.339  1.00  0.00     0.000 C 
BRANCH  15  16
ATOM     16  C   UNL     1      36.624  11.655  48.835  1.00  0.00     0.000 C 
BRANCH  16  17
ATOM     17  C   UNL     1      36.730  13.021  48.136  1.00  0.00    -0.000 C 
BRANCH  17  18
ATOM     18  C   UNL     1      35.495  13.350  47.280  1.00  0.00    -0.000 C 
BRANCH  18  19
ATOM     19  C   UNL     1      35.840  13.814  45.849  1.00  0.00    -0.003 C 
ATOM     20  C   UNL     1      37.336  14.071  45.664  1.00  0.00     0.004 C 
ENDBRANCH  18  19
ENDBRANCH  17  18
ENDBRANCH  16  17
ENDBRANCH  15  16
ENDBRANCH  14  15
ENDBRANCH  13  14
ENDBRANCH   2  13
TORSDOF 15
ENDMDL
MODEL 8
REMARK VINA RESULT:    -3.751      4.096      9.164
REMARK INTER + INTRA:          -8.691
REMARK INTER:                  -7.507
REMARK INTRA:                  -1.185
REMARK UNBOUND:                -1.650
REMARK SMILES CCCCCCCCC=CCCCCCCCC(=O)[O-]
REMARK SMILES IDX 10 1 9 2 11 3 12 4 13 5 14 6 15 7 16 8 17 9 18 10 19 11
REMARK SMILES IDX 20 12 8 13 7 14 6 15 5 16 4 17 3 18 2 19 1 20
REMARK H PARENT
REMARK Flexibility Score: inf
ROOT
ATOM      1  C   UNL     1      34.008   9.875  46.633  1.00  0.00    -0.031 C 
ATOM      2  C   UNL     1      35.285   9.731  46.232  1.00  0.00    -0.031 C 
ENDROOT
BRANCH   1   3
ATOM      3  C   UNL     1      33.576  10.071  48.065  1.00  0.00     0.027 C 
BRANCH   3   4
ATOM      4  C   UNL     1      32.047  10.079  48.172  1.00  0.00     0.004 C 
BRANCH   4   5
ATOM      5  C   UNL     1      31.531   8.757  48.761  1.00  0.00     0.000 C 
BRANCH   5   6
ATOM      6  C   UNL     1      32.667   7.795  49.145  1.00  0.00     0.000 C 
BRANCH   6   7
ATOM      7  C   UNL     1      32.691   6.531  48.270  1.00  0.00     0.000 C 
BRANCH   7   8
ATOM      8  C   UNL     1      31.404   6.343  47.447  1.00  0.00     0.006 C 
BRANCH   8   9
ATOM      9  C   UNL     1      30.438   5.294  48.027  1.00  0.00     0.053 C 
BRANCH   9  10
ATOM     10  C   UNL     1      29.130   5.889  48.453  1.00  0.00     0.041 C 
ATOM     11  O   UNL     1      28.096   5.711  47.755  1.00  0.00    -0.550 OA
ATOM     12  O   UNL     1      29.042   6.610  49.637  1.00  0.00    -0.550 OA
ENDBRANCH   9  10
ENDBRANCH   8   9
ENDBRANCH   7   8
ENDBRANCH   6   7
ENDBRANCH   5   6
ENDBRANCH   4   5
ENDBRANCH   3   4
ENDBRANCH   1   3
BRANCH   2  13
ATOM     13  C   UNL     1      36.486   9.843  47.139  1.00  0.00     0.027 C 
BRANCH  13  14
ATOM     14  C   UNL     1      37.372  11.042  46.771  1.00  0.00     0.004 C 
BRANCH  14  15
ATOM     15  C   UNL     1      36.588  12.365  46.779  1.00  0.00     0.000 C 
BRANCH  15  16
ATOM     16  C   UNL     1      37.468  13.574  46.423  1.00  0.00     0.000 C 
BRANCH  16  17
ATOM     17  C   UNL     1      36.691  14.668  45.671  1.00  0.00    -0.000 C 
BRANCH  17  18
ATOM     18  C   UNL     1      35.563  15.286  46.515  1.00  0.00    -0.000 C 
BRANCH  18  19
ATOM     19  C   UNL     1      35.426  16.813  46.342  1.00  0.00    -0.003 C 
ATOM     20  C   UNL     1      36.496  17.394  45.416  1.00  0.00     0.004 C 
ENDBRANCH  18  19
ENDBRANCH  17  18
ENDBRANCH  16  17
ENDBRANCH  15  16
ENDBRANCH  14  15
ENDBRANCH  13  14
ENDBRANCH   2  13
TORSDOF 15
ENDMDL
MODEL 9
REMARK VINA RESULT:    -3.719      4.374      8.736
REMARK INTER + INTRA:          -8.630
REMARK INTER:                  -6.703
REMARK INTRA:                  -1.927
REMARK UNBOUND:                -1.650
REMARK SMILES CCCCCCCCC=CCCCCCCCC(=O)[O-]
REMARK SMILES IDX 10 1 9 2 11 3 12 4 13 5 14 6 15 7 16 8 17 9 18 10 19 11
REMARK SMILES IDX 20 12 8 13 7 14 6 15 5 16 4 17 3 18 2 19 1 20
REMARK H PARENT
REMARK Flexibility Score: inf
ROOT
ATOM      1  C   UNL     1      34.735  10.732  45.757  1.00  0.00    -0.031 C 
ATOM      2  C   UNL     1      35.608  11.644  46.224  1.00  0.00    -0.031 C 
ENDROOT
BRANCH   1   3
ATOM      3  C   UNL     1      34.792   9.256  46.063  1.00  0.00     0.027 C 
BRANCH   3   4
ATOM      4  C   UNL     1      34.077   8.948  47.382  1.00  0.00     0.004 C 
BRANCH   4   5
ATOM      5  C   UNL     1      32.813   9.808  47.536  1.00  0.00     0.000 C 
BRANCH   5   6
ATOM      6  C   UNL     1      32.179   9.688  48.931  1.00  0.00     0.000 C 
BRANCH   6   7
ATOM      7  C   UNL     1      30.924   8.800  48.933  1.00  0.00     0.000 C 
BRANCH   7   8
ATOM      8  C   UNL     1      31.249   7.295  48.920  1.00  0.00     0.006 C 
BRANCH   8   9
ATOM      9  C   UNL     1      30.491   6.501  47.841  1.00  0.00     0.053 C 
BRANCH   9  10
ATOM     10  C   UNL     1      29.167   5.991  48.325  1.00  0.00     0.041 C 
ATOM     11  O   UNL     1      28.199   5.884  47.526  1.00  0.00    -0.550 OA
ATOM     12  O   UNL     1      29.009   5.600  49.649  1.00  0.00    -0.550 OA
ENDBRANCH   9  10
ENDBRANCH   8   9
ENDBRANCH   7   8
ENDBRANCH   6   7
ENDBRANCH   5   6
ENDBRANCH   4   5
ENDBRANCH   3   4
ENDBRANCH   1   3
BRANCH   2  13
ATOM     13  C   UNL     1      36.719  11.346  47.202  1.00  0.00     0.027 C 
BRANCH  13  14
ATOM     14  C   UNL     1      36.649  12.252  48.440  1.00  0.00     0.004 C 
BRANCH  14  15
ATOM     15  C   UNL     1      35.370  13.106  48.462  1.00  0.00     0.000 C 
BRANCH  15  16
ATOM     16  C   UNL     1      35.625  14.538  48.959  1.00  0.00     0.000 C 
BRANCH  16  17
ATOM     17  C   UNL     1      36.161  15.460  47.851  1.00  0.00    -0.000 C 
BRANCH  17  18
ATOM     18  C   UNL     1      35.442  15.257  46.506  1.00  0.00    -0.000 C 
BRANCH  18  19
ATOM     19  C   UNL     1      36.391  15.260  45.290  1.00  0.00    -0.003 C 
ATOM     20  C   UNL     1      37.738  14.605  45.599  1.00  0.00     0.004 C 
ENDBRANCH  18  19
ENDBRANCH  17  18
ENDBRANCH  16  17
ENDBRANCH  15  16
ENDBRANCH  14  15
ENDBRANCH  13  14
ENDBRANCH   2  13
TORSDOF 15
ENDMDL
