MODEL 1
REMARK VINA RESULT:    -3.686      0.000      0.000
REMARK INTER + INTRA:          -9.775
REMARK INTER:                  -7.133
REMARK INTRA:                  -2.642
REMARK UNBOUND:                -2.642
REMARK SMILES CCCCCCCCCCCCCCCCCC(=O)[O-]
REMARK SMILES IDX 10 1 11 2 12 3 13 4 14 5 15 6 16 7 17 8 18 9 19 10 20 11
REMARK SMILES IDX 9 12 8 13 7 14 6 15 5 16 4 17 3 18 2 19 1 20
REMARK H PARENT
REMARK Flexibility Score: inf
ROOT
ATOM      1  C   UNL     1      20.269   7.217   6.534  1.00  0.00     0.000 C 
ENDROOT
BRANCH   1   2
ATOM      2  C   UNL     1      21.033   7.575   5.246  1.00  0.00     0.000 C 
BRANCH   2   3
ATOM      3  C   UNL     1      22.100   6.530   4.877  1.00  0.00     0.000 C 
BRANCH   3   4
ATOM      4  C   UNL     1      21.926   5.994   3.442  1.00  0.00     0.000 C 
BRANCH   4   5
ATOM      5  C   UNL     1      23.214   6.037   2.596  1.00  0.00     0.000 C 
BRANCH   5   6
ATOM      6  C   UNL     1      23.458   7.383   1.881  1.00  0.00     0.000 C 
BRANCH   6   7
ATOM      7  C   UNL     1      24.637   8.189   2.462  1.00  0.00     0.006 C 
BRANCH   7   8
ATOM      8  C   UNL     1      24.217   9.206   3.534  1.00  0.00     0.053 C 
BRANCH   8   9
ATOM      9  C   UNL     1      25.017  10.470   3.449  1.00  0.00     0.041 C 
ATOM     10  O   UNL     1      25.385  11.058   4.499  1.00  0.00    -0.550 OA
ATOM     11  O   UNL     1      25.332  11.011   2.210  1.00  0.00    -0.550 OA
ENDBRANCH   8   9
ENDBRANCH   7   8
ENDBRANCH   6   7
ENDBRANCH   5   6
ENDBRANCH   4   5
ENDBRANCH   3   4
ENDBRANCH   2   3
ENDBRANCH   1   2
BRANCH   1  12
ATOM     12  C   UNL     1      18.740   7.406   6.458  1.00  0.00     0.000 C 
BRANCH  12  13
ATOM     13  C   UNL     1      18.246   8.235   5.258  1.00  0.00    -0.000 C 
BRANCH  13  14
ATOM     14  C   UNL     1      17.287   7.450   4.348  1.00  0.00    -0.000 C 
BRANCH  14  15
ATOM     15  C   UNL     1      17.842   7.259   2.929  1.00  0.00    -0.000 C 
BRANCH  15  16
ATOM     16  C   UNL     1      18.346   5.826   2.678  1.00  0.00    -0.000 C 
BRANCH  16  17
ATOM     17  C   UNL     1      17.853   4.839   3.757  1.00  0.00    -0.000 C 
BRANCH  17  18
ATOM     18  C   UNL     1      18.905   3.791   4.159  1.00  0.00    -0.000 C 
BRANCH  18  19
ATOM     19  C   UNL     1      19.254   3.839   5.652  1.00  0.00    -0.003 C 
ATOM     20  C   UNL     1      20.665   3.315   5.904  1.00  0.00     0.004 C 
ENDBRANCH  18  19
ENDBRANCH  17  18
ENDBRANCH  16  17
ENDBRANCH  15  16
ENDBRANCH  14  15
ENDBRANCH  13  14
ENDBRANCH  12  13
ENDBRANCH   1  12
TORSDOF 16
ENDMDL
MODEL 2
REMARK VINA RESULT:    -3.627      4.267      6.736
REMARK INTER + INTRA:          -9.661
REMARK INTER:                  -8.587
REMARK INTRA:                  -1.074
REMARK UNBOUND:                -2.642
REMARK SMILES CCCCCCCCCCCCCCCCCC(=O)[O-]
REMARK SMILES IDX 10 1 11 2 12 3 13 4 14 5 15 6 16 7 17 8 18 9 19 10 20 11
REMARK SMILES IDX 9 12 8 13 7 14 6 15 5 16 4 17 3 18 2 19 1 20
REMARK H PARENT
REMARK Flexibility Score: inf
ROOT
ATOM      1  C   UNL     1      18.671   6.608   6.436  1.00  0.00     0.000 C 
ENDROOT
BRANCH   1   2
ATOM      2  C   UNL     1      18.269   8.006   5.931  1.00  0.00     0.000 C 
BRANCH   2   3
ATOM      3  C   UNL     1      17.921   8.020   4.432  1.00  0.00     0.000 C 
BRANCH   3   4
ATOM      4  C   UNL     1      16.720   7.113   4.099  1.00  0.00     0.000 C 
BRANCH   4   5
ATOM      5  C   UNL     1      16.729   6.561   2.660  1.00  0.00     0.000 C 
BRANCH   5   6
ATOM      6  C   UNL     1      18.093   6.680   1.945  1.00  0.00     0.000 C 
BRANCH   6   7
ATOM      7  C   UNL     1      18.878   5.354   1.884  1.00  0.00     0.006 C 
BRANCH   7   8
ATOM      8  C   UNL     1      19.761   5.105   3.118  1.00  0.00     0.053 C 
BRANCH   8   9
ATOM      9  C   UNL     1      21.009   5.933   3.086  1.00  0.00     0.041 C 
ATOM     10  O   UNL     1      21.678   6.029   2.024  1.00  0.00    -0.550 OA
ATOM     11  O   UNL     1      21.447   6.576   4.236  1.00  0.00    -0.550 OA
ENDBRANCH   8   9
ENDBRANCH   7   8
ENDBRANCH   6   7
ENDBRANCH   5   6
ENDBRANCH   4   5
ENDBRANCH   3   4
ENDBRANCH   2   3
ENDBRANCH   1   2
BRANCH   1  12
ATOM     12  C   UNL     1      18.501   6.389   7.953  1.00  0.00     0.000 C 
BRANCH  12  13
ATOM     13  C   UNL     1      18.487   4.915   8.398  1.00  0.00    -0.000 C 
BRANCH  13  14
ATOM     14  C   UNL     1      17.547   4.663   9.589  1.00  0.00    -0.000 C 
BRANCH  14  15
ATOM     15  C   UNL     1      18.002   5.389  10.864  1.00  0.00    -0.000 C 
BRANCH  15  16
ATOM     16  C   UNL     1      17.387   6.793  10.997  1.00  0.00    -0.000 C 
BRANCH  16  17
ATOM     17  C   UNL     1      16.199   6.817  11.982  1.00  0.00    -0.000 C 
BRANCH  17  18
ATOM     18  C   UNL     1      16.122   8.103  12.823  1.00  0.00    -0.000 C 
BRANCH  18  19
ATOM     19  C   UNL     1      17.416   8.386  13.598  1.00  0.00    -0.003 C 
ATOM     20  C   UNL     1      17.558   9.874  13.905  1.00  0.00     0.004 C 
ENDBRANCH  18  19
ENDBRANCH  17  18
ENDBRANCH  16  17
ENDBRANCH  15  16
ENDBRANCH  14  15
ENDBRANCH  13  14
ENDBRANCH  12  13
ENDBRANCH   1  12
TORSDOF 16
ENDMDL
MODEL 3
REMARK VINA RESULT:    -3.581      4.752      7.084
REMARK INTER + INTRA:          -9.573
REMARK INTER:                  -8.404
REMARK INTRA:                  -1.170
REMARK UNBOUND:                -2.642
REMARK SMILES CCCCCCCCCCCCCCCCCC(=O)[O-]
REMARK SMILES IDX 10 1 11 2 12 3 13 4 14 5 15 6 16 7 17 8 18 9 19 10 20 11
REMARK SMILES IDX 9 12 8 13 7 14 6 15 5 16 4 17 3 18 2 19 1 20
REMARK H PARENT
REMARK Flexibility Score: inf
ROOT
ATOM      1  C   UNL     1      18.647   2.820   9.438  1.00  0.00     0.000 C 
ENDROOT
BRANCH   1   2
ATOM      2  C   UNL     1      19.588   3.979   9.063  1.00  0.00     0.000 C 
BRANCH   2   3
ATOM      3  C   UNL     1      19.937   4.001   7.564  1.00  0.00     0.000 C 
BRANCH   3   4
ATOM      4  C   UNL     1      19.000   4.920   6.755  1.00  0.00     0.000 C 
BRANCH   4   5
ATOM      5  C   UNL     1      18.671   6.253   7.455  1.00  0.00     0.000 C 
BRANCH   5   6
ATOM      6  C   UNL     1      19.122   7.507   6.674  1.00  0.00     0.000 C 
BRANCH   6   7
ATOM      7  C   UNL     1      20.127   7.203   5.544  1.00  0.00     0.006 C 
BRANCH   7   8
ATOM      8  C   UNL     1      21.591   7.188   6.012  1.00  0.00     0.053 C 
BRANCH   8   9
ATOM      9  C   UNL     1      22.539   7.468   4.886  1.00  0.00     0.041 C 
ATOM     10  O   UNL     1      23.048   8.612   4.756  1.00  0.00    -0.550 OA
ATOM     11  O   UNL     1      22.839   6.473   3.965  1.00  0.00    -0.550 OA
ENDBRANCH   8   9
ENDBRANCH   7   8
ENDBRANCH   6   7
ENDBRANCH   5   6
ENDBRANCH   4   5
ENDBRANCH   3   4
ENDBRANCH   2   3
ENDBRANCH   1   2
BRANCH   1  12
ATOM     12  C   UNL     1      17.152   3.191   9.509  1.00  0.00     0.000 C 
BRANCH  12  13
ATOM     13  C   UNL     1      16.847   4.532  10.200  1.00  0.00    -0.000 C 
BRANCH  13  14
ATOM     14  C   UNL     1      15.472   4.548  10.888  1.00  0.00    -0.000 C 
BRANCH  14  15
ATOM     15  C   UNL     1      15.190   5.871  11.615  1.00  0.00    -0.000 C 
BRANCH  15  16
ATOM     16  C   UNL     1      16.450   6.741  11.770  1.00  0.00    -0.000 C 
BRANCH  16  17
ATOM     17  C   UNL     1      16.191   7.989  12.640  1.00  0.00    -0.000 C 
BRANCH  17  18
ATOM     18  C   UNL     1      17.352   8.327  13.591  1.00  0.00    -0.000 C 
BRANCH  18  19
ATOM     19  C   UNL     1      17.470   9.830  13.876  1.00  0.00    -0.003 C 
ATOM     20  C   UNL     1      18.565  10.467  13.025  1.00  0.00     0.004 C 
ENDBRANCH  18  19
ENDBRANCH  17  18
ENDBRANCH  16  17
ENDBRANCH  15  16
ENDBRANCH  14  15
ENDBRANCH  13  14
ENDBRANCH  12  13
ENDBRANCH   1  12
TORSDOF 16
ENDMDL
MODEL 4
REMARK VINA RESULT:    -3.564      1.228      2.051
REMARK INTER + INTRA:          -9.539
REMARK INTER:                  -7.346
REMARK INTRA:                  -2.193
REMARK UNBOUND:                -2.642
REMARK SMILES CCCCCCCCCCCCCCCCCC(=O)[O-]
REMARK SMILES IDX 10 1 11 2 12 3 13 4 14 5 15 6 16 7 17 8 18 9 19 10 20 11
REMARK SMILES IDX 9 12 8 13 7 14 6 15 5 16 4 17 3 18 2 19 1 20
REMARK H PARENT
REMARK Flexibility Score: inf
ROOT
ATOM      1  C   UNL     1      18.619   8.038   5.255  1.00  0.00     0.000 C 
ENDROOT
BRANCH   1   2
ATOM      2  C   UNL     1      19.306   7.254   6.388  1.00  0.00     0.000 C 
BRANCH   2   3
ATOM      3  C   UNL     1      20.841   7.320   6.311  1.00  0.00     0.000 C 
BRANCH   3   4
ATOM      4  C   UNL     1      21.483   5.924   6.174  1.00  0.00     0.000 C 
BRANCH   4   5
ATOM      5  C   UNL     1      22.364   5.759   4.920  1.00  0.00     0.000 C 
BRANCH   5   6
ATOM      6  C   UNL     1      22.212   6.895   3.885  1.00  0.00     0.000 C 
BRANCH   6   7
ATOM      7  C   UNL     1      23.498   7.719   3.675  1.00  0.00     0.006 C 
BRANCH   7   8
ATOM      8  C   UNL     1      23.509   9.047   4.448  1.00  0.00     0.053 C 
BRANCH   8   9
ATOM      9  C   UNL     1      24.542   9.994   3.917  1.00  0.00     0.041 C 
ATOM     10  O   UNL     1      25.262  10.655   4.709  1.00  0.00    -0.550 OA
ATOM     11  O   UNL     1      24.688  10.165   2.546  1.00  0.00    -0.550 OA
ENDBRANCH   8   9
ENDBRANCH   7   8
ENDBRANCH   6   7
ENDBRANCH   5   6
ENDBRANCH   4   5
ENDBRANCH   3   4
ENDBRANCH   2   3
ENDBRANCH   1   2
BRANCH   1  12
ATOM     12  C   UNL     1      17.116   7.743   5.076  1.00  0.00     0.000 C 
BRANCH  12  13
ATOM     13  C   UNL     1      16.716   7.231   3.680  1.00  0.00    -0.000 C 
BRANCH  13  14
ATOM     14  C   UNL     1      17.906   7.165   2.707  1.00  0.00    -0.000 C 
BRANCH  14  15
ATOM     15  C   UNL     1      18.182   5.739   2.209  1.00  0.00    -0.000 C 
BRANCH  15  16
ATOM     16  C   UNL     1      19.195   4.989   3.091  1.00  0.00    -0.000 C 
BRANCH  16  17
ATOM     17  C   UNL     1      18.507   4.209   4.232  1.00  0.00    -0.000 C 
BRANCH  17  18
ATOM     18  C   UNL     1      17.173   3.565   3.819  1.00  0.00    -0.000 C 
BRANCH  18  19
ATOM     19  C   UNL     1      17.022   2.127   4.330  1.00  0.00    -0.003 C 
ATOM     20  C   UNL     1      17.419   2.021   5.800  1.00  0.00     0.004 C 
ENDBRANCH  18  19
ENDBRANCH  17  18
ENDBRANCH  16  17
ENDBRANCH  15  16
ENDBRANCH  14  15
ENDBRANCH  13  14
ENDBRANCH  12  13
ENDBRANCH   1  12
TORSDOF 16
ENDMDL
MODEL 5
REMARK VINA RESULT:    -3.534      3.073      6.267
REMARK INTER + INTRA:          -9.481
REMARK INTER:                  -7.332
REMARK INTRA:                  -2.149
REMARK UNBOUND:                -2.642
REMARK SMILES CCCCCCCCCCCCCCCCCC(=O)[O-]
REMARK SMILES IDX 10 1 11 2 12 3 13 4 14 5 15 6 16 7 17 8 18 9 19 10 20 11
REMARK SMILES IDX 9 12 8 13 7 14 6 15 5 16 4 17 3 18 2 19 1 20
REMARK H PARENT
REMARK Flexibility Score: inf
ROOT
ATOM      1  C   UNL     1      18.314   7.596   6.603  1.00  0.00     0.000 C 
ENDROOT
BRANCH   1   2
ATOM      2  C   UNL     1      17.370   8.254   5.580  1.00  0.00     0.000 C 
BRANCH   2   3
ATOM      3  C   UNL     1      17.870   8.111   4.131  1.00  0.00     0.000 C 
BRANCH   3   4
ATOM      4  C   UNL     1      17.388   6.804   3.469  1.00  0.00     0.000 C 
BRANCH   4   5
ATOM      5  C   UNL     1      18.274   6.329   2.301  1.00  0.00     0.000 C 
BRANCH   5   6
ATOM      6  C   UNL     1      19.745   6.065   2.689  1.00  0.00     0.000 C 
BRANCH   6   7
ATOM      7  C   UNL     1      20.169   4.589   2.543  1.00  0.00     0.006 C 
BRANCH   7   8
ATOM      8  C   UNL     1      20.066   3.789   3.851  1.00  0.00     0.053 C 
BRANCH   8   9
ATOM      9  C   UNL     1      21.331   3.045   4.151  1.00  0.00     0.041 C 
ATOM     10  O   UNL     1      21.290   1.950   4.771  1.00  0.00    -0.550 OA
ATOM     11  O   UNL     1      22.557   3.575   3.770  1.00  0.00    -0.550 OA
ENDBRANCH   8   9
ENDBRANCH   7   8
ENDBRANCH   6   7
ENDBRANCH   5   6
ENDBRANCH   4   5
ENDBRANCH   3   4
ENDBRANCH   2   3
ENDBRANCH   1   2
BRANCH   1  12
ATOM     12  C   UNL     1      19.806   7.608   6.215  1.00  0.00     0.000 C 
BRANCH  12  13
ATOM     13  C   UNL     1      20.557   6.291   6.482  1.00  0.00    -0.000 C 
BRANCH  13  14
ATOM     14  C   UNL     1      21.993   6.302   5.930  1.00  0.00    -0.000 C 
BRANCH  14  15
ATOM     15  C   UNL     1      22.271   7.517   5.033  1.00  0.00    -0.000 C 
BRANCH  15  16
ATOM     16  C   UNL     1      23.111   7.158   3.794  1.00  0.00    -0.000 C 
BRANCH  16  17
ATOM     17  C   UNL     1      23.977   8.343   3.316  1.00  0.00    -0.000 C 
BRANCH  17  18
ATOM     18  C   UNL     1      23.849   9.595   4.202  1.00  0.00    -0.000 C 
BRANCH  18  19
ATOM     19  C   UNL     1      25.110  10.468   4.184  1.00  0.00    -0.003 C 
ATOM     20  C   UNL     1      25.033  11.523   3.084  1.00  0.00     0.004 C 
ENDBRANCH  18  19
ENDBRANCH  17  18
ENDBRANCH  16  17
ENDBRANCH  15  16
ENDBRANCH  14  15
ENDBRANCH  13  14
ENDBRANCH  12  13
ENDBRANCH   1  12
TORSDOF 16
ENDMDL
MODEL 6
REMARK VINA RESULT:    -3.520      3.641      6.466
REMARK INTER + INTRA:          -9.455
REMARK INTER:                  -7.058
REMARK INTRA:                  -2.398
REMARK UNBOUND:                -2.642
REMARK SMILES CCCCCCCCCCCCCCCCCC(=O)[O-]
REMARK SMILES IDX 10 1 11 2 12 3 13 4 14 5 15 6 16 7 17 8 18 9 19 10 20 11
REMARK SMILES IDX 9 12 8 13 7 14 6 15 5 16 4 17 3 18 2 19 1 20
REMARK H PARENT
REMARK Flexibility Score: inf
ROOT
ATOM      1  C   UNL     1      16.574   7.088   4.035  1.00  0.00     0.000 C 
ENDROOT
BRANCH   1   2
ATOM      2  C   UNL     1      17.050   8.241   4.938  1.00  0.00     0.000 C 
BRANCH   2   3
ATOM      3  C   UNL     1      18.581   8.285   5.087  1.00  0.00     0.000 C 
BRANCH   3   4
ATOM      4  C   UNL     1      19.062   7.646   6.406  1.00  0.00     0.000 C 
BRANCH   4   5
ATOM      5  C   UNL     1      20.519   7.145   6.366  1.00  0.00     0.000 C 
BRANCH   5   6
ATOM      6  C   UNL     1      20.682   5.645   6.697  1.00  0.00     0.000 C 
BRANCH   6   7
ATOM      7  C   UNL     1      19.343   4.903   6.881  1.00  0.00     0.006 C 
BRANCH   7   8
ATOM      8  C   UNL     1      19.290   4.039   8.152  1.00  0.00     0.053 C 
BRANCH   8   9
ATOM      9  C   UNL     1      18.718   4.791   9.314  1.00  0.00     0.041 C 
ATOM     10  O   UNL     1      18.046   5.838   9.122  1.00  0.00    -0.550 OA
ATOM     11  O   UNL     1      18.950   4.350  10.610  1.00  0.00    -0.550 OA
ENDBRANCH   8   9
ENDBRANCH   7   8
ENDBRANCH   6   7
ENDBRANCH   5   6
ENDBRANCH   4   5
ENDBRANCH   3   4
ENDBRANCH   2   3
ENDBRANCH   1   2
BRANCH   1  12
ATOM     12  C   UNL     1      17.494   6.773   2.839  1.00  0.00     0.000 C 
BRANCH  12  13
ATOM     13  C   UNL     1      17.817   5.280   2.645  1.00  0.00    -0.000 C 
BRANCH  13  14
ATOM     14  C   UNL     1      19.221   4.904   3.151  1.00  0.00    -0.000 C 
BRANCH  14  15
ATOM     15  C   UNL     1      20.273   5.971   2.817  1.00  0.00    -0.000 C 
BRANCH  15  16
ATOM     16  C   UNL     1      21.704   5.403   2.786  1.00  0.00    -0.000 C 
BRANCH  16  17
ATOM     17  C   UNL     1      22.709   6.319   3.515  1.00  0.00    -0.000 C 
BRANCH  17  18
ATOM     18  C   UNL     1      23.650   7.080   2.565  1.00  0.00    -0.000 C 
BRANCH  18  19
ATOM     19  C   UNL     1      24.026   8.472   3.088  1.00  0.00    -0.003 C 
ATOM     20  C   UNL     1      23.499   8.688   4.503  1.00  0.00     0.004 C 
ENDBRANCH  18  19
ENDBRANCH  17  18
ENDBRANCH  16  17
ENDBRANCH  15  16
ENDBRANCH  14  15
ENDBRANCH  13  14
ENDBRANCH  12  13
ENDBRANCH   1  12
TORSDOF 16
ENDMDL
MODEL 7
REMARK VINA RESULT:    -3.501      5.147      7.878
REMARK INTER + INTRA:          -9.418
REMARK INTER:                  -7.388
REMARK INTRA:                  -2.030
REMARK UNBOUND:                -2.642
REMARK SMILES CCCCCCCCCCCCCCCCCC(=O)[O-]
REMARK SMILES IDX 10 1 11 2 12 3 13 4 14 5 15 6 16 7 17 8 18 9 19 10 20 11
REMARK SMILES IDX 9 12 8 13 7 14 6 15 5 16 4 17 3 18 2 19 1 20
REMARK H PARENT
REMARK Flexibility Score: inf
ROOT
ATOM      1  C   UNL     1      19.481   5.737   7.206  1.00  0.00     0.000 C 
ENDROOT
BRANCH   1   2
ATOM      2  C   UNL     1      18.995   4.319   6.854  1.00  0.00     0.000 C 
BRANCH   2   3
ATOM      3  C   UNL     1      18.787   3.435   8.097  1.00  0.00     0.000 C 
BRANCH   3   4
ATOM      4  C   UNL     1      19.380   4.067   9.372  1.00  0.00     0.000 C 
BRANCH   4   5
ATOM      5  C   UNL     1      18.353   4.281  10.502  1.00  0.00     0.000 C 
BRANCH   5   6
ATOM      6  C   UNL     1      17.098   5.074  10.075  1.00  0.00     0.000 C 
BRANCH   6   7
ATOM      7  C   UNL     1      16.417   5.827  11.236  1.00  0.00     0.006 C 
BRANCH   7   8
ATOM      8  C   UNL     1      17.190   7.074  11.695  1.00  0.00     0.053 C 
BRANCH   8   9
ATOM      9  C   UNL     1      16.420   7.865  12.708  1.00  0.00     0.041 C 
ATOM     10  O   UNL     1      17.028   8.554  13.568  1.00  0.00    -0.550 OA
ATOM     11  O   UNL     1      15.032   7.819  12.718  1.00  0.00    -0.550 OA
ENDBRANCH   8   9
ENDBRANCH   7   8
ENDBRANCH   6   7
ENDBRANCH   5   6
ENDBRANCH   4   5
ENDBRANCH   3   4
ENDBRANCH   2   3
ENDBRANCH   1   2
BRANCH   1  12
ATOM     12  C   UNL     1      20.857   6.118   6.624  1.00  0.00     0.000 C 
BRANCH  12  13
ATOM     13  C   UNL     1      20.809   7.073   5.417  1.00  0.00    -0.000 C 
BRANCH  13  14
ATOM     14  C   UNL     1      21.333   6.424   4.124  1.00  0.00    -0.000 C 
BRANCH  14  15
ATOM     15  C   UNL     1      20.339   5.420   3.523  1.00  0.00    -0.000 C 
BRANCH  15  16
ATOM     16  C   UNL     1      19.124   6.106   2.874  1.00  0.00    -0.000 C 
BRANCH  16  17
ATOM     17  C   UNL     1      17.802   5.737   3.579  1.00  0.00    -0.000 C 
BRANCH  17  18
ATOM     18  C   UNL     1      16.849   6.930   3.765  1.00  0.00    -0.000 C 
BRANCH  18  19
ATOM     19  C   UNL     1      17.123   7.716   5.054  1.00  0.00    -0.003 C 
ATOM     20  C   UNL     1      17.780   9.060   4.749  1.00  0.00     0.004 C 
ENDBRANCH  18  19
ENDBRANCH  17  18
ENDBRANCH  16  17
ENDBRANCH  15  16
ENDBRANCH  14  15
ENDBRANCH  13  14
ENDBRANCH  12  13
ENDBRANCH   1  12
TORSDOF 16
ENDMDL
MODEL 8
REMARK VINA RESULT:    -3.467      1.745      3.540
REMARK INTER + INTRA:          -9.352
REMARK INTER:                  -7.415
REMARK INTRA:                  -1.936
REMARK UNBOUND:                -2.642
REMARK SMILES CCCCCCCCCCCCCCCCCC(=O)[O-]
REMARK SMILES IDX 10 1 11 2 12 3 13 4 14 5 15 6 16 7 17 8 18 9 19 10 20 11
REMARK SMILES IDX 9 12 8 13 7 14 6 15 5 16 4 17 3 18 2 19 1 20
REMARK H PARENT
REMARK Flexibility Score: inf
ROOT
ATOM      1  C   UNL     1      21.298   7.608   5.673  1.00  0.00     0.000 C 
ENDROOT
BRANCH   1   2
ATOM      2  C   UNL     1      22.765   7.381   5.265  1.00  0.00     0.000 C 
BRANCH   2   3
ATOM      3  C   UNL     1      22.944   7.247   3.742  1.00  0.00     0.000 C 
BRANCH   3   4
ATOM      4  C   UNL     1      23.914   8.300   3.170  1.00  0.00     0.000 C 
BRANCH   4   5
ATOM      5  C   UNL     1      24.128   9.521   4.086  1.00  0.00     0.000 C 
BRANCH   5   6
ATOM      6  C   UNL     1      24.637  10.781   3.352  1.00  0.00     0.000 C 
BRANCH   6   7
ATOM      7  C   UNL     1      25.983  11.308   3.889  1.00  0.00     0.006 C 
BRANCH   7   8
ATOM      8  C   UNL     1      27.131  11.208   2.872  1.00  0.00     0.053 C 
BRANCH   8   9
ATOM      9  C   UNL     1      27.925   9.950   3.048  1.00  0.00     0.041 C 
ATOM     10  O   UNL     1      29.060   9.989   3.589  1.00  0.00    -0.550 OA
ATOM     11  O   UNL     1      27.421   8.740   2.589  1.00  0.00    -0.550 OA
ENDBRANCH   8   9
ENDBRANCH   7   8
ENDBRANCH   6   7
ENDBRANCH   5   6
ENDBRANCH   4   5
ENDBRANCH   3   4
ENDBRANCH   2   3
ENDBRANCH   1   2
BRANCH   1  12
ATOM     12  C   UNL     1      20.665   6.464   6.492  1.00  0.00     0.000 C 
BRANCH  12  13
ATOM     13  C   UNL     1      21.560   5.225   6.676  1.00  0.00    -0.000 C 
BRANCH  13  14
ATOM     14  C   UNL     1      21.375   4.185   5.558  1.00  0.00    -0.000 C 
BRANCH  14  15
ATOM     15  C   UNL     1      19.958   4.202   4.965  1.00  0.00    -0.000 C 
BRANCH  15  16
ATOM     16  C   UNL     1      19.954   4.466   3.449  1.00  0.00    -0.000 C 
BRANCH  16  17
ATOM     17  C   UNL     1      19.341   5.838   3.099  1.00  0.00    -0.000 C 
BRANCH  17  18
ATOM     18  C   UNL     1      18.037   6.141   3.857  1.00  0.00    -0.000 C 
BRANCH  18  19
ATOM     19  C   UNL     1      17.637   7.620   3.787  1.00  0.00    -0.003 C 
ATOM     20  C   UNL     1      17.640   8.258   5.173  1.00  0.00     0.004 C 
ENDBRANCH  18  19
ENDBRANCH  17  18
ENDBRANCH  16  17
ENDBRANCH  15  16
ENDBRANCH  14  15
ENDBRANCH  13  14
ENDBRANCH  12  13
ENDBRANCH   1  12
TORSDOF 16
ENDMDL
MODEL 9
REMARK VINA RESULT:    -3.457      4.168      6.581
REMARK INTER + INTRA:          -9.332
REMARK INTER:                  -6.426
REMARK INTRA:                  -2.906
REMARK UNBOUND:                -2.642
REMARK SMILES CCCCCCCCCCCCCCCCCC(=O)[O-]
REMARK SMILES IDX 10 1 11 2 12 3 13 4 14 5 15 6 16 7 17 8 18 9 19 10 20 11
REMARK SMILES IDX 9 12 8 13 7 14 6 15 5 16 4 17 3 18 2 19 1 20
REMARK H PARENT
REMARK Flexibility Score: inf
ROOT
ATOM      1  C   UNL     1      17.911   6.878   2.796  1.00  0.00     0.000 C 
ENDROOT
BRANCH   1   2
ATOM      2  C   UNL     1      18.386   5.414   2.793  1.00  0.00     0.000 C 
BRANCH   2   3
ATOM      3  C   UNL     1      17.872   4.620   4.007  1.00  0.00     0.000 C 
BRANCH   3   4
ATOM      4  C   UNL     1      18.960   3.716   4.622  1.00  0.00     0.000 C 
BRANCH   4   5
ATOM      5  C   UNL     1      18.733   3.385   6.110  1.00  0.00     0.000 C 
BRANCH   5   6
ATOM      6  C   UNL     1      20.021   3.379   6.961  1.00  0.00     0.000 C 
BRANCH   6   7
ATOM      7  C   UNL     1      19.881   4.130   8.301  1.00  0.00     0.006 C 
BRANCH   7   8
ATOM      8  C   UNL     1      18.591   4.959   8.409  1.00  0.00     0.053 C 
BRANCH   8   9
ATOM      9  C   UNL     1      17.862   4.692   9.690  1.00  0.00     0.041 C 
ATOM     10  O   UNL     1      16.949   3.826   9.730  1.00  0.00    -0.550 OA
ATOM     11  O   UNL     1      18.172   5.419  10.831  1.00  0.00    -0.550 OA
ENDBRANCH   8   9
ENDBRANCH   7   8
ENDBRANCH   6   7
ENDBRANCH   5   6
ENDBRANCH   4   5
ENDBRANCH   3   4
ENDBRANCH   2   3
ENDBRANCH   1   2
BRANCH   1  12
ATOM     12  C   UNL     1      16.742   7.183   3.755  1.00  0.00     0.000 C 
BRANCH  12  13
ATOM     13  C   UNL     1      17.079   8.158   4.899  1.00  0.00    -0.000 C 
BRANCH  13  14
ATOM     14  C   UNL     1      18.593   8.326   5.111  1.00  0.00    -0.000 C 
BRANCH  14  15
ATOM     15  C   UNL     1      19.095   7.612   6.375  1.00  0.00    -0.000 C 
BRANCH  15  16
ATOM     16  C   UNL     1      20.600   7.294   6.318  1.00  0.00    -0.000 C 
BRANCH  16  17
ATOM     17  C   UNL     1      21.037   6.800   4.923  1.00  0.00    -0.000 C 
BRANCH  17  18
ATOM     18  C   UNL     1      22.104   5.693   4.969  1.00  0.00    -0.000 C 
BRANCH  18  19
ATOM     19  C   UNL     1      22.745   5.425   3.602  1.00  0.00    -0.003 C 
ATOM     20  C   UNL     1      22.006   6.169   2.493  1.00  0.00     0.004 C 
ENDBRANCH  18  19
ENDBRANCH  17  18
ENDBRANCH  16  17
ENDBRANCH  15  16
ENDBRANCH  14  15
ENDBRANCH  13  14
ENDBRANCH  12  13
ENDBRANCH   1  12
TORSDOF 16
ENDMDL
