MODEL 1
REMARK VINA RESULT:    -7.771      0.000      0.000
REMARK INTER + INTRA:          -9.558
REMARK INTER:                  -9.361
REMARK INTRA:                  -0.197
REMARK UNBOUND:                -0.197
REMARK SMILES O=c1c(O)c(-c2ccc(O)c(O)c2)oc2cc(O)cc(O)c12
REMARK SMILES IDX 5 1 3 2 2 3 1 4 22 5 20 6 19 7 17 8 16 9 15 10 14 11 6 12
REMARK SMILES IDX 7 13 8 14 9 15 13 16 11 17 10 18 12 20 4 22 21 24 18 26
REMARK H PARENT 10 19 12 21 4 23 21 25 18 27
REMARK Flexibility Score: inf
ROOT
ATOM      1  C   UNL     1       6.895   4.766   2.228  1.00  0.00     0.180 A 
ATOM      2  C   UNL     1       8.218   4.374   1.954  1.00  0.00     0.208 A 
ATOM      3  C   UNL     1       8.813   3.382   2.749  1.00  0.00     0.238 A 
ATOM      4  O   UNL     1       9.977   2.997   2.465  1.00  0.00    -0.285 OA
ATOM      5  C   UNL     1       8.086   2.806   3.819  1.00  0.00     0.111 A 
ATOM      6  C   UNL     1       8.604   1.822   4.713  1.00  0.00     0.134 A 
ATOM      7  C   UNL     1       7.753   1.227   5.653  1.00  0.00     0.093 A 
ATOM      8  C   UNL     1       6.423   1.626   5.775  1.00  0.00     0.123 A 
ATOM      9  C   UNL     1       5.922   2.629   4.944  1.00  0.00     0.094 A 
ATOM     10  C   UNL     1       6.737   3.216   3.972  1.00  0.00     0.146 A 
ATOM     11  O   UNL     1       6.218   4.160   3.196  1.00  0.00    -0.452 OA
ENDROOT
BRANCH   1  12
ATOM     12  C   UNL     1       6.209   5.822   1.450  1.00  0.00     0.025 A 
ATOM     13  C   UNL     1       5.952   7.065   2.050  1.00  0.00     0.016 A 
ATOM     14  C   UNL     1       5.324   8.083   1.327  1.00  0.00     0.051 A 
ATOM     15  C   UNL     1       4.959   7.878  -0.009  1.00  0.00     0.157 A 
ATOM     16  C   UNL     1       5.858   5.627   0.102  1.00  0.00     0.062 A 
ATOM     17  C   UNL     1       5.231   6.650  -0.625  1.00  0.00     0.158 A 
BRANCH  15  18
ATOM     18  O   UNL     1       4.331   8.891  -0.733  1.00  0.00    -0.504 OA
ATOM     19  H   UNL     1       3.376   8.795  -1.058  1.00  0.00     0.293 HD
ENDBRANCH  15  18
BRANCH  17  20
ATOM     20  O   UNL     1       4.878   6.454  -1.958  1.00  0.00    -0.504 OA
ATOM     21  H   UNL     1       5.482   5.950  -2.598  1.00  0.00     0.293 HD
ENDBRANCH  17  20
ENDBRANCH   1  12
BRANCH   2  22
ATOM     22  O   UNL     1       8.909   4.940   0.879  1.00  0.00    -0.502 OA
ATOM     23  H   UNL     1       8.545   5.722   0.349  1.00  0.00     0.293 HD
ENDBRANCH   2  22
BRANCH   6  24
ATOM     24  O   UNL     1       9.942   1.417   4.739  1.00  0.00    -0.507 OA
ATOM     25  H   UNL     1      10.290   0.559   4.340  1.00  0.00     0.293 HD
ENDBRANCH   6  24
BRANCH   8  26
ATOM     26  O   UNL     1       5.610   1.024   6.732  1.00  0.00    -0.508 OA
ATOM     27  H   UNL     1       5.605   0.019   6.868  1.00  0.00     0.293 HD
ENDBRANCH   8  26
TORSDOF 6
ENDMDL
MODEL 2
REMARK VINA RESULT:    -7.747      2.402      4.523
REMARK INTER + INTRA:          -9.530
REMARK INTER:                  -9.219
REMARK INTRA:                  -0.311
REMARK UNBOUND:                -0.197
REMARK SMILES O=c1c(O)c(-c2ccc(O)c(O)c2)oc2cc(O)cc(O)c12
REMARK SMILES IDX 5 1 3 2 2 3 1 4 22 5 20 6 19 7 17 8 16 9 15 10 14 11 6 12
REMARK SMILES IDX 7 13 8 14 9 15 13 16 11 17 10 18 12 20 4 22 21 24 18 26
REMARK H PARENT 10 19 12 21 4 23 21 25 18 27
REMARK Flexibility Score: inf
ROOT
ATOM      1  C   UNL     1       6.511   6.370  -0.596  1.00  0.00     0.180 A 
ATOM      2  C   UNL     1       5.654   6.915   0.377  1.00  0.00     0.208 A 
ATOM      3  C   UNL     1       5.783   6.495   1.709  1.00  0.00     0.238 A 
ATOM      4  O   UNL     1       5.050   7.026   2.585  1.00  0.00    -0.285 OA
ATOM      5  C   UNL     1       6.755   5.524   2.052  1.00  0.00     0.111 A 
ATOM      6  C   UNL     1       6.947   4.996   3.363  1.00  0.00     0.134 A 
ATOM      7  C   UNL     1       8.024   4.137   3.611  1.00  0.00     0.093 A 
ATOM      8  C   UNL     1       8.877   3.735   2.584  1.00  0.00     0.123 A 
ATOM      9  C   UNL     1       8.663   4.199   1.286  1.00  0.00     0.094 A 
ATOM     10  C   UNL     1       7.618   5.086   1.014  1.00  0.00     0.146 A 
ATOM     11  O   UNL     1       7.455   5.511  -0.234  1.00  0.00    -0.452 OA
ENDROOT
BRANCH   1  12
ATOM     12  C   UNL     1       6.418   6.745  -2.025  1.00  0.00     0.025 A 
ATOM     13  C   UNL     1       7.090   7.890  -2.484  1.00  0.00     0.016 A 
ATOM     14  C   UNL     1       7.034   8.251  -3.833  1.00  0.00     0.051 A 
ATOM     15  C   UNL     1       6.318   7.464  -4.745  1.00  0.00     0.157 A 
ATOM     16  C   UNL     1       5.718   5.948  -2.949  1.00  0.00     0.062 A 
ATOM     17  C   UNL     1       5.663   6.308  -4.303  1.00  0.00     0.158 A 
BRANCH  15  18
ATOM     18  O   UNL     1       6.258   7.821  -6.091  1.00  0.00    -0.504 OA
ATOM     19  H   UNL     1       6.959   8.422  -6.512  1.00  0.00     0.293 HD
ENDBRANCH  15  18
BRANCH  17  20
ATOM     20  O   UNL     1       4.963   5.521  -5.215  1.00  0.00    -0.504 OA
ATOM     21  H   UNL     1       5.430   4.822  -5.782  1.00  0.00     0.293 HD
ENDBRANCH  17  20
ENDBRANCH   1  12
BRANCH   2  22
ATOM     22  O   UNL     1       4.716   7.889   0.021  1.00  0.00    -0.502 OA
ATOM     23  H   UNL     1       4.928   8.879   0.034  1.00  0.00     0.293 HD
ENDBRANCH   2  22
BRANCH   6  24
ATOM     24  O   UNL     1       6.098   5.260   4.442  1.00  0.00    -0.507 OA
ATOM     25  H   UNL     1       6.281   4.989   5.396  1.00  0.00     0.293 HD
ENDBRANCH   6  24
BRANCH   8  26
ATOM     26  O   UNL     1       9.929   2.866   2.864  1.00  0.00    -0.508 OA
ATOM     27  H   UNL     1      10.782   3.192   3.304  1.00  0.00     0.293 HD
ENDBRANCH   8  26
TORSDOF 6
ENDMDL
MODEL 3
REMARK VINA RESULT:    -7.721      1.823      3.289
REMARK INTER + INTRA:          -9.498
REMARK INTER:                  -9.188
REMARK INTRA:                  -0.310
REMARK UNBOUND:                -0.197
REMARK SMILES O=c1c(O)c(-c2ccc(O)c(O)c2)oc2cc(O)cc(O)c12
REMARK SMILES IDX 5 1 3 2 2 3 1 4 22 5 20 6 19 7 17 8 16 9 15 10 14 11 6 12
REMARK SMILES IDX 7 13 8 14 9 15 13 16 11 17 10 18 12 20 4 22 21 24 18 26
REMARK H PARENT 10 19 12 21 4 23 21 25 18 27
REMARK Flexibility Score: inf
ROOT
ATOM      1  C   UNL     1       6.638   5.983   1.171  1.00  0.00     0.180 A 
ATOM      2  C   UNL     1       5.976   6.425   2.330  1.00  0.00     0.208 A 
ATOM      3  C   UNL     1       6.238   5.785   3.551  1.00  0.00     0.238 A 
ATOM      4  O   UNL     1       5.684   6.220   4.594  1.00  0.00    -0.285 OA
ATOM      5  C   UNL     1       7.147   4.700   3.597  1.00  0.00     0.111 A 
ATOM      6  C   UNL     1       7.458   3.952   4.772  1.00  0.00     0.134 A 
ATOM      7  C   UNL     1       8.469   2.985   4.727  1.00  0.00     0.093 A 
ATOM      8  C   UNL     1       9.134   2.692   3.537  1.00  0.00     0.123 A 
ATOM      9  C   UNL     1       8.797   3.376   2.369  1.00  0.00     0.094 A 
ATOM     10  C   UNL     1       7.817   4.373   2.390  1.00  0.00     0.146 A 
ATOM     11  O   UNL     1       7.533   5.006   1.258  1.00  0.00    -0.452 OA
ENDROOT
BRANCH   1  12
ATOM     12  C   UNL     1       6.394   6.591  -0.156  1.00  0.00     0.025 A 
ATOM     13  C   UNL     1       7.105   7.744  -0.529  1.00  0.00     0.016 A 
ATOM     14  C   UNL     1       6.905   8.323  -1.785  1.00  0.00     0.051 A 
ATOM     15  C   UNL     1       6.006   7.750  -2.692  1.00  0.00     0.157 A 
ATOM     16  C   UNL     1       5.507   6.008  -1.078  1.00  0.00     0.062 A 
ATOM     17  C   UNL     1       5.309   6.587  -2.341  1.00  0.00     0.158 A 
BRANCH  15  18
ATOM     18  O   UNL     1       5.803   8.325  -3.945  1.00  0.00    -0.504 OA
ATOM     19  H   UNL     1       5.485   9.282  -4.044  1.00  0.00     0.293 HD
ENDBRANCH  15  18
BRANCH  17  20
ATOM     20  O   UNL     1       4.424   6.011  -3.250  1.00  0.00    -0.504 OA
ATOM     21  H   UNL     1       3.524   6.429  -3.453  1.00  0.00     0.293 HD
ENDBRANCH  17  20
ENDBRANCH   1  12
BRANCH   2  22
ATOM     22  O   UNL     1       5.099   7.512   2.266  1.00  0.00    -0.502 OA
ATOM     23  H   UNL     1       4.834   7.947   1.391  1.00  0.00     0.293 HD
ENDBRANCH   2  22
BRANCH   6  24
ATOM     24  O   UNL     1       6.790   4.101   5.991  1.00  0.00    -0.507 OA
ATOM     25  H   UNL     1       7.242   4.255   6.878  1.00  0.00     0.293 HD
ENDBRANCH   6  24
BRANCH   8  26
ATOM     26  O   UNL     1      10.124   1.712   3.526  1.00  0.00    -0.508 OA
ATOM     27  H   UNL     1      10.725   1.556   4.328  1.00  0.00     0.293 HD
ENDBRANCH   8  26
TORSDOF 6
ENDMDL
MODEL 4
REMARK VINA RESULT:    -7.546      1.597      1.842
REMARK INTER + INTRA:          -9.288
REMARK INTER:                  -8.974
REMARK INTRA:                  -0.314
REMARK UNBOUND:                -0.197
REMARK SMILES O=c1c(O)c(-c2ccc(O)c(O)c2)oc2cc(O)cc(O)c12
REMARK SMILES IDX 5 1 3 2 2 3 1 4 22 5 20 6 19 7 17 8 16 9 15 10 14 11 6 12
REMARK SMILES IDX 7 13 8 14 9 15 13 16 11 17 10 18 12 20 4 22 21 24 18 26
REMARK H PARENT 10 19 12 21 4 23 21 25 18 27
REMARK Flexibility Score: inf
ROOT
ATOM      1  C   UNL     1       6.643   5.490   1.435  1.00  0.00     0.180 A 
ATOM      2  C   UNL     1       7.890   4.850   1.552  1.00  0.00     0.208 A 
ATOM      3  C   UNL     1       8.173   4.118   2.715  1.00  0.00     0.238 A 
ATOM      4  O   UNL     1       9.269   3.502   2.791  1.00  0.00    -0.285 OA
ATOM      5  C   UNL     1       7.214   4.046   3.754  1.00  0.00     0.111 A 
ATOM      6  C   UNL     1       7.411   3.365   4.993  1.00  0.00     0.134 A 
ATOM      7  C   UNL     1       6.345   3.250   5.894  1.00  0.00     0.093 A 
ATOM      8  C   UNL     1       5.112   3.845   5.631  1.00  0.00     0.123 A 
ATOM      9  C   UNL     1       4.927   4.564   4.450  1.00  0.00     0.094 A 
ATOM     10  C   UNL     1       5.960   4.666   3.514  1.00  0.00     0.146 A 
ATOM     11  O   UNL     1       5.740   5.350   2.398  1.00  0.00    -0.452 OA
ENDROOT
BRANCH   1  12
ATOM     12  C   UNL     1       6.282   6.301   0.251  1.00  0.00     0.025 A 
ATOM     13  C   UNL     1       6.706   7.638   0.173  1.00  0.00     0.016 A 
ATOM     14  C   UNL     1       6.394   8.415  -0.945  1.00  0.00     0.051 A 
ATOM     15  C   UNL     1       5.668   7.864  -2.008  1.00  0.00     0.157 A 
ATOM     16  C   UNL     1       5.571   5.746  -0.828  1.00  0.00     0.062 A 
ATOM     17  C   UNL     1       5.260   6.525  -1.953  1.00  0.00     0.158 A 
BRANCH  15  18
ATOM     18  O   UNL     1       5.354   8.636  -3.125  1.00  0.00    -0.504 OA
ATOM     19  H   UNL     1       6.075   9.075  -3.686  1.00  0.00     0.293 HD
ENDBRANCH  15  18
BRANCH  17  20
ATOM     20  O   UNL     1       4.550   5.975  -3.017  1.00  0.00    -0.504 OA
ATOM     21  H   UNL     1       4.918   5.200  -3.557  1.00  0.00     0.293 HD
ENDBRANCH  17  20
ENDBRANCH   1  12
BRANCH   2  22
ATOM     22  O   UNL     1       8.814   4.915   0.505  1.00  0.00    -0.502 OA
ATOM     23  H   UNL     1       8.935   5.744  -0.064  1.00  0.00     0.293 HD
ENDBRANCH   2  22
BRANCH   6  24
ATOM     24  O   UNL     1       8.631   2.814   5.396  1.00  0.00    -0.507 OA
ATOM     25  H   UNL     1       8.741   1.896   5.798  1.00  0.00     0.293 HD
ENDBRANCH   6  24
BRANCH   8  26
ATOM     26  O   UNL     1       4.078   3.724   6.558  1.00  0.00    -0.508 OA
ATOM     27  H   UNL     1       3.272   3.137   6.378  1.00  0.00     0.293 HD
ENDBRANCH   8  26
TORSDOF 6
ENDMDL
MODEL 5
REMARK VINA RESULT:    -7.458      1.531      7.234
REMARK INTER + INTRA:          -9.181
REMARK INTER:                  -9.004
REMARK INTRA:                  -0.177
REMARK UNBOUND:                -0.197
REMARK SMILES O=c1c(O)c(-c2ccc(O)c(O)c2)oc2cc(O)cc(O)c12
REMARK SMILES IDX 5 1 3 2 2 3 1 4 22 5 20 6 19 7 17 8 16 9 15 10 14 11 6 12
REMARK SMILES IDX 7 13 8 14 9 15 13 16 11 17 10 18 12 20 4 22 21 24 18 26
REMARK H PARENT 10 19 12 21 4 23 21 25 18 27
REMARK Flexibility Score: inf
ROOT
ATOM      1  C   UNL     1       5.808   5.383   2.313  1.00  0.00     0.180 A 
ATOM      2  C   UNL     1       5.598   6.700   2.759  1.00  0.00     0.208 A 
ATOM      3  C   UNL     1       5.383   7.714   1.813  1.00  0.00     0.238 A 
ATOM      4  O   UNL     1       5.141   8.880   2.220  1.00  0.00    -0.285 OA
ATOM      5  C   UNL     1       5.396   7.403   0.431  1.00  0.00     0.111 A 
ATOM      6  C   UNL     1       5.229   8.358  -0.616  1.00  0.00     0.134 A 
ATOM      7  C   UNL     1       5.129   7.918  -1.941  1.00  0.00     0.093 A 
ATOM      8  C   UNL     1       5.256   6.568  -2.264  1.00  0.00     0.123 A 
ATOM      9  C   UNL     1       5.478   5.632  -1.254  1.00  0.00     0.094 A 
ATOM     10  C   UNL     1       5.546   6.036   0.083  1.00  0.00     0.146 A 
ATOM     11  O   UNL     1       5.750   5.112   1.014  1.00  0.00    -0.452 OA
ENDROOT
BRANCH   1  12
ATOM     12  C   UNL     1       6.067   4.266   3.249  1.00  0.00     0.025 A 
ATOM     13  C   UNL     1       5.039   3.824   4.098  1.00  0.00     0.016 A 
ATOM     14  C   UNL     1       5.255   2.757   4.974  1.00  0.00     0.051 A 
ATOM     15  C   UNL     1       6.495   2.108   5.004  1.00  0.00     0.157 A 
ATOM     16  C   UNL     1       7.304   3.598   3.268  1.00  0.00     0.062 A 
ATOM     17  C   UNL     1       7.520   2.525   4.146  1.00  0.00     0.158 A 
BRANCH  15  18
ATOM     18  O   UNL     1       6.715   1.045   5.878  1.00  0.00    -0.504 OA
ATOM     19  H   UNL     1       7.255   1.160   6.729  1.00  0.00     0.293 HD
ENDBRANCH  15  18
BRANCH  17  20
ATOM     20  O   UNL     1       8.749   1.869   4.169  1.00  0.00    -0.504 OA
ATOM     21  H   UNL     1       9.216   1.587   3.314  1.00  0.00     0.293 HD
ENDBRANCH  17  20
ENDBRANCH   1  12
BRANCH   2  22
ATOM     22  O   UNL     1       5.567   6.981   4.128  1.00  0.00    -0.502 OA
ATOM     23  H   UNL     1       4.920   6.527   4.762  1.00  0.00     0.293 HD
ENDBRANCH   2  22
BRANCH   6  24
ATOM     24  O   UNL     1       5.184   9.740  -0.411  1.00  0.00    -0.507 OA
ATOM     25  H   UNL     1       5.082  10.185   0.488  1.00  0.00     0.293 HD
ENDBRANCH   6  24
BRANCH   8  26
ATOM     26  O   UNL     1       5.167   6.169  -3.596  1.00  0.00    -0.508 OA
ATOM     27  H   UNL     1       4.474   6.562  -4.223  1.00  0.00     0.293 HD
ENDBRANCH   8  26
TORSDOF 6
ENDMDL
MODEL 6
REMARK VINA RESULT:    -7.429      1.995      7.692
REMARK INTER + INTRA:          -9.146
REMARK INTER:                  -8.890
REMARK INTRA:                  -0.256
REMARK UNBOUND:                -0.197
REMARK SMILES O=c1c(O)c(-c2ccc(O)c(O)c2)oc2cc(O)cc(O)c12
REMARK SMILES IDX 5 1 3 2 2 3 1 4 22 5 20 6 19 7 17 8 16 9 15 10 14 11 6 12
REMARK SMILES IDX 7 13 8 14 9 15 13 16 11 17 10 18 12 20 4 22 21 24 18 26
REMARK H PARENT 10 19 12 21 4 23 21 25 18 27
REMARK Flexibility Score: inf
ROOT
ATOM      1  C   UNL     1       5.821   6.173   0.829  1.00  0.00     0.180 A 
ATOM      2  C   UNL     1       5.416   7.480   1.153  1.00  0.00     0.208 A 
ATOM      3  C   UNL     1       5.065   8.361   0.118  1.00  0.00     0.238 A 
ATOM      4  O   UNL     1       4.652   9.512   0.416  1.00  0.00    -0.285 OA
ATOM      5  C   UNL     1       5.138   7.930  -1.229  1.00  0.00     0.111 A 
ATOM      6  C   UNL     1       4.844   8.749  -2.360  1.00  0.00     0.134 A 
ATOM      7  C   UNL     1       4.823   8.180  -3.639  1.00  0.00     0.093 A 
ATOM      8  C   UNL     1       5.148   6.839  -3.836  1.00  0.00     0.123 A 
ATOM      9  C   UNL     1       5.494   6.042  -2.744  1.00  0.00     0.094 A 
ATOM     10  C   UNL     1       5.489   6.573  -1.451  1.00  0.00     0.146 A 
ATOM     11  O   UNL     1       5.816   5.778  -0.438  1.00  0.00    -0.452 OA
ENDROOT
BRANCH   1  12
ATOM     12  C   UNL     1       6.229   5.197   1.864  1.00  0.00     0.025 A 
ATOM     13  C   UNL     1       7.595   4.935   2.066  1.00  0.00     0.016 A 
ATOM     14  C   UNL     1       8.004   4.033   3.052  1.00  0.00     0.051 A 
ATOM     15  C   UNL     1       7.056   3.391   3.858  1.00  0.00     0.157 A 
ATOM     16  C   UNL     1       5.283   4.564   2.690  1.00  0.00     0.062 A 
ATOM     17  C   UNL     1       5.694   3.660   3.681  1.00  0.00     0.158 A 
BRANCH  15  18
ATOM     18  O   UNL     1       7.460   2.489   4.841  1.00  0.00    -0.504 OA
ATOM     19  H   UNL     1       7.177   1.515   4.816  1.00  0.00     0.293 HD
ENDBRANCH  15  18
BRANCH  17  20
ATOM     20  O   UNL     1       4.754   3.031   4.494  1.00  0.00    -0.504 OA
ATOM     21  H   UNL     1       4.757   2.026   4.629  1.00  0.00     0.293 HD
ENDBRANCH  17  20
ENDBRANCH   1  12
BRANCH   2  22
ATOM     22  O   UNL     1       5.330   7.879   2.490  1.00  0.00    -0.502 OA
ATOM     23  H   UNL     1       5.883   8.638   2.868  1.00  0.00     0.293 HD
ENDBRANCH   2  22
BRANCH   6  24
ATOM     24  O   UNL     1       4.596  10.123  -2.284  1.00  0.00    -0.507 OA
ATOM     25  H   UNL     1       5.221  10.798  -1.871  1.00  0.00     0.293 HD
ENDBRANCH   6  24
BRANCH   8  26
ATOM     26  O   UNL     1       5.133   6.309  -5.125  1.00  0.00    -0.508 OA
ATOM     27  H   UNL     1       4.354   6.470  -5.754  1.00  0.00     0.293 HD
ENDBRANCH   8  26
TORSDOF 6
ENDMDL
MODEL 7
REMARK VINA RESULT:    -7.407      1.744      2.687
REMARK INTER + INTRA:          -9.120
REMARK INTER:                  -9.257
REMARK INTRA:                   0.138
REMARK UNBOUND:                -0.197
REMARK SMILES O=c1c(O)c(-c2ccc(O)c(O)c2)oc2cc(O)cc(O)c12
REMARK SMILES IDX 5 1 3 2 2 3 1 4 22 5 20 6 19 7 17 8 16 9 15 10 14 11 6 12
REMARK SMILES IDX 7 13 8 14 9 15 13 16 11 17 10 18 12 20 4 22 21 24 18 26
REMARK H PARENT 10 19 12 21 4 23 21 25 18 27
REMARK Flexibility Score: inf
ROOT
ATOM      1  C   UNL     1       6.768   3.790   3.522  1.00  0.00     0.180 A 
ATOM      2  C   UNL     1       7.552   2.622   3.521  1.00  0.00     0.208 A 
ATOM      3  C   UNL     1       7.632   1.855   4.693  1.00  0.00     0.238 A 
ATOM      4  O   UNL     1       8.291   0.782   4.670  1.00  0.00    -0.285 OA
ATOM      5  C   UNL     1       6.941   2.271   5.857  1.00  0.00     0.111 A 
ATOM      6  C   UNL     1       6.983   1.591   7.111  1.00  0.00     0.134 A 
ATOM      7  C   UNL     1       6.156   2.021   8.156  1.00  0.00     0.093 A 
ATOM      8  C   UNL     1       5.339   3.141   8.015  1.00  0.00     0.123 A 
ATOM      9  C   UNL     1       5.334   3.848   6.812  1.00  0.00     0.094 A 
ATOM     10  C   UNL     1       6.121   3.423   5.739  1.00  0.00     0.146 A 
ATOM     11  O   UNL     1       6.080   4.118   4.608  1.00  0.00    -0.452 OA
ENDROOT
BRANCH   1  12
ATOM     12  C   UNL     1       6.656   4.663   2.332  1.00  0.00     0.025 A 
ATOM     13  C   UNL     1       5.436   5.304   2.058  1.00  0.00     0.016 A 
ATOM     14  C   UNL     1       5.314   6.149   0.952  1.00  0.00     0.051 A 
ATOM     15  C   UNL     1       6.412   6.379   0.114  1.00  0.00     0.157 A 
ATOM     16  C   UNL     1       7.761   4.913   1.499  1.00  0.00     0.062 A 
ATOM     17  C   UNL     1       7.639   5.765   0.391  1.00  0.00     0.158 A 
BRANCH  15  18
ATOM     18  O   UNL     1       6.293   7.221  -0.991  1.00  0.00    -0.504 OA
ATOM     19  H   UNL     1       6.993   7.233  -1.725  1.00  0.00     0.293 HD
ENDBRANCH  15  18
BRANCH  17  20
ATOM     20  O   UNL     1       8.734   6.005  -0.437  1.00  0.00    -0.504 OA
ATOM     21  H   UNL     1       8.628   6.450  -1.342  1.00  0.00     0.293 HD
ENDBRANCH  17  20
ENDBRANCH   1  12
BRANCH   2  22
ATOM     22  O   UNL     1       8.208   2.217   2.355  1.00  0.00    -0.502 OA
ATOM     23  H   UNL     1       9.192   1.976   2.340  1.00  0.00     0.293 HD
ENDBRANCH   2  22
BRANCH   6  24
ATOM     24  O   UNL     1       7.832   0.516   7.388  1.00  0.00    -0.507 OA
ATOM     25  H   UNL     1       8.780   0.432   7.053  1.00  0.00     0.293 HD
ENDBRANCH   6  24
BRANCH   8  26
ATOM     26  O   UNL     1       4.541   3.549   9.083  1.00  0.00    -0.508 OA
ATOM     27  H   UNL     1       4.244   2.899   9.801  1.00  0.00     0.293 HD
ENDBRANCH   8  26
TORSDOF 6
ENDMDL
MODEL 8
REMARK VINA RESULT:    -7.316     12.010     13.807
REMARK INTER + INTRA:          -9.010
REMARK INTER:                  -9.131
REMARK INTRA:                   0.122
REMARK UNBOUND:                -0.197
REMARK SMILES O=c1c(O)c(-c2ccc(O)c(O)c2)oc2cc(O)cc(O)c12
REMARK SMILES IDX 5 1 3 2 2 3 1 4 22 5 20 6 19 7 17 8 16 9 15 10 14 11 6 12
REMARK SMILES IDX 7 13 8 14 9 15 13 16 11 17 10 18 12 20 4 22 21 24 18 26
REMARK H PARENT 10 19 12 21 4 23 21 25 18 27
REMARK Flexibility Score: inf
ROOT
ATOM      1  C   UNL     1       1.906  -7.833   3.810  1.00  0.00     0.180 A 
ATOM      2  C   UNL     1       1.916  -8.885   4.743  1.00  0.00     0.208 A 
ATOM      3  C   UNL     1       1.338  -8.681   6.005  1.00  0.00     0.238 A 
ATOM      4  O   UNL     1       1.301  -9.643   6.817  1.00  0.00    -0.285 OA
ATOM      5  C   UNL     1       0.769  -7.425   6.326  1.00  0.00     0.111 A 
ATOM      6  C   UNL     1       0.191  -7.095   7.588  1.00  0.00     0.134 A 
ATOM      7  C   UNL     1      -0.458  -5.864   7.750  1.00  0.00     0.093 A 
ATOM      8  C   UNL     1      -0.493  -4.927   6.719  1.00  0.00     0.123 A 
ATOM      9  C   UNL     1       0.121  -5.216   5.499  1.00  0.00     0.094 A 
ATOM     10  C   UNL     1       0.745  -6.450   5.295  1.00  0.00     0.146 A 
ATOM     11  O   UNL     1       1.308  -6.688   4.117  1.00  0.00    -0.452 OA
ENDROOT
BRANCH   1  12
ATOM     12  C   UNL     1       2.519  -7.964   2.469  1.00  0.00     0.025 A 
ATOM     13  C   UNL     1       2.273  -9.117   1.706  1.00  0.00     0.016 A 
ATOM     14  C   UNL     1       2.825  -9.252   0.429  1.00  0.00     0.051 A 
ATOM     15  C   UNL     1       3.617  -8.231  -0.109  1.00  0.00     0.157 A 
ATOM     16  C   UNL     1       3.300  -6.932   1.916  1.00  0.00     0.062 A 
ATOM     17  C   UNL     1       3.852  -7.067   0.633  1.00  0.00     0.158 A 
BRANCH  15  18
ATOM     18  O   UNL     1       4.171  -8.362  -1.381  1.00  0.00    -0.504 OA
ATOM     19  H   UNL     1       3.992  -9.178  -1.956  1.00  0.00     0.293 HD
ENDBRANCH  15  18
BRANCH  17  20
ATOM     20  O   UNL     1       4.630  -6.046   0.090  1.00  0.00    -0.504 OA
ATOM     21  H   UNL     1       5.179  -6.187  -0.750  1.00  0.00     0.293 HD
ENDBRANCH  17  20
ENDBRANCH   1  12
BRANCH   2  22
ATOM     22  O   UNL     1       2.463 -10.125   4.399  1.00  0.00    -0.502 OA
ATOM     23  H   UNL     1       2.016 -11.002   4.638  1.00  0.00     0.293 HD
ENDBRANCH   2  22
BRANCH   6  24
ATOM     24  O   UNL     1       0.251  -7.921   8.714  1.00  0.00    -0.507 OA
ATOM     25  H   UNL     1      -0.038  -8.887   8.733  1.00  0.00     0.293 HD
ENDBRANCH   6  24
BRANCH   8  26
ATOM     26  O   UNL     1      -1.134  -3.706   6.920  1.00  0.00    -0.508 OA
ATOM     27  H   UNL     1      -2.102  -3.659   7.218  1.00  0.00     0.293 HD
ENDBRANCH   8  26
TORSDOF 6
ENDMDL
MODEL 9
REMARK VINA RESULT:    -7.221     12.470     14.083
REMARK INTER + INTRA:          -8.896
REMARK INTER:                  -8.565
REMARK INTRA:                  -0.331
REMARK UNBOUND:                -0.197
REMARK SMILES O=c1c(O)c(-c2ccc(O)c(O)c2)oc2cc(O)cc(O)c12
REMARK SMILES IDX 5 1 3 2 2 3 1 4 22 5 20 6 19 7 17 8 16 9 15 10 14 11 6 12
REMARK SMILES IDX 7 13 8 14 9 15 13 16 11 17 10 18 12 20 4 22 21 24 18 26
REMARK H PARENT 10 19 12 21 4 23 21 25 18 27
REMARK Flexibility Score: inf
ROOT
ATOM      1  C   UNL     1      -2.130  -4.537   7.382  1.00  0.00     0.180 A 
ATOM      2  C   UNL     1      -2.480  -5.752   7.997  1.00  0.00     0.208 A 
ATOM      3  C   UNL     1      -1.862  -6.936   7.566  1.00  0.00     0.238 A 
ATOM      4  O   UNL     1      -2.138  -8.013   8.157  1.00  0.00    -0.285 OA
ATOM      5  C   UNL     1      -0.913  -6.895   6.516  1.00  0.00     0.111 A 
ATOM      6  C   UNL     1      -0.255  -8.038   5.972  1.00  0.00     0.134 A 
ATOM      7  C   UNL     1       0.761  -7.864   5.024  1.00  0.00     0.093 A 
ATOM      8  C   UNL     1       1.097  -6.596   4.552  1.00  0.00     0.123 A 
ATOM      9  C   UNL     1       0.418  -5.476   5.033  1.00  0.00     0.094 A 
ATOM     10  C   UNL     1      -0.575  -5.614   6.007  1.00  0.00     0.146 A 
ATOM     11  O   UNL     1      -1.190  -4.522   6.445  1.00  0.00    -0.452 OA
ENDROOT
BRANCH   1  12
ATOM     12  C   UNL     1      -2.757  -3.252   7.764  1.00  0.00     0.025 A 
ATOM     13  C   UNL     1      -2.147  -2.450   8.742  1.00  0.00     0.016 A 
ATOM     14  C   UNL     1      -2.710  -1.223   9.104  1.00  0.00     0.051 A 
ATOM     15  C   UNL     1      -3.882  -0.774   8.482  1.00  0.00     0.157 A 
ATOM     16  C   UNL     1      -3.922  -2.787   7.129  1.00  0.00     0.062 A 
ATOM     17  C   UNL     1      -4.487  -1.554   7.489  1.00  0.00     0.158 A 
BRANCH  15  18
ATOM     18  O   UNL     1      -4.448   0.449   8.841  1.00  0.00    -0.504 OA
ATOM     19  H   UNL     1      -5.447   0.549   8.981  1.00  0.00     0.293 HD
ENDBRANCH  15  18
BRANCH  17  20
ATOM     20  O   UNL     1      -5.645  -1.099   6.863  1.00  0.00    -0.504 OA
ATOM     21  H   UNL     1      -6.025  -0.179   7.054  1.00  0.00     0.293 HD
ENDBRANCH  17  20
ENDBRANCH   1  12
BRANCH   2  22
ATOM     22  O   UNL     1      -3.402  -5.768   9.047  1.00  0.00    -0.502 OA
ATOM     23  H   UNL     1      -4.273  -5.253   9.015  1.00  0.00     0.293 HD
ENDBRANCH   2  22
BRANCH   6  24
ATOM     24  O   UNL     1      -0.577  -9.357   6.307  1.00  0.00    -0.507 OA
ATOM     25  H   UNL     1      -1.216  -9.623   7.040  1.00  0.00     0.293 HD
ENDBRANCH   6  24
BRANCH   8  26
ATOM     26  O   UNL     1       2.102  -6.462   3.596  1.00  0.00    -0.508 OA
ATOM     27  H   UNL     1       2.948  -7.018   3.636  1.00  0.00     0.293 HD
ENDBRANCH   8  26
TORSDOF 6
ENDMDL
