MODEL 1
REMARK VINA RESULT:    -4.820      0.000      0.000
REMARK INTER + INTRA:         -13.678
REMARK INTER:                 -11.020
REMARK INTRA:                  -2.658
REMARK UNBOUND:                -2.658
REMARK SMILES CCCCCCCCCCCCCCCCCCCCCCCC(=O)[O-]
REMARK SMILES IDX 13 1 14 2 15 3 16 4 17 5 18 6 19 7 20 8 21 9 22 10 23 11
REMARK SMILES IDX 24 12 25 13 26 14 12 15 11 16 10 17 9 18 8 19 7 20 6 21 5 22
REMARK SMILES IDX 4 23 3 24 2 25 1 26
REMARK H PARENT
REMARK Flexibility Score: inf
ROOT
ATOM      1  C   UNL     1       0.926  10.163  82.182  1.00  0.00     0.000 C 
ENDROOT
BRANCH   1   2
ATOM      2  C   UNL     1       0.411  11.485  81.585  1.00  0.00     0.000 C 
BRANCH   2   3
ATOM      3  C   UNL     1       1.536  12.402  81.072  1.00  0.00     0.000 C 
BRANCH   3   4
ATOM      4  C   UNL     1       2.933  11.753  81.033  1.00  0.00     0.000 C 
BRANCH   4   5
ATOM      5  C   UNL     1       3.860  12.226  82.169  1.00  0.00     0.000 C 
BRANCH   5   6
ATOM      6  C   UNL     1       5.051  11.277  82.389  1.00  0.00     0.000 C 
BRANCH   6   7
ATOM      7  C   UNL     1       4.629   9.965  83.070  1.00  0.00     0.000 C 
BRANCH   7   8
ATOM      8  C   UNL     1       4.910   8.759  82.162  1.00  0.00     0.000 C 
BRANCH   8   9
ATOM      9  C   UNL     1       6.272   8.856  81.455  1.00  0.00     0.000 C 
BRANCH   9  10
ATOM     10  C   UNL     1       6.614   7.588  80.654  1.00  0.00     0.006 C 
BRANCH  10  11
ATOM     11  C   UNL     1       7.728   7.834  79.628  1.00  0.00     0.053 C 
BRANCH  11  12
ATOM     12  C   UNL     1       8.634   6.649  79.496  1.00  0.00     0.041 C 
ATOM     13  O   UNL     1       9.812   6.798  79.076  1.00  0.00    -0.550 OA
ATOM     14  O   UNL     1       8.170   5.377  79.808  1.00  0.00    -0.550 OA
ENDBRANCH  11  12
ENDBRANCH  10  11
ENDBRANCH   9  10
ENDBRANCH   8   9
ENDBRANCH   7   8
ENDBRANCH   6   7
ENDBRANCH   5   6
ENDBRANCH   4   5
ENDBRANCH   3   4
ENDBRANCH   2   3
ENDBRANCH   1   2
BRANCH   1  15
ATOM     15  C   UNL     1       0.142   9.719  83.430  1.00  0.00     0.000 C 
BRANCH  15  16
ATOM     16  C   UNL     1       0.247  10.662  84.646  1.00  0.00     0.000 C 
BRANCH  16  17
ATOM     17  C   UNL     1       1.678  11.059  85.054  1.00  0.00     0.000 C 
BRANCH  17  18
ATOM     18  C   UNL     1       1.800  11.376  86.554  1.00  0.00    -0.000 C 
BRANCH  18  19
ATOM     19  C   UNL     1       2.226  10.157  87.387  1.00  0.00    -0.000 C 
BRANCH  19  20
ATOM     20  C   UNL     1       3.018   9.124  86.564  1.00  0.00    -0.000 C 
BRANCH  20  21
ATOM     21  C   UNL     1       2.244   7.811  86.364  1.00  0.00    -0.000 C 
BRANCH  21  22
ATOM     22  C   UNL     1       2.785   6.979  85.193  1.00  0.00    -0.000 C 
BRANCH  22  23
ATOM     23  C   UNL     1       2.739   5.481  85.522  1.00  0.00    -0.000 C 
BRANCH  23  24
ATOM     24  C   UNL     1       1.592   5.111  86.477  1.00  0.00    -0.000 C 
BRANCH  24  25
ATOM     25  C   UNL     1       1.896   3.892  87.371  1.00  0.00    -0.003 C 
ATOM     26  C   UNL     1       3.097   3.088  86.873  1.00  0.00     0.004 C 
ENDBRANCH  24  25
ENDBRANCH  23  24
ENDBRANCH  22  23
ENDBRANCH  21  22
ENDBRANCH  20  21
ENDBRANCH  19  20
ENDBRANCH  18  19
ENDBRANCH  17  18
ENDBRANCH  16  17
ENDBRANCH  15  16
ENDBRANCH   1  15
TORSDOF 22
ENDMDL
MODEL 2
REMARK VINA RESULT:    -4.565      6.769     13.485
REMARK INTER + INTRA:         -13.095
REMARK INTER:                 -10.262
REMARK INTRA:                  -2.834
REMARK UNBOUND:                -2.658
REMARK SMILES CCCCCCCCCCCCCCCCCCCCCCCC(=O)[O-]
REMARK SMILES IDX 13 1 14 2 15 3 16 4 17 5 18 6 19 7 20 8 21 9 22 10 23 11
REMARK SMILES IDX 24 12 25 13 26 14 12 15 11 16 10 17 9 18 8 19 7 20 6 21 5 22
REMARK SMILES IDX 4 23 3 24 2 25 1 26
REMARK H PARENT
REMARK Flexibility Score: inf
ROOT
ATOM      1  C   UNL     1      15.132   1.807  78.072  1.00  0.00     0.000 C 
ENDROOT
BRANCH   1   2
ATOM      2  C   UNL     1      13.955   1.860  79.062  1.00  0.00     0.000 C 
BRANCH   2   3
ATOM      3  C   UNL     1      13.280   3.242  79.135  1.00  0.00     0.000 C 
BRANCH   3   4
ATOM      4  C   UNL     1      11.966   3.279  79.937  1.00  0.00     0.000 C 
BRANCH   4   5
ATOM      5  C   UNL     1      11.077   4.493  79.602  1.00  0.00     0.000 C 
BRANCH   5   6
ATOM      6  C   UNL     1       9.603   4.262  79.977  1.00  0.00     0.000 C 
BRANCH   6   7
ATOM      7  C   UNL     1       8.710   5.447  79.575  1.00  0.00     0.000 C 
BRANCH   7   8
ATOM      8  C   UNL     1       9.558   6.669  79.195  1.00  0.00     0.000 C 
BRANCH   8   9
ATOM      9  C   UNL     1       8.772   7.988  79.290  1.00  0.00     0.000 C 
BRANCH   9  10
ATOM     10  C   UNL     1       7.471   7.845  80.099  1.00  0.00     0.006 C 
BRANCH  10  11
ATOM     11  C   UNL     1       7.315   8.956  81.144  1.00  0.00     0.053 C 
BRANCH  11  12
ATOM     12  C   UNL     1       5.910   9.046  81.655  1.00  0.00     0.041 C 
ATOM     13  O   UNL     1       5.242   7.999  81.857  1.00  0.00    -0.550 OA
ATOM     14  O   UNL     1       5.328  10.288  81.880  1.00  0.00    -0.550 OA
ENDBRANCH  11  12
ENDBRANCH  10  11
ENDBRANCH   9  10
ENDBRANCH   8   9
ENDBRANCH   7   8
ENDBRANCH   6   7
ENDBRANCH   5   6
ENDBRANCH   4   5
ENDBRANCH   3   4
ENDBRANCH   2   3
ENDBRANCH   1   2
BRANCH   1  15
ATOM     15  C   UNL     1      15.372   3.144  77.349  1.00  0.00     0.000 C 
BRANCH  15  16
ATOM     16  C   UNL     1      16.814   3.376  76.850  1.00  0.00     0.000 C 
BRANCH  16  17
ATOM     17  C   UNL     1      17.087   4.761  76.237  1.00  0.00     0.000 C 
BRANCH  17  18
ATOM     18  C   UNL     1      16.195   5.861  76.837  1.00  0.00    -0.000 C 
BRANCH  18  19
ATOM     19  C   UNL     1      16.992   6.900  77.641  1.00  0.00    -0.000 C 
BRANCH  19  20
ATOM     20  C   UNL     1      17.130   6.522  79.128  1.00  0.00    -0.000 C 
BRANCH  20  21
ATOM     21  C   UNL     1      15.822   5.975  79.722  1.00  0.00    -0.000 C 
BRANCH  21  22
ATOM     22  C   UNL     1      16.059   4.842  80.729  1.00  0.00    -0.000 C 
BRANCH  22  23
ATOM     23  C   UNL     1      17.384   4.124  80.439  1.00  0.00    -0.000 C 
BRANCH  23  24
ATOM     24  C   UNL     1      17.704   3.017  81.458  1.00  0.00    -0.000 C 
BRANCH  24  25
ATOM     25  C   UNL     1      16.496   2.122  81.802  1.00  0.00    -0.003 C 
ATOM     26  C   UNL     1      16.905   0.851  82.547  1.00  0.00     0.004 C 
ENDBRANCH  24  25
ENDBRANCH  23  24
ENDBRANCH  22  23
ENDBRANCH  21  22
ENDBRANCH  20  21
ENDBRANCH  19  20
ENDBRANCH  18  19
ENDBRANCH  17  18
ENDBRANCH  16  17
ENDBRANCH  15  16
ENDBRANCH   1  15
TORSDOF 22
ENDMDL
MODEL 3
REMARK VINA RESULT:    -4.458     12.534     16.318
REMARK INTER + INTRA:         -12.850
REMARK INTER:                  -9.125
REMARK INTRA:                  -3.725
REMARK UNBOUND:                -2.658
REMARK SMILES CCCCCCCCCCCCCCCCCCCCCCCC(=O)[O-]
REMARK SMILES IDX 13 1 14 2 15 3 16 4 17 5 18 6 19 7 20 8 21 9 22 10 23 11
REMARK SMILES IDX 24 12 25 13 26 14 12 15 11 16 10 17 9 18 8 19 7 20 6 21 5 22
REMARK SMILES IDX 4 23 3 24 2 25 1 26
REMARK H PARENT
REMARK Flexibility Score: inf
ROOT
ATOM      1  C   UNL     1      14.633   2.528  78.334  1.00  0.00     0.000 C 
ENDROOT
BRANCH   1   2
ATOM      2  C   UNL     1      14.680   1.647  79.595  1.00  0.00     0.000 C 
BRANCH   2   3
ATOM      3  C   UNL     1      14.290   2.400  80.881  1.00  0.00     0.000 C 
BRANCH   3   4
ATOM      4  C   UNL     1      15.471   2.761  81.802  1.00  0.00     0.000 C 
BRANCH   4   5
ATOM      5  C   UNL     1      16.793   2.078  81.401  1.00  0.00     0.000 C 
BRANCH   5   6
ATOM      6  C   UNL     1      17.429   1.301  82.567  1.00  0.00     0.000 C 
BRANCH   6   7
ATOM      7  C   UNL     1      17.053  -0.189  82.544  1.00  0.00     0.000 C 
BRANCH   7   8
ATOM      8  C   UNL     1      15.991  -0.504  83.607  1.00  0.00     0.000 C 
BRANCH   8   9
ATOM      9  C   UNL     1      14.631  -0.876  82.993  1.00  0.00     0.000 C 
BRANCH   9  10
ATOM     10  C   UNL     1      13.495   0.048  83.465  1.00  0.00     0.006 C 
BRANCH  10  11
ATOM     11  C   UNL     1      12.522  -0.667  84.410  1.00  0.00     0.053 C 
BRANCH  11  12
ATOM     12  C   UNL     1      11.839  -1.818  83.738  1.00  0.00     0.041 C 
ATOM     13  O   UNL     1      11.884  -2.967  84.251  1.00  0.00    -0.550 OA
ATOM     14  O   UNL     1      11.177  -1.629  82.531  1.00  0.00    -0.550 OA
ENDBRANCH  11  12
ENDBRANCH  10  11
ENDBRANCH   9  10
ENDBRANCH   8   9
ENDBRANCH   7   8
ENDBRANCH   6   7
ENDBRANCH   5   6
ENDBRANCH   4   5
ENDBRANCH   3   4
ENDBRANCH   2   3
ENDBRANCH   1   2
BRANCH   1  15
ATOM     15  C   UNL     1      15.497   1.980  77.184  1.00  0.00     0.000 C 
BRANCH  15  16
ATOM     16  C   UNL     1      17.017   1.956  77.453  1.00  0.00     0.000 C 
BRANCH  16  17
ATOM     17  C   UNL     1      17.847   1.104  76.478  1.00  0.00     0.000 C 
BRANCH  17  18
ATOM     18  C   UNL     1      18.602   1.955  75.442  1.00  0.00    -0.000 C 
BRANCH  18  19
ATOM     19  C   UNL     1      18.661   3.442  75.823  1.00  0.00    -0.000 C 
BRANCH  19  20
ATOM     20  C   UNL     1      18.258   4.370  74.662  1.00  0.00    -0.000 C 
BRANCH  20  21
ATOM     21  C   UNL     1      17.547   5.644  75.143  1.00  0.00    -0.000 C 
BRANCH  21  22
ATOM     22  C   UNL     1      16.237   5.346  75.886  1.00  0.00    -0.000 C 
BRANCH  22  23
ATOM     23  C   UNL     1      16.152   6.155  77.187  1.00  0.00    -0.000 C 
BRANCH  23  24
ATOM     24  C   UNL     1      17.006   5.562  78.320  1.00  0.00    -0.000 C 
BRANCH  24  25
ATOM     25  C   UNL     1      16.316   5.593  79.699  1.00  0.00    -0.003 C 
ATOM     26  C   UNL     1      14.833   5.951  79.602  1.00  0.00     0.004 C 
ENDBRANCH  24  25
ENDBRANCH  23  24
ENDBRANCH  22  23
ENDBRANCH  21  22
ENDBRANCH  20  21
ENDBRANCH  19  20
ENDBRANCH  18  19
ENDBRANCH  17  18
ENDBRANCH  16  17
ENDBRANCH  15  16
ENDBRANCH   1  15
TORSDOF 22
ENDMDL
MODEL 4
REMARK VINA RESULT:    -4.379     13.321     16.480
REMARK INTER + INTRA:         -12.669
REMARK INTER:                  -8.077
REMARK INTRA:                  -4.591
REMARK UNBOUND:                -2.658
REMARK SMILES CCCCCCCCCCCCCCCCCCCCCCCC(=O)[O-]
REMARK SMILES IDX 13 1 14 2 15 3 16 4 17 5 18 6 19 7 20 8 21 9 22 10 23 11
REMARK SMILES IDX 24 12 25 13 26 14 12 15 11 16 10 17 9 18 8 19 7 20 6 21 5 22
REMARK SMILES IDX 4 23 3 24 2 25 1 26
REMARK H PARENT
REMARK Flexibility Score: inf
ROOT
ATOM      1  C   UNL     1      15.260   2.692  77.357  1.00  0.00     0.000 C 
ENDROOT
BRANCH   1   2
ATOM      2  C   UNL     1      14.356   3.321  78.433  1.00  0.00     0.000 C 
BRANCH   2   3
ATOM      3  C   UNL     1      14.728   2.897  79.866  1.00  0.00     0.000 C 
BRANCH   3   4
ATOM      4  C   UNL     1      15.666   3.870  80.605  1.00  0.00     0.000 C 
BRANCH   4   5
ATOM      5  C   UNL     1      16.725   3.161  81.472  1.00  0.00     0.000 C 
BRANCH   5   6
ATOM      6  C   UNL     1      18.063   2.980  80.735  1.00  0.00     0.000 C 
BRANCH   6   7
ATOM      7  C   UNL     1      18.378   1.502  80.457  1.00  0.00     0.000 C 
BRANCH   7   8
ATOM      8  C   UNL     1      17.671   0.590  81.471  1.00  0.00     0.000 C 
BRANCH   8   9
ATOM      9  C   UNL     1      16.766  -0.455  80.796  1.00  0.00     0.000 C 
BRANCH   9  10
ATOM     10  C   UNL     1      15.330  -0.436  81.346  1.00  0.00     0.006 C 
BRANCH  10  11
ATOM     11  C   UNL     1      15.278  -0.007  82.818  1.00  0.00     0.053 C 
BRANCH  11  12
ATOM     12  C   UNL     1      13.951   0.584  83.180  1.00  0.00     0.041 C 
ATOM     13  O   UNL     1      13.728   1.807  82.984  1.00  0.00    -0.550 OA
ATOM     14  O   UNL     1      12.969  -0.211  83.760  1.00  0.00    -0.550 OA
ENDBRANCH  11  12
ENDBRANCH  10  11
ENDBRANCH   9  10
ENDBRANCH   8   9
ENDBRANCH   7   8
ENDBRANCH   6   7
ENDBRANCH   5   6
ENDBRANCH   4   5
ENDBRANCH   3   4
ENDBRANCH   2   3
ENDBRANCH   1   2
BRANCH   1  15
ATOM     15  C   UNL     1      15.745   1.279  77.728  1.00  0.00     0.000 C 
BRANCH  15  16
ATOM     16  C   UNL     1      17.045   0.824  77.034  1.00  0.00     0.000 C 
BRANCH  16  17
ATOM     17  C   UNL     1      18.090   1.929  76.796  1.00  0.00     0.000 C 
BRANCH  17  18
ATOM     18  C   UNL     1      18.581   1.977  75.339  1.00  0.00    -0.000 C 
BRANCH  18  19
ATOM     19  C   UNL     1      18.558   3.396  74.750  1.00  0.00    -0.000 C 
BRANCH  19  20
ATOM     20  C   UNL     1      18.180   4.465  75.791  1.00  0.00    -0.000 C 
BRANCH  20  21
ATOM     21  C   UNL     1      16.983   5.323  75.350  1.00  0.00    -0.000 C 
BRANCH  21  22
ATOM     22  C   UNL     1      16.404   6.163  76.497  1.00  0.00    -0.000 C 
BRANCH  22  23
ATOM     23  C   UNL     1      17.099   5.827  77.823  1.00  0.00    -0.000 C 
BRANCH  23  24
ATOM     24  C   UNL     1      17.654   7.067  78.542  1.00  0.00    -0.000 C 
BRANCH  24  25
ATOM     25  C   UNL     1      18.687   6.739  79.639  1.00  0.00    -0.003 C 
ATOM     26  C   UNL     1      18.061   6.679  81.032  1.00  0.00     0.004 C 
ENDBRANCH  24  25
ENDBRANCH  23  24
ENDBRANCH  22  23
ENDBRANCH  21  22
ENDBRANCH  20  21
ENDBRANCH  19  20
ENDBRANCH  18  19
ENDBRANCH  17  18
ENDBRANCH  16  17
ENDBRANCH  15  16
ENDBRANCH   1  15
TORSDOF 22
ENDMDL
MODEL 5
REMARK VINA RESULT:    -4.362     13.122     15.973
REMARK INTER + INTRA:         -12.630
REMARK INTER:                  -8.966
REMARK INTRA:                  -3.663
REMARK UNBOUND:                -2.658
REMARK SMILES CCCCCCCCCCCCCCCCCCCCCCCC(=O)[O-]
REMARK SMILES IDX 13 1 14 2 15 3 16 4 17 5 18 6 19 7 20 8 21 9 22 10 23 11
REMARK SMILES IDX 24 12 25 13 26 14 12 15 11 16 10 17 9 18 8 19 7 20 6 21 5 22
REMARK SMILES IDX 4 23 3 24 2 25 1 26
REMARK H PARENT
REMARK Flexibility Score: inf
ROOT
ATOM      1  C   UNL     1      16.019   4.674  80.754  1.00  0.00     0.000 C 
ENDROOT
BRANCH   1   2
ATOM      2  C   UNL     1      15.903   3.391  81.597  1.00  0.00     0.000 C 
BRANCH   2   3
ATOM      3  C   UNL     1      17.034   2.381  81.329  1.00  0.00     0.000 C 
BRANCH   3   4
ATOM      4  C   UNL     1      17.560   1.653  82.581  1.00  0.00     0.000 C 
BRANCH   4   5
ATOM      5  C   UNL     1      17.149   0.169  82.645  1.00  0.00     0.000 C 
BRANCH   5   6
ATOM      6  C   UNL     1      16.069  -0.187  81.608  1.00  0.00     0.000 C 
BRANCH   6   7
ATOM      7  C   UNL     1      14.763  -0.657  82.269  1.00  0.00     0.000 C 
BRANCH   7   8
ATOM      8  C   UNL     1      14.092   0.492  83.035  1.00  0.00     0.000 C 
BRANCH   8   9
ATOM      9  C   UNL     1      13.044  -0.004  84.046  1.00  0.00     0.000 C 
BRANCH   9  10
ATOM     10  C   UNL     1      12.713  -1.496  83.872  1.00  0.00     0.006 C 
BRANCH  10  11
ATOM     11  C   UNL     1      11.202  -1.749  83.802  1.00  0.00     0.053 C 
BRANCH  11  12
ATOM     12  C   UNL     1      10.745  -2.005  82.399  1.00  0.00     0.041 C 
ATOM     13  O   UNL     1      11.465  -1.659  81.426  1.00  0.00    -0.550 OA
ATOM     14  O   UNL     1       9.510  -2.598  82.165  1.00  0.00    -0.550 OA
ENDBRANCH  11  12
ENDBRANCH  10  11
ENDBRANCH   9  10
ENDBRANCH   8   9
ENDBRANCH   7   8
ENDBRANCH   6   7
ENDBRANCH   5   6
ENDBRANCH   4   5
ENDBRANCH   3   4
ENDBRANCH   2   3
ENDBRANCH   1   2
BRANCH   1  15
ATOM     15  C   UNL     1      17.440   4.914  80.214  1.00  0.00     0.000 C 
BRANCH  15  16
ATOM     16  C   UNL     1      17.538   5.890  79.022  1.00  0.00     0.000 C 
BRANCH  16  17
ATOM     17  C   UNL     1      16.262   6.023  78.171  1.00  0.00     0.000 C 
BRANCH  17  18
ATOM     18  C   UNL     1      16.552   6.520  76.744  1.00  0.00    -0.000 C 
BRANCH  18  19
ATOM     19  C   UNL     1      16.249   5.461  75.673  1.00  0.00    -0.000 C 
BRANCH  19  20
ATOM     20  C   UNL     1      17.497   5.060  74.865  1.00  0.00    -0.000 C 
BRANCH  20  21
ATOM     21  C   UNL     1      18.509   4.259  75.700  1.00  0.00    -0.000 C 
BRANCH  21  22
ATOM     22  C   UNL     1      18.075   2.803  75.917  1.00  0.00    -0.000 C 
BRANCH  22  23
ATOM     23  C   UNL     1      17.869   2.513  77.410  1.00  0.00    -0.000 C 
BRANCH  23  24
ATOM     24  C   UNL     1      16.638   1.634  77.687  1.00  0.00    -0.000 C 
BRANCH  24  25
ATOM     25  C   UNL     1      15.317   2.425  77.778  1.00  0.00    -0.003 C 
ATOM     26  C   UNL     1      14.336   1.811  78.776  1.00  0.00     0.004 C 
ENDBRANCH  24  25
ENDBRANCH  23  24
ENDBRANCH  22  23
ENDBRANCH  21  22
ENDBRANCH  20  21
ENDBRANCH  19  20
ENDBRANCH  18  19
ENDBRANCH  17  18
ENDBRANCH  16  17
ENDBRANCH  15  16
ENDBRANCH   1  15
TORSDOF 22
ENDMDL
MODEL 6
REMARK VINA RESULT:    -4.344     13.361     15.269
REMARK INTER + INTRA:         -12.590
REMARK INTER:                  -8.103
REMARK INTRA:                  -4.487
REMARK UNBOUND:                -2.658
REMARK SMILES CCCCCCCCCCCCCCCCCCCCCCCC(=O)[O-]
REMARK SMILES IDX 13 1 14 2 15 3 16 4 17 5 18 6 19 7 20 8 21 9 22 10 23 11
REMARK SMILES IDX 24 12 25 13 26 14 12 15 11 16 10 17 9 18 8 19 7 20 6 21 5 22
REMARK SMILES IDX 4 23 3 24 2 25 1 26
REMARK H PARENT
REMARK Flexibility Score: inf
ROOT
ATOM      1  C   UNL     1      15.307   2.055  77.834  1.00  0.00     0.000 C 
ENDROOT
BRANCH   1   2
ATOM      2  C   UNL     1      16.681   1.633  77.283  1.00  0.00     0.000 C 
BRANCH   2   3
ATOM      3  C   UNL     1      17.855   2.404  77.913  1.00  0.00     0.000 C 
BRANCH   3   4
ATOM      4  C   UNL     1      18.649   3.289  76.934  1.00  0.00     0.000 C 
BRANCH   4   5
ATOM      5  C   UNL     1      17.880   3.610  75.637  1.00  0.00     0.000 C 
BRANCH   5   6
ATOM      6  C   UNL     1      17.746   5.123  75.393  1.00  0.00     0.000 C 
BRANCH   6   7
ATOM      7  C   UNL     1      16.314   5.626  75.639  1.00  0.00     0.000 C 
BRANCH   7   8
ATOM      8  C   UNL     1      16.081   5.912  77.129  1.00  0.00     0.000 C 
BRANCH   8   9
ATOM      9  C   UNL     1      16.767   7.206  77.598  1.00  0.00     0.000 C 
BRANCH   9  10
ATOM     10  C   UNL     1      18.002   6.937  78.475  1.00  0.00     0.006 C 
BRANCH  10  11
ATOM     11  C   UNL     1      17.743   5.842  79.518  1.00  0.00     0.053 C 
BRANCH  11  12
ATOM     12  C   UNL     1      17.059   6.383  80.735  1.00  0.00     0.041 C 
ATOM     13  O   UNL     1      17.722   6.988  81.617  1.00  0.00    -0.550 OA
ATOM     14  O   UNL     1      15.693   6.193  80.910  1.00  0.00    -0.550 OA
ENDBRANCH  11  12
ENDBRANCH  10  11
ENDBRANCH   9  10
ENDBRANCH   8   9
ENDBRANCH   7   8
ENDBRANCH   6   7
ENDBRANCH   5   6
ENDBRANCH   4   5
ENDBRANCH   3   4
ENDBRANCH   2   3
ENDBRANCH   1   2
BRANCH   1  15
ATOM     15  C   UNL     1      15.407   3.040  79.012  1.00  0.00     0.000 C 
BRANCH  15  16
ATOM     16  C   UNL     1      14.576   2.666  80.258  1.00  0.00     0.000 C 
BRANCH  16  17
ATOM     17  C   UNL     1      15.305   2.810  81.606  1.00  0.00     0.000 C 
BRANCH  17  18
ATOM     18  C   UNL     1      16.834   2.714  81.466  1.00  0.00    -0.000 C 
BRANCH  18  19
ATOM     19  C   UNL     1      17.480   1.865  82.573  1.00  0.00    -0.000 C 
BRANCH  19  20
ATOM     20  C   UNL     1      17.357   0.353  82.309  1.00  0.00    -0.000 C 
BRANCH  20  21
ATOM     21  C   UNL     1      17.426   0.006  80.814  1.00  0.00    -0.000 C 
BRANCH  21  22
ATOM     22  C   UNL     1      16.122  -0.612  80.290  1.00  0.00    -0.000 C 
BRANCH  22  23
ATOM     23  C   UNL     1      15.693  -1.798  81.164  1.00  0.00    -0.000 C 
BRANCH  23  24
ATOM     24  C   UNL     1      14.247  -1.676  81.674  1.00  0.00    -0.000 C 
BRANCH  24  25
ATOM     25  C   UNL     1      14.145  -1.271  83.159  1.00  0.00    -0.003 C 
ATOM     26  C   UNL     1      13.627   0.155  83.341  1.00  0.00     0.004 C 
ENDBRANCH  24  25
ENDBRANCH  23  24
ENDBRANCH  22  23
ENDBRANCH  21  22
ENDBRANCH  20  21
ENDBRANCH  19  20
ENDBRANCH  18  19
ENDBRANCH  17  18
ENDBRANCH  16  17
ENDBRANCH  15  16
ENDBRANCH   1  15
TORSDOF 22
ENDMDL
MODEL 7
REMARK VINA RESULT:    -4.334     12.936     16.393
REMARK INTER + INTRA:         -12.567
REMARK INTER:                  -8.636
REMARK INTRA:                  -3.931
REMARK UNBOUND:                -2.658
REMARK SMILES CCCCCCCCCCCCCCCCCCCCCCCC(=O)[O-]
REMARK SMILES IDX 13 1 14 2 15 3 16 4 17 5 18 6 19 7 20 8 21 9 22 10 23 11
REMARK SMILES IDX 24 12 25 13 26 14 12 15 11 16 10 17 9 18 8 19 7 20 6 21 5 22
REMARK SMILES IDX 4 23 3 24 2 25 1 26
REMARK H PARENT
REMARK Flexibility Score: inf
ROOT
ATOM      1  C   UNL     1      14.604   3.391  78.852  1.00  0.00     0.000 C 
ENDROOT
BRANCH   1   2
ATOM      2  C   UNL     1      14.978   4.823  79.276  1.00  0.00     0.000 C 
BRANCH   2   3
ATOM      3  C   UNL     1      15.949   4.872  80.470  1.00  0.00     0.000 C 
BRANCH   3   4
ATOM      4  C   UNL     1      17.281   4.128  80.252  1.00  0.00     0.000 C 
BRANCH   4   5
ATOM      5  C   UNL     1      17.590   3.090  81.348  1.00  0.00     0.000 C 
BRANCH   5   6
ATOM      6  C   UNL     1      17.707   1.662  80.788  1.00  0.00     0.000 C 
BRANCH   6   7
ATOM      7  C   UNL     1      16.504   0.786  81.174  1.00  0.00     0.000 C 
BRANCH   7   8
ATOM      8  C   UNL     1      15.765   1.372  82.386  1.00  0.00     0.000 C 
BRANCH   8   9
ATOM      9  C   UNL     1      14.239   1.216  82.281  1.00  0.00     0.000 C 
BRANCH   9  10
ATOM     10  C   UNL     1      13.639   0.444  83.469  1.00  0.00     0.006 C 
BRANCH  10  11
ATOM     11  C   UNL     1      13.000  -0.881  83.034  1.00  0.00     0.053 C 
BRANCH  11  12
ATOM     12  C   UNL     1      11.981  -1.358  84.024  1.00  0.00     0.041 C 
ATOM     13  O   UNL     1      11.195  -0.539  84.567  1.00  0.00    -0.550 OA
ATOM     14  O   UNL     1      11.919  -2.704  84.367  1.00  0.00    -0.550 OA
ENDBRANCH  11  12
ENDBRANCH  10  11
ENDBRANCH   9  10
ENDBRANCH   8   9
ENDBRANCH   7   8
ENDBRANCH   6   7
ENDBRANCH   5   6
ENDBRANCH   4   5
ENDBRANCH   3   4
ENDBRANCH   2   3
ENDBRANCH   1   2
BRANCH   1  15
ATOM     15  C   UNL     1      15.272   2.959  77.535  1.00  0.00     0.000 C 
BRANCH  15  16
ATOM     16  C   UNL     1      15.748   1.491  77.486  1.00  0.00     0.000 C 
BRANCH  16  17
ATOM     17  C   UNL     1      17.243   1.291  77.176  1.00  0.00     0.000 C 
BRANCH  17  18
ATOM     18  C   UNL     1      17.966   2.613  76.866  1.00  0.00    -0.000 C 
BRANCH  18  19
ATOM     19  C   UNL     1      18.843   2.529  75.607  1.00  0.00    -0.000 C 
BRANCH  19  20
ATOM     20  C   UNL     1      18.415   3.530  74.518  1.00  0.00    -0.000 C 
BRANCH  20  21
ATOM     21  C   UNL     1      18.351   4.976  75.036  1.00  0.00    -0.000 C 
BRANCH  21  22
ATOM     22  C   UNL     1      16.930   5.554  75.000  1.00  0.00    -0.000 C 
BRANCH  22  23
ATOM     23  C   UNL     1      16.578   6.217  76.338  1.00  0.00    -0.000 C 
BRANCH  23  24
ATOM     24  C   UNL     1      17.791   6.365  77.273  1.00  0.00    -0.000 C 
BRANCH  24  25
ATOM     25  C   UNL     1      17.793   7.677  78.084  1.00  0.00    -0.003 C 
ATOM     26  C   UNL     1      18.469   7.519  79.446  1.00  0.00     0.004 C 
ENDBRANCH  24  25
ENDBRANCH  23  24
ENDBRANCH  22  23
ENDBRANCH  21  22
ENDBRANCH  20  21
ENDBRANCH  19  20
ENDBRANCH  18  19
ENDBRANCH  17  18
ENDBRANCH  16  17
ENDBRANCH  15  16
ENDBRANCH   1  15
TORSDOF 22
ENDMDL
MODEL 8
REMARK VINA RESULT:    -4.329     13.109     15.253
REMARK INTER + INTRA:         -12.555
REMARK INTER:                  -8.748
REMARK INTRA:                  -3.808
REMARK UNBOUND:                -2.658
REMARK SMILES CCCCCCCCCCCCCCCCCCCCCCCC(=O)[O-]
REMARK SMILES IDX 13 1 14 2 15 3 16 4 17 5 18 6 19 7 20 8 21 9 22 10 23 11
REMARK SMILES IDX 24 12 25 13 26 14 12 15 11 16 10 17 9 18 8 19 7 20 6 21 5 22
REMARK SMILES IDX 4 23 3 24 2 25 1 26
REMARK H PARENT
REMARK Flexibility Score: inf
ROOT
ATOM      1  C   UNL     1      16.125   5.893  77.452  1.00  0.00     0.000 C 
ENDROOT
BRANCH   1   2
ATOM      2  C   UNL     1      16.069   4.984  76.211  1.00  0.00     0.000 C 
BRANCH   2   3
ATOM      3  C   UNL     1      17.027   5.423  75.089  1.00  0.00     0.000 C 
BRANCH   3   4
ATOM      4  C   UNL     1      18.465   4.886  75.219  1.00  0.00     0.000 C 
BRANCH   4   5
ATOM      5  C   UNL     1      18.702   3.574  74.446  1.00  0.00     0.000 C 
BRANCH   5   6
ATOM      6  C   UNL     1      19.008   2.390  75.379  1.00  0.00     0.000 C 
BRANCH   6   7
ATOM      7  C   UNL     1      19.042   2.809  76.857  1.00  0.00     0.000 C 
BRANCH   7   8
ATOM      8  C   UNL     1      18.396   1.738  77.747  1.00  0.00     0.000 C 
BRANCH   8   9
ATOM      9  C   UNL     1      16.925   1.475  77.385  1.00  0.00     0.000 C 
BRANCH   9  10
ATOM     10  C   UNL     1      16.001   1.489  78.615  1.00  0.00     0.006 C 
BRANCH  10  11
ATOM     11  C   UNL     1      14.666   2.187  78.328  1.00  0.00     0.053 C 
BRANCH  11  12
ATOM     12  C   UNL     1      13.674   1.967  79.429  1.00  0.00     0.041 C 
ATOM     13  O   UNL     1      13.279   0.803  79.700  1.00  0.00    -0.550 OA
ATOM     14  O   UNL     1      13.164   3.049  80.135  1.00  0.00    -0.550 OA
ENDBRANCH  11  12
ENDBRANCH  10  11
ENDBRANCH   9  10
ENDBRANCH   8   9
ENDBRANCH   7   8
ENDBRANCH   6   7
ENDBRANCH   5   6
ENDBRANCH   4   5
ENDBRANCH   3   4
ENDBRANCH   2   3
ENDBRANCH   1   2
BRANCH   1  15
ATOM     15  C   UNL     1      16.885   5.259  78.630  1.00  0.00     0.000 C 
BRANCH  15  16
ATOM     16  C   UNL     1      16.128   5.246  79.974  1.00  0.00     0.000 C 
BRANCH  16  17
ATOM     17  C   UNL     1      16.668   4.260  81.027  1.00  0.00     0.000 C 
BRANCH  17  18
ATOM     18  C   UNL     1      18.164   3.954  80.840  1.00  0.00    -0.000 C 
BRANCH  18  19
ATOM     19  C   UNL     1      18.565   2.584  81.409  1.00  0.00    -0.000 C 
BRANCH  19  20
ATOM     20  C   UNL     1      17.654   2.131  82.564  1.00  0.00    -0.000 C 
BRANCH  20  21
ATOM     21  C   UNL     1      17.368   0.621  82.534  1.00  0.00    -0.000 C 
BRANCH  21  22
ATOM     22  C   UNL     1      16.177   0.227  83.419  1.00  0.00    -0.000 C 
BRANCH  22  23
ATOM     23  C   UNL     1      14.869   0.800  82.857  1.00  0.00    -0.000 C 
BRANCH  23  24
ATOM     24  C   UNL     1      13.633   0.391  83.676  1.00  0.00    -0.000 C 
BRANCH  24  25
ATOM     25  C   UNL     1      12.891  -0.836  83.109  1.00  0.00    -0.003 C 
ATOM     26  C   UNL     1      12.611  -1.893  84.177  1.00  0.00     0.004 C 
ENDBRANCH  24  25
ENDBRANCH  23  24
ENDBRANCH  22  23
ENDBRANCH  21  22
ENDBRANCH  20  21
ENDBRANCH  19  20
ENDBRANCH  18  19
ENDBRANCH  17  18
ENDBRANCH  16  17
ENDBRANCH  15  16
ENDBRANCH   1  15
TORSDOF 22
ENDMDL
MODEL 9
REMARK VINA RESULT:    -4.319     12.766     15.218
REMARK INTER + INTRA:         -12.533
REMARK INTER:                  -8.084
REMARK INTRA:                  -4.448
REMARK UNBOUND:                -2.658
REMARK SMILES CCCCCCCCCCCCCCCCCCCCCCCC(=O)[O-]
REMARK SMILES IDX 13 1 14 2 15 3 16 4 17 5 18 6 19 7 20 8 21 9 22 10 23 11
REMARK SMILES IDX 24 12 25 13 26 14 12 15 11 16 10 17 9 18 8 19 7 20 6 21 5 22
REMARK SMILES IDX 4 23 3 24 2 25 1 26
REMARK H PARENT
REMARK Flexibility Score: inf
ROOT
ATOM      1  C   UNL     1      16.167   2.530  81.896  1.00  0.00     0.000 C 
ENDROOT
BRANCH   1   2
ATOM      2  C   UNL     1      17.397   1.903  82.576  1.00  0.00     0.000 C 
BRANCH   2   3
ATOM      3  C   UNL     1      18.536   1.573  81.593  1.00  0.00     0.000 C 
BRANCH   3   4
ATOM      4  C   UNL     1      18.474   2.331  80.254  1.00  0.00     0.000 C 
BRANCH   4   5
ATOM      5  C   UNL     1      18.644   1.417  79.024  1.00  0.00     0.000 C 
BRANCH   5   6
ATOM      6  C   UNL     1      17.808   0.130  79.129  1.00  0.00     0.000 C 
BRANCH   6   7
ATOM      7  C   UNL     1      16.927  -0.092  77.889  1.00  0.00     0.000 C 
BRANCH   7   8
ATOM      8  C   UNL     1      16.484   1.247  77.283  1.00  0.00     0.000 C 
BRANCH   8   9
ATOM      9  C   UNL     1      15.183   1.778  77.908  1.00  0.00     0.000 C 
BRANCH   9  10
ATOM     10  C   UNL     1      14.979   3.283  77.662  1.00  0.00     0.006 C 
BRANCH  10  11
ATOM     11  C   UNL     1      14.573   4.028  78.940  1.00  0.00     0.053 C 
BRANCH  11  12
ATOM     12  C   UNL     1      15.590   5.054  79.333  1.00  0.00     0.041 C 
ATOM     13  O   UNL     1      16.746   5.023  78.835  1.00  0.00    -0.550 OA
ATOM     14  O   UNL     1      15.271   6.028  80.272  1.00  0.00    -0.550 OA
ENDBRANCH  11  12
ENDBRANCH  10  11
ENDBRANCH   9  10
ENDBRANCH   8   9
ENDBRANCH   7   8
ENDBRANCH   6   7
ENDBRANCH   5   6
ENDBRANCH   4   5
ENDBRANCH   3   4
ENDBRANCH   2   3
ENDBRANCH   1   2
BRANCH   1  15
ATOM     15  C   UNL     1      15.043   1.514  81.627  1.00  0.00     0.000 C 
BRANCH  15  16
ATOM     16  C   UNL     1      13.902   1.500  82.666  1.00  0.00     0.000 C 
BRANCH  16  17
ATOM     17  C   UNL     1      14.009   0.412  83.750  1.00  0.00     0.000 C 
BRANCH  17  18
ATOM     18  C   UNL     1      12.641  -0.180  84.132  1.00  0.00    -0.000 C 
BRANCH  18  19
ATOM     19  C   UNL     1      12.488  -1.648  83.706  1.00  0.00    -0.000 C 
BRANCH  19  20
ATOM     20  C   UNL     1      11.667  -1.810  82.413  1.00  0.00    -0.000 C 
BRANCH  20  21
ATOM     21  C   UNL     1      12.545  -1.811  81.152  1.00  0.00    -0.000 C 
BRANCH  21  22
ATOM     22  C   UNL     1      13.839  -2.617  81.333  1.00  0.00    -0.000 C 
BRANCH  22  23
ATOM     23  C   UNL     1      15.037  -1.863  80.740  1.00  0.00    -0.000 C 
BRANCH  23  24
ATOM     24  C   UNL     1      16.330  -2.058  81.551  1.00  0.00    -0.000 C 
BRANCH  24  25
ATOM     25  C   UNL     1      16.086  -2.445  83.024  1.00  0.00    -0.003 C 
ATOM     26  C   UNL     1      16.980  -1.663  83.988  1.00  0.00     0.004 C 
ENDBRANCH  24  25
ENDBRANCH  23  24
ENDBRANCH  22  23
ENDBRANCH  21  22
ENDBRANCH  20  21
ENDBRANCH  19  20
ENDBRANCH  18  19
ENDBRANCH  17  18
ENDBRANCH  16  17
ENDBRANCH  15  16
ENDBRANCH   1  15
TORSDOF 22
ENDMDL
