MODEL 1
REMARK VINA RESULT:    -4.828      0.000      0.000
REMARK INTER + INTRA:          -7.071
REMARK INTER:                  -6.522
REMARK INTRA:                  -0.549
REMARK UNBOUND:                -0.549
REMARK SMILES C=C[C@](C)(CCC=C(C)C)OC(C)=O
REMARK SMILES IDX 3 1 4 2 5 3 6 4 7 5 9 6 8 7 10 8 2 9 1 10 11 11 12 12 14 13
REMARK SMILES IDX 13 14
REMARK H PARENT
REMARK Flexibility Score: inf
ROOT
ATOM      1  C   UNL     1       2.267 -16.384  31.723  1.00  0.00     0.127 C 
ATOM      2  C   UNL     1       2.880 -15.936  33.071  1.00  0.00     0.061 C 
ENDROOT
BRANCH   1   3
ATOM      3  C   UNL     1       1.316 -17.603  31.906  1.00  0.00     0.057 C 
BRANCH   3   4
ATOM      4  C   UNL     1       1.648 -18.837  31.051  1.00  0.00     0.032 C 
BRANCH   4   5
ATOM      5  C   UNL     1       1.826 -20.055  31.925  1.00  0.00    -0.028 C 
ATOM      6  C   UNL     1       3.287 -21.229  30.263  1.00  0.00     0.039 C 
ATOM      7  C   UNL     1       2.534 -21.151  31.568  1.00  0.00    -0.080 C 
ATOM      8  C   UNL     1       2.623 -22.325  32.509  1.00  0.00     0.039 C 
ENDBRANCH   4   5
ENDBRANCH   3   4
ENDBRANCH   1   3
BRANCH   1   9
ATOM      9  C   UNL     1       3.414 -16.827  30.830  1.00  0.00     0.013 C 
ATOM     10  C   UNL     1       4.602 -16.209  30.837  1.00  0.00     0.008 C 
ENDBRANCH   1   9
BRANCH   1  11
ATOM     11  O   UNL     1       1.595 -15.312  31.036  1.00  0.00    -0.455 OA
BRANCH  11  12
ATOM     12  C   UNL     1       1.062 -15.318  29.737  1.00  0.00     0.303 C 
ATOM     13  O   UNL     1       1.797 -15.219  28.719  1.00  0.00    -0.253 OA
ATOM     14  C   UNL     1      -0.416 -15.400  29.563  1.00  0.00     0.139 C 
ENDBRANCH  11  12
ENDBRANCH   1  11
TORSDOF 6
ENDMDL
MODEL 2
REMARK VINA RESULT:    -4.748     12.538     15.481
REMARK INTER + INTRA:          -6.963
REMARK INTER:                  -6.328
REMARK INTRA:                  -0.634
REMARK UNBOUND:                -0.549
REMARK SMILES C=C[C@](C)(CCC=C(C)C)OC(C)=O
REMARK SMILES IDX 3 1 4 2 5 3 6 4 7 5 9 6 8 7 10 8 2 9 1 10 11 11 12 12 14 13
REMARK SMILES IDX 13 14
REMARK H PARENT
REMARK Flexibility Score: inf
ROOT
ATOM      1  C   UNL     1      13.407  -9.740  31.969  1.00  0.00     0.127 C 
ATOM      2  C   UNL     1      12.733 -10.297  33.245  1.00  0.00     0.061 C 
ENDROOT
BRANCH   1   3
ATOM      3  C   UNL     1      14.387  -8.577  32.302  1.00  0.00     0.057 C 
BRANCH   3   4
ATOM      4  C   UNL     1      14.231  -7.312  31.442  1.00  0.00     0.032 C 
BRANCH   4   5
ATOM      5  C   UNL     1      13.909  -6.119  32.309  1.00  0.00    -0.028 C 
ATOM      6  C   UNL     1      12.221  -5.206  30.698  1.00  0.00     0.039 C 
ATOM      7  C   UNL     1      13.031  -5.147  31.970  1.00  0.00    -0.080 C 
ATOM      8  C   UNL     1      12.806  -3.983  32.899  1.00  0.00     0.039 C 
ENDBRANCH   4   5
ENDBRANCH   3   4
ENDBRANCH   1   3
BRANCH   1   9
ATOM      9  C   UNL     1      12.306  -9.175  31.087  1.00  0.00     0.013 C 
ATOM     10  C   UNL     1      11.058  -9.660  31.106  1.00  0.00     0.008 C 
ENDBRANCH   1   9
BRANCH   1  11
ATOM     11  O   UNL     1      14.070 -10.762  31.201  1.00  0.00    -0.455 OA
BRANCH  11  12
ATOM     12  C   UNL     1      14.313 -10.783  29.819  1.00  0.00     0.303 C 
ATOM     13  O   UNL     1      13.439 -11.168  28.998  1.00  0.00    -0.253 OA
ATOM     14  C   UNL     1      15.658 -10.381  29.316  1.00  0.00     0.139 C 
ENDBRANCH  11  12
ENDBRANCH   1  11
TORSDOF 6
ENDMDL
MODEL 3
REMARK VINA RESULT:    -4.421     12.831     14.539
REMARK INTER + INTRA:          -6.520
REMARK INTER:                  -5.596
REMARK INTRA:                  -0.925
REMARK UNBOUND:                -0.549
REMARK SMILES C=C[C@](C)(CCC=C(C)C)OC(C)=O
REMARK SMILES IDX 3 1 4 2 5 3 6 4 7 5 9 6 8 7 10 8 2 9 1 10 11 11 12 12 14 13
REMARK SMILES IDX 13 14
REMARK H PARENT
REMARK Flexibility Score: inf
ROOT
ATOM      1  C   UNL     1       1.941 -16.142  16.067  1.00  0.00     0.127 C 
ATOM      2  C   UNL     1       3.151 -15.699  15.209  1.00  0.00     0.061 C 
ENDROOT
BRANCH   1   3
ATOM      3  C   UNL     1       2.395 -16.698  17.448  1.00  0.00     0.057 C 
BRANCH   3   4
ATOM      4  C   UNL     1       1.732 -16.048  18.674  1.00  0.00     0.032 C 
BRANCH   4   5
ATOM      5  C   UNL     1       1.075 -17.097  19.539  1.00  0.00    -0.028 C 
ATOM      6  C   UNL     1      -1.160 -16.831  18.439  1.00  0.00     0.039 C 
ATOM      7  C   UNL     1      -0.232 -17.434  19.465  1.00  0.00    -0.080 C 
ATOM      8  C   UNL     1      -0.791 -18.477  20.398  1.00  0.00     0.039 C 
ENDBRANCH   4   5
ENDBRANCH   3   4
ENDBRANCH   1   3
BRANCH   1   9
ATOM      9  C   UNL     1       1.249 -17.272  15.322  1.00  0.00     0.013 C 
ATOM     10  C   UNL     1       0.932 -18.428  15.917  1.00  0.00     0.008 C 
ENDBRANCH   1   9
BRANCH   1  11
ATOM     11  O   UNL     1       0.967 -15.095  16.232  1.00  0.00    -0.455 OA
BRANCH  11  12
ATOM     12  C   UNL     1      -0.025 -14.687  15.326  1.00  0.00     0.303 C 
ATOM     13  O   UNL     1      -1.212 -15.099  15.414  1.00  0.00    -0.253 OA
ATOM     14  C   UNL     1       0.349 -13.778  14.206  1.00  0.00     0.139 C 
ENDBRANCH  11  12
ENDBRANCH   1  11
TORSDOF 6
ENDMDL
MODEL 4
REMARK VINA RESULT:    -4.385      1.546      2.615
REMARK INTER + INTRA:          -6.472
REMARK INTER:                  -5.956
REMARK INTRA:                  -0.517
REMARK UNBOUND:                -0.549
REMARK SMILES C=C[C@](C)(CCC=C(C)C)OC(C)=O
REMARK SMILES IDX 3 1 4 2 5 3 6 4 7 5 9 6 8 7 10 8 2 9 1 10 11 11 12 12 14 13
REMARK SMILES IDX 13 14
REMARK H PARENT
REMARK Flexibility Score: inf
ROOT
ATOM      1  C   UNL     1       1.310 -16.362  31.312  1.00  0.00     0.127 C 
ATOM      2  C   UNL     1       0.206 -15.596  30.544  1.00  0.00     0.061 C 
ENDROOT
BRANCH   1   3
ATOM      3  C   UNL     1       1.399 -17.847  30.853  1.00  0.00     0.057 C 
BRANCH   3   4
ATOM      4  C   UNL     1       1.447 -18.889  31.983  1.00  0.00     0.032 C 
BRANCH   4   5
ATOM      5  C   UNL     1       2.126 -20.151  31.510  1.00  0.00    -0.028 C 
ATOM      6  C   UNL     1       1.265 -21.519  33.424  1.00  0.00     0.039 C 
ATOM      7  C   UNL     1       2.079 -21.332  32.168  1.00  0.00    -0.080 C 
ATOM      8  C   UNL     1       2.819 -22.525  31.620  1.00  0.00     0.039 C 
ENDBRANCH   4   5
ENDBRANCH   3   4
ENDBRANCH   1   3
BRANCH   1   9
ATOM      9  C   UNL     1       0.923 -16.358  32.782  1.00  0.00     0.013 C 
ATOM     10  C   UNL     1       1.704 -15.813  33.723  1.00  0.00     0.008 C 
ENDBRANCH   1   9
BRANCH   1  11
ATOM     11  O   UNL     1       2.596 -15.721  31.219  1.00  0.00    -0.455 OA
BRANCH  11  12
ATOM     12  C   UNL     1       3.582 -15.900  30.236  1.00  0.00     0.303 C 
ATOM     13  O   UNL     1       4.651 -16.520  30.476  1.00  0.00    -0.253 OA
ATOM     14  C   UNL     1       3.373 -15.303  28.887  1.00  0.00     0.139 C 
ENDBRANCH  11  12
ENDBRANCH   1  11
TORSDOF 6
ENDMDL
MODEL 5
REMARK VINA RESULT:    -4.367     12.412     13.980
REMARK INTER + INTRA:          -6.448
REMARK INTER:                  -5.812
REMARK INTRA:                  -0.636
REMARK UNBOUND:                -0.549
REMARK SMILES C=C[C@](C)(CCC=C(C)C)OC(C)=O
REMARK SMILES IDX 3 1 4 2 5 3 6 4 7 5 9 6 8 7 10 8 2 9 1 10 11 11 12 12 14 13
REMARK SMILES IDX 13 14
REMARK H PARENT
REMARK Flexibility Score: inf
ROOT
ATOM      1  C   UNL     1       1.805 -15.555  17.307  1.00  0.00     0.127 C 
ATOM      2  C   UNL     1       2.612 -14.870  18.436  1.00  0.00     0.061 C 
ENDROOT
BRANCH   1   3
ATOM      3  C   UNL     1       1.321 -16.972  17.732  1.00  0.00     0.057 C 
BRANCH   3   4
ATOM      4  C   UNL     1       0.204 -17.002  18.789  1.00  0.00     0.032 C 
BRANCH   4   5
ATOM      5  C   UNL     1      -0.799 -18.083  18.469  1.00  0.00    -0.028 C 
ATOM      6  C   UNL     1      -1.348 -18.505  20.877  1.00  0.00     0.039 C 
ATOM      7  C   UNL     1      -1.479 -18.789  19.401  1.00  0.00    -0.080 C 
ATOM      8  C   UNL     1      -2.439 -19.869  18.970  1.00  0.00     0.039 C 
ENDBRANCH   4   5
ENDBRANCH   3   4
ENDBRANCH   1   3
BRANCH   1   9
ATOM      9  C   UNL     1       2.741 -15.725  16.122  1.00  0.00     0.013 C 
ATOM     10  C   UNL     1       3.122 -16.931  15.683  1.00  0.00     0.008 C 
ENDBRANCH   1   9
BRANCH   1  11
ATOM     11  O   UNL     1       0.700 -14.753  16.851  1.00  0.00    -0.455 OA
BRANCH  11  12
ATOM     12  C   UNL     1       0.138 -14.707  15.565  1.00  0.00     0.303 C 
ATOM     13  O   UNL     1       0.378 -13.759  14.771  1.00  0.00    -0.253 OA
ATOM     14  C   UNL     1      -0.801 -15.787  15.149  1.00  0.00     0.139 C 
ENDBRANCH  11  12
ENDBRANCH   1  11
TORSDOF 6
ENDMDL
MODEL 6
REMARK VINA RESULT:    -4.188     12.289     14.177
REMARK INTER + INTRA:          -6.207
REMARK INTER:                  -5.323
REMARK INTRA:                  -0.884
REMARK UNBOUND:                -0.549
REMARK SMILES C=C[C@](C)(CCC=C(C)C)OC(C)=O
REMARK SMILES IDX 3 1 4 2 5 3 6 4 7 5 9 6 8 7 10 8 2 9 1 10 11 11 12 12 14 13
REMARK SMILES IDX 13 14
REMARK H PARENT
REMARK Flexibility Score: inf
ROOT
ATOM      1  C   UNL     1       0.888 -16.136  16.064  1.00  0.00     0.127 C 
ATOM      2  C   UNL     1       0.489 -17.441  15.335  1.00  0.00     0.061 C 
ENDROOT
BRANCH   1   3
ATOM      3  C   UNL     1      -0.283 -15.585  16.929  1.00  0.00     0.057 C 
BRANCH   3   4
ATOM      4  C   UNL     1      -1.375 -16.605  17.293  1.00  0.00     0.032 C 
BRANCH   4   5
ATOM      5  C   UNL     1      -1.248 -17.024  18.738  1.00  0.00    -0.028 C 
ATOM      6  C   UNL     1      -1.478 -19.463  18.215  1.00  0.00     0.039 C 
ATOM      7  C   UNL     1      -1.326 -18.304  19.169  1.00  0.00    -0.080 C 
ATOM      8  C   UNL     1      -1.214 -18.607  20.640  1.00  0.00     0.039 C 
ENDBRANCH   4   5
ENDBRANCH   3   4
ENDBRANCH   1   3
BRANCH   1   9
ATOM      9  C   UNL     1       1.196 -15.099  14.996  1.00  0.00     0.013 C 
ATOM     10  C   UNL     1       0.368 -14.081  14.731  1.00  0.00     0.008 C 
ENDBRANCH   1   9
BRANCH   1  11
ATOM     11  O   UNL     1       2.081 -16.285  16.855  1.00  0.00    -0.455 OA
BRANCH  11  12
ATOM     12  C   UNL     1       2.311 -15.835  18.165  1.00  0.00     0.303 C 
ATOM     13  O   UNL     1       2.675 -14.654  18.405  1.00  0.00    -0.253 OA
ATOM     14  C   UNL     1       2.163 -16.795  19.295  1.00  0.00     0.139 C 
ENDBRANCH  11  12
ENDBRANCH   1  11
TORSDOF 6
ENDMDL
MODEL 7
REMARK VINA RESULT:    -4.159     12.059     13.610
REMARK INTER + INTRA:          -6.167
REMARK INTER:                  -5.275
REMARK INTRA:                  -0.892
REMARK UNBOUND:                -0.549
REMARK SMILES C=C[C@](C)(CCC=C(C)C)OC(C)=O
REMARK SMILES IDX 3 1 4 2 5 3 6 4 7 5 9 6 8 7 10 8 2 9 1 10 11 11 12 12 14 13
REMARK SMILES IDX 13 14
REMARK H PARENT
REMARK Flexibility Score: inf
ROOT
ATOM      1  C   UNL     1       0.040 -17.228  17.734  1.00  0.00     0.127 C 
ATOM      2  C   UNL     1      -0.515 -16.015  16.949  1.00  0.00     0.061 C 
ENDROOT
BRANCH   1   3
ATOM      3  C   UNL     1      -0.084 -18.544  16.912  1.00  0.00     0.057 C 
BRANCH   3   4
ATOM      4  C   UNL     1      -1.470 -19.209  16.931  1.00  0.00     0.032 C 
BRANCH   4   5
ATOM      5  C   UNL     1      -1.358 -20.655  17.349  1.00  0.00    -0.028 C 
ATOM      6  C   UNL     1      -2.959 -20.391  19.257  1.00  0.00     0.039 C 
ATOM      7  C   UNL     1      -1.997 -21.191  18.414  1.00  0.00    -0.080 C 
ATOM      8  C   UNL     1      -1.791 -22.643  18.759  1.00  0.00     0.039 C 
ENDBRANCH   4   5
ENDBRANCH   3   4
ENDBRANCH   1   3
BRANCH   1   9
ATOM      9  C   UNL     1      -0.810 -17.384  18.983  1.00  0.00     0.013 C 
ATOM     10  C   UNL     1      -0.314 -17.874  20.127  1.00  0.00     0.008 C 
ENDBRANCH   1   9
BRANCH   1  11
ATOM     11  O   UNL     1       1.396 -17.028  18.176  1.00  0.00    -0.455 OA
BRANCH  11  12
ATOM     12  C   UNL     1       2.339 -16.111  17.685  1.00  0.00     0.303 C 
ATOM     13  O   UNL     1       2.964 -16.315  16.612  1.00  0.00    -0.253 OA
ATOM     14  C   UNL     1       2.636 -14.885  18.480  1.00  0.00     0.139 C 
ENDBRANCH  11  12
ENDBRANCH   1  11
TORSDOF 6
ENDMDL
MODEL 8
REMARK VINA RESULT:    -4.034     12.565     14.479
REMARK INTER + INTRA:          -5.999
REMARK INTER:                  -4.991
REMARK INTRA:                  -1.008
REMARK UNBOUND:                -0.549
REMARK SMILES C=C[C@](C)(CCC=C(C)C)OC(C)=O
REMARK SMILES IDX 3 1 4 2 5 3 6 4 7 5 9 6 8 7 10 8 2 9 1 10 11 11 12 12 14 13
REMARK SMILES IDX 13 14
REMARK H PARENT
REMARK Flexibility Score: inf
ROOT
ATOM      1  C   UNL     1      -0.082 -16.497  15.783  1.00  0.00     0.127 C 
ATOM      2  C   UNL     1       0.023 -16.135  14.282  1.00  0.00     0.061 C 
ENDROOT
BRANCH   1   3
ATOM      3  C   UNL     1      -0.962 -17.762  16.004  1.00  0.00     0.057 C 
BRANCH   3   4
ATOM      4  C   UNL     1      -0.403 -18.793  16.999  1.00  0.00     0.032 C 
BRANCH   4   5
ATOM      5  C   UNL     1      -1.303 -18.907  18.205  1.00  0.00    -0.028 C 
ATOM      6  C   UNL     1       0.137 -17.422  19.618  1.00  0.00     0.039 C 
ATOM      7  C   UNL     1      -1.054 -18.322  19.399  1.00  0.00    -0.080 C 
ATOM      8  C   UNL     1      -2.009 -18.525  20.547  1.00  0.00     0.039 C 
ENDBRANCH   4   5
ENDBRANCH   3   4
ENDBRANCH   1   3
BRANCH   1   9
ATOM      9  C   UNL     1      -0.766 -15.333  16.481  1.00  0.00     0.013 C 
ATOM     10  C   UNL     1      -2.039 -15.398  16.892  1.00  0.00     0.008 C 
ENDBRANCH   1   9
BRANCH   1  11
ATOM     11  O   UNL     1       1.206 -16.656  16.406  1.00  0.00    -0.455 OA
BRANCH  11  12
ATOM     12  C   UNL     1       2.197 -15.680  16.602  1.00  0.00     0.303 C 
ATOM     13  O   UNL     1       2.877 -15.226  15.645  1.00  0.00    -0.253 OA
ATOM     14  C   UNL     1       2.478 -15.205  17.986  1.00  0.00     0.139 C 
ENDBRANCH  11  12
ENDBRANCH   1  11
TORSDOF 6
ENDMDL
MODEL 9
REMARK VINA RESULT:    -4.032     18.719     21.105
REMARK INTER + INTRA:          -5.996
REMARK INTER:                  -5.020
REMARK INTRA:                  -0.976
REMARK UNBOUND:                -0.549
REMARK SMILES C=C[C@](C)(CCC=C(C)C)OC(C)=O
REMARK SMILES IDX 3 1 4 2 5 3 6 4 7 5 9 6 8 7 10 8 2 9 1 10 11 11 12 12 14 13
REMARK SMILES IDX 13 14
REMARK H PARENT
REMARK Flexibility Score: inf
ROOT
ATOM      1  C   UNL     1      14.946 -10.215  15.723  1.00  0.00     0.127 C 
ATOM      2  C   UNL     1      15.051  -8.725  15.320  1.00  0.00     0.061 C 
ENDROOT
BRANCH   1   3
ATOM      3  C   UNL     1      16.081 -10.622  16.707  1.00  0.00     0.057 C 
BRANCH   3   4
ATOM      4  C   UNL     1      16.981  -9.473  17.193  1.00  0.00     0.032 C 
BRANCH   4   5
ATOM      5  C   UNL     1      16.687  -9.145  18.636  1.00  0.00    -0.028 C 
ATOM      6  C   UNL     1      16.637  -6.673  18.229  1.00  0.00     0.039 C 
ATOM      7  C   UNL     1      16.563  -7.888  19.121  1.00  0.00    -0.080 C 
ATOM      8  C   UNL     1      16.296  -7.673  20.588  1.00  0.00     0.039 C 
ENDBRANCH   4   5
ENDBRANCH   3   4
ENDBRANCH   1   3
BRANCH   1   9
ATOM      9  C   UNL     1      15.119 -11.038  14.457  1.00  0.00     0.013 C 
ATOM     10  C   UNL     1      15.269 -12.368  14.486  1.00  0.00     0.008 C 
ENDBRANCH   1   9
BRANCH   1  11
ATOM     11  O   UNL     1      13.655 -10.553  16.264  1.00  0.00    -0.455 OA
BRANCH  11  12
ATOM     12  C   UNL     1      13.306 -10.741  17.611  1.00  0.00     0.303 C 
ATOM     13  O   UNL     1      13.165 -11.891  18.104  1.00  0.00    -0.253 OA
ATOM     14  C   UNL     1      13.052  -9.546  18.465  1.00  0.00     0.139 C 
ENDBRANCH  11  12
ENDBRANCH   1  11
TORSDOF 6
ENDMDL
