MODEL 1
REMARK VINA RESULT:    -8.801      0.000      0.000
REMARK INTER + INTRA:         -14.163
REMARK INTER:                 -12.917
REMARK INTRA:                  -1.245
REMARK UNBOUND:                -1.245
REMARK SMILES O=c1c(O[C@H]2O[C@@H](CO)[C@H](O)[C@@H](O)[C@@H]2O)c(-c2ccc(O)c(O)c2)oc2cc(O)cc(O)c12
REMARK SMILES IDX 4 1 3 2 16 3 25 4 2 5 26 6 1 7 33 8 27 9 31 10 28 11 30 12
REMARK SMILES IDX 17 13 18 14 19 15 20 16 24 17 22 18 21 19 23 21 32 23 29 25
REMARK SMILES IDX 5 27 14 28 6 29 12 30 7 31 10 32 15 33 13 35 8 37 9 38 11 40
REMARK H PARENT 21 20 23 22 32 24 29 26 15 34 13 36 9 39 11 41
REMARK Flexibility Score: inf
ROOT
ATOM      1  O   UNL     1      29.351   3.317  18.915  1.00  0.00    -0.454 OA
ENDROOT
BRANCH   1   2
ATOM      2  C   UNL     1      30.591   3.147  18.255  1.00  0.00     0.214 A 
ATOM      3  C   UNL     1      31.581   4.131  18.467  1.00  0.00     0.180 A 
ATOM      4  O   UNL     1      32.791   3.995  17.932  1.00  0.00    -0.452 OA
ATOM      5  C   UNL     1      30.913   2.053  17.415  1.00  0.00     0.239 A 
ATOM      6  C   UNL     1      33.137   2.976  17.159  1.00  0.00     0.146 A 
ATOM      7  O   UNL     1      30.058   1.164  17.162  1.00  0.00    -0.285 OA
ATOM      8  C   UNL     1      32.206   1.957  16.854  1.00  0.00     0.111 A 
ATOM      9  C   UNL     1      34.437   2.928  16.643  1.00  0.00     0.094 A 
ATOM     10  C   UNL     1      32.607   0.891  16.011  1.00  0.00     0.134 A 
ATOM     11  C   UNL     1      34.826   1.876  15.813  1.00  0.00     0.123 A 
ATOM     12  C   UNL     1      33.914   0.862  15.498  1.00  0.00     0.093 A 
BRANCH   3  13
ATOM     13  C   UNL     1      31.327   5.331  19.296  1.00  0.00     0.025 A 
ATOM     14  C   UNL     1      31.553   5.321  20.683  1.00  0.00     0.016 A 
ATOM     15  C   UNL     1      31.287   6.459  21.450  1.00  0.00     0.051 A 
ATOM     16  C   UNL     1      30.775   7.615  20.845  1.00  0.00     0.157 A 
ATOM     17  C   UNL     1      30.791   6.485  18.697  1.00  0.00     0.062 A 
ATOM     18  C   UNL     1      30.520   7.624  19.463  1.00  0.00     0.158 A 
BRANCH  16  19
ATOM     19  O   UNL     1      30.512   8.749  21.613  1.00  0.00    -0.504 OA
ATOM     20  H   UNL     1      29.730   9.361  21.405  1.00  0.00     0.293 HD
ENDBRANCH  16  19
BRANCH  18  21
ATOM     21  O   UNL     1      29.998   8.755  18.834  1.00  0.00    -0.504 OA
ATOM     22  H   UNL     1      29.053   9.077  19.004  1.00  0.00     0.293 HD
ENDBRANCH  18  21
ENDBRANCH   3  13
BRANCH  10  23
ATOM     23  O   UNL     1      31.723  -0.137  15.679  1.00  0.00    -0.507 OA
ATOM     24  H   UNL     1      30.718  -0.015  15.731  1.00  0.00     0.293 HD
ENDBRANCH  10  23
BRANCH  11  25
ATOM     25  O   UNL     1      36.125   1.847  15.305  1.00  0.00    -0.508 OA
ATOM     26  H   UNL     1      36.913   2.179  15.849  1.00  0.00     0.293 HD
ENDBRANCH  11  25
ENDBRANCH   1   2
BRANCH   1  27
ATOM     27  C   UNL     1      28.893   2.794  20.168  1.00  0.00     0.339 C 
ATOM     28  C   UNL     1      29.512   1.404  20.462  1.00  0.00     0.214 C 
ATOM     29  O   UNL     1      27.480   2.743  20.200  1.00  0.00    -0.332 OA
ATOM     30  C   UNL     1      28.601   0.568  21.402  1.00  0.00     0.180 C 
ATOM     31  C   UNL     1      27.007   2.588  21.531  1.00  0.00     0.179 C 
ATOM     32  C   UNL     1      27.760   1.467  22.332  1.00  0.00     0.177 C 
BRANCH  28  33
ATOM     33  O   UNL     1      30.807   1.543  20.996  1.00  0.00    -0.384 OA
ATOM     34  H   UNL     1      31.458   1.296  20.289  1.00  0.00     0.211 HD
ENDBRANCH  28  33
BRANCH  30  35
ATOM     35  O   UNL     1      27.729  -0.228  20.640  1.00  0.00    -0.387 OA
ATOM     36  H   UNL     1      28.052  -1.166  20.717  1.00  0.00     0.211 HD
ENDBRANCH  30  35
BRANCH  31  37
ATOM     37  C   UNL     1      25.501   2.303  21.465  1.00  0.00     0.191 C 
BRANCH  37  38
ATOM     38  O   UNL     1      25.236   1.323  20.497  1.00  0.00    -0.394 OA
ATOM     39  H   UNL     1      24.483   1.674  19.952  1.00  0.00     0.210 HD
ENDBRANCH  37  38
ENDBRANCH  31  37
BRANCH  32  40
ATOM     40  O   UNL     1      28.602   2.049  23.294  1.00  0.00    -0.387 OA
ATOM     41  H   UNL     1      28.266   2.969  23.453  1.00  0.00     0.211 HD
ENDBRANCH  32  40
ENDBRANCH   1  27
TORSDOF 12
ENDMDL
MODEL 2
REMARK VINA RESULT:    -8.690      1.535      5.791
REMARK INTER + INTRA:         -14.000
REMARK INTER:                 -12.236
REMARK INTRA:                  -1.764
REMARK UNBOUND:                -1.245
REMARK SMILES O=c1c(O[C@H]2O[C@@H](CO)[C@H](O)[C@@H](O)[C@@H]2O)c(-c2ccc(O)c(O)c2)oc2cc(O)cc(O)c12
REMARK SMILES IDX 4 1 3 2 16 3 25 4 2 5 26 6 1 7 33 8 27 9 31 10 28 11 30 12
REMARK SMILES IDX 17 13 18 14 19 15 20 16 24 17 22 18 21 19 23 21 32 23 29 25
REMARK SMILES IDX 5 27 14 28 6 29 12 30 7 31 10 32 15 33 13 35 8 37 9 38 11 40
REMARK H PARENT 21 20 23 22 32 24 29 26 15 34 13 36 9 39 11 41
REMARK Flexibility Score: inf
ROOT
ATOM      1  O   UNL     1      31.419   3.546  20.434  1.00  0.00    -0.454 OA
ENDROOT
BRANCH   1   2
ATOM      2  C   UNL     1      31.312   4.800  19.788  1.00  0.00     0.214 A 
ATOM      3  C   UNL     1      31.744   4.879  18.446  1.00  0.00     0.180 A 
ATOM      4  O   UNL     1      31.606   6.009  17.760  1.00  0.00    -0.452 OA
ATOM      5  C   UNL     1      30.788   5.972  20.385  1.00  0.00     0.239 A 
ATOM      6  C   UNL     1      31.100   7.120  18.276  1.00  0.00     0.146 A 
ATOM      7  O   UNL     1      30.420   5.970  21.590  1.00  0.00    -0.285 OA
ATOM      8  C   UNL     1      30.675   7.156  19.623  1.00  0.00     0.111 A 
ATOM      9  C   UNL     1      31.002   8.258  17.469  1.00  0.00     0.094 A 
ATOM     10  C   UNL     1      30.154   8.366  20.146  1.00  0.00     0.134 A 
ATOM     11  C   UNL     1      30.489   9.447  17.989  1.00  0.00     0.123 A 
ATOM     12  C   UNL     1      30.068   9.500  19.323  1.00  0.00     0.093 A 
BRANCH   3  13
ATOM     13  C   UNL     1      32.343   3.719  17.748  1.00  0.00     0.025 A 
ATOM     14  C   UNL     1      33.735   3.523  17.719  1.00  0.00     0.016 A 
ATOM     15  C   UNL     1      34.281   2.432  17.037  1.00  0.00     0.051 A 
ATOM     16  C   UNL     1      33.446   1.533  16.358  1.00  0.00     0.157 A 
ATOM     17  C   UNL     1      31.512   2.828  17.047  1.00  0.00     0.062 A 
ATOM     18  C   UNL     1      32.055   1.737  16.359  1.00  0.00     0.158 A 
BRANCH  16  19
ATOM     19  O   UNL     1      33.994   0.446  15.680  1.00  0.00    -0.504 OA
ATOM     20  H   UNL     1      33.599  -0.485  15.762  1.00  0.00     0.293 HD
ENDBRANCH  16  19
BRANCH  18  21
ATOM     21  O   UNL     1      31.200   0.868  15.682  1.00  0.00    -0.504 OA
ATOM     22  H   UNL     1      30.228   0.757  15.942  1.00  0.00     0.293 HD
ENDBRANCH  18  21
ENDBRANCH   3  13
BRANCH  10  23
ATOM     23  O   UNL     1      29.724   8.453  21.471  1.00  0.00    -0.507 OA
ATOM     24  H   UNL     1      28.777   8.212  21.742  1.00  0.00     0.293 HD
ENDBRANCH  10  23
BRANCH  11  25
ATOM     25  O   UNL     1      30.401  10.573  17.170  1.00  0.00    -0.508 OA
ATOM     26  H   UNL     1      30.086  10.505  16.209  1.00  0.00     0.293 HD
ENDBRANCH  11  25
ENDBRANCH   1   2
BRANCH   1  27
ATOM     27  C   UNL     1      30.431   2.529  20.645  1.00  0.00     0.339 C 
ATOM     28  C   UNL     1      30.881   1.171  20.049  1.00  0.00     0.214 C 
ATOM     29  O   UNL     1      29.182   2.931  20.120  1.00  0.00    -0.332 OA
ATOM     30  C   UNL     1      29.659   0.282  19.686  1.00  0.00     0.180 C 
ATOM     31  C   UNL     1      28.130   2.125  20.636  1.00  0.00     0.179 C 
ATOM     32  C   UNL     1      28.443   0.587  20.584  1.00  0.00     0.177 C 
BRANCH  28  33
ATOM     33  O   UNL     1      31.751   0.506  20.933  1.00  0.00    -0.384 OA
ATOM     34  H   UNL     1      31.221   0.200  21.713  1.00  0.00     0.211 HD
ENDBRANCH  28  33
BRANCH  30  35
ATOM     35  O   UNL     1      29.292   0.496  18.347  1.00  0.00    -0.387 OA
ATOM     36  H   UNL     1      30.126   0.444  17.806  1.00  0.00     0.211 HD
ENDBRANCH  30  35
BRANCH  31  37
ATOM     37  C   UNL     1      26.855   2.457  19.852  1.00  0.00     0.191 C 
BRANCH  37  38
ATOM     38  O   UNL     1      27.153   2.624  18.491  1.00  0.00    -0.394 OA
ATOM     39  H   UNL     1      27.641   3.486  18.423  1.00  0.00     0.210 HD
ENDBRANCH  37  38
ENDBRANCH  31  37
BRANCH  32  40
ATOM     40  O   UNL     1      28.695   0.105  21.880  1.00  0.00    -0.387 OA
ATOM     41  H   UNL     1      29.318   0.747  22.310  1.00  0.00     0.211 HD
ENDBRANCH  32  40
ENDBRANCH   1  27
TORSDOF 12
ENDMDL
MODEL 3
REMARK VINA RESULT:    -8.563      1.680      5.937
REMARK INTER + INTRA:         -13.813
REMARK INTER:                 -11.985
REMARK INTRA:                  -1.828
REMARK UNBOUND:                -1.245
REMARK SMILES O=c1c(O[C@H]2O[C@@H](CO)[C@H](O)[C@@H](O)[C@@H]2O)c(-c2ccc(O)c(O)c2)oc2cc(O)cc(O)c12
REMARK SMILES IDX 4 1 3 2 16 3 25 4 2 5 26 6 1 7 33 8 27 9 31 10 28 11 30 12
REMARK SMILES IDX 17 13 18 14 19 15 20 16 24 17 22 18 21 19 23 21 32 23 29 25
REMARK SMILES IDX 5 27 14 28 6 29 12 30 7 31 10 32 15 33 13 35 8 37 9 38 11 40
REMARK H PARENT 21 20 23 22 32 24 29 26 15 34 13 36 9 39 11 41
REMARK Flexibility Score: inf
ROOT
ATOM      1  O   UNL     1      30.749   3.360  20.188  1.00  0.00    -0.454 OA
ENDROOT
BRANCH   1   2
ATOM      2  C   UNL     1      30.889   4.649  19.622  1.00  0.00     0.214 A 
ATOM      3  C   UNL     1      31.555   4.744  18.380  1.00  0.00     0.180 A 
ATOM      4  O   UNL     1      31.660   5.916  17.760  1.00  0.00    -0.452 OA
ATOM      5  C   UNL     1      30.394   5.842  20.201  1.00  0.00     0.239 A 
ATOM      6  C   UNL     1      31.190   7.050  18.260  1.00  0.00     0.146 A 
ATOM      7  O   UNL     1      29.823   5.822  21.323  1.00  0.00    -0.285 OA
ATOM      8  C   UNL     1      30.541   7.068  19.515  1.00  0.00     0.111 A 
ATOM      9  C   UNL     1      31.354   8.231  17.528  1.00  0.00     0.094 A 
ATOM     10  C   UNL     1      30.067   8.303  20.024  1.00  0.00     0.134 A 
ATOM     11  C   UNL     1      30.886   9.444  18.034  1.00  0.00     0.123 A 
ATOM     12  C   UNL     1      30.245   9.479  19.278  1.00  0.00     0.093 A 
BRANCH   3  13
ATOM     13  C   UNL     1      32.143   3.559  17.715  1.00  0.00     0.025 A 
ATOM     14  C   UNL     1      33.501   3.231  17.874  1.00  0.00     0.016 A 
ATOM     15  C   UNL     1      34.039   2.119  17.220  1.00  0.00     0.051 A 
ATOM     16  C   UNL     1      33.235   1.332  16.385  1.00  0.00     0.157 A 
ATOM     17  C   UNL     1      31.346   2.781  16.858  1.00  0.00     0.062 A 
ATOM     18  C   UNL     1      31.883   1.669  16.199  1.00  0.00     0.158 A 
BRANCH  16  19
ATOM     19  O   UNL     1      33.775   0.223  15.736  1.00  0.00    -0.504 OA
ATOM     20  H   UNL     1      34.378   0.323  14.926  1.00  0.00     0.293 HD
ENDBRANCH  16  19
BRANCH  18  21
ATOM     21  O   UNL     1      31.061   0.913  15.363  1.00  0.00    -0.504 OA
ATOM     22  H   UNL     1      31.422   0.162  14.789  1.00  0.00     0.293 HD
ENDBRANCH  18  21
ENDBRANCH   3  13
BRANCH  10  23
ATOM     23  O   UNL     1      29.422   8.372  21.260  1.00  0.00    -0.507 OA
ATOM     24  H   UNL     1      29.938   8.437  22.130  1.00  0.00     0.293 HD
ENDBRANCH  10  23
BRANCH  11  25
ATOM     25  O   UNL     1      31.062  10.611  17.291  1.00  0.00    -0.508 OA
ATOM     26  H   UNL     1      31.360  11.476  17.728  1.00  0.00     0.293 HD
ENDBRANCH  11  25
ENDBRANCH   1   2
BRANCH   1  27
ATOM     27  C   UNL     1      29.643   2.449  20.149  1.00  0.00     0.339 C 
ATOM     28  C   UNL     1      28.944   2.347  21.529  1.00  0.00     0.214 C 
ATOM     29  O   UNL     1      30.060   1.179  19.690  1.00  0.00    -0.332 OA
ATOM     30  C   UNL     1      28.225   0.980  21.697  1.00  0.00     0.180 C 
ATOM     31  C   UNL     1      28.945   0.390  19.294  1.00  0.00     0.179 C 
ATOM     32  C   UNL     1      27.774   0.401  20.341  1.00  0.00     0.177 C 
BRANCH  28  33
ATOM     33  O   UNL     1      28.052   3.420  21.712  1.00  0.00    -0.384 OA
ATOM     34  H   UNL     1      28.459   4.229  21.308  1.00  0.00     0.211 HD
ENDBRANCH  28  33
BRANCH  30  35
ATOM     35  O   UNL     1      29.088   0.058  22.314  1.00  0.00    -0.387 OA
ATOM     36  H   UNL     1      29.080   0.261  23.288  1.00  0.00     0.211 HD
ENDBRANCH  30  35
BRANCH  31  37
ATOM     37  C   UNL     1      29.444  -1.037  19.039  1.00  0.00     0.191 C 
BRANCH  37  38
ATOM     38  O   UNL     1      30.308  -1.439  20.069  1.00  0.00    -0.394 OA
ATOM     39  H   UNL     1      30.018  -2.354  20.326  1.00  0.00     0.210 HD
ENDBRANCH  37  38
ENDBRANCH  31  37
BRANCH  32  40
ATOM     40  O   UNL     1      26.699   1.162  19.850  1.00  0.00    -0.387 OA
ATOM     41  H   UNL     1      26.661   1.991  20.395  1.00  0.00     0.211 HD
ENDBRANCH  32  40
ENDBRANCH   1  27
TORSDOF 12
ENDMDL
MODEL 4
REMARK VINA RESULT:    -8.294      2.521      6.093
REMARK INTER + INTRA:         -13.418
REMARK INTER:                 -11.679
REMARK INTRA:                  -1.739
REMARK UNBOUND:                -1.245
REMARK SMILES O=c1c(O[C@H]2O[C@@H](CO)[C@H](O)[C@@H](O)[C@@H]2O)c(-c2ccc(O)c(O)c2)oc2cc(O)cc(O)c12
REMARK SMILES IDX 4 1 3 2 16 3 25 4 2 5 26 6 1 7 33 8 27 9 31 10 28 11 30 12
REMARK SMILES IDX 17 13 18 14 19 15 20 16 24 17 22 18 21 19 23 21 32 23 29 25
REMARK SMILES IDX 5 27 14 28 6 29 12 30 7 31 10 32 15 33 13 35 8 37 9 38 11 40
REMARK H PARENT 21 20 23 22 32 24 29 26 15 34 13 36 9 39 11 41
REMARK Flexibility Score: inf
ROOT
ATOM      1  O   UNL     1      29.147   2.145  18.404  1.00  0.00    -0.454 OA
ENDROOT
BRANCH   1   2
ATOM      2  C   UNL     1      29.571   3.352  19.009  1.00  0.00     0.214 A 
ATOM      3  C   UNL     1      29.104   3.624  20.314  1.00  0.00     0.180 A 
ATOM      4  O   UNL     1      29.519   4.705  20.966  1.00  0.00    -0.452 OA
ATOM      5  C   UNL     1      30.442   4.292  18.408  1.00  0.00     0.239 A 
ATOM      6  C   UNL     1      30.351   5.597  20.446  1.00  0.00     0.146 A 
ATOM      7  O   UNL     1      30.863   4.119  17.234  1.00  0.00    -0.285 OA
ATOM      8  C   UNL     1      30.846   5.437  19.132  1.00  0.00     0.111 A 
ATOM      9  C   UNL     1      30.725   6.704  21.216  1.00  0.00     0.094 A 
ATOM     10  C   UNL     1      31.720   6.419  18.604  1.00  0.00     0.134 A 
ATOM     11  C   UNL     1      31.586   7.668  20.691  1.00  0.00     0.123 A 
ATOM     12  C   UNL     1      32.081   7.525  19.389  1.00  0.00     0.093 A 
BRANCH   3  13
ATOM     13  C   UNL     1      28.158   2.722  21.010  1.00  0.00     0.025 A 
ATOM     14  C   UNL     1      26.776   2.781  20.761  1.00  0.00     0.016 A 
ATOM     15  C   UNL     1      25.899   1.933  21.444  1.00  0.00     0.051 A 
ATOM     16  C   UNL     1      26.388   1.030  22.398  1.00  0.00     0.157 A 
ATOM     17  C   UNL     1      28.642   1.831  21.984  1.00  0.00     0.062 A 
ATOM     18  C   UNL     1      27.766   0.984  22.673  1.00  0.00     0.158 A 
BRANCH  16  19
ATOM     19  O   UNL     1      25.510   0.186  23.076  1.00  0.00    -0.504 OA
ATOM     20  H   UNL     1      25.298   0.320  24.059  1.00  0.00     0.293 HD
ENDBRANCH  16  19
BRANCH  18  21
ATOM     21  O   UNL     1      28.281   0.106  23.626  1.00  0.00    -0.504 OA
ATOM     22  H   UNL     1      29.218  -0.272  23.560  1.00  0.00     0.293 HD
ENDBRANCH  18  21
ENDBRANCH   3  13
BRANCH  10  23
ATOM     23  O   UNL     1      32.233   6.306  17.311  1.00  0.00    -0.507 OA
ATOM     24  H   UNL     1      32.795   7.039  16.892  1.00  0.00     0.293 HD
ENDBRANCH  10  23
BRANCH  11  25
ATOM     25  O   UNL     1      31.945   8.766  21.473  1.00  0.00    -0.508 OA
ATOM     26  H   UNL     1      32.574   9.480  21.124  1.00  0.00     0.293 HD
ENDBRANCH  11  25
ENDBRANCH   1   2
BRANCH   1  27
ATOM     27  C   UNL     1      29.731   0.837  18.443  1.00  0.00     0.339 C 
ATOM     28  C   UNL     1      28.729  -0.215  18.981  1.00  0.00     0.214 C 
ATOM     29  O   UNL     1      30.923   0.847  19.204  1.00  0.00    -0.332 OA
ATOM     30  C   UNL     1      29.468  -1.420  19.625  1.00  0.00     0.180 C 
ATOM     31  C   UNL     1      31.697  -0.319  18.950  1.00  0.00     0.179 C 
ATOM     32  C   UNL     1      30.857  -1.644  18.993  1.00  0.00     0.177 C 
BRANCH  28  33
ATOM     33  O   UNL     1      27.858  -0.636  17.959  1.00  0.00    -0.384 OA
ATOM     34  H   UNL     1      28.031  -0.076  17.158  1.00  0.00     0.211 HD
ENDBRANCH  28  33
BRANCH  30  35
ATOM     35  O   UNL     1      29.634  -1.199  21.003  1.00  0.00    -0.387 OA
ATOM     36  H   UNL     1      29.044  -1.848  21.473  1.00  0.00     0.211 HD
ENDBRANCH  30  35
BRANCH  31  37
ATOM     37  C   UNL     1      32.839  -0.356  19.973  1.00  0.00     0.191 C 
BRANCH  37  38
ATOM     38  O   UNL     1      32.330  -0.229  21.273  1.00  0.00    -0.394 OA
ATOM     39  H   UNL     1      32.684  -1.005  21.782  1.00  0.00     0.210 HD
ENDBRANCH  37  38
ENDBRANCH  31  37
BRANCH  32  40
ATOM     40  O   UNL     1      30.693  -2.150  17.691  1.00  0.00    -0.387 OA
ATOM     41  H   UNL     1      29.802  -1.847  17.374  1.00  0.00     0.211 HD
ENDBRANCH  32  40
ENDBRANCH   1  27
TORSDOF 12
ENDMDL
MODEL 5
REMARK VINA RESULT:    -8.272      2.066      6.433
REMARK INTER + INTRA:         -13.387
REMARK INTER:                 -11.410
REMARK INTRA:                  -1.976
REMARK UNBOUND:                -1.245
REMARK SMILES O=c1c(O[C@H]2O[C@@H](CO)[C@H](O)[C@@H](O)[C@@H]2O)c(-c2ccc(O)c(O)c2)oc2cc(O)cc(O)c12
REMARK SMILES IDX 4 1 3 2 16 3 25 4 2 5 26 6 1 7 33 8 27 9 31 10 28 11 30 12
REMARK SMILES IDX 17 13 18 14 19 15 20 16 24 17 22 18 21 19 23 21 32 23 29 25
REMARK SMILES IDX 5 27 14 28 6 29 12 30 7 31 10 32 15 33 13 35 8 37 9 38 11 40
REMARK H PARENT 21 20 23 22 32 24 29 26 15 34 13 36 9 39 11 41
REMARK Flexibility Score: inf
ROOT
ATOM      1  O   UNL     1      31.622   2.459  20.213  1.00  0.00    -0.454 OA
ENDROOT
BRANCH   1   2
ATOM      2  C   UNL     1      31.259   3.817  20.371  1.00  0.00     0.214 A 
ATOM      3  C   UNL     1      29.946   4.092  20.811  1.00  0.00     0.180 A 
ATOM      4  O   UNL     1      29.563   5.344  21.047  1.00  0.00    -0.452 OA
ATOM      5  C   UNL     1      32.123   4.915  20.138  1.00  0.00     0.239 A 
ATOM      6  C   UNL     1      30.349   6.395  20.862  1.00  0.00     0.146 A 
ATOM      7  O   UNL     1      33.294   4.732  19.711  1.00  0.00    -0.285 OA
ATOM      8  C   UNL     1      31.669   6.230  20.386  1.00  0.00     0.111 A 
ATOM      9  C   UNL     1      29.847   7.672  21.137  1.00  0.00     0.094 A 
ATOM     10  C   UNL     1      32.475   7.378  20.185  1.00  0.00     0.134 A 
ATOM     11  C   UNL     1      30.645   8.799  20.937  1.00  0.00     0.123 A 
ATOM     12  C   UNL     1      31.953   8.652  20.462  1.00  0.00     0.093 A 
BRANCH   3  13
ATOM     13  C   UNL     1      28.957   3.015  21.043  1.00  0.00     0.025 A 
ATOM     14  C   UNL     1      28.817   2.413  22.306  1.00  0.00     0.016 A 
ATOM     15  C   UNL     1      27.891   1.384  22.498  1.00  0.00     0.051 A 
ATOM     16  C   UNL     1      27.107   0.930  21.429  1.00  0.00     0.157 A 
ATOM     17  C   UNL     1      28.185   2.541  19.969  1.00  0.00     0.062 A 
ATOM     18  C   UNL     1      27.260   1.508  20.157  1.00  0.00     0.158 A 
BRANCH  16  19
ATOM     19  O   UNL     1      26.183  -0.096  21.625  1.00  0.00    -0.504 OA
ATOM     20  H   UNL     1      25.662  -0.182  22.490  1.00  0.00     0.293 HD
ENDBRANCH  16  19
BRANCH  18  21
ATOM     21  O   UNL     1      26.505   1.068  19.070  1.00  0.00    -0.504 OA
ATOM     22  H   UNL     1      25.956   1.703  18.504  1.00  0.00     0.293 HD
ENDBRANCH  18  21
ENDBRANCH   3  13
BRANCH  10  23
ATOM     23  O   UNL     1      33.784   7.266  19.715  1.00  0.00    -0.507 OA
ATOM     24  H   UNL     1      34.038   7.536  18.771  1.00  0.00     0.293 HD
ENDBRANCH  10  23
BRANCH  11  25
ATOM     25  O   UNL     1      30.126  10.064  21.214  1.00  0.00    -0.508 OA
ATOM     26  H   UNL     1      29.238  10.180  21.688  1.00  0.00     0.293 HD
ENDBRANCH  11  25
ENDBRANCH   1   2
BRANCH   1  27
ATOM     27  C   UNL     1      31.658   1.643  19.035  1.00  0.00     0.339 C 
ATOM     28  C   UNL     1      31.282   2.457  17.771  1.00  0.00     0.214 C 
ATOM     29  O   UNL     1      30.820   0.514  19.186  1.00  0.00    -0.332 OA
ATOM     30  C   UNL     1      30.697   1.539  16.663  1.00  0.00     0.180 C 
ATOM     31  C   UNL     1      31.121  -0.476  18.211  1.00  0.00     0.179 C 
ATOM     32  C   UNL     1      31.251   0.103  16.757  1.00  0.00     0.177 C 
BRANCH  28  33
ATOM     33  O   UNL     1      32.394   3.181  17.301  1.00  0.00    -0.384 OA
ATOM     34  H   UNL     1      32.139   4.138  17.252  1.00  0.00     0.211 HD
ENDBRANCH  28  33
BRANCH  30  35
ATOM     35  O   UNL     1      29.297   1.488  16.774  1.00  0.00    -0.387 OA
ATOM     36  H   UNL     1      29.061   0.553  17.017  1.00  0.00     0.211 HD
ENDBRANCH  30  35
BRANCH  31  37
ATOM     37  C   UNL     1      30.031  -1.552  18.282  1.00  0.00     0.191 C 
BRANCH  37  38
ATOM     38  O   UNL     1      28.772  -0.956  18.451  1.00  0.00    -0.394 OA
ATOM     39  H   UNL     1      28.140  -1.493  17.905  1.00  0.00     0.210 HD
ENDBRANCH  37  38
ENDBRANCH  31  37
BRANCH  32  40
ATOM     40  O   UNL     1      32.600   0.103  16.361  1.00  0.00    -0.387 OA
ATOM     41  H   UNL     1      33.000  -0.738  16.702  1.00  0.00     0.211 HD
ENDBRANCH  32  40
ENDBRANCH   1  27
TORSDOF 12
ENDMDL
MODEL 6
REMARK VINA RESULT:    -8.125      1.889      6.504
REMARK INTER + INTRA:         -13.170
REMARK INTER:                 -11.403
REMARK INTRA:                  -1.767
REMARK UNBOUND:                -1.245
REMARK SMILES O=c1c(O[C@H]2O[C@@H](CO)[C@H](O)[C@@H](O)[C@@H]2O)c(-c2ccc(O)c(O)c2)oc2cc(O)cc(O)c12
REMARK SMILES IDX 4 1 3 2 16 3 25 4 2 5 26 6 1 7 33 8 27 9 31 10 28 11 30 12
REMARK SMILES IDX 17 13 18 14 19 15 20 16 24 17 22 18 21 19 23 21 32 23 29 25
REMARK SMILES IDX 5 27 14 28 6 29 12 30 7 31 10 32 15 33 13 35 8 37 9 38 11 40
REMARK H PARENT 21 20 23 22 32 24 29 26 15 34 13 36 9 39 11 41
REMARK Flexibility Score: inf
ROOT
ATOM      1  O   UNL     1      30.578   2.245  17.633  1.00  0.00    -0.454 OA
ENDROOT
BRANCH   1   2
ATOM      2  C   UNL     1      30.584   3.462  18.354  1.00  0.00     0.214 A 
ATOM      3  C   UNL     1      29.776   3.537  19.510  1.00  0.00     0.180 A 
ATOM      4  O   UNL     1      29.790   4.627  20.272  1.00  0.00    -0.452 OA
ATOM      5  C   UNL     1      31.356   4.599  18.010  1.00  0.00     0.239 A 
ATOM      6  C   UNL     1      30.515   5.701  19.995  1.00  0.00     0.146 A 
ATOM      7  O   UNL     1      32.068   4.602  16.972  1.00  0.00    -0.285 OA
ATOM      8  C   UNL     1      31.327   5.742  18.840  1.00  0.00     0.111 A 
ATOM      9  C   UNL     1      30.455   6.799  20.861  1.00  0.00     0.094 A 
ATOM     10  C   UNL     1      32.076   6.914  18.569  1.00  0.00     0.134 A 
ATOM     11  C   UNL     1      31.194   7.951  20.589  1.00  0.00     0.123 A 
ATOM     12  C   UNL     1      32.001   8.008  19.446  1.00  0.00     0.093 A 
BRANCH   3  13
ATOM     13  C   UNL     1      28.904   2.416  19.928  1.00  0.00     0.025 A 
ATOM     14  C   UNL     1      27.548   2.370  19.562  1.00  0.00     0.016 A 
ATOM     15  C   UNL     1      26.738   1.313  19.985  1.00  0.00     0.051 A 
ATOM     16  C   UNL     1      27.265   0.298  20.795  1.00  0.00     0.157 A 
ATOM     17  C   UNL     1      29.424   1.409  20.760  1.00  0.00     0.062 A 
ATOM     18  C   UNL     1      28.614   0.351  21.188  1.00  0.00     0.158 A 
BRANCH  16  19
ATOM     19  O   UNL     1      26.455  -0.756  21.213  1.00  0.00    -0.504 OA
ATOM     20  H   UNL     1      26.831  -1.684  21.374  1.00  0.00     0.293 HD
ENDBRANCH  16  19
BRANCH  18  21
ATOM     21  O   UNL     1      29.165  -0.637  22.005  1.00  0.00    -0.504 OA
ATOM     22  H   UNL     1      29.497  -0.438  22.941  1.00  0.00     0.293 HD
ENDBRANCH  18  21
ENDBRANCH   3  13
BRANCH  10  23
ATOM     23  O   UNL     1      32.891   7.003  17.439  1.00  0.00    -0.507 OA
ATOM     24  H   UNL     1      33.400   6.202  17.082  1.00  0.00     0.293 HD
ENDBRANCH  10  23
BRANCH  11  25
ATOM     25  O   UNL     1      31.120   9.036  21.462  1.00  0.00    -0.508 OA
ATOM     26  H   UNL     1      30.275   9.591  21.546  1.00  0.00     0.293 HD
ENDBRANCH  11  25
ENDBRANCH   1   2
BRANCH   1  27
ATOM     27  C   UNL     1      31.480   1.133  17.690  1.00  0.00     0.339 C 
ATOM     28  C   UNL     1      32.283   0.986  16.373  1.00  0.00     0.214 C 
ATOM     29  O   UNL     1      30.784  -0.058  18.001  1.00  0.00    -0.332 OA
ATOM     30  C   UNL     1      32.742  -0.481  16.152  1.00  0.00     0.180 C 
ATOM     31  C   UNL     1      31.681  -1.076  18.424  1.00  0.00     0.179 C 
ATOM     32  C   UNL     1      32.933  -1.228  17.488  1.00  0.00     0.177 C 
BRANCH  28  33
ATOM     33  O   UNL     1      33.378   1.871  16.361  1.00  0.00    -0.384 OA
ATOM     34  H   UNL     1      33.441   2.294  17.256  1.00  0.00     0.211 HD
ENDBRANCH  28  33
BRANCH  30  35
ATOM     35  O   UNL     1      31.787  -1.171  15.386  1.00  0.00    -0.387 OA
ATOM     36  H   UNL     1      32.285  -1.819  14.818  1.00  0.00     0.211 HD
ENDBRANCH  30  35
BRANCH  31  37
ATOM     37  C   UNL     1      30.894  -2.389  18.512  1.00  0.00     0.191 C 
BRANCH  37  38
ATOM     38  O   UNL     1      30.254  -2.488  19.756  1.00  0.00    -0.394 OA
ATOM     39  H   UNL     1      30.812  -1.969  20.393  1.00  0.00     0.210 HD
ENDBRANCH  37  38
ENDBRANCH  31  37
BRANCH  32  40
ATOM     40  O   UNL     1      34.077  -0.730  18.134  1.00  0.00    -0.387 OA
ATOM     41  H   UNL     1      34.863  -1.076  17.636  1.00  0.00     0.211 HD
ENDBRANCH  32  40
ENDBRANCH   1  27
TORSDOF 12
ENDMDL
MODEL 7
REMARK VINA RESULT:    -8.087      1.630      6.667
REMARK INTER + INTRA:         -13.114
REMARK INTER:                 -11.400
REMARK INTRA:                  -1.714
REMARK UNBOUND:                -1.245
REMARK SMILES O=c1c(O[C@H]2O[C@@H](CO)[C@H](O)[C@@H](O)[C@@H]2O)c(-c2ccc(O)c(O)c2)oc2cc(O)cc(O)c12
REMARK SMILES IDX 4 1 3 2 16 3 25 4 2 5 26 6 1 7 33 8 27 9 31 10 28 11 30 12
REMARK SMILES IDX 17 13 18 14 19 15 20 16 24 17 22 18 21 19 23 21 32 23 29 25
REMARK SMILES IDX 5 27 14 28 6 29 12 30 7 31 10 32 15 33 13 35 8 37 9 38 11 40
REMARK H PARENT 21 20 23 22 32 24 29 26 15 34 13 36 9 39 11 41
REMARK Flexibility Score: inf
ROOT
ATOM      1  O   UNL     1      31.088   1.636  20.065  1.00  0.00    -0.454 OA
ENDROOT
BRANCH   1   2
ATOM      2  C   UNL     1      29.758   1.728  20.538  1.00  0.00     0.214 A 
ATOM      3  C   UNL     1      29.208   3.020  20.686  1.00  0.00     0.180 A 
ATOM      4  O   UNL     1      27.941   3.175  21.060  1.00  0.00    -0.452 OA
ATOM      5  C   UNL     1      28.936   0.619  20.854  1.00  0.00     0.239 A 
ATOM      6  C   UNL     1      27.135   2.162  21.343  1.00  0.00     0.146 A 
ATOM      7  O   UNL     1      29.384  -0.556  20.774  1.00  0.00    -0.285 OA
ATOM      8  C   UNL     1      27.600   0.830  21.263  1.00  0.00     0.111 A 
ATOM      9  C   UNL     1      25.818   2.433  21.730  1.00  0.00     0.094 A 
ATOM     10  C   UNL     1      26.714  -0.227  21.589  1.00  0.00     0.134 A 
ATOM     11  C   UNL     1      24.950   1.388  22.050  1.00  0.00     0.123 A 
ATOM     12  C   UNL     1      25.397   0.064  21.980  1.00  0.00     0.093 A 
BRANCH   3  13
ATOM     13  C   UNL     1      30.000   4.242  20.420  1.00  0.00     0.025 A 
ATOM     14  C   UNL     1      30.603   4.964  21.465  1.00  0.00     0.016 A 
ATOM     15  C   UNL     1      31.330   6.126  21.193  1.00  0.00     0.051 A 
ATOM     16  C   UNL     1      31.449   6.594  19.877  1.00  0.00     0.157 A 
ATOM     17  C   UNL     1      30.102   4.727  19.105  1.00  0.00     0.062 A 
ATOM     18  C   UNL     1      30.826   5.893  18.829  1.00  0.00     0.158 A 
BRANCH  16  19
ATOM     19  O   UNL     1      32.176   7.753  19.609  1.00  0.00    -0.504 OA
ATOM     20  H   UNL     1      31.962   8.340  18.810  1.00  0.00     0.293 HD
ENDBRANCH  16  19
BRANCH  18  21
ATOM     21  O   UNL     1      30.915   6.341  17.511  1.00  0.00    -0.504 OA
ATOM     22  H   UNL     1      31.158   5.722  16.747  1.00  0.00     0.293 HD
ENDBRANCH  18  21
ENDBRANCH   3  13
BRANCH  10  23
ATOM     23  O   UNL     1      27.127  -1.559  21.527  1.00  0.00    -0.507 OA
ATOM     24  H   UNL     1      26.754  -2.204  20.839  1.00  0.00     0.293 HD
ENDBRANCH  10  23
BRANCH  11  25
ATOM     25  O   UNL     1      23.641   1.678  22.437  1.00  0.00    -0.508 OA
ATOM     26  H   UNL     1      23.208   1.213  23.226  1.00  0.00     0.293 HD
ENDBRANCH  11  25
ENDBRANCH   1   2
BRANCH   1  27
ATOM     27  C   UNL     1      31.583   1.455  18.733  1.00  0.00     0.339 C 
ATOM     28  C   UNL     1      31.908  -0.033  18.446  1.00  0.00     0.214 C 
ATOM     29  O   UNL     1      32.710   2.278  18.504  1.00  0.00    -0.332 OA
ATOM     30  C   UNL     1      32.992  -0.172  17.343  1.00  0.00     0.180 C 
ATOM     31  C   UNL     1      32.981   2.394  17.113  1.00  0.00     0.179 C 
ATOM     32  C   UNL     1      32.964   1.017  16.360  1.00  0.00     0.177 C 
BRANCH  28  33
ATOM     33  O   UNL     1      30.737  -0.737  18.105  1.00  0.00    -0.384 OA
ATOM     34  H   UNL     1      29.974  -0.307  18.570  1.00  0.00     0.211 HD
ENDBRANCH  28  33
BRANCH  30  35
ATOM     35  O   UNL     1      34.267  -0.238  17.929  1.00  0.00    -0.387 OA
ATOM     36  H   UNL     1      34.312  -1.097  18.428  1.00  0.00     0.211 HD
ENDBRANCH  30  35
BRANCH  31  37
ATOM     37  C   UNL     1      34.337   3.093  16.955  1.00  0.00     0.191 C 
BRANCH  37  38
ATOM     38  O   UNL     1      35.282   2.202  16.427  1.00  0.00    -0.394 OA
ATOM     39  H   UNL     1      36.049   2.760  16.133  1.00  0.00     0.210 HD
ENDBRANCH  37  38
ENDBRANCH  31  37
BRANCH  32  40
ATOM     40  O   UNL     1      31.813   0.924  15.558  1.00  0.00    -0.387 OA
ATOM     41  H   UNL     1      31.900   1.612  14.848  1.00  0.00     0.211 HD
ENDBRANCH  32  40
ENDBRANCH   1  27
TORSDOF 12
ENDMDL
MODEL 8
REMARK VINA RESULT:    -7.957      1.844      6.900
REMARK INTER + INTRA:         -12.924
REMARK INTER:                 -11.655
REMARK INTRA:                  -1.269
REMARK UNBOUND:                -1.245
REMARK SMILES O=c1c(O[C@H]2O[C@@H](CO)[C@H](O)[C@@H](O)[C@@H]2O)c(-c2ccc(O)c(O)c2)oc2cc(O)cc(O)c12
REMARK SMILES IDX 4 1 3 2 16 3 25 4 2 5 26 6 1 7 33 8 27 9 31 10 28 11 30 12
REMARK SMILES IDX 17 13 18 14 19 15 20 16 24 17 22 18 21 19 23 21 32 23 29 25
REMARK SMILES IDX 5 27 14 28 6 29 12 30 7 31 10 32 15 33 13 35 8 37 9 38 11 40
REMARK H PARENT 21 20 23 22 32 24 29 26 15 34 13 36 9 39 11 41
REMARK Flexibility Score: inf
ROOT
ATOM      1  O   UNL     1      31.397   1.939  19.414  1.00  0.00    -0.454 OA
ENDROOT
BRANCH   1   2
ATOM      2  C   UNL     1      31.182   3.296  19.751  1.00  0.00     0.214 A 
ATOM      3  C   UNL     1      29.948   3.629  20.351  1.00  0.00     0.180 A 
ATOM      4  O   UNL     1      29.710   4.873  20.756  1.00  0.00    -0.452 OA
ATOM      5  C   UNL     1      32.122   4.336  19.548  1.00  0.00     0.239 A 
ATOM      6  C   UNL     1      30.572   5.868  20.604  1.00  0.00     0.146 A 
ATOM      7  O   UNL     1      33.225   4.104  18.987  1.00  0.00    -0.285 OA
ATOM      8  C   UNL     1      31.821   5.647  19.980  1.00  0.00     0.111 A 
ATOM      9  C   UNL     1      30.223   7.143  21.063  1.00  0.00     0.094 A 
ATOM     10  C   UNL     1      32.710   6.739  19.820  1.00  0.00     0.134 A 
ATOM     11  C   UNL     1      31.103   8.214  20.903  1.00  0.00     0.123 A 
ATOM     12  C   UNL     1      32.341   8.012  20.283  1.00  0.00     0.093 A 
BRANCH   3  13
ATOM     13  C   UNL     1      28.886   2.621  20.568  1.00  0.00     0.025 A 
ATOM     14  C   UNL     1      27.976   2.288  19.549  1.00  0.00     0.016 A 
ATOM     15  C   UNL     1      26.969   1.347  19.782  1.00  0.00     0.051 A 
ATOM     16  C   UNL     1      26.845   0.741  21.040  1.00  0.00     0.157 A 
ATOM     17  C   UNL     1      28.744   2.027  21.834  1.00  0.00     0.062 A 
ATOM     18  C   UNL     1      27.734   1.088  22.072  1.00  0.00     0.158 A 
BRANCH  16  19
ATOM     19  O   UNL     1      25.840  -0.198  21.268  1.00  0.00    -0.504 OA
ATOM     20  H   UNL     1      25.287  -0.188  22.118  1.00  0.00     0.293 HD
ENDBRANCH  16  19
BRANCH  18  21
ATOM     21  O   UNL     1      27.628   0.512  23.338  1.00  0.00    -0.504 OA
ATOM     22  H   UNL     1      27.133   0.965  24.096  1.00  0.00     0.293 HD
ENDBRANCH  18  21
ENDBRANCH   3  13
BRANCH  10  23
ATOM     23  O   UNL     1      33.954   6.571  19.209  1.00  0.00    -0.507 OA
ATOM     24  H   UNL     1      34.095   5.903  18.458  1.00  0.00     0.293 HD
ENDBRANCH  10  23
BRANCH  11  25
ATOM     25  O   UNL     1      30.736   9.478  21.364  1.00  0.00    -0.508 OA
ATOM     26  H   UNL     1      30.342   9.610  22.289  1.00  0.00     0.293 HD
ENDBRANCH  11  25
ENDBRANCH   1   2
BRANCH   1  27
ATOM     27  C   UNL     1      31.995   1.361  18.247  1.00  0.00     0.339 C 
ATOM     28  C   UNL     1      30.926   0.745  17.309  1.00  0.00     0.214 C 
ATOM     29  O   UNL     1      32.972   0.406  18.609  1.00  0.00    -0.332 OA
ATOM     30  C   UNL     1      31.528  -0.392  16.439  1.00  0.00     0.180 C 
ATOM     31  C   UNL     1      33.820   0.103  17.508  1.00  0.00     0.179 C 
ATOM     32  C   UNL     1      33.033  -0.178  16.178  1.00  0.00     0.177 C 
BRANCH  28  33
ATOM     33  O   UNL     1      30.335   1.742  16.511  1.00  0.00    -0.384 OA
ATOM     34  H   UNL     1      30.954   2.517  16.480  1.00  0.00     0.211 HD
ENDBRANCH  28  33
BRANCH  30  35
ATOM     35  O   UNL     1      31.357  -1.630  17.082  1.00  0.00    -0.387 OA
ATOM     36  H   UNL     1      30.377  -1.793  17.138  1.00  0.00     0.211 HD
ENDBRANCH  30  35
BRANCH  31  37
ATOM     37  C   UNL     1      34.688  -1.098  17.900  1.00  0.00     0.191 C 
BRANCH  37  38
ATOM     38  O   UNL     1      33.890  -2.119  18.437  1.00  0.00    -0.394 OA
ATOM     39  H   UNL     1      33.951  -2.024  19.423  1.00  0.00     0.210 HD
ENDBRANCH  37  38
ENDBRANCH  31  37
BRANCH  32  40
ATOM     40  O   UNL     1      33.197   0.898  15.288  1.00  0.00    -0.387 OA
ATOM     41  H   UNL     1      32.434   0.866  14.654  1.00  0.00     0.211 HD
ENDBRANCH  32  40
ENDBRANCH   1  27
TORSDOF 12
ENDMDL
MODEL 9
REMARK VINA RESULT:    -7.869      2.324      6.381
REMARK INTER + INTRA:         -12.795
REMARK INTER:                 -11.531
REMARK INTRA:                  -1.264
REMARK UNBOUND:                -1.245
REMARK SMILES O=c1c(O[C@H]2O[C@@H](CO)[C@H](O)[C@@H](O)[C@@H]2O)c(-c2ccc(O)c(O)c2)oc2cc(O)cc(O)c12
REMARK SMILES IDX 4 1 3 2 16 3 25 4 2 5 26 6 1 7 33 8 27 9 31 10 28 11 30 12
REMARK SMILES IDX 17 13 18 14 19 15 20 16 24 17 22 18 21 19 23 21 32 23 29 25
REMARK SMILES IDX 5 27 14 28 6 29 12 30 7 31 10 32 15 33 13 35 8 37 9 38 11 40
REMARK H PARENT 21 20 23 22 32 24 29 26 15 34 13 36 9 39 11 41
REMARK Flexibility Score: inf
ROOT
ATOM      1  O   UNL     1      29.475   1.276  18.796  1.00  0.00    -0.454 OA
ENDROOT
BRANCH   1   2
ATOM      2  C   UNL     1      29.799   2.553  19.310  1.00  0.00     0.214 A 
ATOM      3  C   UNL     1      28.989   3.059  20.351  1.00  0.00     0.180 A 
ATOM      4  O   UNL     1      29.280   4.222  20.927  1.00  0.00    -0.452 OA
ATOM      5  C   UNL     1      30.885   3.348  18.870  1.00  0.00     0.239 A 
ATOM      6  C   UNL     1      30.300   4.983  20.558  1.00  0.00     0.146 A 
ATOM      7  O   UNL     1      31.619   2.964  17.923  1.00  0.00    -0.285 OA
ATOM      8  C   UNL     1      31.148   4.586  19.500  1.00  0.00     0.111 A 
ATOM      9  C   UNL     1      30.519   6.193  21.227  1.00  0.00     0.094 A 
ATOM     10  C   UNL     1      32.219   5.433  19.123  1.00  0.00     0.134 A 
ATOM     11  C   UNL     1      31.575   7.024  20.851  1.00  0.00     0.123 A 
ATOM     12  C   UNL     1      32.421   6.645  19.802  1.00  0.00     0.093 A 
BRANCH   3  13
ATOM     13  C   UNL     1      27.808   2.321  20.852  1.00  0.00     0.025 A 
ATOM     14  C   UNL     1      26.570   2.385  20.187  1.00  0.00     0.016 A 
ATOM     15  C   UNL     1      25.463   1.696  20.688  1.00  0.00     0.051 A 
ATOM     16  C   UNL     1      25.570   0.950  21.870  1.00  0.00     0.157 A 
ATOM     17  C   UNL     1      27.905   1.590  22.049  1.00  0.00     0.062 A 
ATOM     18  C   UNL     1      26.796   0.903  22.556  1.00  0.00     0.158 A 
BRANCH  16  19
ATOM     19  O   UNL     1      24.463   0.263  22.367  1.00  0.00    -0.504 OA
ATOM     20  H   UNL     1      24.561  -0.467  23.064  1.00  0.00     0.293 HD
ENDBRANCH  16  19
BRANCH  18  21
ATOM     21  O   UNL     1      26.931   0.180  23.742  1.00  0.00    -0.504 OA
ATOM     22  H   UNL     1      26.972   0.633  24.646  1.00  0.00     0.293 HD
ENDBRANCH  18  21
ENDBRANCH   3  13
BRANCH  10  23
ATOM     23  O   UNL     1      33.082   5.085  18.082  1.00  0.00    -0.507 OA
ATOM     24  H   UNL     1      33.823   5.704  17.771  1.00  0.00     0.293 HD
ENDBRANCH  10  23
BRANCH  11  25
ATOM     25  O   UNL     1      31.775   8.227  21.528  1.00  0.00    -0.508 OA
ATOM     26  H   UNL     1      32.627   8.406  22.048  1.00  0.00     0.293 HD
ENDBRANCH  11  25
ENDBRANCH   1   2
BRANCH   1  27
ATOM     27  C   UNL     1      30.194   0.039  18.876  1.00  0.00     0.339 C 
ATOM     28  C   UNL     1      31.227   0.058  20.030  1.00  0.00     0.214 C 
ATOM     29  O   UNL     1      30.811  -0.260  17.639  1.00  0.00    -0.332 OA
ATOM     30  C   UNL     1      32.400  -0.922  19.753  1.00  0.00     0.180 C 
ATOM     31  C   UNL     1      31.203  -1.625  17.583  1.00  0.00     0.179 C 
ATOM     32  C   UNL     1      31.959  -2.108  18.871  1.00  0.00     0.177 C 
BRANCH  28  33
ATOM     33  O   UNL     1      30.602  -0.228  21.258  1.00  0.00    -0.384 OA
ATOM     34  H   UNL     1      29.637  -0.017  21.167  1.00  0.00     0.211 HD
ENDBRANCH  28  33
BRANCH  30  35
ATOM     35  O   UNL     1      33.446  -0.245  19.103  1.00  0.00    -0.387 OA
ATOM     36  H   UNL     1      33.063   0.598  18.738  1.00  0.00     0.211 HD
ENDBRANCH  30  35
BRANCH  31  37
ATOM     37  C   UNL     1      32.067  -1.815  16.331  1.00  0.00     0.191 C 
BRANCH  37  38
ATOM     38  O   UNL     1      32.113  -3.172  15.975  1.00  0.00    -0.394 OA
ATOM     39  H   UNL     1      31.376  -3.610  16.475  1.00  0.00     0.210 HD
ENDBRANCH  37  38
ENDBRANCH  31  37
BRANCH  32  40
ATOM     40  O   UNL     1      31.130  -2.957  19.624  1.00  0.00    -0.387 OA
ATOM     41  H   UNL     1      30.253  -2.501  19.710  1.00  0.00     0.211 HD
ENDBRANCH  32  40
ENDBRANCH   1  27
TORSDOF 12
ENDMDL
