MODEL 1
REMARK VINA RESULT:    -5.301      0.000      0.000
REMARK INTER + INTRA:         -15.874
REMARK INTER:                 -12.120
REMARK INTRA:                  -3.754
REMARK UNBOUND:                -3.754
REMARK SMILES CCCCCCCCCCCCCCCCCCCCCCCC(=O)[O-]
REMARK SMILES IDX 13 1 14 2 15 3 16 4 17 5 18 6 19 7 20 8 21 9 22 10 23 11
REMARK SMILES IDX 24 12 25 13 26 14 12 15 11 16 10 17 9 18 8 19 7 20 6 21 5 22
REMARK SMILES IDX 4 23 3 24 2 25 1 26
REMARK H PARENT
REMARK Flexibility Score: inf
ROOT
ATOM      1  C   UNL     1     -22.765  42.782  -5.761  1.00  0.00     0.000 C 
ENDROOT
BRANCH   1   2
ATOM      2  C   UNL     1     -21.639  41.745  -5.909  1.00  0.00     0.000 C 
BRANCH   2   3
ATOM      3  C   UNL     1     -22.161  40.453  -6.548  1.00  0.00     0.000 C 
BRANCH   3   4
ATOM      4  C   UNL     1     -21.314  40.060  -7.768  1.00  0.00     0.000 C 
BRANCH   4   5
ATOM      5  C   UNL     1     -20.424  41.221  -8.259  1.00  0.00     0.000 C 
BRANCH   5   6
ATOM      6  C   UNL     1     -19.032  40.777  -8.739  1.00  0.00     0.000 C 
BRANCH   6   7
ATOM      7  C   UNL     1     -18.300  39.897  -7.714  1.00  0.00     0.000 C 
BRANCH   7   8
ATOM      8  C   UNL     1     -18.164  40.563  -6.332  1.00  0.00     0.000 C 
BRANCH   8   9
ATOM      9  C   UNL     1     -16.804  40.367  -5.637  1.00  0.00     0.000 C 
BRANCH   9  10
ATOM     10  C   UNL     1     -16.931  40.047  -4.138  1.00  0.00     0.006 C 
BRANCH  10  11
ATOM     11  C   UNL     1     -16.191  41.069  -3.264  1.00  0.00     0.053 C 
BRANCH  11  12
ATOM     12  C   UNL     1     -16.652  42.470  -3.534  1.00  0.00     0.041 C 
ATOM     13  O   UNL     1     -15.889  43.284  -4.116  1.00  0.00    -0.550 OA
ATOM     14  O   UNL     1     -17.905  42.887  -3.105  1.00  0.00    -0.550 OA
ENDBRANCH  11  12
ENDBRANCH  10  11
ENDBRANCH   9  10
ENDBRANCH   8   9
ENDBRANCH   7   8
ENDBRANCH   6   7
ENDBRANCH   5   6
ENDBRANCH   4   5
ENDBRANCH   3   4
ENDBRANCH   2   3
ENDBRANCH   1   2
BRANCH   1  15
ATOM     15  C   UNL     1     -23.813  42.674  -6.881  1.00  0.00     0.000 C 
BRANCH  15  16
ATOM     16  C   UNL     1     -23.434  43.494  -8.128  1.00  0.00     0.000 C 
BRANCH  16  17
ATOM     17  C   UNL     1     -24.455  44.598  -8.443  1.00  0.00     0.000 C 
BRANCH  17  18
ATOM     18  C   UNL     1     -25.411  44.867  -7.268  1.00  0.00    -0.000 C 
BRANCH  18  19
ATOM     19  C   UNL     1     -25.464  46.350  -6.871  1.00  0.00    -0.000 C 
BRANCH  19  20
ATOM     20  C   UNL     1     -24.070  47.002  -6.816  1.00  0.00    -0.000 C 
BRANCH  20  21
ATOM     21  C   UNL     1     -23.279  46.573  -5.569  1.00  0.00    -0.000 C 
BRANCH  21  22
ATOM     22  C   UNL     1     -21.761  46.732  -5.769  1.00  0.00    -0.000 C 
BRANCH  22  23
ATOM     23  C   UNL     1     -21.358  46.703  -7.252  1.00  0.00    -0.000 C 
BRANCH  23  24
ATOM     24  C   UNL     1     -19.949  46.124  -7.461  1.00  0.00    -0.000 C 
BRANCH  24  25
ATOM     25  C   UNL     1     -19.889  44.607  -7.225  1.00  0.00    -0.003 C 
ATOM     26  C   UNL     1     -18.658  44.178  -6.423  1.00  0.00     0.004 C 
ENDBRANCH  24  25
ENDBRANCH  23  24
ENDBRANCH  22  23
ENDBRANCH  21  22
ENDBRANCH  20  21
ENDBRANCH  19  20
ENDBRANCH  18  19
ENDBRANCH  17  18
ENDBRANCH  16  17
ENDBRANCH  15  16
ENDBRANCH   1  15
TORSDOF 22
ENDMDL
MODEL 2
REMARK VINA RESULT:    -4.935      1.834      4.797
REMARK INTER + INTRA:         -15.037
REMARK INTER:                 -12.462
REMARK INTRA:                  -2.575
REMARK UNBOUND:                -3.754
REMARK SMILES CCCCCCCCCCCCCCCCCCCCCCCC(=O)[O-]
REMARK SMILES IDX 13 1 14 2 15 3 16 4 17 5 18 6 19 7 20 8 21 9 22 10 23 11
REMARK SMILES IDX 24 12 25 13 26 14 12 15 11 16 10 17 9 18 8 19 7 20 6 21 5 22
REMARK SMILES IDX 4 23 3 24 2 25 1 26
REMARK H PARENT
REMARK Flexibility Score: inf
ROOT
ATOM      1  C   UNL     1     -19.208  39.067  -8.688  1.00  0.00     0.000 C 
ENDROOT
BRANCH   1   2
ATOM      2  C   UNL     1     -18.618  40.479  -8.842  1.00  0.00     0.000 C 
BRANCH   2   3
ATOM      3  C   UNL     1     -17.859  40.898  -7.578  1.00  0.00     0.000 C 
BRANCH   3   4
ATOM      4  C   UNL     1     -17.604  39.692  -6.662  1.00  0.00     0.000 C 
BRANCH   4   5
ATOM      5  C   UNL     1     -17.897  40.012  -5.181  1.00  0.00     0.000 C 
BRANCH   5   6
ATOM      6  C   UNL     1     -16.649  39.998  -4.283  1.00  0.00     0.000 C 
BRANCH   6   7
ATOM      7  C   UNL     1     -15.926  41.353  -4.245  1.00  0.00     0.000 C 
BRANCH   7   8
ATOM      8  C   UNL     1     -16.531  42.335  -3.224  1.00  0.00     0.000 C 
BRANCH   8   9
ATOM      9  C   UNL     1     -17.818  43.047  -3.676  1.00  0.00     0.000 C 
BRANCH   9  10
ATOM     10  C   UNL     1     -17.752  43.555  -5.127  1.00  0.00     0.006 C 
BRANCH  10  11
ATOM     11  C   UNL     1     -19.141  43.623  -5.778  1.00  0.00     0.053 C 
BRANCH  11  12
ATOM     12  C   UNL     1     -19.164  44.567  -6.942  1.00  0.00     0.041 C 
ATOM     13  O   UNL     1     -19.133  45.811  -6.748  1.00  0.00    -0.550 OA
ATOM     14  O   UNL     1     -19.262  44.076  -8.238  1.00  0.00    -0.550 OA
ENDBRANCH  11  12
ENDBRANCH  10  11
ENDBRANCH   9  10
ENDBRANCH   8   9
ENDBRANCH   7   8
ENDBRANCH   6   7
ENDBRANCH   5   6
ENDBRANCH   4   5
ENDBRANCH   3   4
ENDBRANCH   2   3
ENDBRANCH   1   2
BRANCH   1  15
ATOM     15  C   UNL     1     -20.744  39.063  -8.747  1.00  0.00     0.000 C 
BRANCH  15  16
ATOM     16  C   UNL     1     -21.361  40.373  -8.224  1.00  0.00     0.000 C 
BRANCH  16  17
ATOM     17  C   UNL     1     -21.711  40.308  -6.730  1.00  0.00     0.000 C 
BRANCH  17  18
ATOM     18  C   UNL     1     -23.161  40.738  -6.447  1.00  0.00    -0.000 C 
BRANCH  18  19
ATOM     19  C   UNL     1     -23.288  42.239  -6.149  1.00  0.00    -0.000 C 
BRANCH  19  20
ATOM     20  C   UNL     1     -23.542  43.078  -7.415  1.00  0.00    -0.000 C 
BRANCH  20  21
ATOM     21  C   UNL     1     -22.915  44.479  -7.316  1.00  0.00    -0.000 C 
BRANCH  21  22
ATOM     22  C   UNL     1     -23.620  45.351  -6.263  1.00  0.00    -0.000 C 
BRANCH  22  23
ATOM     23  C   UNL     1     -25.152  45.303  -6.391  1.00  0.00    -0.000 C 
BRANCH  23  24
ATOM     24  C   UNL     1     -25.778  46.708  -6.419  1.00  0.00    -0.000 C 
BRANCH  24  25
ATOM     25  C   UNL     1     -26.501  47.011  -7.740  1.00  0.00    -0.003 C 
ATOM     26  C   UNL     1     -25.604  46.821  -8.965  1.00  0.00     0.004 C 
ENDBRANCH  24  25
ENDBRANCH  23  24
ENDBRANCH  22  23
ENDBRANCH  21  22
ENDBRANCH  20  21
ENDBRANCH  19  20
ENDBRANCH  18  19
ENDBRANCH  17  18
ENDBRANCH  16  17
ENDBRANCH  15  16
ENDBRANCH   1  15
TORSDOF 22
ENDMDL
MODEL 3
REMARK VINA RESULT:    -4.895      1.699      4.325
REMARK INTER + INTRA:         -14.946
REMARK INTER:                 -11.568
REMARK INTRA:                  -3.378
REMARK UNBOUND:                -3.754
REMARK SMILES CCCCCCCCCCCCCCCCCCCCCCCC(=O)[O-]
REMARK SMILES IDX 13 1 14 2 15 3 16 4 17 5 18 6 19 7 20 8 21 9 22 10 23 11
REMARK SMILES IDX 24 12 25 13 26 14 12 15 11 16 10 17 9 18 8 19 7 20 6 21 5 22
REMARK SMILES IDX 4 23 3 24 2 25 1 26
REMARK H PARENT
REMARK Flexibility Score: inf
ROOT
ATOM      1  C   UNL     1     -22.767  46.706  -5.509  1.00  0.00     0.000 C 
ENDROOT
BRANCH   1   2
ATOM      2  C   UNL     1     -21.767  47.071  -6.619  1.00  0.00     0.000 C 
BRANCH   2   3
ATOM      3  C   UNL     1     -20.330  46.744  -6.195  1.00  0.00     0.000 C 
BRANCH   3   4
ATOM      4  C   UNL     1     -19.560  46.062  -7.335  1.00  0.00     0.000 C 
BRANCH   4   5
ATOM      5  C   UNL     1     -19.053  44.659  -6.941  1.00  0.00     0.000 C 
BRANCH   5   6
ATOM      6  C   UNL     1     -18.573  44.558  -5.483  1.00  0.00     0.000 C 
BRANCH   6   7
ATOM      7  C   UNL     1     -17.522  43.457  -5.277  1.00  0.00     0.000 C 
BRANCH   7   8
ATOM      8  C   UNL     1     -17.643  42.751  -3.913  1.00  0.00     0.000 C 
BRANCH   8   9
ATOM      9  C   UNL     1     -16.633  41.616  -3.666  1.00  0.00     0.000 C 
BRANCH   9  10
ATOM     10  C   UNL     1     -16.347  40.776  -4.922  1.00  0.00     0.006 C 
BRANCH  10  11
ATOM     11  C   UNL     1     -17.583  39.992  -5.386  1.00  0.00     0.053 C 
BRANCH  11  12
ATOM     12  C   UNL     1     -17.706  39.980  -6.880  1.00  0.00     0.041 C 
ATOM     13  O   UNL     1     -18.034  41.028  -7.494  1.00  0.00    -0.550 OA
ATOM     14  O   UNL     1     -17.501  38.803  -7.589  1.00  0.00    -0.550 OA
ENDBRANCH  11  12
ENDBRANCH  10  11
ENDBRANCH   9  10
ENDBRANCH   8   9
ENDBRANCH   7   8
ENDBRANCH   6   7
ENDBRANCH   5   6
ENDBRANCH   4   5
ENDBRANCH   3   4
ENDBRANCH   2   3
ENDBRANCH   1   2
BRANCH   1  15
ATOM     15  C   UNL     1     -24.219  47.026  -5.898  1.00  0.00     0.000 C 
BRANCH  15  16
ATOM     16  C   UNL     1     -24.435  47.036  -7.422  1.00  0.00     0.000 C 
BRANCH  16  17
ATOM     17  C   UNL     1     -25.617  46.156  -7.858  1.00  0.00     0.000 C 
BRANCH  17  18
ATOM     18  C   UNL     1     -25.161  44.853  -8.537  1.00  0.00    -0.000 C 
BRANCH  18  19
ATOM     19  C   UNL     1     -23.685  44.889  -8.962  1.00  0.00    -0.000 C 
BRANCH  19  20
ATOM     20  C   UNL     1     -22.793  43.986  -8.091  1.00  0.00    -0.000 C 
BRANCH  20  21
ATOM     21  C   UNL     1     -23.617  43.012  -7.233  1.00  0.00    -0.000 C 
BRANCH  21  22
ATOM     22  C   UNL     1     -22.967  42.764  -5.860  1.00  0.00    -0.000 C 
BRANCH  22  23
ATOM     23  C   UNL     1     -21.464  42.453  -5.970  1.00  0.00    -0.000 C 
BRANCH  23  24
ATOM     24  C   UNL     1     -21.161  40.962  -5.747  1.00  0.00    -0.000 C 
BRANCH  24  25
ATOM     25  C   UNL     1     -21.928  40.048  -6.715  1.00  0.00    -0.003 C 
ATOM     26  C   UNL     1     -21.348  40.060  -8.131  1.00  0.00     0.004 C 
ENDBRANCH  24  25
ENDBRANCH  23  24
ENDBRANCH  22  23
ENDBRANCH  21  22
ENDBRANCH  20  21
ENDBRANCH  19  20
ENDBRANCH  18  19
ENDBRANCH  17  18
ENDBRANCH  16  17
ENDBRANCH  15  16
ENDBRANCH   1  15
TORSDOF 22
ENDMDL
MODEL 4
REMARK VINA RESULT:    -4.853      1.102      3.622
REMARK INTER + INTRA:         -14.848
REMARK INTER:                 -11.566
REMARK INTRA:                  -3.282
REMARK UNBOUND:                -3.754
REMARK SMILES CCCCCCCCCCCCCCCCCCCCCCCC(=O)[O-]
REMARK SMILES IDX 13 1 14 2 15 3 16 4 17 5 18 6 19 7 20 8 21 9 22 10 23 11
REMARK SMILES IDX 24 12 25 13 26 14 12 15 11 16 10 17 9 18 8 19 7 20 6 21 5 22
REMARK SMILES IDX 4 23 3 24 2 25 1 26
REMARK H PARENT
REMARK Flexibility Score: inf
ROOT
ATOM      1  C   UNL     1     -22.368  41.962  -5.868  1.00  0.00     0.000 C 
ENDROOT
BRANCH   1   2
ATOM      2  C   UNL     1     -23.091  41.267  -7.034  1.00  0.00     0.000 C 
BRANCH   2   3
ATOM      3  C   UNL     1     -22.605  41.808  -8.383  1.00  0.00     0.000 C 
BRANCH   3   4
ATOM      4  C   UNL     1     -21.759  40.763  -9.125  1.00  0.00     0.000 C 
BRANCH   4   5
ATOM      5  C   UNL     1     -20.250  41.083  -9.065  1.00  0.00     0.000 C 
BRANCH   5   6
ATOM      6  C   UNL     1     -19.380  39.897  -8.618  1.00  0.00     0.000 C 
BRANCH   6   7
ATOM      7  C   UNL     1     -18.048  40.337  -7.991  1.00  0.00     0.000 C 
BRANCH   7   8
ATOM      8  C   UNL     1     -17.530  39.362  -6.918  1.00  0.00     0.000 C 
BRANCH   8   9
ATOM      9  C   UNL     1     -17.585  39.883  -5.471  1.00  0.00     0.000 C 
BRANCH   9  10
ATOM     10  C   UNL     1     -16.262  40.514  -5.004  1.00  0.00     0.006 C 
BRANCH  10  11
ATOM     11  C   UNL     1     -16.320  40.958  -3.536  1.00  0.00     0.053 C 
BRANCH  11  12
ATOM     12  C   UNL     1     -16.565  42.431  -3.409  1.00  0.00     0.041 C 
ATOM     13  O   UNL     1     -17.624  42.852  -2.875  1.00  0.00    -0.550 OA
ATOM     14  O   UNL     1     -15.645  43.338  -3.919  1.00  0.00    -0.550 OA
ENDBRANCH  11  12
ENDBRANCH  10  11
ENDBRANCH   9  10
ENDBRANCH   8   9
ENDBRANCH   7   8
ENDBRANCH   6   7
ENDBRANCH   5   6
ENDBRANCH   4   5
ENDBRANCH   3   4
ENDBRANCH   2   3
ENDBRANCH   1   2
BRANCH   1  15
ATOM     15  C   UNL     1     -21.063  41.250  -5.478  1.00  0.00     0.000 C 
BRANCH  15  16
ATOM     16  C   UNL     1     -19.912  42.233  -5.196  1.00  0.00     0.000 C 
BRANCH  16  17
ATOM     17  C   UNL     1     -19.686  43.226  -6.346  1.00  0.00     0.000 C 
BRANCH  17  18
ATOM     18  C   UNL     1     -18.582  44.249  -6.030  1.00  0.00    -0.000 C 
BRANCH  18  19
ATOM     19  C   UNL     1     -19.046  45.702  -6.214  1.00  0.00    -0.000 C 
BRANCH  19  20
ATOM     20  C   UNL     1     -19.678  45.955  -7.595  1.00  0.00    -0.000 C 
BRANCH  20  21
ATOM     21  C   UNL     1     -20.959  46.800  -7.500  1.00  0.00    -0.000 C 
BRANCH  21  22
ATOM     22  C   UNL     1     -21.928  46.256  -6.436  1.00  0.00    -0.000 C 
BRANCH  22  23
ATOM     23  C   UNL     1     -22.988  45.316  -7.033  1.00  0.00    -0.000 C 
BRANCH  23  24
ATOM     24  C   UNL     1     -24.283  46.059  -7.403  1.00  0.00    -0.000 C 
BRANCH  24  25
ATOM     25  C   UNL     1     -25.444  45.742  -6.447  1.00  0.00    -0.003 C 
ATOM     26  C   UNL     1     -26.808  46.134  -7.017  1.00  0.00     0.004 C 
ENDBRANCH  24  25
ENDBRANCH  23  24
ENDBRANCH  22  23
ENDBRANCH  21  22
ENDBRANCH  20  21
ENDBRANCH  19  20
ENDBRANCH  18  19
ENDBRANCH  17  18
ENDBRANCH  16  17
ENDBRANCH  15  16
ENDBRANCH   1  15
TORSDOF 22
ENDMDL
MODEL 5
REMARK VINA RESULT:    -4.659      2.878      7.399
REMARK INTER + INTRA:         -14.406
REMARK INTER:                 -11.738
REMARK INTRA:                  -2.668
REMARK UNBOUND:                -3.754
REMARK SMILES CCCCCCCCCCCCCCCCCCCCCCCC(=O)[O-]
REMARK SMILES IDX 13 1 14 2 15 3 16 4 17 5 18 6 19 7 20 8 21 9 22 10 23 11
REMARK SMILES IDX 24 12 25 13 26 14 12 15 11 16 10 17 9 18 8 19 7 20 6 21 5 22
REMARK SMILES IDX 4 23 3 24 2 25 1 26
REMARK H PARENT
REMARK Flexibility Score: inf
ROOT
ATOM      1  C   UNL     1     -22.179  41.170  -6.505  1.00  0.00     0.000 C 
ENDROOT
BRANCH   1   2
ATOM      2  C   UNL     1     -21.066  41.831  -5.674  1.00  0.00     0.000 C 
BRANCH   2   3
ATOM      3  C   UNL     1     -20.785  43.256  -6.166  1.00  0.00     0.000 C 
BRANCH   3   4
ATOM      4  C   UNL     1     -19.558  43.288  -7.090  1.00  0.00     0.000 C 
BRANCH   4   5
ATOM      5  C   UNL     1     -19.615  44.458  -8.095  1.00  0.00     0.000 C 
BRANCH   5   6
ATOM      6  C   UNL     1     -19.475  45.845  -7.445  1.00  0.00     0.000 C 
BRANCH   6   7
ATOM      7  C   UNL     1     -20.600  46.810  -7.850  1.00  0.00     0.000 C 
BRANCH   7   8
ATOM      8  C   UNL     1     -22.003  46.294  -7.480  1.00  0.00     0.000 C 
BRANCH   8   9
ATOM      9  C   UNL     1     -22.919  45.961  -8.672  1.00  0.00     0.000 C 
BRANCH   9  10
ATOM     10  C   UNL     1     -23.856  44.772  -8.401  1.00  0.00     0.006 C 
BRANCH  10  11
ATOM     11  C   UNL     1     -25.336  45.164  -8.522  1.00  0.00     0.053 C 
BRANCH  11  12
ATOM     12  C   UNL     1     -25.909  45.590  -7.204  1.00  0.00     0.041 C 
ATOM     13  O   UNL     1     -25.295  45.332  -6.136  1.00  0.00    -0.550 OA
ATOM     14  O   UNL     1     -27.139  46.233  -7.153  1.00  0.00    -0.550 OA
ENDBRANCH  11  12
ENDBRANCH  10  11
ENDBRANCH   9  10
ENDBRANCH   8   9
ENDBRANCH   7   8
ENDBRANCH   6   7
ENDBRANCH   5   6
ENDBRANCH   4   5
ENDBRANCH   3   4
ENDBRANCH   2   3
ENDBRANCH   1   2
BRANCH   1  15
ATOM     15  C   UNL     1     -21.725  39.852  -7.151  1.00  0.00     0.000 C 
BRANCH  15  16
ATOM     16  C   UNL     1     -20.931  40.072  -8.451  1.00  0.00     0.000 C 
BRANCH  16  17
ATOM     17  C   UNL     1     -20.280  38.782  -8.973  1.00  0.00     0.000 C 
BRANCH  17  18
ATOM     18  C   UNL     1     -18.744  38.871  -9.007  1.00  0.00    -0.000 C 
BRANCH  18  19
ATOM     19  C   UNL     1     -18.196  40.028  -8.159  1.00  0.00    -0.000 C 
BRANCH  19  20
ATOM     20  C   UNL     1     -17.458  39.545  -6.897  1.00  0.00    -0.000 C 
BRANCH  20  21
ATOM     21  C   UNL     1     -17.976  40.233  -5.623  1.00  0.00    -0.000 C 
BRANCH  21  22
ATOM     22  C   UNL     1     -17.010  40.052  -4.439  1.00  0.00    -0.000 C 
BRANCH  22  23
ATOM     23  C   UNL     1     -15.774  40.960  -4.546  1.00  0.00    -0.000 C 
BRANCH  23  24
ATOM     24  C   UNL     1     -15.991  42.321  -3.863  1.00  0.00    -0.000 C 
BRANCH  24  25
ATOM     25  C   UNL     1     -17.341  42.959  -4.225  1.00  0.00    -0.003 C 
ATOM     26  C   UNL     1     -18.347  42.916  -3.074  1.00  0.00     0.004 C 
ENDBRANCH  24  25
ENDBRANCH  23  24
ENDBRANCH  22  23
ENDBRANCH  21  22
ENDBRANCH  20  21
ENDBRANCH  19  20
ENDBRANCH  18  19
ENDBRANCH  17  18
ENDBRANCH  16  17
ENDBRANCH  15  16
ENDBRANCH   1  15
TORSDOF 22
ENDMDL
MODEL 6
REMARK VINA RESULT:    -4.575      1.430      3.245
REMARK INTER + INTRA:         -14.214
REMARK INTER:                 -11.091
REMARK INTRA:                  -3.123
REMARK UNBOUND:                -3.754
REMARK SMILES CCCCCCCCCCCCCCCCCCCCCCCC(=O)[O-]
REMARK SMILES IDX 13 1 14 2 15 3 16 4 17 5 18 6 19 7 20 8 21 9 22 10 23 11
REMARK SMILES IDX 24 12 25 13 26 14 12 15 11 16 10 17 9 18 8 19 7 20 6 21 5 22
REMARK SMILES IDX 4 23 3 24 2 25 1 26
REMARK H PARENT
REMARK Flexibility Score: inf
ROOT
ATOM      1  C   UNL     1     -22.441  41.757  -6.248  1.00  0.00     0.000 C 
ENDROOT
BRANCH   1   2
ATOM      2  C   UNL     1     -22.004  40.355  -6.706  1.00  0.00     0.000 C 
BRANCH   2   3
ATOM      3  C   UNL     1     -21.559  40.370  -8.173  1.00  0.00     0.000 C 
BRANCH   3   4
ATOM      4  C   UNL     1     -20.555  39.242  -8.456  1.00  0.00     0.000 C 
BRANCH   4   5
ATOM      5  C   UNL     1     -19.163  39.784  -8.843  1.00  0.00     0.000 C 
BRANCH   5   6
ATOM      6  C   UNL     1     -18.563  40.751  -7.809  1.00  0.00     0.000 C 
BRANCH   6   7
ATOM      7  C   UNL     1     -18.643  42.221  -8.251  1.00  0.00     0.000 C 
BRANCH   7   8
ATOM      8  C   UNL     1     -18.998  43.181  -7.100  1.00  0.00     0.000 C 
BRANCH   8   9
ATOM      9  C   UNL     1     -18.275  42.911  -5.768  1.00  0.00     0.000 C 
BRANCH   9  10
ATOM     10  C   UNL     1     -19.188  42.284  -4.700  1.00  0.00     0.006 C 
BRANCH  10  11
ATOM     11  C   UNL     1     -18.670  40.918  -4.229  1.00  0.00     0.053 C 
BRANCH  11  12
ATOM     12  C   UNL     1     -17.184  40.923  -4.032  1.00  0.00     0.041 C 
ATOM     13  O   UNL     1     -16.461  40.112  -4.667  1.00  0.00    -0.550 OA
ATOM     14  O   UNL     1     -16.604  41.792  -3.117  1.00  0.00    -0.550 OA
ENDBRANCH  11  12
ENDBRANCH  10  11
ENDBRANCH   9  10
ENDBRANCH   8   9
ENDBRANCH   7   8
ENDBRANCH   6   7
ENDBRANCH   5   6
ENDBRANCH   4   5
ENDBRANCH   3   4
ENDBRANCH   2   3
ENDBRANCH   1   2
BRANCH   1  15
ATOM     15  C   UNL     1     -23.728  42.227  -6.945  1.00  0.00     0.000 C 
BRANCH  15  16
ATOM     16  C   UNL     1     -23.500  42.607  -8.419  1.00  0.00     0.000 C 
BRANCH  16  17
ATOM     17  C   UNL     1     -23.532  44.125  -8.652  1.00  0.00     0.000 C 
BRANCH  17  18
ATOM     18  C   UNL     1     -22.122  44.733  -8.755  1.00  0.00    -0.000 C 
BRANCH  18  19
ATOM     19  C   UNL     1     -21.901  45.893  -7.772  1.00  0.00    -0.000 C 
BRANCH  19  20
ATOM     20  C   UNL     1     -21.680  45.414  -6.326  1.00  0.00    -0.000 C 
BRANCH  20  21
ATOM     21  C   UNL     1     -22.971  45.474  -5.492  1.00  0.00    -0.000 C 
BRANCH  21  22
ATOM     22  C   UNL     1     -23.520  46.908  -5.386  1.00  0.00    -0.000 C 
BRANCH  22  23
ATOM     23  C   UNL     1     -24.778  47.120  -6.244  1.00  0.00    -0.000 C 
BRANCH  23  24
ATOM     24  C   UNL     1     -25.683  45.877  -6.267  1.00  0.00    -0.000 C 
BRANCH  24  25
ATOM     25  C   UNL     1     -26.623  45.848  -7.482  1.00  0.00    -0.003 C 
ATOM     26  C   UNL     1     -26.123  46.713  -8.641  1.00  0.00     0.004 C 
ENDBRANCH  24  25
ENDBRANCH  23  24
ENDBRANCH  22  23
ENDBRANCH  21  22
ENDBRANCH  20  21
ENDBRANCH  19  20
ENDBRANCH  18  19
ENDBRANCH  17  18
ENDBRANCH  16  17
ENDBRANCH  15  16
ENDBRANCH   1  15
TORSDOF 22
ENDMDL
MODEL 7
REMARK VINA RESULT:    -4.522      0.992      3.944
REMARK INTER + INTRA:         -14.091
REMARK INTER:                 -10.547
REMARK INTRA:                  -3.544
REMARK UNBOUND:                -3.754
REMARK SMILES CCCCCCCCCCCCCCCCCCCCCCCC(=O)[O-]
REMARK SMILES IDX 13 1 14 2 15 3 16 4 17 5 18 6 19 7 20 8 21 9 22 10 23 11
REMARK SMILES IDX 24 12 25 13 26 14 12 15 11 16 10 17 9 18 8 19 7 20 6 21 5 22
REMARK SMILES IDX 4 23 3 24 2 25 1 26
REMARK H PARENT
REMARK Flexibility Score: inf
ROOT
ATOM      1  C   UNL     1     -23.058  46.815  -5.397  1.00  0.00     0.000 C 
ENDROOT
BRANCH   1   2
ATOM      2  C   UNL     1     -22.067  46.884  -6.572  1.00  0.00     0.000 C 
BRANCH   2   3
ATOM      3  C   UNL     1     -20.626  46.686  -6.089  1.00  0.00     0.000 C 
BRANCH   3   4
ATOM      4  C   UNL     1     -19.734  46.151  -7.219  1.00  0.00     0.000 C 
BRANCH   4   5
ATOM      5  C   UNL     1     -18.963  44.881  -6.804  1.00  0.00     0.000 C 
BRANCH   5   6
ATOM      6  C   UNL     1     -19.782  43.586  -6.934  1.00  0.00     0.000 C 
BRANCH   6   7
ATOM      7  C   UNL     1     -19.172  42.414  -6.150  1.00  0.00     0.000 C 
BRANCH   7   8
ATOM      8  C   UNL     1     -18.172  41.585  -6.978  1.00  0.00     0.000 C 
BRANCH   8   9
ATOM      9  C   UNL     1     -17.793  40.218  -6.381  1.00  0.00     0.000 C 
BRANCH   9  10
ATOM     10  C   UNL     1     -17.489  40.278  -4.874  1.00  0.00     0.006 C 
BRANCH  10  11
ATOM     11  C   UNL     1     -16.158  40.986  -4.582  1.00  0.00     0.053 C 
BRANCH  11  12
ATOM     12  C   UNL     1     -16.360  42.256  -3.812  1.00  0.00     0.041 C 
ATOM     13  O   UNL     1     -17.325  42.362  -3.011  1.00  0.00    -0.550 OA
ATOM     14  O   UNL     1     -15.509  43.336  -4.011  1.00  0.00    -0.550 OA
ENDBRANCH  11  12
ENDBRANCH  10  11
ENDBRANCH   9  10
ENDBRANCH   8   9
ENDBRANCH   7   8
ENDBRANCH   6   7
ENDBRANCH   5   6
ENDBRANCH   4   5
ENDBRANCH   3   4
ENDBRANCH   2   3
ENDBRANCH   1   2
BRANCH   1  15
ATOM     15  C   UNL     1     -24.508  47.072  -5.836  1.00  0.00     0.000 C 
BRANCH  15  16
ATOM     16  C   UNL     1     -24.664  47.125  -7.366  1.00  0.00     0.000 C 
BRANCH  16  17
ATOM     17  C   UNL     1     -25.870  46.316  -7.867  1.00  0.00     0.000 C 
BRANCH  17  18
ATOM     18  C   UNL     1     -25.470  45.238  -8.890  1.00  0.00    -0.000 C 
BRANCH  18  19
ATOM     19  C   UNL     1     -23.955  44.993  -8.935  1.00  0.00    -0.000 C 
BRANCH  19  20
ATOM     20  C   UNL     1     -23.551  43.642  -8.317  1.00  0.00    -0.000 C 
BRANCH  20  21
ATOM     21  C   UNL     1     -24.067  43.487  -6.876  1.00  0.00    -0.000 C 
BRANCH  21  22
ATOM     22  C   UNL     1     -23.169  42.556  -6.042  1.00  0.00    -0.000 C 
BRANCH  22  23
ATOM     23  C   UNL     1     -23.292  41.084  -6.468  1.00  0.00    -0.000 C 
BRANCH  23  24
ATOM     24  C   UNL     1     -21.966  40.321  -6.313  1.00  0.00    -0.000 C 
BRANCH  24  25
ATOM     25  C   UNL     1     -21.468  39.718  -7.635  1.00  0.00    -0.003 C 
ATOM     26  C   UNL     1     -21.363  40.752  -8.758  1.00  0.00     0.004 C 
ENDBRANCH  24  25
ENDBRANCH  23  24
ENDBRANCH  22  23
ENDBRANCH  21  22
ENDBRANCH  20  21
ENDBRANCH  19  20
ENDBRANCH  18  19
ENDBRANCH  17  18
ENDBRANCH  16  17
ENDBRANCH  15  16
ENDBRANCH   1  15
TORSDOF 22
ENDMDL
MODEL 8
REMARK VINA RESULT:    -4.422      2.303      5.509
REMARK INTER + INTRA:         -13.865
REMARK INTER:                 -10.832
REMARK INTRA:                  -3.033
REMARK UNBOUND:                -3.754
REMARK SMILES CCCCCCCCCCCCCCCCCCCCCCCC(=O)[O-]
REMARK SMILES IDX 13 1 14 2 15 3 16 4 17 5 18 6 19 7 20 8 21 9 22 10 23 11
REMARK SMILES IDX 24 12 25 13 26 14 12 15 11 16 10 17 9 18 8 19 7 20 6 21 5 22
REMARK SMILES IDX 4 23 3 24 2 25 1 26
REMARK H PARENT
REMARK Flexibility Score: inf
ROOT
ATOM      1  C   UNL     1     -24.646  44.647  -7.694  1.00  0.00     0.000 C 
ENDROOT
BRANCH   1   2
ATOM      2  C   UNL     1     -25.036  46.135  -7.661  1.00  0.00     0.000 C 
BRANCH   2   3
ATOM      3  C   UNL     1     -24.134  46.918  -6.700  1.00  0.00     0.000 C 
BRANCH   3   4
ATOM      4  C   UNL     1     -22.660  46.816  -7.120  1.00  0.00     0.000 C 
BRANCH   4   5
ATOM      5  C   UNL     1     -21.819  46.014  -6.106  1.00  0.00     0.000 C 
BRANCH   5   6
ATOM      6  C   UNL     1     -20.300  46.153  -6.309  1.00  0.00     0.000 C 
BRANCH   6   7
ATOM      7  C   UNL     1     -19.859  45.821  -7.743  1.00  0.00     0.000 C 
BRANCH   7   8
ATOM      8  C   UNL     1     -20.189  44.376  -8.161  1.00  0.00     0.000 C 
BRANCH   8   9
ATOM      9  C   UNL     1     -18.981  43.428  -8.271  1.00  0.00     0.000 C 
BRANCH   9  10
ATOM     10  C   UNL     1     -19.328  42.078  -8.921  1.00  0.00     0.006 C 
BRANCH  10  11
ATOM     11  C   UNL     1     -18.623  40.905  -8.226  1.00  0.00     0.053 C 
BRANCH  11  12
ATOM     12  C   UNL     1     -19.219  39.586  -8.618  1.00  0.00     0.041 C 
ATOM     13  O   UNL     1     -20.469  39.451  -8.679  1.00  0.00    -0.550 OA
ATOM     14  O   UNL     1     -18.397  38.496  -8.874  1.00  0.00    -0.550 OA
ENDBRANCH  11  12
ENDBRANCH  10  11
ENDBRANCH   9  10
ENDBRANCH   8   9
ENDBRANCH   7   8
ENDBRANCH   6   7
ENDBRANCH   5   6
ENDBRANCH   4   5
ENDBRANCH   3   4
ENDBRANCH   2   3
ENDBRANCH   1   2
BRANCH   1  15
ATOM     15  C   UNL     1     -24.239  44.178  -9.101  1.00  0.00     0.000 C 
BRANCH  15  16
ATOM     16  C   UNL     1     -22.915  43.394  -9.104  1.00  0.00     0.000 C 
BRANCH  16  17
ATOM     17  C   UNL     1     -23.124  41.878  -8.964  1.00  0.00     0.000 C 
BRANCH  17  18
ATOM     18  C   UNL     1     -23.243  41.434  -7.496  1.00  0.00    -0.000 C 
BRANCH  18  19
ATOM     19  C   UNL     1     -22.423  42.314  -6.540  1.00  0.00    -0.000 C 
BRANCH  19  20
ATOM     20  C   UNL     1     -21.290  41.541  -5.842  1.00  0.00    -0.000 C 
BRANCH  20  21
ATOM     21  C   UNL     1     -20.400  42.462  -4.989  1.00  0.00    -0.000 C 
BRANCH  21  22
ATOM     22  C   UNL     1     -19.070  41.787  -4.612  1.00  0.00    -0.000 C 
BRANCH  22  23
ATOM     23  C   UNL     1     -17.852  42.667  -4.936  1.00  0.00    -0.000 C 
BRANCH  23  24
ATOM     24  C   UNL     1     -16.789  42.622  -3.826  1.00  0.00    -0.000 C 
BRANCH  24  25
ATOM     25  C   UNL     1     -15.755  41.506  -4.037  1.00  0.00    -0.003 C 
ATOM     26  C   UNL     1     -16.382  40.110  -4.050  1.00  0.00     0.004 C 
ENDBRANCH  24  25
ENDBRANCH  23  24
ENDBRANCH  22  23
ENDBRANCH  21  22
ENDBRANCH  20  21
ENDBRANCH  19  20
ENDBRANCH  18  19
ENDBRANCH  17  18
ENDBRANCH  16  17
ENDBRANCH  15  16
ENDBRANCH   1  15
TORSDOF 22
ENDMDL
MODEL 9
REMARK VINA RESULT:    -4.283      2.335      5.162
REMARK INTER + INTRA:         -13.545
REMARK INTER:                  -9.718
REMARK INTRA:                  -3.828
REMARK UNBOUND:                -3.754
REMARK SMILES CCCCCCCCCCCCCCCCCCCCCCCC(=O)[O-]
REMARK SMILES IDX 13 1 14 2 15 3 16 4 17 5 18 6 19 7 20 8 21 9 22 10 23 11
REMARK SMILES IDX 24 12 25 13 26 14 12 15 11 16 10 17 9 18 8 19 7 20 6 21 5 22
REMARK SMILES IDX 4 23 3 24 2 25 1 26
REMARK H PARENT
REMARK Flexibility Score: inf
ROOT
ATOM      1  C   UNL     1     -23.479  46.748  -6.944  1.00  0.00     0.000 C 
ENDROOT
BRANCH   1   2
ATOM      2  C   UNL     1     -23.971  45.513  -6.171  1.00  0.00     0.000 C 
BRANCH   2   3
ATOM      3  C   UNL     1     -22.806  44.802  -5.472  1.00  0.00     0.000 C 
BRANCH   3   4
ATOM      4  C   UNL     1     -22.796  43.303  -5.806  1.00  0.00     0.000 C 
BRANCH   4   5
ATOM      5  C   UNL     1     -23.966  42.902  -6.728  1.00  0.00     0.000 C 
BRANCH   5   6
ATOM      6  C   UNL     1     -23.520  42.340  -8.089  1.00  0.00     0.000 C 
BRANCH   6   7
ATOM      7  C   UNL     1     -22.176  42.915  -8.561  1.00  0.00     0.000 C 
BRANCH   7   8
ATOM      8  C   UNL     1     -21.187  41.835  -9.036  1.00  0.00     0.000 C 
BRANCH   8   9
ATOM      9  C   UNL     1     -21.553  40.390  -8.651  1.00  0.00     0.000 C 
BRANCH   9  10
ATOM     10  C   UNL     1     -20.517  39.357  -9.125  1.00  0.00     0.006 C 
BRANCH  10  11
ATOM     11  C   UNL     1     -19.077  39.864  -8.957  1.00  0.00     0.053 C 
BRANCH  11  12
ATOM     12  C   UNL     1     -18.146  38.766  -8.539  1.00  0.00     0.041 C 
ATOM     13  O   UNL     1     -18.262  37.616  -9.037  1.00  0.00    -0.550 OA
ATOM     14  O   UNL     1     -17.179  39.002  -7.570  1.00  0.00    -0.550 OA
ENDBRANCH  11  12
ENDBRANCH  10  11
ENDBRANCH   9  10
ENDBRANCH   8   9
ENDBRANCH   7   8
ENDBRANCH   6   7
ENDBRANCH   5   6
ENDBRANCH   4   5
ENDBRANCH   3   4
ENDBRANCH   2   3
ENDBRANCH   1   2
BRANCH   1  15
ATOM     15  C   UNL     1     -23.186  46.437  -8.421  1.00  0.00     0.000 C 
BRANCH  15  16
ATOM     16  C   UNL     1     -21.905  47.124  -8.929  1.00  0.00     0.000 C 
BRANCH  16  17
ATOM     17  C   UNL     1     -20.735  46.143  -9.097  1.00  0.00     0.000 C 
BRANCH  17  18
ATOM     18  C   UNL     1     -19.464  46.613  -8.368  1.00  0.00    -0.000 C 
BRANCH  18  19
ATOM     19  C   UNL     1     -19.689  46.834  -6.865  1.00  0.00    -0.000 C 
BRANCH  19  20
ATOM     20  C   UNL     1     -19.285  45.614  -6.017  1.00  0.00    -0.000 C 
BRANCH  20  21
ATOM     21  C   UNL     1     -19.400  44.298  -6.804  1.00  0.00    -0.000 C 
BRANCH  21  22
ATOM     22  C   UNL     1     -18.212  43.359  -6.529  1.00  0.00    -0.000 C 
BRANCH  22  23
ATOM     23  C   UNL     1     -17.766  43.392  -5.058  1.00  0.00    -0.000 C 
BRANCH  23  24
ATOM     24  C   UNL     1     -18.569  42.413  -4.184  1.00  0.00    -0.000 C 
BRANCH  24  25
ATOM     25  C   UNL     1     -18.768  41.045  -4.854  1.00  0.00    -0.003 C 
ATOM     26  C   UNL     1     -20.205  40.818  -5.328  1.00  0.00     0.004 C 
ENDBRANCH  24  25
ENDBRANCH  23  24
ENDBRANCH  22  23
ENDBRANCH  21  22
ENDBRANCH  20  21
ENDBRANCH  19  20
ENDBRANCH  18  19
ENDBRANCH  17  18
ENDBRANCH  16  17
ENDBRANCH  15  16
ENDBRANCH   1  15
TORSDOF 22
ENDMDL
