MODEL 1
REMARK VINA RESULT:     6.829      0.000      0.000
REMARK INTER + INTRA:           8.221
REMARK INTER:                   8.027
REMARK INTRA:                   0.194
REMARK UNBOUND:                 0.194
REMARK SMILES O=c1c(O)c(-c2ccc(O)cc2)oc2cc(O)cc(O)c12
REMARK SMILES IDX 5 1 3 2 2 3 1 4 21 5 19 6 18 7 16 8 15 9 14 10 13 11 6 12
REMARK SMILES IDX 7 13 8 14 9 15 12 16 11 17 10 18 4 20 20 22 17 24
REMARK H PARENT 10 19 4 21 20 23 17 25
REMARK Flexibility Score: inf
ROOT
ATOM      1  C   UNL     1      13.055  21.940  -0.102  1.00  0.00     0.180 A 
ATOM      2  C   UNL     1      13.617  23.075  -0.709  1.00  0.00     0.208 A 
ATOM      3  C   UNL     1      13.553  23.201  -2.107  1.00  0.00     0.238 A 
ATOM      4  O   UNL     1      13.991  24.255  -2.637  1.00  0.00    -0.285 OA
ATOM      5  C   UNL     1      12.980  22.165  -2.883  1.00  0.00     0.111 A 
ATOM      6  C   UNL     1      12.903  22.166  -4.309  1.00  0.00     0.134 A 
ATOM      7  C   UNL     1      12.219  21.135  -4.965  1.00  0.00     0.093 A 
ATOM      8  C   UNL     1      11.664  20.072  -4.254  1.00  0.00     0.123 A 
ATOM      9  C   UNL     1      11.782  20.033  -2.863  1.00  0.00     0.094 A 
ATOM     10  C   UNL     1      12.425  21.065  -2.178  1.00  0.00     0.146 A 
ATOM     11  O   UNL     1      12.495  20.999  -0.854  1.00  0.00    -0.452 OA
ENDROOT
BRANCH   1  12
ATOM     12  C   UNL     1      13.069  21.742   1.365  1.00  0.00     0.021 A 
ATOM     13  C   UNL     1      12.903  22.821   2.253  1.00  0.00     0.016 A 
ATOM     14  C   UNL     1      12.895  22.606   3.634  1.00  0.00     0.047 A 
ATOM     15  C   UNL     1      13.038  21.312   4.147  1.00  0.00     0.115 A 
ATOM     16  C   UNL     1      13.190  20.443   1.887  1.00  0.00     0.016 A 
ATOM     17  C   UNL     1      13.183  20.230   3.268  1.00  0.00     0.047 A 
BRANCH  15  18
ATOM     18  O   UNL     1      13.030  21.113   5.525  1.00  0.00    -0.508 OA
ATOM     19  H   UNL     1      12.290  20.591   5.980  1.00  0.00     0.293 HD
ENDBRANCH  15  18
ENDBRANCH   1  12
BRANCH   2  20
ATOM     20  O   UNL     1      14.245  24.051   0.069  1.00  0.00    -0.502 OA
ATOM     21  H   UNL     1      13.940  25.017   0.082  1.00  0.00     0.293 HD
ENDBRANCH   2  20
BRANCH   6  22
ATOM     22  O   UNL     1      13.499  23.133  -5.125  1.00  0.00    -0.507 OA
ATOM     23  H   UNL     1      13.016  23.679  -5.822  1.00  0.00     0.293 HD
ENDBRANCH   6  22
BRANCH   8  24
ATOM     24  O   UNL     1      11.006  19.055  -4.940  1.00  0.00    -0.508 OA
ATOM     25  H   UNL     1      10.203  18.581  -4.542  1.00  0.00     0.293 HD
ENDBRANCH   8  24
TORSDOF 5
ENDMDL
MODEL 2
REMARK VINA RESULT:     7.262      2.713      6.339
REMARK INTER + INTRA:           8.730
REMARK INTER:                   8.757
REMARK INTRA:                  -0.027
REMARK UNBOUND:                 0.194
REMARK SMILES O=c1c(O)c(-c2ccc(O)cc2)oc2cc(O)cc(O)c12
REMARK SMILES IDX 5 1 3 2 2 3 1 4 21 5 19 6 18 7 16 8 15 9 14 10 13 11 6 12
REMARK SMILES IDX 7 13 8 14 9 15 12 16 11 17 10 18 4 20 20 22 17 24
REMARK H PARENT 10 19 4 21 20 23 17 25
REMARK Flexibility Score: inf
ROOT
ATOM      1  C   UNL     1      13.150  21.333  -1.948  1.00  0.00     0.180 A 
ATOM      2  C   UNL     1      13.891  20.642  -0.974  1.00  0.00     0.208 A 
ATOM      3  C   UNL     1      14.854  21.342  -0.228  1.00  0.00     0.238 A 
ATOM      4  O   UNL     1      15.460  20.735   0.693  1.00  0.00    -0.285 OA
ATOM      5  C   UNL     1      15.103  22.709  -0.504  1.00  0.00     0.111 A 
ATOM      6  C   UNL     1      16.087  23.504   0.159  1.00  0.00     0.134 A 
ATOM      7  C   UNL     1      16.172  24.873  -0.123  1.00  0.00     0.093 A 
ATOM      8  C   UNL     1      15.356  25.463  -1.086  1.00  0.00     0.123 A 
ATOM      9  C   UNL     1      14.429  24.683  -1.780  1.00  0.00     0.094 A 
ATOM     10  C   UNL     1      14.293  23.323  -1.494  1.00  0.00     0.146 A 
ATOM     11  O   UNL     1      13.384  22.623  -2.161  1.00  0.00    -0.452 OA
ENDROOT
BRANCH   1  12
ATOM     12  C   UNL     1      12.108  20.669  -2.763  1.00  0.00     0.021 A 
ATOM     13  C   UNL     1      11.060  19.944  -2.167  1.00  0.00     0.016 A 
ATOM     14  C   UNL     1      10.074  19.347  -2.958  1.00  0.00     0.047 A 
ATOM     15  C   UNL     1      10.113  19.476  -4.350  1.00  0.00     0.115 A 
ATOM     16  C   UNL     1      12.129  20.813  -4.161  1.00  0.00     0.016 A 
ATOM     17  C   UNL     1      11.143  20.214  -4.950  1.00  0.00     0.047 A 
BRANCH  15  18
ATOM     18  O   UNL     1       9.125  18.875  -5.125  1.00  0.00    -0.508 OA
ATOM     19  H   UNL     1       9.099  17.871  -5.265  1.00  0.00     0.293 HD
ENDBRANCH  15  18
ENDBRANCH   1  12
BRANCH   2  20
ATOM     20  O   UNL     1      13.683  19.276  -0.770  1.00  0.00    -0.502 OA
ATOM     21  H   UNL     1      13.000  18.744  -1.297  1.00  0.00     0.293 HD
ENDBRANCH   2  20
BRANCH   6  22
ATOM     22  O   UNL     1      17.015  22.999   1.076  1.00  0.00    -0.507 OA
ATOM     23  H   UNL     1      17.811  23.506   1.431  1.00  0.00     0.293 HD
ENDBRANCH   6  22
BRANCH   8  24
ATOM     24  O   UNL     1      15.480  26.824  -1.353  1.00  0.00    -0.508 OA
ATOM     25  H   UNL     1      16.215  27.182  -1.952  1.00  0.00     0.293 HD
ENDBRANCH   8  24
TORSDOF 5
ENDMDL
MODEL 3
REMARK VINA RESULT:     9.438      1.320      2.891
REMARK INTER + INTRA:          11.287
REMARK INTER:                  10.704
REMARK INTRA:                   0.583
REMARK UNBOUND:                 0.194
REMARK SMILES O=c1c(O)c(-c2ccc(O)cc2)oc2cc(O)cc(O)c12
REMARK SMILES IDX 5 1 3 2 2 3 1 4 21 5 19 6 18 7 16 8 15 9 14 10 13 11 6 12
REMARK SMILES IDX 7 13 8 14 9 15 12 16 11 17 10 18 4 20 20 22 17 24
REMARK H PARENT 10 19 4 21 20 23 17 25
REMARK Flexibility Score: inf
ROOT
ATOM      1  C   UNL     1      13.025  21.533   0.009  1.00  0.00     0.180 A 
ATOM      2  C   UNL     1      12.881  20.366  -0.760  1.00  0.00     0.208 A 
ATOM      3  C   UNL     1      12.847  20.474  -2.161  1.00  0.00     0.238 A 
ATOM      4  O   UNL     1      12.794  19.418  -2.845  1.00  0.00    -0.285 OA
ATOM      5  C   UNL     1      12.901  21.750  -2.771  1.00  0.00     0.111 A 
ATOM      6  C   UNL     1      12.829  21.980  -4.179  1.00  0.00     0.134 A 
ATOM      7  C   UNL     1      12.999  23.278  -4.676  1.00  0.00     0.093 A 
ATOM      8  C   UNL     1      13.174  24.362  -3.816  1.00  0.00     0.123 A 
ATOM      9  C   UNL     1      13.190  24.155  -2.436  1.00  0.00     0.094 A 
ATOM     10  C   UNL     1      13.062  22.868  -1.912  1.00  0.00     0.146 A 
ATOM     11  O   UNL     1      13.105  22.713  -0.594  1.00  0.00    -0.452 OA
ENDROOT
BRANCH   1  12
ATOM     12  C   UNL     1      13.084  21.500   1.488  1.00  0.00     0.021 A 
ATOM     13  C   UNL     1      13.238  22.677   2.243  1.00  0.00     0.016 A 
ATOM     14  C   UNL     1      13.266  22.623   3.639  1.00  0.00     0.047 A 
ATOM     15  C   UNL     1      13.127  21.397   4.300  1.00  0.00     0.115 A 
ATOM     16  C   UNL     1      12.922  20.276   2.158  1.00  0.00     0.016 A 
ATOM     17  C   UNL     1      12.952  20.223   3.555  1.00  0.00     0.047 A 
BRANCH  15  18
ATOM     18  O   UNL     1      13.157  21.359   5.692  1.00  0.00    -0.508 OA
ATOM     19  H   UNL     1      12.811  22.130   6.251  1.00  0.00     0.293 HD
ENDBRANCH  15  18
ENDBRANCH   1  12
BRANCH   2  20
ATOM     20  O   UNL     1      12.753  19.122  -0.136  1.00  0.00    -0.502 OA
ATOM     21  H   UNL     1      12.661  18.258  -0.657  1.00  0.00     0.293 HD
ENDBRANCH   2  20
BRANCH   6  22
ATOM     22  O   UNL     1      12.568  20.982  -5.124  1.00  0.00    -0.507 OA
ATOM     23  H   UNL     1      13.114  20.143  -5.244  1.00  0.00     0.293 HD
ENDBRANCH   6  22
BRANCH   8  24
ATOM     24  O   UNL     1      13.322  25.642  -4.345  1.00  0.00    -0.508 OA
ATOM     25  H   UNL     1      14.184  26.163  -4.236  1.00  0.00     0.293 HD
ENDBRANCH   8  24
TORSDOF 5
ENDMDL
