MODEL 1
REMARK VINA RESULT:    -4.712      0.000      0.000
REMARK INTER + INTRA:          -8.208
REMARK INTER:                  -6.502
REMARK INTRA:                  -1.706
REMARK UNBOUND:                -1.706
REMARK SMILES CC[C@H](CC[C@@H](C)[C@@H]1CC[C@H]2[C@H]3CC=C4C[C@@H](O)CC[C@]4(C)[C@H]3CC[C@]21C)C(C)C
REMARK SMILES IDX 5 1 4 2 3 3 2 4 1 5 28 6 29 7 30 8 6 9 7 10 8 11 9 12 26 13
REMARK SMILES IDX 10 14 11 15 25 16 27 17 12 18 24 19 23 20 13 21 21 22 14 23
REMARK SMILES IDX 15 24 20 25 22 26 16 27 19 28 17 29 18 30
REMARK H PARENT 18 31
REMARK Flexibility Score: inf
ROOT
ATOM      1  C   UNL     1      32.527   7.925  21.151  1.00  0.00     0.004 C 
ENDROOT
BRANCH   1   2
ATOM      2  C   UNL     1      33.910   7.562  20.560  1.00  0.00     0.004 C 
BRANCH   2   3
ATOM      3  C   UNL     1      34.152   6.041  20.341  1.00  0.00    -0.009 C 
BRANCH   3   4
ATOM      4  C   UNL     1      35.467   5.559  21.030  1.00  0.00     0.000 C 
ATOM      5  C   UNL     1      36.252   6.716  21.650  1.00  0.00     0.004 C 
ENDBRANCH   3   4
BRANCH   3   6
ATOM      6  C   UNL     1      32.891   5.213  20.751  1.00  0.00    -0.014 C 
ATOM      7  C   UNL     1      33.101   4.317  21.987  1.00  0.00     0.007 C 
ATOM      8  C   UNL     1      32.334   4.389  19.581  1.00  0.00     0.007 C 
ENDBRANCH   3   6
ENDBRANCH   2   3
ENDBRANCH   1   2
BRANCH   1   9
ATOM      9  C   UNL     1      32.312   9.408  21.573  1.00  0.00    -0.011 C 
ATOM     10  C   UNL     1      31.293   9.485  22.736  1.00  0.00     0.008 C 
BRANCH   9  11
ATOM     11  C   UNL     1      33.664  10.091  21.993  1.00  0.00    -0.002 C 
ATOM     12  C   UNL     1      33.575  10.776  23.373  1.00  0.00     0.005 C 
ATOM     13  C   UNL     1      34.279  11.180  21.048  1.00  0.00    -0.026 C 
ATOM     14  C   UNL     1      34.501  11.988  23.363  1.00  0.00     0.005 C 
ATOM     15  C   UNL     1      35.191  12.008  21.999  1.00  0.00    -0.001 C 
ATOM     16  C   UNL     1      35.102  10.581  19.863  1.00  0.00     0.007 C 
ATOM     17  C   UNL     1      33.180  12.125  20.484  1.00  0.00     0.012 C 
ATOM     18  C   UNL     1      36.693  11.569  22.038  1.00  0.00     0.000 C 
ATOM     19  C   UNL     1      36.293  11.473  19.476  1.00  0.00     0.005 C 
ATOM     20  C   UNL     1      37.350  11.573  20.610  1.00  0.00     0.003 C 
ATOM     21  C   UNL     1      37.005  10.265  22.801  1.00  0.00     0.031 C 
ATOM     22  C   UNL     1      38.604  10.601  20.428  1.00  0.00    -0.008 C 
ATOM     23  C   UNL     1      38.497  10.109  22.875  1.00  0.00    -0.027 C 
ATOM     24  C   UNL     1      39.273  10.368  21.800  1.00  0.00    -0.065 C 
ATOM     25  C   UNL     1      39.580  11.236  19.372  1.00  0.00     0.014 C 
ATOM     26  C   UNL     1      38.224   9.190  19.891  1.00  0.00     0.016 C 
ATOM     27  C   UNL     1      40.767  10.487  22.046  1.00  0.00     0.063 C 
ATOM     28  C   UNL     1      40.786  11.939  19.989  1.00  0.00     0.033 C 
ATOM     29  C   UNL     1      41.589  10.953  20.837  1.00  0.00     0.118 C 
BRANCH  29  30
ATOM     30  O   UNL     1      41.983   9.853  20.056  1.00  0.00    -0.393 OA
ATOM     31  H   UNL     1      42.540  10.210  19.314  1.00  0.00     0.210 HD
ENDBRANCH  29  30
ENDBRANCH   9  11
ENDBRANCH   1   9
TORSDOF 7
ENDMDL
MODEL 2
REMARK VINA RESULT:    -4.638      2.703      7.516
REMARK INTER + INTRA:          -8.106
REMARK INTER:                  -5.511
REMARK INTRA:                  -2.595
REMARK UNBOUND:                -1.706
REMARK SMILES CC[C@H](CC[C@@H](C)[C@@H]1CC[C@H]2[C@H]3CC=C4C[C@@H](O)CC[C@]4(C)[C@H]3CC[C@]21C)C(C)C
REMARK SMILES IDX 5 1 4 2 3 3 2 4 1 5 28 6 29 7 30 8 6 9 7 10 8 11 9 12 26 13
REMARK SMILES IDX 10 14 11 15 25 16 27 17 12 18 24 19 23 20 13 21 21 22 14 23
REMARK SMILES IDX 15 24 20 25 22 26 16 27 19 28 17 29 18 30
REMARK H PARENT 18 31
REMARK Flexibility Score: inf
ROOT
ATOM      1  C   UNL     1      41.466   8.821  19.597  1.00  0.00     0.004 C 
ENDROOT
BRANCH   1   2
ATOM      2  C   UNL     1      42.175  10.192  19.690  1.00  0.00     0.004 C 
BRANCH   2   3
ATOM      3  C   UNL     1      41.229  11.408  19.901  1.00  0.00    -0.009 C 
BRANCH   3   4
ATOM      4  C   UNL     1      39.729  11.010  19.733  1.00  0.00     0.000 C 
ATOM      5  C   UNL     1      39.008  11.887  18.708  1.00  0.00     0.004 C 
ENDBRANCH   3   4
BRANCH   3   6
ATOM      6  C   UNL     1      41.539  12.125  21.255  1.00  0.00    -0.014 C 
ATOM      7  C   UNL     1      42.966  11.883  21.784  1.00  0.00     0.007 C 
ATOM      8  C   UNL     1      40.503  11.787  22.338  1.00  0.00     0.007 C 
ENDBRANCH   3   6
ENDBRANCH   2   3
ENDBRANCH   1   2
BRANCH   1   9
ATOM      9  C   UNL     1      41.458   7.945  20.884  1.00  0.00    -0.011 C 
ATOM     10  C   UNL     1      42.725   8.229  21.726  1.00  0.00     0.008 C 
BRANCH   9  11
ATOM     11  C   UNL     1      40.167   8.198  21.745  1.00  0.00    -0.002 C 
ATOM     12  C   UNL     1      40.446   8.122  23.262  1.00  0.00     0.005 C 
ATOM     13  C   UNL     1      38.924   7.271  21.524  1.00  0.00    -0.026 C 
ATOM     14  C   UNL     1      39.193   7.591  23.950  1.00  0.00     0.005 C 
ATOM     15  C   UNL     1      38.138   7.395  22.861  1.00  0.00    -0.001 C 
ATOM     16  C   UNL     1      38.037   7.699  20.310  1.00  0.00     0.007 C 
ATOM     17  C   UNL     1      39.351   5.785  21.349  1.00  0.00     0.012 C 
ATOM     18  C   UNL     1      37.003   8.474  22.873  1.00  0.00     0.000 C 
ATOM     19  C   UNL     1      36.548   7.409  20.551  1.00  0.00     0.005 C 
ATOM     20  C   UNL     1      35.961   8.252  21.716  1.00  0.00     0.003 C 
ATOM     21  C   UNL     1      37.458   9.946  22.950  1.00  0.00     0.031 C 
ATOM     22  C   UNL     1      35.165   9.555  21.251  1.00  0.00    -0.008 C 
ATOM     23  C   UNL     1      36.240  10.806  23.127  1.00  0.00    -0.027 C 
ATOM     24  C   UNL     1      35.117  10.569  22.414  1.00  0.00    -0.065 C 
ATOM     25  C   UNL     1      33.737   9.120  20.759  1.00  0.00     0.014 C 
ATOM     26  C   UNL     1      35.836  10.301  20.060  1.00  0.00     0.016 C 
ATOM     27  C   UNL     1      33.852  11.274  22.873  1.00  0.00     0.063 C 
ATOM     28  C   UNL     1      32.631   9.361  21.784  1.00  0.00     0.033 C 
ATOM     29  C   UNL     1      32.570  10.844  22.149  1.00  0.00     0.118 C 
BRANCH  29  30
ATOM     30  O   UNL     1      32.373  11.618  20.993  1.00  0.00    -0.393 OA
ATOM     31  H   UNL     1      31.471  11.391  20.643  1.00  0.00     0.210 HD
ENDBRANCH  29  30
ENDBRANCH   9  11
ENDBRANCH   1   9
TORSDOF 7
ENDMDL
MODEL 3
REMARK VINA RESULT:    -4.571      2.015      2.811
REMARK INTER + INTRA:          -8.015
REMARK INTER:                  -6.086
REMARK INTRA:                  -1.929
REMARK UNBOUND:                -1.706
REMARK SMILES CC[C@H](CC[C@@H](C)[C@@H]1CC[C@H]2[C@H]3CC=C4C[C@@H](O)CC[C@]4(C)[C@H]3CC[C@]21C)C(C)C
REMARK SMILES IDX 5 1 4 2 3 3 2 4 1 5 28 6 29 7 30 8 6 9 7 10 8 11 9 12 26 13
REMARK SMILES IDX 10 14 11 15 25 16 27 17 12 18 24 19 23 20 13 21 21 22 14 23
REMARK SMILES IDX 15 24 20 25 22 26 16 27 19 28 17 29 18 30
REMARK H PARENT 18 31
REMARK Flexibility Score: inf
ROOT
ATOM      1  C   UNL     1      32.149   8.776  22.124  1.00  0.00     0.004 C 
ENDROOT
BRANCH   1   2
ATOM      2  C   UNL     1      32.047   8.009  20.785  1.00  0.00     0.004 C 
BRANCH   2   3
ATOM      3  C   UNL     1      32.785   6.641  20.754  1.00  0.00    -0.009 C 
BRANCH   3   4
ATOM      4  C   UNL     1      31.968   5.527  21.481  1.00  0.00     0.000 C 
ATOM      5  C   UNL     1      32.868   4.432  22.057  1.00  0.00     0.004 C 
ENDBRANCH   3   4
BRANCH   3   6
ATOM      6  C   UNL     1      33.194   6.264  19.292  1.00  0.00    -0.014 C 
ATOM      7  C   UNL     1      34.638   5.743  19.157  1.00  0.00     0.007 C 
ATOM      8  C   UNL     1      32.948   7.416  18.308  1.00  0.00     0.007 C 
ENDBRANCH   3   6
ENDBRANCH   2   3
ENDBRANCH   1   2
BRANCH   1   9
ATOM      9  C   UNL     1      32.695  10.233  22.059  1.00  0.00    -0.011 C 
ATOM     10  C   UNL     1      31.934  11.129  23.066  1.00  0.00     0.008 C 
BRANCH   9  11
ATOM     11  C   UNL     1      34.239  10.284  22.350  1.00  0.00    -0.002 C 
ATOM     12  C   UNL     1      34.629  11.465  23.265  1.00  0.00     0.005 C 
ATOM     13  C   UNL     1      35.228  10.378  21.138  1.00  0.00    -0.026 C 
ATOM     14  C   UNL     1      36.030  11.924  22.878  1.00  0.00     0.005 C 
ATOM     15  C   UNL     1      36.513  10.991  21.767  1.00  0.00    -0.001 C 
ATOM     16  C   UNL     1      35.532   8.996  20.475  1.00  0.00     0.007 C 
ATOM     17  C   UNL     1      34.701  11.363  20.055  1.00  0.00     0.012 C 
ATOM     18  C   UNL     1      37.592   9.954  22.229  1.00  0.00     0.000 C 
ATOM     19  C   UNL     1      36.968   8.918  19.934  1.00  0.00     0.005 C 
ATOM     20  C   UNL     1      38.031   8.996  21.064  1.00  0.00     0.003 C 
ATOM     21  C   UNL     1      37.279   9.170  23.520  1.00  0.00     0.031 C 
ATOM     22  C   UNL     1      38.611   7.580  21.522  1.00  0.00    -0.008 C 
ATOM     23  C   UNL     1      38.493   8.368  23.889  1.00  0.00    -0.027 C 
ATOM     24  C   UNL     1      39.194   7.703  22.946  1.00  0.00    -0.065 C 
ATOM     25  C   UNL     1      39.674   7.109  20.464  1.00  0.00     0.014 C 
ATOM     26  C   UNL     1      37.531   6.461  21.595  1.00  0.00     0.016 C 
ATOM     27  C   UNL     1      40.564   7.184  23.349  1.00  0.00     0.063 C 
ATOM     28  C   UNL     1      41.120   7.335  20.898  1.00  0.00     0.033 C 
ATOM     29  C   UNL     1      41.396   6.591  22.204  1.00  0.00     0.118 C 
BRANCH  29  30
ATOM     30  O   UNL     1      41.117   5.222  22.049  1.00  0.00    -0.393 OA
ATOM     31  H   UNL     1      41.528   4.755  22.824  1.00  0.00     0.210 HD
ENDBRANCH  29  30
ENDBRANCH   9  11
ENDBRANCH   1   9
TORSDOF 7
ENDMDL
MODEL 4
REMARK VINA RESULT:    -4.333      1.700      4.783
REMARK INTER + INTRA:          -7.685
REMARK INTER:                  -5.368
REMARK INTRA:                  -2.317
REMARK UNBOUND:                -1.706
REMARK SMILES CC[C@H](CC[C@@H](C)[C@@H]1CC[C@H]2[C@H]3CC=C4C[C@@H](O)CC[C@]4(C)[C@H]3CC[C@]21C)C(C)C
REMARK SMILES IDX 5 1 4 2 3 3 2 4 1 5 28 6 29 7 30 8 6 9 7 10 8 11 9 12 26 13
REMARK SMILES IDX 10 14 11 15 25 16 27 17 12 18 24 19 23 20 13 21 21 22 14 23
REMARK SMILES IDX 15 24 20 25 22 26 16 27 19 28 17 29 18 30
REMARK H PARENT 18 31
REMARK Flexibility Score: inf
ROOT
ATOM      1  C   UNL     1      33.244   7.031  20.831  1.00  0.00     0.004 C 
ENDROOT
BRANCH   1   2
ATOM      2  C   UNL     1      32.819   8.512  20.693  1.00  0.00     0.004 C 
BRANCH   2   3
ATOM      3  C   UNL     1      33.682   9.521  21.502  1.00  0.00    -0.009 C 
BRANCH   3   4
ATOM      4  C   UNL     1      34.729  10.242  20.597  1.00  0.00     0.000 C 
ATOM      5  C   UNL     1      34.238  10.400  19.157  1.00  0.00     0.004 C 
ENDBRANCH   3   4
BRANCH   3   6
ATOM      6  C   UNL     1      32.774  10.503  22.313  1.00  0.00    -0.014 C 
ATOM      7  C   UNL     1      33.524  11.308  23.392  1.00  0.00     0.007 C 
ATOM      8  C   UNL     1      31.558   9.794  22.924  1.00  0.00     0.007 C 
ENDBRANCH   3   6
ENDBRANCH   2   3
ENDBRANCH   1   2
BRANCH   1   9
ATOM      9  C   UNL     1      34.025   6.411  19.635  1.00  0.00    -0.011 C 
ATOM     10  C   UNL     1      33.273   6.687  18.311  1.00  0.00     0.008 C 
BRANCH   9  11
ATOM     11  C   UNL     1      35.491   6.972  19.551  1.00  0.00    -0.002 C 
ATOM     12  C   UNL     1      36.088   6.854  18.131  1.00  0.00     0.005 C 
ATOM     13  C   UNL     1      36.584   6.361  20.493  1.00  0.00    -0.026 C 
ATOM     14  C   UNL     1      37.592   6.642  18.264  1.00  0.00     0.005 C 
ATOM     15  C   UNL     1      37.917   6.685  19.758  1.00  0.00    -0.001 C 
ATOM     16  C   UNL     1      36.575   6.969  21.932  1.00  0.00     0.007 C 
ATOM     17  C   UNL     1      36.446   4.814  20.588  1.00  0.00     0.012 C 
ATOM     18  C   UNL     1      38.632   8.001  20.216  1.00  0.00     0.000 C 
ATOM     19  C   UNL     1      37.985   7.041  22.539  1.00  0.00     0.005 C 
ATOM     20  C   UNL     1      38.914   8.014  21.763  1.00  0.00     0.003 C 
ATOM     21  C   UNL     1      37.996   9.325  19.745  1.00  0.00     0.031 C 
ATOM     22  C   UNL     1      39.050   9.462  22.422  1.00  0.00    -0.008 C 
ATOM     23  C   UNL     1      38.913  10.449  20.132  1.00  0.00    -0.027 C 
ATOM     24  C   UNL     1      39.502  10.474  21.348  1.00  0.00    -0.065 C 
ATOM     25  C   UNL     1      40.049   9.368  23.633  1.00  0.00     0.014 C 
ATOM     26  C   UNL     1      37.710  10.012  22.994  1.00  0.00     0.016 C 
ATOM     27  C   UNL     1      40.639  11.463  21.538  1.00  0.00     0.063 C 
ATOM     28  C   UNL     1      41.453   9.876  23.316  1.00  0.00     0.033 C 
ATOM     29  C   UNL     1      41.392  11.337  22.869  1.00  0.00     0.118 C 
BRANCH  29  30
ATOM     30  O   UNL     1      40.778  12.120  23.860  1.00  0.00    -0.393 OA
ATOM     31  H   UNL     1      40.088  11.550  24.293  1.00  0.00     0.210 HD
ENDBRANCH  29  30
ENDBRANCH   9  11
ENDBRANCH   1   9
TORSDOF 7
ENDMDL
MODEL 5
REMARK VINA RESULT:    -4.283      3.119      7.600
REMARK INTER + INTRA:          -7.617
REMARK INTER:                  -5.821
REMARK INTRA:                  -1.796
REMARK UNBOUND:                -1.706
REMARK SMILES CC[C@H](CC[C@@H](C)[C@@H]1CC[C@H]2[C@H]3CC=C4C[C@@H](O)CC[C@]4(C)[C@H]3CC[C@]21C)C(C)C
REMARK SMILES IDX 5 1 4 2 3 3 2 4 1 5 28 6 29 7 30 8 6 9 7 10 8 11 9 12 26 13
REMARK SMILES IDX 10 14 11 15 25 16 27 17 12 18 24 19 23 20 13 21 21 22 14 23
REMARK SMILES IDX 15 24 20 25 22 26 16 27 19 28 17 29 18 30
REMARK H PARENT 18 31
REMARK Flexibility Score: inf
ROOT
ATOM      1  C   UNL     1      35.796   9.846  22.609  1.00  0.00     0.004 C 
ENDROOT
BRANCH   1   2
ATOM      2  C   UNL     1      37.256  10.184  22.988  1.00  0.00     0.004 C 
BRANCH   2   3
ATOM      3  C   UNL     1      38.265   9.010  22.832  1.00  0.00    -0.009 C 
BRANCH   3   4
ATOM      4  C   UNL     1      39.712   9.433  23.236  1.00  0.00     0.000 C 
ATOM      5  C   UNL     1      40.001  10.897  22.901  1.00  0.00     0.004 C 
ENDBRANCH   3   4
BRANCH   3   6
ATOM      6  C   UNL     1      37.753   7.736  23.579  1.00  0.00    -0.014 C 
ATOM      7  C   UNL     1      38.596   7.347  24.810  1.00  0.00     0.007 C 
ATOM      8  C   UNL     1      37.601   6.534  22.635  1.00  0.00     0.007 C 
ENDBRANCH   3   6
ENDBRANCH   2   3
ENDBRANCH   1   2
BRANCH   1   9
ATOM      9  C   UNL     1      35.417   9.956  21.103  1.00  0.00    -0.011 C 
ATOM     10  C   UNL     1      36.413  10.891  20.374  1.00  0.00     0.008 C 
BRANCH   9  11
ATOM     11  C   UNL     1      35.393   8.546  20.409  1.00  0.00    -0.002 C 
ATOM     12  C   UNL     1      36.520   8.381  19.367  1.00  0.00     0.005 C 
ATOM     13  C   UNL     1      34.091   8.102  19.659  1.00  0.00    -0.026 C 
ATOM     14  C   UNL     1      36.013   7.464  18.260  1.00  0.00     0.005 C 
ATOM     15  C   UNL     1      34.601   7.029  18.654  1.00  0.00    -0.001 C 
ATOM     16  C   UNL     1      32.999   7.508  20.607  1.00  0.00     0.007 C 
ATOM     17  C   UNL     1      33.479   9.277  18.844  1.00  0.00     0.012 C 
ATOM     18  C   UNL     1      34.507   5.547  19.151  1.00  0.00     0.000 C 
ATOM     19  C   UNL     1      32.182   6.400  19.925  1.00  0.00     0.005 C 
ATOM     20  C   UNL     1      33.045   5.156  19.578  1.00  0.00     0.003 C 
ATOM     21  C   UNL     1      35.541   5.113  20.211  1.00  0.00     0.031 C 
ATOM     22  C   UNL     1      32.934   3.962  20.631  1.00  0.00    -0.008 C 
ATOM     23  C   UNL     1      35.401   3.633  20.425  1.00  0.00    -0.027 C 
ATOM     24  C   UNL     1      34.182   3.060  20.517  1.00  0.00    -0.065 C 
ATOM     25  C   UNL     1      31.592   3.186  20.369  1.00  0.00     0.014 C 
ATOM     26  C   UNL     1      32.887   4.442  22.112  1.00  0.00     0.016 C 
ATOM     27  C   UNL     1      34.128   1.545  20.419  1.00  0.00     0.063 C 
ATOM     28  C   UNL     1      31.773   1.884  19.593  1.00  0.00     0.033 C 
ATOM     29  C   UNL     1      32.715   0.949  20.352  1.00  0.00     0.118 C 
BRANCH  29  30
ATOM     30  O   UNL     1      32.219   0.709  21.645  1.00  0.00    -0.393 OA
ATOM     31  H   UNL     1      31.265   0.451  21.545  1.00  0.00     0.210 HD
ENDBRANCH  29  30
ENDBRANCH   9  11
ENDBRANCH   1   9
TORSDOF 7
ENDMDL
MODEL 6
REMARK VINA RESULT:    -4.270      2.842      7.539
REMARK INTER + INTRA:          -7.599
REMARK INTER:                  -5.455
REMARK INTRA:                  -2.143
REMARK UNBOUND:                -1.706
REMARK SMILES CC[C@H](CC[C@@H](C)[C@@H]1CC[C@H]2[C@H]3CC=C4C[C@@H](O)CC[C@]4(C)[C@H]3CC[C@]21C)C(C)C
REMARK SMILES IDX 5 1 4 2 3 3 2 4 1 5 28 6 29 7 30 8 6 9 7 10 8 11 9 12 26 13
REMARK SMILES IDX 10 14 11 15 25 16 27 17 12 18 24 19 23 20 13 21 21 22 14 23
REMARK SMILES IDX 15 24 20 25 22 26 16 27 19 28 17 29 18 30
REMARK H PARENT 18 31
REMARK Flexibility Score: inf
ROOT
ATOM      1  C   UNL     1      41.239  12.058  20.215  1.00  0.00     0.004 C 
ENDROOT
BRANCH   1   2
ATOM      2  C   UNL     1      41.350  12.125  18.674  1.00  0.00     0.004 C 
BRANCH   2   3
ATOM      3  C   UNL     1      40.820  10.871  17.922  1.00  0.00    -0.009 C 
BRANCH   3   4
ATOM      4  C   UNL     1      39.665  11.233  16.936  1.00  0.00     0.000 C 
ATOM      5  C   UNL     1      38.504  11.937  17.639  1.00  0.00     0.004 C 
ENDBRANCH   3   4
BRANCH   3   6
ATOM      6  C   UNL     1      41.996  10.089  17.249  1.00  0.00    -0.014 C 
ATOM      7  C   UNL     1      42.334   8.750  17.931  1.00  0.00     0.007 C 
ATOM      8  C   UNL     1      43.258  10.952  17.110  1.00  0.00     0.007 C 
ENDBRANCH   3   6
ENDBRANCH   2   3
ENDBRANCH   1   2
BRANCH   1   9
ATOM      9  C   UNL     1      41.401  10.656  20.871  1.00  0.00    -0.011 C 
ATOM     10  C   UNL     1      42.660  10.634  21.770  1.00  0.00     0.008 C 
BRANCH   9  11
ATOM     11  C   UNL     1      40.131  10.260  21.708  1.00  0.00    -0.002 C 
ATOM     12  C   UNL     1      40.479   9.877  23.163  1.00  0.00     0.005 C 
ATOM     13  C   UNL     1      39.228   9.087  21.194  1.00  0.00    -0.026 C 
ATOM     14  C   UNL     1      39.481   8.822  23.629  1.00  0.00     0.005 C 
ATOM     15  C   UNL     1      38.496   8.605  22.479  1.00  0.00    -0.001 C 
ATOM     16  C   UNL     1      38.205   9.525  20.096  1.00  0.00     0.007 C 
ATOM     17  C   UNL     1      40.087   7.908  20.654  1.00  0.00     0.012 C 
ATOM     18  C   UNL     1      37.083   9.236  22.722  1.00  0.00     0.000 C 
ATOM     19  C   UNL     1      36.890   8.736  20.184  1.00  0.00     0.005 C 
ATOM     20  C   UNL     1      36.117   9.018  21.502  1.00  0.00     0.003 C 
ATOM     21  C   UNL     1      37.063  10.701  23.205  1.00  0.00     0.031 C 
ATOM     22  C   UNL     1      34.939  10.085  21.360  1.00  0.00    -0.008 C 
ATOM     23  C   UNL     1      35.646  11.063  23.546  1.00  0.00    -0.027 C 
ATOM     24  C   UNL     1      34.625  10.688  22.746  1.00  0.00    -0.065 C 
ATOM     25  C   UNL     1      33.697   9.376  20.706  1.00  0.00     0.014 C 
ATOM     26  C   UNL     1      35.298  11.288  20.439  1.00  0.00     0.016 C 
ATOM     27  C   UNL     1      33.223  10.821  23.316  1.00  0.00     0.063 C 
ATOM     28  C   UNL     1      32.613   8.983  21.706  1.00  0.00     0.033 C 
ATOM     29  C   UNL     1      32.110  10.223  22.445  1.00  0.00     0.118 C 
BRANCH  29  30
ATOM     30  O   UNL     1      31.637  11.175  21.526  1.00  0.00    -0.393 OA
ATOM     31  H   UNL     1      30.824  11.583  21.926  1.00  0.00     0.210 HD
ENDBRANCH  29  30
ENDBRANCH   9  11
ENDBRANCH   1   9
TORSDOF 7
ENDMDL
MODEL 7
REMARK VINA RESULT:    -4.250      2.784      7.053
REMARK INTER + INTRA:          -7.572
REMARK INTER:                  -5.025
REMARK INTRA:                  -2.547
REMARK UNBOUND:                -1.706
REMARK SMILES CC[C@H](CC[C@@H](C)[C@@H]1CC[C@H]2[C@H]3CC=C4C[C@@H](O)CC[C@]4(C)[C@H]3CC[C@]21C)C(C)C
REMARK SMILES IDX 5 1 4 2 3 3 2 4 1 5 28 6 29 7 30 8 6 9 7 10 8 11 9 12 26 13
REMARK SMILES IDX 10 14 11 15 25 16 27 17 12 18 24 19 23 20 13 21 21 22 14 23
REMARK SMILES IDX 15 24 20 25 22 26 16 27 19 28 17 29 18 30
REMARK H PARENT 18 31
REMARK Flexibility Score: inf
ROOT
ATOM      1  C   UNL     1      40.264   8.107  18.045  1.00  0.00     0.004 C 
ENDROOT
BRANCH   1   2
ATOM      2  C   UNL     1      40.234   9.653  18.084  1.00  0.00     0.004 C 
BRANCH   2   3
ATOM      3  C   UNL     1      38.842  10.276  18.390  1.00  0.00    -0.009 C 
BRANCH   3   4
ATOM      4  C   UNL     1      38.895  11.230  19.624  1.00  0.00     0.000 C 
ATOM      5  C   UNL     1      40.289  11.291  20.250  1.00  0.00     0.004 C 
ENDBRANCH   3   4
BRANCH   3   6
ATOM      6  C   UNL     1      38.238  10.940  17.110  1.00  0.00    -0.014 C 
ATOM      7  C   UNL     1      37.021  10.196  16.528  1.00  0.00     0.007 C 
ATOM      8  C   UNL     1      39.297  11.165  16.021  1.00  0.00     0.007 C 
ENDBRANCH   3   6
ENDBRANCH   2   3
ENDBRANCH   1   2
BRANCH   1   9
ATOM      9  C   UNL     1      40.623   7.378  19.373  1.00  0.00    -0.011 C 
ATOM     10  C   UNL     1      42.028   7.814  19.854  1.00  0.00     0.008 C 
BRANCH   9  11
ATOM     11  C   UNL     1      39.556   7.661  20.493  1.00  0.00    -0.002 C 
ATOM     12  C   UNL     1      40.134   7.491  21.915  1.00  0.00     0.005 C 
ATOM     13  C   UNL     1      38.234   6.820  20.498  1.00  0.00    -0.026 C 
ATOM     14  C   UNL     1      39.015   6.999  22.827  1.00  0.00     0.005 C 
ATOM     15  C   UNL     1      37.748   6.921  21.974  1.00  0.00    -0.001 C 
ATOM     16  C   UNL     1      37.149   7.362  19.513  1.00  0.00     0.007 C 
ATOM     17  C   UNL     1      38.514   5.323  20.182  1.00  0.00     0.012 C 
ATOM     18  C   UNL     1      36.715   8.062  22.262  1.00  0.00     0.000 C 
ATOM     19  C   UNL     1      35.724   7.147  20.046  1.00  0.00     0.005 C 
ATOM     20  C   UNL     1      35.447   7.962  21.340  1.00  0.00     0.003 C 
ATOM     21  C   UNL     1      37.276   9.499  22.300  1.00  0.00     0.031 C 
ATOM     22  C   UNL     1      34.662   9.332  21.100  1.00  0.00    -0.008 C 
ATOM     23  C   UNL     1      36.180  10.418  22.759  1.00  0.00    -0.027 C 
ATOM     24  C   UNL     1      34.922  10.285  22.286  1.00  0.00    -0.065 C 
ATOM     25  C   UNL     1      33.137   9.006  20.899  1.00  0.00     0.014 C 
ATOM     26  C   UNL     1      35.125  10.097  19.825  1.00  0.00     0.016 C 
ATOM     27  C   UNL     1      33.829  11.038  23.025  1.00  0.00     0.063 C 
ATOM     28  C   UNL     1      32.284   9.258  22.139  1.00  0.00     0.033 C 
ATOM     29  C   UNL     1      32.399  10.721  22.566  1.00  0.00     0.118 C 
BRANCH  29  30
ATOM     30  O   UNL     1      32.023  11.565  21.507  1.00  0.00    -0.393 OA
ATOM     31  H   UNL     1      31.489  11.015  20.875  1.00  0.00     0.210 HD
ENDBRANCH  29  30
ENDBRANCH   9  11
ENDBRANCH   1   9
TORSDOF 7
ENDMDL
MODEL 8
REMARK VINA RESULT:    -4.246      3.424      8.626
REMARK INTER + INTRA:          -7.565
REMARK INTER:                  -6.140
REMARK INTRA:                  -1.425
REMARK UNBOUND:                -1.706
REMARK SMILES CC[C@H](CC[C@@H](C)[C@@H]1CC[C@H]2[C@H]3CC=C4C[C@@H](O)CC[C@]4(C)[C@H]3CC[C@]21C)C(C)C
REMARK SMILES IDX 5 1 4 2 3 3 2 4 1 5 28 6 29 7 30 8 6 9 7 10 8 11 9 12 26 13
REMARK SMILES IDX 10 14 11 15 25 16 27 17 12 18 24 19 23 20 13 21 21 22 14 23
REMARK SMILES IDX 15 24 20 25 22 26 16 27 19 28 17 29 18 30
REMARK H PARENT 18 31
REMARK Flexibility Score: inf
ROOT
ATOM      1  C   UNL     1      35.134   8.326  20.489  1.00  0.00     0.004 C 
ENDROOT
BRANCH   1   2
ATOM      2  C   UNL     1      35.951   9.539  20.992  1.00  0.00     0.004 C 
BRANCH   2   3
ATOM      3  C   UNL     1      35.790   9.858  22.506  1.00  0.00    -0.009 C 
BRANCH   3   4
ATOM      4  C   UNL     1      37.170   9.922  23.233  1.00  0.00     0.000 C 
ATOM      5  C   UNL     1      37.970   8.629  23.072  1.00  0.00     0.004 C 
ENDBRANCH   3   4
BRANCH   3   6
ATOM      6  C   UNL     1      34.912  11.135  22.714  1.00  0.00    -0.014 C 
ATOM      7  C   UNL     1      33.431  10.838  23.021  1.00  0.00     0.007 C 
ATOM      8  C   UNL     1      35.029  12.114  21.537  1.00  0.00     0.007 C 
ENDBRANCH   3   6
ENDBRANCH   2   3
ENDBRANCH   1   2
BRANCH   1   9
ATOM      9  C   UNL     1      33.656   8.595  20.082  1.00  0.00    -0.011 C 
ATOM     10  C   UNL     1      33.595   9.723  19.024  1.00  0.00     0.008 C 
BRANCH   9  11
ATOM     11  C   UNL     1      32.965   7.296  19.527  1.00  0.00    -0.002 C 
ATOM     12  C   UNL     1      32.018   7.591  18.343  1.00  0.00     0.005 C 
ATOM     13  C   UNL     1      32.112   6.423  20.509  1.00  0.00    -0.026 C 
ATOM     14  C   UNL     1      30.875   6.583  18.386  1.00  0.00     0.005 C 
ATOM     15  C   UNL     1      31.154   5.644  19.561  1.00  0.00    -0.001 C 
ATOM     16  C   UNL     1      32.968   5.440  21.371  1.00  0.00     0.007 C 
ATOM     17  C   UNL     1      31.247   7.310  21.450  1.00  0.00     0.012 C 
ATOM     18  C   UNL     1      31.644   4.219  19.136  1.00  0.00     0.000 C 
ATOM     19  C   UNL     1      32.224   4.127  21.663  1.00  0.00     0.005 C 
ATOM     20  C   UNL     1      31.951   3.303  20.375  1.00  0.00     0.003 C 
ATOM     21  C   UNL     1      32.785   4.169  18.099  1.00  0.00     0.031 C 
ATOM     22  C   UNL     1      32.994   2.123  20.115  1.00  0.00    -0.008 C 
ATOM     23  C   UNL     1      32.990   2.738  17.694  1.00  0.00    -0.027 C 
ATOM     24  C   UNL     1      32.983   1.751  18.616  1.00  0.00    -0.065 C 
ATOM     25  C   UNL     1      32.624   0.913  21.048  1.00  0.00     0.014 C 
ATOM     26  C   UNL     1      34.465   2.509  20.450  1.00  0.00     0.016 C 
ATOM     27  C   UNL     1      32.884   0.327  18.096  1.00  0.00     0.063 C 
ATOM     28  C   UNL     1      31.868  -0.207  20.337  1.00  0.00     0.033 C 
ATOM     29  C   UNL     1      32.703  -0.747  19.176  1.00  0.00     0.118 C 
BRANCH  29  30
ATOM     30  O   UNL     1      33.951  -1.191  19.644  1.00  0.00    -0.393 OA
ATOM     31  H   UNL     1      33.845  -2.149  19.886  1.00  0.00     0.210 HD
ENDBRANCH  29  30
ENDBRANCH   9  11
ENDBRANCH   1   9
TORSDOF 7
ENDMDL
MODEL 9
REMARK VINA RESULT:    -4.159      2.820      6.499
REMARK INTER + INTRA:          -7.446
REMARK INTER:                  -5.003
REMARK INTRA:                  -2.442
REMARK UNBOUND:                -1.706
REMARK SMILES CC[C@H](CC[C@@H](C)[C@@H]1CC[C@H]2[C@H]3CC=C4C[C@@H](O)CC[C@]4(C)[C@H]3CC[C@]21C)C(C)C
REMARK SMILES IDX 5 1 4 2 3 3 2 4 1 5 28 6 29 7 30 8 6 9 7 10 8 11 9 12 26 13
REMARK SMILES IDX 10 14 11 15 25 16 27 17 12 18 24 19 23 20 13 21 21 22 14 23
REMARK SMILES IDX 15 24 20 25 22 26 16 27 19 28 17 29 18 30
REMARK H PARENT 18 31
REMARK Flexibility Score: inf
ROOT
ATOM      1  C   UNL     1      36.825  10.250  23.250  1.00  0.00     0.004 C 
ENDROOT
BRANCH   1   2
ATOM      2  C   UNL     1      37.830   9.170  22.786  1.00  0.00     0.004 C 
BRANCH   2   3
ATOM      3  C   UNL     1      37.199   7.792  22.435  1.00  0.00    -0.009 C 
BRANCH   3   4
ATOM      4  C   UNL     1      37.472   7.392  20.951  1.00  0.00     0.000 C 
ATOM      5  C   UNL     1      38.407   8.378  20.249  1.00  0.00     0.004 C 
ENDBRANCH   3   4
BRANCH   3   6
ATOM      6  C   UNL     1      37.635   6.702  23.467  1.00  0.00    -0.014 C 
ATOM      7  C   UNL     1      38.376   7.261  24.698  1.00  0.00     0.007 C 
ATOM      8  C   UNL     1      38.457   5.582  22.812  1.00  0.00     0.007 C 
ENDBRANCH   3   6
ENDBRANCH   2   3
ENDBRANCH   1   2
BRANCH   1   9
ATOM      9  C   UNL     1      36.427  11.334  22.205  1.00  0.00    -0.011 C 
ATOM     10  C   UNL     1      37.681  12.124  21.758  1.00  0.00     0.008 C 
BRANCH   9  11
ATOM     11  C   UNL     1      35.716  10.697  20.956  1.00  0.00    -0.002 C 
ATOM     12  C   UNL     1      35.919  11.531  19.672  1.00  0.00     0.005 C 
ATOM     13  C   UNL     1      34.171  10.442  21.022  1.00  0.00    -0.026 C 
ATOM     14  C   UNL     1      34.680  11.370  18.799  1.00  0.00     0.005 C 
ATOM     15  C   UNL     1      33.748  10.398  19.525  1.00  0.00    -0.001 C 
ATOM     16  C   UNL     1      33.792   9.112  21.750  1.00  0.00     0.007 C 
ATOM     17  C   UNL     1      33.430  11.629  21.702  1.00  0.00     0.012 C 
ATOM     18  C   UNL     1      33.692   8.970  18.885  1.00  0.00     0.000 C 
ATOM     19  C   UNL     1      32.534   8.462  21.151  1.00  0.00     0.005 C 
ATOM     20  C   UNL     1      32.750   7.998  19.684  1.00  0.00     0.003 C 
ATOM     21  C   UNL     1      35.050   8.309  18.568  1.00  0.00     0.031 C 
ATOM     22  C   UNL     1      33.075   6.444  19.526  1.00  0.00    -0.008 C 
ATOM     23  C   UNL     1      34.788   7.040  17.809  1.00  0.00    -0.027 C 
ATOM     24  C   UNL     1      33.794   6.205  18.181  1.00  0.00    -0.065 C 
ATOM     25  C   UNL     1      31.732   5.636  19.654  1.00  0.00     0.014 C 
ATOM     26  C   UNL     1      34.030   5.894  20.626  1.00  0.00     0.016 C 
ATOM     27  C   UNL     1      33.402   5.122  17.189  1.00  0.00     0.063 C 
ATOM     28  C   UNL     1      31.150   5.189  18.315  1.00  0.00     0.033 C 
ATOM     29  C   UNL     1      32.158   4.310  17.574  1.00  0.00     0.118 C 
BRANCH  29  30
ATOM     30  O   UNL     1      32.515   3.208  18.369  1.00  0.00    -0.393 OA
ATOM     31  H   UNL     1      33.267   3.501  18.948  1.00  0.00     0.210 HD
ENDBRANCH  29  30
ENDBRANCH   9  11
ENDBRANCH   1   9
TORSDOF 7
ENDMDL
