MODEL 1
REMARK VINA RESULT:    16.505      0.000      0.000
REMARK INTER + INTRA:          42.235
REMARK INTER:                  43.522
REMARK INTRA:                  -1.287
REMARK UNBOUND:                -1.287
REMARK SMILES CCCCCCCCCCCCCCCCCCCCCCCCCCCCCC(=O)[O-]
REMARK SMILES IDX 16 1 17 2 18 3 19 4 20 5 21 6 22 7 23 8 24 9 25 10 26 11
REMARK SMILES IDX 27 12 28 13 29 14 30 15 31 16 32 17 15 18 14 19 13 20 12 21
REMARK SMILES IDX 11 22 10 23 9 24 8 25 7 26 6 27 5 28 4 29 3 30 2 31 1 32
REMARK H PARENT
REMARK Flexibility Score: inf
ROOT
ATOM      1  C   UNL     1      -5.471  37.838  24.016  1.00  0.00     0.000 C 
ENDROOT
BRANCH   1   2
ATOM      2  C   UNL     1      -5.236  37.046  25.311  1.00  0.00     0.000 C 
BRANCH   2   3
ATOM      3  C   UNL     1      -5.137  37.960  26.546  1.00  0.00     0.000 C 
BRANCH   3   4
ATOM      4  C   UNL     1      -3.733  37.966  27.171  1.00  0.00     0.000 C 
BRANCH   4   5
ATOM      5  C   UNL     1      -2.766  37.007  26.456  1.00  0.00     0.000 C 
BRANCH   5   6
ATOM      6  C   UNL     1      -1.673  36.453  27.386  1.00  0.00     0.000 C 
BRANCH   6   7
ATOM      7  C   UNL     1      -2.187  35.732  28.646  1.00  0.00     0.000 C 
BRANCH   7   8
ATOM      8  C   UNL     1      -2.242  34.202  28.486  1.00  0.00     0.000 C 
BRANCH   8   9
ATOM      9  C   UNL     1      -1.503  33.464  29.624  1.00  0.00     0.000 C 
BRANCH   9  10
ATOM     10  C   UNL     1      -0.119  34.050  29.955  1.00  0.00     0.000 C 
BRANCH  10  11
ATOM     11  C   UNL     1       1.036  33.213  29.380  1.00  0.00     0.000 C 
BRANCH  11  12
ATOM     12  C   UNL     1       2.407  33.878  29.583  1.00  0.00     0.000 C 
BRANCH  12  13
ATOM     13  C   UNL     1       2.912  34.590  28.314  1.00  0.00     0.006 C 
BRANCH  13  14
ATOM     14  C   UNL     1       4.171  35.424  28.585  1.00  0.00     0.053 C 
BRANCH  14  15
ATOM     15  C   UNL     1       4.662  36.112  27.347  1.00  0.00     0.041 C 
ATOM     16  O   UNL     1       4.835  37.360  27.340  1.00  0.00    -0.550 OA
ATOM     17  O   UNL     1       4.919  35.377  26.197  1.00  0.00    -0.550 OA
ENDBRANCH  14  15
ENDBRANCH  13  14
ENDBRANCH  12  13
ENDBRANCH  11  12
ENDBRANCH  10  11
ENDBRANCH   9  10
ENDBRANCH   8   9
ENDBRANCH   7   8
ENDBRANCH   6   7
ENDBRANCH   5   6
ENDBRANCH   4   5
ENDBRANCH   3   4
ENDBRANCH   2   3
ENDBRANCH   1   2
BRANCH   1  18
ATOM     18  C   UNL     1      -5.032  39.310  24.140  1.00  0.00     0.000 C 
BRANCH  18  19
ATOM     19  C   UNL     1      -4.906  40.003  22.775  1.00  0.00     0.000 C 
BRANCH  19  20
ATOM     20  C   UNL     1      -6.110  39.739  21.857  1.00  0.00     0.000 C 
BRANCH  20  21
ATOM     21  C   UNL     1      -5.796  38.733  20.735  1.00  0.00     0.000 C 
BRANCH  21  22
ATOM     22  C   UNL     1      -4.454  37.992  20.913  1.00  0.00     0.000 C 
BRANCH  22  23
ATOM     23  C   UNL     1      -4.322  36.795  19.954  1.00  0.00     0.000 C 
BRANCH  23  24
ATOM     24  C   UNL     1      -5.452  35.763  20.123  1.00  0.00    -0.000 C 
BRANCH  24  25
ATOM     25  C   UNL     1      -5.109  34.336  19.648  1.00  0.00    -0.000 C 
BRANCH  25  26
ATOM     26  C   UNL     1      -5.717  33.940  18.291  1.00  0.00    -0.000 C 
BRANCH  26  27
ATOM     27  C   UNL     1      -5.416  34.961  17.178  1.00  0.00    -0.000 C 
BRANCH  27  28
ATOM     28  C   UNL     1      -3.925  35.317  17.091  1.00  0.00    -0.000 C 
BRANCH  28  29
ATOM     29  C   UNL     1      -3.351  35.125  15.675  1.00  0.00    -0.000 C 
BRANCH  29  30
ATOM     30  C   UNL     1      -4.217  35.807  14.595  1.00  0.00    -0.000 C 
BRANCH  30  31
ATOM     31  C   UNL     1      -3.552  37.044  13.965  1.00  0.00    -0.003 C 
ATOM     32  C   UNL     1      -4.103  38.361  14.509  1.00  0.00     0.004 C 
ENDBRANCH  30  31
ENDBRANCH  29  30
ENDBRANCH  28  29
ENDBRANCH  27  28
ENDBRANCH  26  27
ENDBRANCH  25  26
ENDBRANCH  24  25
ENDBRANCH  23  24
ENDBRANCH  22  23
ENDBRANCH  21  22
ENDBRANCH  20  21
ENDBRANCH  19  20
ENDBRANCH  18  19
ENDBRANCH   1  18
TORSDOF 28
ENDMDL
MODEL 2
REMARK VINA RESULT:    16.705      3.454     11.012
REMARK INTER + INTRA:          42.762
REMARK INTER:                  44.464
REMARK INTRA:                  -1.702
REMARK UNBOUND:                -1.287
REMARK SMILES CCCCCCCCCCCCCCCCCCCCCCCCCCCCCC(=O)[O-]
REMARK SMILES IDX 16 1 17 2 18 3 19 4 20 5 21 6 22 7 23 8 24 9 25 10 26 11
REMARK SMILES IDX 27 12 28 13 29 14 30 15 31 16 32 17 15 18 14 19 13 20 12 21
REMARK SMILES IDX 11 22 10 23 9 24 8 25 7 26 6 27 5 28 4 29 3 30 2 31 1 32
REMARK H PARENT
REMARK Flexibility Score: inf
ROOT
ATOM      1  C   UNL     1      -2.696  36.655  26.858  1.00  0.00     0.000 C 
ENDROOT
BRANCH   1   2
ATOM      2  C   UNL     1      -4.201  36.965  26.877  1.00  0.00     0.000 C 
BRANCH   2   3
ATOM      3  C   UNL     1      -4.709  37.480  25.518  1.00  0.00     0.000 C 
BRANCH   3   4
ATOM      4  C   UNL     1      -5.749  36.546  24.881  1.00  0.00     0.000 C 
BRANCH   4   5
ATOM      5  C   UNL     1      -6.125  35.369  25.796  1.00  0.00     0.000 C 
BRANCH   5   6
ATOM      6  C   UNL     1      -5.906  33.998  25.132  1.00  0.00     0.000 C 
BRANCH   6   7
ATOM      7  C   UNL     1      -6.122  33.965  23.608  1.00  0.00     0.000 C 
BRANCH   7   8
ATOM      8  C   UNL     1      -4.818  33.750  22.819  1.00  0.00     0.000 C 
BRANCH   8   9
ATOM      9  C   UNL     1      -4.476  34.950  21.908  1.00  0.00     0.000 C 
BRANCH   9  10
ATOM     10  C   UNL     1      -4.369  34.591  20.415  1.00  0.00     0.000 C 
BRANCH  10  11
ATOM     11  C   UNL     1      -5.312  35.426  19.532  1.00  0.00     0.000 C 
BRANCH  11  12
ATOM     12  C   UNL     1      -4.937  36.917  19.510  1.00  0.00     0.000 C 
BRANCH  12  13
ATOM     13  C   UNL     1      -5.462  37.677  20.743  1.00  0.00     0.006 C 
BRANCH  13  14
ATOM     14  C   UNL     1      -4.393  38.592  21.353  1.00  0.00     0.053 C 
BRANCH  14  15
ATOM     15  C   UNL     1      -4.991  39.618  22.268  1.00  0.00     0.041 C 
ATOM     16  O   UNL     1      -4.498  39.816  23.410  1.00  0.00    -0.550 OA
ATOM     17  O   UNL     1      -6.101  40.349  21.863  1.00  0.00    -0.550 OA
ENDBRANCH  14  15
ENDBRANCH  13  14
ENDBRANCH  12  13
ENDBRANCH  11  12
ENDBRANCH  10  11
ENDBRANCH   9  10
ENDBRANCH   8   9
ENDBRANCH   7   8
ENDBRANCH   6   7
ENDBRANCH   5   6
ENDBRANCH   4   5
ENDBRANCH   3   4
ENDBRANCH   2   3
ENDBRANCH   1   2
BRANCH   1  18
ATOM     18  C   UNL     1      -2.367  35.301  27.514  1.00  0.00     0.000 C 
BRANCH  18  19
ATOM     19  C   UNL     1      -1.910  35.450  28.974  1.00  0.00     0.000 C 
BRANCH  19  20
ATOM     20  C   UNL     1      -2.232  34.214  29.829  1.00  0.00     0.000 C 
BRANCH  20  21
ATOM     21  C   UNL     1      -0.970  33.475  30.309  1.00  0.00     0.000 C 
BRANCH  21  22
ATOM     22  C   UNL     1      -0.121  32.875  29.168  1.00  0.00     0.000 C 
BRANCH  22  23
ATOM     23  C   UNL     1       1.163  33.684  28.915  1.00  0.00     0.000 C 
BRANCH  23  24
ATOM     24  C   UNL     1       2.220  33.492  30.019  1.00  0.00    -0.000 C 
BRANCH  24  25
ATOM     25  C   UNL     1       3.636  33.987  29.660  1.00  0.00    -0.000 C 
BRANCH  25  26
ATOM     26  C   UNL     1       3.782  34.569  28.243  1.00  0.00    -0.000 C 
BRANCH  26  27
ATOM     27  C   UNL     1       4.194  36.053  28.245  1.00  0.00    -0.000 C 
BRANCH  27  28
ATOM     28  C   UNL     1       4.582  36.560  26.848  1.00  0.00    -0.000 C 
BRANCH  28  29
ATOM     29  C   UNL     1       4.607  38.097  26.759  1.00  0.00    -0.000 C 
BRANCH  29  30
ATOM     30  C   UNL     1       5.808  38.708  27.512  1.00  0.00    -0.000 C 
BRANCH  30  31
ATOM     31  C   UNL     1       6.662  39.649  26.644  1.00  0.00    -0.003 C 
ATOM     32  C   UNL     1       7.947  40.099  27.335  1.00  0.00     0.004 C 
ENDBRANCH  30  31
ENDBRANCH  29  30
ENDBRANCH  28  29
ENDBRANCH  27  28
ENDBRANCH  26  27
ENDBRANCH  25  26
ENDBRANCH  24  25
ENDBRANCH  23  24
ENDBRANCH  22  23
ENDBRANCH  21  22
ENDBRANCH  20  21
ENDBRANCH  19  20
ENDBRANCH  18  19
ENDBRANCH   1  18
TORSDOF 28
ENDMDL
MODEL 3
REMARK VINA RESULT:    17.170      1.180      2.868
REMARK INTER + INTRA:          43.987
REMARK INTER:                  45.192
REMARK INTRA:                  -1.206
REMARK UNBOUND:                -1.287
REMARK SMILES CCCCCCCCCCCCCCCCCCCCCCCCCCCCCC(=O)[O-]
REMARK SMILES IDX 16 1 17 2 18 3 19 4 20 5 21 6 22 7 23 8 24 9 25 10 26 11
REMARK SMILES IDX 27 12 28 13 29 14 30 15 31 16 32 17 15 18 14 19 13 20 12 21
REMARK SMILES IDX 11 22 10 23 9 24 8 25 7 26 6 27 5 28 4 29 3 30 2 31 1 32
REMARK H PARENT
REMARK Flexibility Score: inf
ROOT
ATOM      1  C   UNL     1      -3.403  37.635  26.058  1.00  0.00     0.000 C 
ENDROOT
BRANCH   1   2
ATOM      2  C   UNL     1      -3.381  36.751  27.314  1.00  0.00     0.000 C 
BRANCH   2   3
ATOM      3  C   UNL     1      -1.961  36.274  27.668  1.00  0.00     0.000 C 
BRANCH   3   4
ATOM      4  C   UNL     1      -1.902  34.773  27.995  1.00  0.00     0.000 C 
BRANCH   4   5
ATOM      5  C   UNL     1      -1.668  34.504  29.491  1.00  0.00     0.000 C 
BRANCH   5   6
ATOM      6  C   UNL     1      -0.669  33.362  29.747  1.00  0.00     0.000 C 
BRANCH   6   7
ATOM      7  C   UNL     1       0.761  33.614  29.234  1.00  0.00     0.000 C 
BRANCH   7   8
ATOM      8  C   UNL     1       1.689  32.399  29.414  1.00  0.00     0.000 C 
BRANCH   8   9
ATOM      9  C   UNL     1       3.042  32.781  30.053  1.00  0.00     0.000 C 
BRANCH   9  10
ATOM     10  C   UNL     1       3.713  34.007  29.410  1.00  0.00     0.000 C 
BRANCH  10  11
ATOM     11  C   UNL     1       5.159  33.730  28.963  1.00  0.00     0.000 C 
BRANCH  11  12
ATOM     12  C   UNL     1       5.710  34.820  28.030  1.00  0.00     0.000 C 
BRANCH  12  13
ATOM     13  C   UNL     1       4.594  35.666  27.387  1.00  0.00     0.006 C 
BRANCH  13  14
ATOM     14  C   UNL     1       4.470  37.047  28.043  1.00  0.00     0.053 C 
BRANCH  14  15
ATOM     15  C   UNL     1       4.688  38.156  27.058  1.00  0.00     0.041 C 
ATOM     16  O   UNL     1       5.853  38.445  26.675  1.00  0.00    -0.550 OA
ATOM     17  O   UNL     1       3.606  38.878  26.572  1.00  0.00    -0.550 OA
ENDBRANCH  14  15
ENDBRANCH  13  14
ENDBRANCH  12  13
ENDBRANCH  11  12
ENDBRANCH  10  11
ENDBRANCH   9  10
ENDBRANCH   8   9
ENDBRANCH   7   8
ENDBRANCH   6   7
ENDBRANCH   5   6
ENDBRANCH   4   5
ENDBRANCH   3   4
ENDBRANCH   2   3
ENDBRANCH   1   2
BRANCH   1  18
ATOM     18  C   UNL     1      -4.805  38.204  25.764  1.00  0.00     0.000 C 
BRANCH  18  19
ATOM     19  C   UNL     1      -5.157  38.159  24.270  1.00  0.00     0.000 C 
BRANCH  19  20
ATOM     20  C   UNL     1      -4.877  39.487  23.550  1.00  0.00     0.000 C 
BRANCH  20  21
ATOM     21  C   UNL     1      -5.504  39.550  22.145  1.00  0.00     0.000 C 
BRANCH  21  22
ATOM     22  C   UNL     1      -4.778  38.686  21.093  1.00  0.00     0.000 C 
BRANCH  22  23
ATOM     23  C   UNL     1      -5.593  37.441  20.702  1.00  0.00     0.000 C 
BRANCH  23  24
ATOM     24  C   UNL     1      -5.581  36.351  21.789  1.00  0.00    -0.000 C 
BRANCH  24  25
ATOM     25  C   UNL     1      -4.479  35.283  21.631  1.00  0.00    -0.000 C 
BRANCH  25  26
ATOM     26  C   UNL     1      -4.137  34.912  20.177  1.00  0.00    -0.000 C 
BRANCH  26  27
ATOM     27  C   UNL     1      -5.308  34.238  19.439  1.00  0.00    -0.000 C 
BRANCH  27  28
ATOM     28  C   UNL     1      -5.457  34.733  17.993  1.00  0.00    -0.000 C 
BRANCH  28  29
ATOM     29  C   UNL     1      -4.114  34.786  17.241  1.00  0.00    -0.000 C 
BRANCH  29  30
ATOM     30  C   UNL     1      -3.971  36.065  16.389  1.00  0.00    -0.000 C 
BRANCH  30  31
ATOM     31  C   UNL     1      -3.835  35.786  14.882  1.00  0.00    -0.003 C 
ATOM     32  C   UNL     1      -3.448  37.024  14.076  1.00  0.00     0.004 C 
ENDBRANCH  30  31
ENDBRANCH  29  30
ENDBRANCH  28  29
ENDBRANCH  27  28
ENDBRANCH  26  27
ENDBRANCH  25  26
ENDBRANCH  24  25
ENDBRANCH  23  24
ENDBRANCH  22  23
ENDBRANCH  21  22
ENDBRANCH  20  21
ENDBRANCH  19  20
ENDBRANCH  18  19
ENDBRANCH   1  18
TORSDOF 28
ENDMDL
MODEL 4
REMARK VINA RESULT:    17.257      2.458      4.755
REMARK INTER + INTRA:          44.217
REMARK INTER:                  44.068
REMARK INTRA:                   0.149
REMARK UNBOUND:                -1.287
REMARK SMILES CCCCCCCCCCCCCCCCCCCCCCCCCCCCCC(=O)[O-]
REMARK SMILES IDX 16 1 17 2 18 3 19 4 20 5 21 6 22 7 23 8 24 9 25 10 26 11
REMARK SMILES IDX 27 12 28 13 29 14 30 15 31 16 32 17 15 18 14 19 13 20 12 21
REMARK SMILES IDX 11 22 10 23 9 24 8 25 7 26 6 27 5 28 4 29 3 30 2 31 1 32
REMARK H PARENT
REMARK Flexibility Score: inf
ROOT
ATOM      1  C   UNL     1      -2.444  37.633  27.150  1.00  0.00     0.000 C 
ENDROOT
BRANCH   1   2
ATOM      2  C   UNL     1      -1.969  36.184  26.965  1.00  0.00     0.000 C 
BRANCH   2   3
ATOM      3  C   UNL     1      -1.487  35.554  28.285  1.00  0.00     0.000 C 
BRANCH   3   4
ATOM      4  C   UNL     1      -2.317  34.328  28.696  1.00  0.00     0.000 C 
BRANCH   4   5
ATOM      5  C   UNL     1      -1.674  33.539  29.849  1.00  0.00     0.000 C 
BRANCH   5   6
ATOM      6  C   UNL     1      -0.136  33.540  29.792  1.00  0.00     0.000 C 
BRANCH   6   7
ATOM      7  C   UNL     1       0.523  32.149  29.813  1.00  0.00     0.000 C 
BRANCH   7   8
ATOM      8  C   UNL     1       2.009  32.179  29.409  1.00  0.00     0.000 C 
BRANCH   8   9
ATOM      9  C   UNL     1       2.951  32.008  30.621  1.00  0.00     0.000 C 
BRANCH   9  10
ATOM     10  C   UNL     1       3.962  33.156  30.793  1.00  0.00     0.000 C 
BRANCH  10  11
ATOM     11  C   UNL     1       4.739  33.464  29.502  1.00  0.00     0.000 C 
BRANCH  11  12
ATOM     12  C   UNL     1       4.084  34.577  28.668  1.00  0.00     0.000 C 
BRANCH  12  13
ATOM     13  C   UNL     1       5.119  35.498  27.996  1.00  0.00     0.006 C 
BRANCH  13  14
ATOM     14  C   UNL     1       4.512  36.293  26.832  1.00  0.00     0.053 C 
BRANCH  14  15
ATOM     15  C   UNL     1       4.664  37.772  27.025  1.00  0.00     0.041 C 
ATOM     16  O   UNL     1       3.659  38.528  26.959  1.00  0.00    -0.550 OA
ATOM     17  O   UNL     1       5.919  38.316  27.268  1.00  0.00    -0.550 OA
ENDBRANCH  14  15
ENDBRANCH  13  14
ENDBRANCH  12  13
ENDBRANCH  11  12
ENDBRANCH  10  11
ENDBRANCH   9  10
ENDBRANCH   8   9
ENDBRANCH   7   8
ENDBRANCH   6   7
ENDBRANCH   5   6
ENDBRANCH   4   5
ENDBRANCH   3   4
ENDBRANCH   2   3
ENDBRANCH   1   2
BRANCH   1  18
ATOM     18  C   UNL     1      -3.548  38.021  26.149  1.00  0.00     0.000 C 
BRANCH  18  19
ATOM     19  C   UNL     1      -4.908  38.241  26.829  1.00  0.00     0.000 C 
BRANCH  19  20
ATOM     20  C   UNL     1      -6.035  37.410  26.195  1.00  0.00     0.000 C 
BRANCH  20  21
ATOM     21  C   UNL     1      -5.525  36.439  25.114  1.00  0.00     0.000 C 
BRANCH  21  22
ATOM     22  C   UNL     1      -6.093  36.711  23.706  1.00  0.00     0.000 C 
BRANCH  22  23
ATOM     23  C   UNL     1      -5.992  38.197  23.318  1.00  0.00     0.000 C 
BRANCH  23  24
ATOM     24  C   UNL     1      -4.637  38.560  22.684  1.00  0.00    -0.000 C 
BRANCH  24  25
ATOM     25  C   UNL     1      -4.177  37.626  21.546  1.00  0.00    -0.000 C 
BRANCH  25  26
ATOM     26  C   UNL     1      -4.839  37.888  20.182  1.00  0.00    -0.000 C 
BRANCH  26  27
ATOM     27  C   UNL     1      -5.692  36.702  19.692  1.00  0.00    -0.000 C 
BRANCH  27  28
ATOM     28  C   UNL     1      -5.618  35.492  20.635  1.00  0.00    -0.000 C 
BRANCH  28  29
ATOM     29  C   UNL     1      -4.231  35.329  21.284  1.00  0.00    -0.000 C 
BRANCH  29  30
ATOM     30  C   UNL     1      -4.206  34.200  22.336  1.00  0.00    -0.000 C 
BRANCH  30  31
ATOM     31  C   UNL     1      -5.556  33.478  22.494  1.00  0.00    -0.003 C 
ATOM     32  C   UNL     1      -6.122  33.569  23.910  1.00  0.00     0.004 C 
ENDBRANCH  30  31
ENDBRANCH  29  30
ENDBRANCH  28  29
ENDBRANCH  27  28
ENDBRANCH  26  27
ENDBRANCH  25  26
ENDBRANCH  24  25
ENDBRANCH  23  24
ENDBRANCH  22  23
ENDBRANCH  21  22
ENDBRANCH  20  21
ENDBRANCH  19  20
ENDBRANCH  18  19
ENDBRANCH   1  18
TORSDOF 28
ENDMDL
MODEL 5
REMARK VINA RESULT:    17.257      2.201      3.932
REMARK INTER + INTRA:          44.217
REMARK INTER:                  44.688
REMARK INTRA:                  -0.471
REMARK UNBOUND:                -1.287
REMARK SMILES CCCCCCCCCCCCCCCCCCCCCCCCCCCCCC(=O)[O-]
REMARK SMILES IDX 16 1 17 2 18 3 19 4 20 5 21 6 22 7 23 8 24 9 25 10 26 11
REMARK SMILES IDX 27 12 28 13 29 14 30 15 31 16 32 17 15 18 14 19 13 20 12 21
REMARK SMILES IDX 11 22 10 23 9 24 8 25 7 26 6 27 5 28 4 29 3 30 2 31 1 32
REMARK H PARENT
REMARK Flexibility Score: inf
ROOT
ATOM      1  C   UNL     1      -3.629  37.789  25.692  1.00  0.00     0.000 C 
ENDROOT
BRANCH   1   2
ATOM      2  C   UNL     1      -3.012  36.689  26.571  1.00  0.00     0.000 C 
BRANCH   2   3
ATOM      3  C   UNL     1      -1.814  37.201  27.392  1.00  0.00     0.000 C 
BRANCH   3   4
ATOM      4  C   UNL     1      -1.458  36.273  28.564  1.00  0.00     0.000 C 
BRANCH   4   5
ATOM      5  C   UNL     1      -1.975  34.839  28.360  1.00  0.00     0.000 C 
BRANCH   5   6
ATOM      6  C   UNL     1      -1.744  33.937  29.585  1.00  0.00     0.000 C 
BRANCH   6   7
ATOM      7  C   UNL     1      -0.269  33.643  29.915  1.00  0.00     0.000 C 
BRANCH   7   8
ATOM      8  C   UNL     1       0.124  32.176  29.668  1.00  0.00     0.000 C 
BRANCH   8   9
ATOM      9  C   UNL     1       1.648  31.949  29.769  1.00  0.00     0.000 C 
BRANCH   9  10
ATOM     10  C   UNL     1       2.480  33.241  29.688  1.00  0.00     0.000 C 
BRANCH  10  11
ATOM     11  C   UNL     1       3.995  32.978  29.719  1.00  0.00     0.000 C 
BRANCH  11  12
ATOM     12  C   UNL     1       4.822  34.241  29.430  1.00  0.00     0.000 C 
BRANCH  12  13
ATOM     13  C   UNL     1       4.304  35.018  28.205  1.00  0.00     0.006 C 
BRANCH  13  14
ATOM     14  C   UNL     1       5.257  36.149  27.796  1.00  0.00     0.053 C 
BRANCH  14  15
ATOM     15  C   UNL     1       4.542  37.248  27.069  1.00  0.00     0.041 C 
ATOM     16  O   UNL     1       3.286  37.231  26.970  1.00  0.00    -0.550 OA
ATOM     17  O   UNL     1       5.263  38.285  26.492  1.00  0.00    -0.550 OA
ENDBRANCH  14  15
ENDBRANCH  13  14
ENDBRANCH  12  13
ENDBRANCH  11  12
ENDBRANCH  10  11
ENDBRANCH   9  10
ENDBRANCH   8   9
ENDBRANCH   7   8
ENDBRANCH   6   7
ENDBRANCH   5   6
ENDBRANCH   4   5
ENDBRANCH   3   4
ENDBRANCH   2   3
ENDBRANCH   1   2
BRANCH   1  18
ATOM     18  C   UNL     1      -5.071  38.134  26.110  1.00  0.00     0.000 C 
BRANCH  18  19
ATOM     19  C   UNL     1      -6.101  37.148  25.538  1.00  0.00     0.000 C 
BRANCH  19  20
ATOM     20  C   UNL     1      -6.125  37.131  24.002  1.00  0.00     0.000 C 
BRANCH  20  21
ATOM     21  C   UNL     1      -6.068  35.708  23.418  1.00  0.00     0.000 C 
BRANCH  21  22
ATOM     22  C   UNL     1      -6.125  34.590  24.481  1.00  0.00     0.000 C 
BRANCH  22  23
ATOM     23  C   UNL     1      -5.700  33.226  23.910  1.00  0.00     0.000 C 
BRANCH  23  24
ATOM     24  C   UNL     1      -5.136  33.323  22.481  1.00  0.00    -0.000 C 
BRANCH  24  25
ATOM     25  C   UNL     1      -3.889  34.219  22.330  1.00  0.00    -0.000 C 
BRANCH  25  26
ATOM     26  C   UNL     1      -3.821  35.022  21.018  1.00  0.00    -0.000 C 
BRANCH  26  27
ATOM     27  C   UNL     1      -5.204  35.240  20.376  1.00  0.00    -0.000 C 
BRANCH  27  28
ATOM     28  C   UNL     1      -5.199  36.365  19.331  1.00  0.00    -0.000 C 
BRANCH  28  29
ATOM     29  C   UNL     1      -4.779  37.723  19.923  1.00  0.00    -0.000 C 
BRANCH  29  30
ATOM     30  C   UNL     1      -5.868  38.327  20.835  1.00  0.00    -0.000 C 
BRANCH  30  31
ATOM     31  C   UNL     1      -5.342  38.763  22.214  1.00  0.00    -0.003 C 
ATOM     32  C   UNL     1      -4.039  39.556  22.135  1.00  0.00     0.004 C 
ENDBRANCH  30  31
ENDBRANCH  29  30
ENDBRANCH  28  29
ENDBRANCH  27  28
ENDBRANCH  26  27
ENDBRANCH  25  26
ENDBRANCH  24  25
ENDBRANCH  23  24
ENDBRANCH  22  23
ENDBRANCH  21  22
ENDBRANCH  20  21
ENDBRANCH  19  20
ENDBRANCH  18  19
ENDBRANCH   1  18
TORSDOF 28
ENDMDL
MODEL 6
REMARK VINA RESULT:    17.410      3.158     11.056
REMARK INTER + INTRA:          44.622
REMARK INTER:                  46.819
REMARK INTRA:                  -2.197
REMARK UNBOUND:                -1.287
REMARK SMILES CCCCCCCCCCCCCCCCCCCCCCCCCCCCCC(=O)[O-]
REMARK SMILES IDX 16 1 17 2 18 3 19 4 20 5 21 6 22 7 23 8 24 9 25 10 26 11
REMARK SMILES IDX 27 12 28 13 29 14 30 15 31 16 32 17 15 18 14 19 13 20 12 21
REMARK SMILES IDX 11 22 10 23 9 24 8 25 7 26 6 27 5 28 4 29 3 30 2 31 1 32
REMARK H PARENT
REMARK Flexibility Score: inf
ROOT
ATOM      1  C   UNL     1      -3.331  37.122  26.830  1.00  0.00     0.000 C 
ENDROOT
BRANCH   1   2
ATOM      2  C   UNL     1      -4.386  36.181  26.227  1.00  0.00     0.000 C 
BRANCH   2   3
ATOM      3  C   UNL     1      -5.435  36.938  25.392  1.00  0.00     0.000 C 
BRANCH   3   4
ATOM      4  C   UNL     1      -6.054  36.067  24.287  1.00  0.00     0.000 C 
BRANCH   4   5
ATOM      5  C   UNL     1      -6.125  34.581  24.677  1.00  0.00     0.000 C 
BRANCH   5   6
ATOM      6  C   UNL     1      -5.547  33.649  23.597  1.00  0.00     0.000 C 
BRANCH   6   7
ATOM      7  C   UNL     1      -6.095  33.873  22.175  1.00  0.00     0.000 C 
BRANCH   7   8
ATOM      8  C   UNL     1      -4.999  34.239  21.158  1.00  0.00     0.000 C 
BRANCH   8   9
ATOM      9  C   UNL     1      -5.527  34.259  19.706  1.00  0.00     0.000 C 
BRANCH   9  10
ATOM     10  C   UNL     1      -5.676  35.671  19.113  1.00  0.00     0.000 C 
BRANCH  10  11
ATOM     11  C   UNL     1      -5.109  36.766  20.033  1.00  0.00     0.000 C 
BRANCH  11  12
ATOM     12  C   UNL     1      -5.421  38.184  19.528  1.00  0.00     0.000 C 
BRANCH  12  13
ATOM     13  C   UNL     1      -5.619  39.190  20.677  1.00  0.00     0.006 C 
BRANCH  13  14
ATOM     14  C   UNL     1      -5.400  38.544  22.051  1.00  0.00     0.053 C 
BRANCH  14  15
ATOM     15  C   UNL     1      -4.779  39.500  23.025  1.00  0.00     0.041 C 
ATOM     16  O   UNL     1      -5.311  40.622  23.240  1.00  0.00    -0.550 OA
ATOM     17  O   UNL     1      -3.608  39.156  23.689  1.00  0.00    -0.550 OA
ENDBRANCH  14  15
ENDBRANCH  13  14
ENDBRANCH  12  13
ENDBRANCH  11  12
ENDBRANCH  10  11
ENDBRANCH   9  10
ENDBRANCH   8   9
ENDBRANCH   7   8
ENDBRANCH   6   7
ENDBRANCH   5   6
ENDBRANCH   4   5
ENDBRANCH   3   4
ENDBRANCH   2   3
ENDBRANCH   1   2
BRANCH   1  18
ATOM     18  C   UNL     1      -2.077  36.367  27.311  1.00  0.00     0.000 C 
BRANCH  18  19
ATOM     19  C   UNL     1      -2.396  34.944  27.792  1.00  0.00     0.000 C 
BRANCH  19  20
ATOM     20  C   UNL     1      -2.516  34.842  29.321  1.00  0.00     0.000 C 
BRANCH  20  21
ATOM     21  C   UNL     1      -1.544  33.814  29.929  1.00  0.00     0.000 C 
BRANCH  21  22
ATOM     22  C   UNL     1      -0.325  33.498  29.038  1.00  0.00     0.000 C 
BRANCH  22  23
ATOM     23  C   UNL     1       0.945  33.233  29.867  1.00  0.00     0.000 C 
BRANCH  23  24
ATOM     24  C   UNL     1       1.597  31.876  29.547  1.00  0.00    -0.000 C 
BRANCH  24  25
ATOM     25  C   UNL     1       3.103  31.782  29.870  1.00  0.00    -0.000 C 
BRANCH  25  26
ATOM     26  C   UNL     1       3.721  33.062  30.461  1.00  0.00    -0.000 C 
BRANCH  26  27
ATOM     27  C   UNL     1       4.735  33.730  29.513  1.00  0.00    -0.000 C 
BRANCH  27  28
ATOM     28  C   UNL     1       4.132  34.916  28.745  1.00  0.00    -0.000 C 
BRANCH  28  29
ATOM     29  C   UNL     1       4.742  35.086  27.342  1.00  0.00    -0.000 C 
BRANCH  29  30
ATOM     30  C   UNL     1       5.178  36.541  27.065  1.00  0.00    -0.000 C 
BRANCH  30  31
ATOM     31  C   UNL     1       4.015  37.464  26.659  1.00  0.00    -0.003 C 
ATOM     32  C   UNL     1       3.692  38.519  27.713  1.00  0.00     0.004 C 
ENDBRANCH  30  31
ENDBRANCH  29  30
ENDBRANCH  28  29
ENDBRANCH  27  28
ENDBRANCH  26  27
ENDBRANCH  25  26
ENDBRANCH  24  25
ENDBRANCH  23  24
ENDBRANCH  22  23
ENDBRANCH  21  22
ENDBRANCH  20  21
ENDBRANCH  19  20
ENDBRANCH  18  19
ENDBRANCH   1  18
TORSDOF 28
ENDMDL
MODEL 7
REMARK VINA RESULT:    17.440      3.965     11.472
REMARK INTER + INTRA:          44.699
REMARK INTER:                  44.936
REMARK INTRA:                  -0.237
REMARK UNBOUND:                -1.287
REMARK SMILES CCCCCCCCCCCCCCCCCCCCCCCCCCCCCC(=O)[O-]
REMARK SMILES IDX 16 1 17 2 18 3 19 4 20 5 21 6 22 7 23 8 24 9 25 10 26 11
REMARK SMILES IDX 27 12 28 13 29 14 30 15 31 16 32 17 15 18 14 19 13 20 12 21
REMARK SMILES IDX 11 22 10 23 9 24 8 25 7 26 6 27 5 28 4 29 3 30 2 31 1 32
REMARK H PARENT
REMARK Flexibility Score: inf
ROOT
ATOM      1  C   UNL     1      -6.076  36.881  25.315  1.00  0.00     0.000 C 
ENDROOT
BRANCH   1   2
ATOM      2  C   UNL     1      -5.688  35.701  24.411  1.00  0.00     0.000 C 
BRANCH   2   3
ATOM      3  C   UNL     1      -5.630  36.098  22.924  1.00  0.00     0.000 C 
BRANCH   3   4
ATOM      4  C   UNL     1      -4.689  37.284  22.663  1.00  0.00     0.000 C 
BRANCH   4   5
ATOM      5  C   UNL     1      -5.257  38.614  23.185  1.00  0.00     0.000 C 
BRANCH   5   6
ATOM      6  C   UNL     1      -5.418  39.674  22.081  1.00  0.00     0.000 C 
BRANCH   6   7
ATOM      7  C   UNL     1      -6.057  39.168  20.774  1.00  0.00     0.000 C 
BRANCH   7   8
ATOM      8  C   UNL     1      -5.079  38.367  19.895  1.00  0.00     0.000 C 
BRANCH   8   9
ATOM      9  C   UNL     1      -5.531  36.904  19.695  1.00  0.00     0.000 C 
BRANCH   9  10
ATOM     10  C   UNL     1      -4.379  35.931  19.389  1.00  0.00     0.000 C 
BRANCH  10  11
ATOM     11  C   UNL     1      -4.855  34.642  18.698  1.00  0.00     0.000 C 
BRANCH  11  12
ATOM     12  C   UNL     1      -5.152  34.846  17.203  1.00  0.00     0.000 C 
BRANCH  12  13
ATOM     13  C   UNL     1      -3.991  35.534  16.460  1.00  0.00     0.006 C 
BRANCH  13  14
ATOM     14  C   UNL     1      -4.306  35.746  14.973  1.00  0.00     0.053 C 
BRANCH  14  15
ATOM     15  C   UNL     1      -3.486  36.852  14.380  1.00  0.00     0.041 C 
ATOM     16  O   UNL     1      -2.337  36.615  13.919  1.00  0.00    -0.550 OA
ATOM     17  O   UNL     1      -3.985  38.148  14.348  1.00  0.00    -0.550 OA
ENDBRANCH  14  15
ENDBRANCH  13  14
ENDBRANCH  12  13
ENDBRANCH  11  12
ENDBRANCH  10  11
ENDBRANCH   9  10
ENDBRANCH   8   9
ENDBRANCH   7   8
ENDBRANCH   6   7
ENDBRANCH   5   6
ENDBRANCH   4   5
ENDBRANCH   3   4
ENDBRANCH   2   3
ENDBRANCH   1   2
BRANCH   1  18
ATOM     18  C   UNL     1      -5.177  36.986  26.562  1.00  0.00     0.000 C 
BRANCH  18  19
ATOM     19  C   UNL     1      -3.685  37.069  26.206  1.00  0.00     0.000 C 
BRANCH  19  20
ATOM     20  C   UNL     1      -2.833  37.665  27.338  1.00  0.00     0.000 C 
BRANCH  20  21
ATOM     21  C   UNL     1      -1.332  37.363  27.178  1.00  0.00     0.000 C 
BRANCH  21  22
ATOM     22  C   UNL     1      -0.510  38.544  26.621  1.00  0.00     0.000 C 
BRANCH  22  23
ATOM     23  C   UNL     1       0.877  38.101  26.124  1.00  0.00     0.000 C 
BRANCH  23  24
ATOM     24  C   UNL     1       2.004  39.055  26.560  1.00  0.00    -0.000 C 
BRANCH  24  25
ATOM     25  C   UNL     1       3.434  38.550  26.277  1.00  0.00    -0.000 C 
BRANCH  25  26
ATOM     26  C   UNL     1       4.124  37.853  27.463  1.00  0.00    -0.000 C 
BRANCH  26  27
ATOM     27  C   UNL     1       5.157  36.800  27.021  1.00  0.00    -0.000 C 
BRANCH  27  28
ATOM     28  C   UNL     1       4.633  35.363  27.165  1.00  0.00    -0.000 C 
BRANCH  28  29
ATOM     29  C   UNL     1       4.435  34.948  28.634  1.00  0.00    -0.000 C 
BRANCH  29  30
ATOM     30  C   UNL     1       3.399  33.814  28.787  1.00  0.00    -0.000 C 
BRANCH  30  31
ATOM     31  C   UNL     1       2.314  34.111  29.837  1.00  0.00    -0.003 C 
ATOM     32  C   UNL     1       0.974  33.452  29.517  1.00  0.00     0.004 C 
ENDBRANCH  30  31
ENDBRANCH  29  30
ENDBRANCH  28  29
ENDBRANCH  27  28
ENDBRANCH  26  27
ENDBRANCH  25  26
ENDBRANCH  24  25
ENDBRANCH  23  24
ENDBRANCH  22  23
ENDBRANCH  21  22
ENDBRANCH  20  21
ENDBRANCH  19  20
ENDBRANCH  18  19
ENDBRANCH   1  18
TORSDOF 28
ENDMDL
