MODEL 1
REMARK VINA RESULT:     9.321      0.000      0.000
REMARK INTER + INTRA:          16.216
REMARK INTER:                  16.950
REMARK INTRA:                  -0.734
REMARK UNBOUND:                -0.734
REMARK SMILES CCCCCCCCCCCCCCCC(=O)[O-]
REMARK SMILES IDX 9 1 10 2 11 3 12 4 13 5 14 6 15 7 16 8 17 9 18 10 8 11 7 12
REMARK SMILES IDX 6 13 5 14 4 15 3 16 2 17 1 18
REMARK H PARENT
REMARK Flexibility Score: inf
ROOT
ATOM      1  C   UNL     1     -33.173  12.348  17.043  1.00  0.00     0.000 C 
ENDROOT
BRANCH   1   2
ATOM      2  C   UNL     1     -34.402  13.258  16.856  1.00  0.00     0.000 C 
BRANCH   2   3
ATOM      3  C   UNL     1     -34.400  14.473  17.799  1.00  0.00     0.000 C 
BRANCH   3   4
ATOM      4  C   UNL     1     -34.950  15.750  17.135  1.00  0.00     0.000 C 
BRANCH   4   5
ATOM      5  C   UNL     1     -35.286  16.899  18.102  1.00  0.00     0.000 C 
BRANCH   5   6
ATOM      6  C   UNL     1     -36.800  17.136  18.250  1.00  0.00     0.006 C 
BRANCH   6   7
ATOM      7  C   UNL     1     -37.625  15.956  17.719  1.00  0.00     0.053 C 
BRANCH   7   8
ATOM      8  C   UNL     1     -38.898  15.782  18.487  1.00  0.00     0.041 C 
ATOM      9  O   UNL     1     -39.965  16.311  18.077  1.00  0.00    -0.550 OA
ATOM     10  O   UNL     1     -38.915  15.005  19.639  1.00  0.00    -0.550 OA
ENDBRANCH   7   8
ENDBRANCH   6   7
ENDBRANCH   5   6
ENDBRANCH   4   5
ENDBRANCH   3   4
ENDBRANCH   2   3
ENDBRANCH   1   2
BRANCH   1  11
ATOM     11  C   UNL     1     -32.537  12.381  18.446  1.00  0.00     0.000 C 
BRANCH  11  12
ATOM     12  C   UNL     1     -32.962  11.198  19.327  1.00  0.00    -0.000 C 
BRANCH  12  13
ATOM     13  C   UNL     1     -33.933  11.651  20.426  1.00  0.00    -0.000 C 
BRANCH  13  14
ATOM     14  C   UNL     1     -34.023  10.657  21.599  1.00  0.00    -0.000 C 
BRANCH  14  15
ATOM     15  C   UNL     1     -34.287   9.193  21.200  1.00  0.00    -0.000 C 
BRANCH  15  16
ATOM     16  C   UNL     1     -33.621   8.183  22.149  1.00  0.00    -0.000 C 
BRANCH  16  17
ATOM     17  C   UNL     1     -34.450   6.900  22.318  1.00  0.00    -0.003 C 
ATOM     18  C   UNL     1     -34.803   6.610  23.777  1.00  0.00     0.004 C 
ENDBRANCH  16  17
ENDBRANCH  15  16
ENDBRANCH  14  15
ENDBRANCH  13  14
ENDBRANCH  12  13
ENDBRANCH  11  12
ENDBRANCH   1  11
TORSDOF 14
ENDMDL
MODEL 2
REMARK VINA RESULT:     9.662      1.704      2.169
REMARK INTER + INTRA:          16.836
REMARK INTER:                  17.357
REMARK INTRA:                  -0.521
REMARK UNBOUND:                -0.734
REMARK SMILES CCCCCCCCCCCCCCCC(=O)[O-]
REMARK SMILES IDX 9 1 10 2 11 3 12 4 13 5 14 6 15 7 16 8 17 9 18 10 8 11 7 12
REMARK SMILES IDX 6 13 5 14 4 15 3 16 2 17 1 18
REMARK H PARENT
REMARK Flexibility Score: inf
ROOT
ATOM      1  C   UNL     1     -32.887  12.303  17.853  1.00  0.00     0.000 C 
ENDROOT
BRANCH   1   2
ATOM      2  C   UNL     1     -33.678  13.328  17.018  1.00  0.00     0.000 C 
BRANCH   2   3
ATOM      3  C   UNL     1     -34.415  14.366  17.882  1.00  0.00     0.000 C 
BRANCH   3   4
ATOM      4  C   UNL     1     -34.857  15.606  17.081  1.00  0.00     0.000 C 
BRANCH   4   5
ATOM      5  C   UNL     1     -35.174  16.853  17.927  1.00  0.00     0.000 C 
BRANCH   5   6
ATOM      6  C   UNL     1     -36.679  17.025  18.203  1.00  0.00     0.006 C 
BRANCH   6   7
ATOM      7  C   UNL     1     -37.482  15.772  17.830  1.00  0.00     0.053 C 
BRANCH   7   8
ATOM      8  C   UNL     1     -38.805  15.734  18.531  1.00  0.00     0.041 C 
ATOM      9  O   UNL     1     -38.932  15.101  19.613  1.00  0.00    -0.550 OA
ATOM     10  O   UNL     1     -39.890  16.428  18.010  1.00  0.00    -0.550 OA
ENDBRANCH   7   8
ENDBRANCH   6   7
ENDBRANCH   5   6
ENDBRANCH   4   5
ENDBRANCH   3   4
ENDBRANCH   2   3
ENDBRANCH   1   2
BRANCH   1  11
ATOM     11  C   UNL     1     -33.334  12.163  19.321  1.00  0.00     0.000 C 
BRANCH  11  12
ATOM     12  C   UNL     1     -33.264  10.718  19.836  1.00  0.00    -0.000 C 
BRANCH  12  13
ATOM     13  C   UNL     1     -34.090  10.551  21.119  1.00  0.00    -0.000 C 
BRANCH  13  14
ATOM     14  C   UNL     1     -34.029  11.784  22.040  1.00  0.00    -0.000 C 
BRANCH  14  15
ATOM     15  C   UNL     1     -34.777  11.640  23.379  1.00  0.00    -0.000 C 
BRANCH  15  16
ATOM     16  C   UNL     1     -33.846  11.299  24.554  1.00  0.00    -0.000 C 
BRANCH  16  17
ATOM     17  C   UNL     1     -34.553  10.482  25.647  1.00  0.00    -0.003 C 
ATOM     18  C   UNL     1     -33.600   9.558  26.405  1.00  0.00     0.004 C 
ENDBRANCH  16  17
ENDBRANCH  15  16
ENDBRANCH  14  15
ENDBRANCH  13  14
ENDBRANCH  12  13
ENDBRANCH  11  12
ENDBRANCH   1  11
TORSDOF 14
ENDMDL
MODEL 3
REMARK VINA RESULT:     9.836      3.105      7.501
REMARK INTER + INTRA:          17.151
REMARK INTER:                  17.979
REMARK INTRA:                  -0.828
REMARK UNBOUND:                -0.734
REMARK SMILES CCCCCCCCCCCCCCCC(=O)[O-]
REMARK SMILES IDX 9 1 10 2 11 3 12 4 13 5 14 6 15 7 16 8 17 9 18 10 8 11 7 12
REMARK SMILES IDX 6 13 5 14 4 15 3 16 2 17 1 18
REMARK H PARENT
REMARK Flexibility Score: inf
ROOT
ATOM      1  C   UNL     1     -34.645  14.642  17.637  1.00  0.00     0.000 C 
ENDROOT
BRANCH   1   2
ATOM      2  C   UNL     1     -34.865  13.476  16.654  1.00  0.00     0.000 C 
BRANCH   2   3
ATOM      3  C   UNL     1     -33.820  12.357  16.806  1.00  0.00     0.000 C 
BRANCH   3   4
ATOM      4  C   UNL     1     -32.455  12.873  17.301  1.00  0.00     0.000 C 
BRANCH   4   5
ATOM      5  C   UNL     1     -31.758  11.984  18.346  1.00  0.00     0.000 C 
BRANCH   5   6
ATOM      6  C   UNL     1     -32.745  11.136  19.168  1.00  0.00     0.006 C 
BRANCH   6   7
ATOM      7  C   UNL     1     -33.625  11.997  20.083  1.00  0.00     0.053 C 
BRANCH   7   8
ATOM      8  C   UNL     1     -34.092  11.231  21.282  1.00  0.00     0.041 C 
ATOM      9  O   UNL     1     -34.362  11.833  22.355  1.00  0.00    -0.550 OA
ATOM     10  O   UNL     1     -34.263   9.855  21.205  1.00  0.00    -0.550 OA
ENDBRANCH   7   8
ENDBRANCH   6   7
ENDBRANCH   5   6
ENDBRANCH   4   5
ENDBRANCH   3   4
ENDBRANCH   2   3
ENDBRANCH   1   2
BRANCH   1  11
ATOM     11  C   UNL     1     -34.972  16.041  17.083  1.00  0.00     0.000 C 
BRANCH  11  12
ATOM     12  C   UNL     1     -35.268  17.070  18.183  1.00  0.00    -0.000 C 
BRANCH  12  13
ATOM     13  C   UNL     1     -36.769  17.386  18.252  1.00  0.00    -0.000 C 
BRANCH  13  14
ATOM     14  C   UNL     1     -37.654  16.206  17.808  1.00  0.00    -0.000 C 
BRANCH  14  15
ATOM     15  C   UNL     1     -38.502  15.565  18.923  1.00  0.00    -0.000 C 
BRANCH  15  16
ATOM     16  C   UNL     1     -39.998  15.898  18.806  1.00  0.00    -0.000 C 
BRANCH  16  17
ATOM     17  C   UNL     1     -40.469  15.990  17.346  1.00  0.00    -0.003 C 
ATOM     18  C   UNL     1     -40.963  17.386  16.969  1.00  0.00     0.004 C 
ENDBRANCH  16  17
ENDBRANCH  15  16
ENDBRANCH  14  15
ENDBRANCH  13  14
ENDBRANCH  12  13
ENDBRANCH  11  12
ENDBRANCH   1  11
TORSDOF 14
ENDMDL
MODEL 4
REMARK VINA RESULT:     9.912      4.066      8.087
REMARK INTER + INTRA:          17.290
REMARK INTER:                  17.951
REMARK INTRA:                  -0.660
REMARK UNBOUND:                -0.734
REMARK SMILES CCCCCCCCCCCCCCCC(=O)[O-]
REMARK SMILES IDX 9 1 10 2 11 3 12 4 13 5 14 6 15 7 16 8 17 9 18 10 8 11 7 12
REMARK SMILES IDX 6 13 5 14 4 15 3 16 2 17 1 18
REMARK H PARENT
REMARK Flexibility Score: inf
ROOT
ATOM      1  C   UNL     1     -33.127  12.257  19.026  1.00  0.00     0.000 C 
ENDROOT
BRANCH   1   2
ATOM      2  C   UNL     1     -33.196  10.847  19.642  1.00  0.00     0.000 C 
BRANCH   2   3
ATOM      3  C   UNL     1     -34.102  10.777  20.883  1.00  0.00     0.000 C 
BRANCH   3   4
ATOM      4  C   UNL     1     -34.040  12.053  21.744  1.00  0.00     0.000 C 
BRANCH   4   5
ATOM      5  C   UNL     1     -34.652  11.925  23.151  1.00  0.00     0.000 C 
BRANCH   5   6
ATOM      6  C   UNL     1     -33.903  10.920  24.043  1.00  0.00     0.006 C 
BRANCH   6   7
ATOM      7  C   UNL     1     -34.316  11.035  25.517  1.00  0.00     0.053 C 
BRANCH   7   8
ATOM      8  C   UNL     1     -34.033   9.772  26.271  1.00  0.00     0.041 C 
ATOM      9  O   UNL     1     -32.945   9.634  26.891  1.00  0.00    -0.550 OA
ATOM     10  O   UNL     1     -34.984   8.761  26.318  1.00  0.00    -0.550 OA
ENDBRANCH   7   8
ENDBRANCH   6   7
ENDBRANCH   5   6
ENDBRANCH   4   5
ENDBRANCH   3   4
ENDBRANCH   2   3
ENDBRANCH   1   2
BRANCH   1  11
ATOM     11  C   UNL     1     -32.945  12.300  17.497  1.00  0.00     0.000 C 
BRANCH  11  12
ATOM     12  C   UNL     1     -33.987  13.180  16.791  1.00  0.00    -0.000 C 
BRANCH  12  13
ATOM     13  C   UNL     1     -34.405  14.359  17.680  1.00  0.00    -0.000 C 
BRANCH  13  14
ATOM     14  C   UNL     1     -35.074  15.501  16.892  1.00  0.00    -0.000 C 
BRANCH  14  15
ATOM     15  C   UNL     1     -35.237  16.824  17.665  1.00  0.00    -0.000 C 
BRANCH  15  16
ATOM     16  C   UNL     1     -36.616  16.964  18.330  1.00  0.00    -0.000 C 
BRANCH  16  17
ATOM     17  C   UNL     1     -37.570  15.820  17.954  1.00  0.00    -0.003 C 
ATOM     18  C   UNL     1     -38.850  15.817  18.790  1.00  0.00     0.004 C 
ENDBRANCH  16  17
ENDBRANCH  15  16
ENDBRANCH  14  15
ENDBRANCH  13  14
ENDBRANCH  12  13
ENDBRANCH  11  12
ENDBRANCH   1  11
TORSDOF 14
ENDMDL
MODEL 5
REMARK VINA RESULT:     9.998      3.618      8.314
REMARK INTER + INTRA:          17.446
REMARK INTER:                  17.799
REMARK INTRA:                  -0.353
REMARK UNBOUND:                -0.734
REMARK SMILES CCCCCCCCCCCCCCCC(=O)[O-]
REMARK SMILES IDX 9 1 10 2 11 3 12 4 13 5 14 6 15 7 16 8 17 9 18 10 8 11 7 12
REMARK SMILES IDX 6 13 5 14 4 15 3 16 2 17 1 18
REMARK H PARENT
REMARK Flexibility Score: inf
ROOT
ATOM      1  C   UNL     1     -33.040  12.756  17.345  1.00  0.00     0.000 C 
ENDROOT
BRANCH   1   2
ATOM      2  C   UNL     1     -33.251  11.516  18.235  1.00  0.00     0.000 C 
BRANCH   2   3
ATOM      3  C   UNL     1     -33.078  11.815  19.734  1.00  0.00     0.000 C 
BRANCH   3   4
ATOM      4  C   UNL     1     -34.020  10.983  20.624  1.00  0.00     0.000 C 
BRANCH   4   5
ATOM      5  C   UNL     1     -33.629   9.503  20.787  1.00  0.00     0.000 C 
BRANCH   5   6
ATOM      6  C   UNL     1     -34.090   8.903  22.128  1.00  0.00     0.006 C 
BRANCH   6   7
ATOM      7  C   UNL     1     -33.701   7.425  22.264  1.00  0.00     0.053 C 
BRANCH   7   8
ATOM      8  C   UNL     1     -34.713   6.659  23.059  1.00  0.00     0.041 C 
ATOM      9  O   UNL     1     -35.829   6.367  22.552  1.00  0.00    -0.550 OA
ATOM     10  O   UNL     1     -34.411   6.234  24.346  1.00  0.00    -0.550 OA
ENDBRANCH   7   8
ENDBRANCH   6   7
ENDBRANCH   5   6
ENDBRANCH   4   5
ENDBRANCH   3   4
ENDBRANCH   2   3
ENDBRANCH   1   2
BRANCH   1  11
ATOM     11  C   UNL     1     -34.318  13.544  17.001  1.00  0.00     0.000 C 
BRANCH  11  12
ATOM     12  C   UNL     1     -34.576  14.720  17.955  1.00  0.00    -0.000 C 
BRANCH  12  13
ATOM     13  C   UNL     1     -34.942  15.991  17.176  1.00  0.00    -0.000 C 
BRANCH  13  14
ATOM     14  C   UNL     1     -35.442  17.131  18.083  1.00  0.00    -0.000 C 
BRANCH  14  15
ATOM     15  C   UNL     1     -36.966  17.176  18.300  1.00  0.00    -0.000 C 
BRANCH  15  16
ATOM     16  C   UNL     1     -37.626  15.790  18.219  1.00  0.00    -0.000 C 
BRANCH  16  17
ATOM     17  C   UNL     1     -39.057  15.785  18.780  1.00  0.00    -0.003 C 
ATOM     18  C   UNL     1     -40.095  16.244  17.756  1.00  0.00     0.004 C 
ENDBRANCH  16  17
ENDBRANCH  15  16
ENDBRANCH  14  15
ENDBRANCH  13  14
ENDBRANCH  12  13
ENDBRANCH  11  12
ENDBRANCH   1  11
TORSDOF 14
ENDMDL
MODEL 6
REMARK VINA RESULT:    10.495      3.579      7.895
REMARK INTER + INTRA:          18.351
REMARK INTER:                  19.186
REMARK INTRA:                  -0.835
REMARK UNBOUND:                -0.734
REMARK SMILES CCCCCCCCCCCCCCCC(=O)[O-]
REMARK SMILES IDX 9 1 10 2 11 3 12 4 13 5 14 6 15 7 16 8 17 9 18 10 8 11 7 12
REMARK SMILES IDX 6 13 5 14 4 15 3 16 2 17 1 18
REMARK H PARENT
REMARK Flexibility Score: inf
ROOT
ATOM      1  C   UNL     1     -34.204  13.779  16.625  1.00  0.00     0.000 C 
ENDROOT
BRANCH   1   2
ATOM      2  C   UNL     1     -33.908  12.369  17.170  1.00  0.00     0.000 C 
BRANCH   2   3
ATOM      3  C   UNL     1     -32.526  12.260  17.837  1.00  0.00     0.000 C 
BRANCH   3   4
ATOM      4  C   UNL     1     -32.580  11.595  19.225  1.00  0.00     0.000 C 
BRANCH   4   5
ATOM      5  C   UNL     1     -33.775  12.007  20.103  1.00  0.00     0.000 C 
BRANCH   5   6
ATOM      6  C   UNL     1     -33.972  11.087  21.321  1.00  0.00     0.006 C 
BRANCH   6   7
ATOM      7  C   UNL     1     -34.387   9.667  20.912  1.00  0.00     0.053 C 
BRANCH   7   8
ATOM      8  C   UNL     1     -33.513   8.631  21.549  1.00  0.00     0.041 C 
ATOM      9  O   UNL     1     -34.012   7.759  22.309  1.00  0.00    -0.550 OA
ATOM     10  O   UNL     1     -32.151   8.605  21.276  1.00  0.00    -0.550 OA
ENDBRANCH   7   8
ENDBRANCH   6   7
ENDBRANCH   5   6
ENDBRANCH   4   5
ENDBRANCH   3   4
ENDBRANCH   2   3
ENDBRANCH   1   2
BRANCH   1  11
ATOM     11  C   UNL     1     -34.585  14.830  17.685  1.00  0.00     0.000 C 
BRANCH  11  12
ATOM     12  C   UNL     1     -35.085  16.147  17.075  1.00  0.00    -0.000 C 
BRANCH  12  13
ATOM     13  C   UNL     1     -35.757  17.026  18.139  1.00  0.00    -0.000 C 
BRANCH  13  14
ATOM     14  C   UNL     1     -37.291  16.892  18.151  1.00  0.00    -0.000 C 
BRANCH  14  15
ATOM     15  C   UNL     1     -37.825  15.502  18.547  1.00  0.00    -0.000 C 
BRANCH  15  16
ATOM     16  C   UNL     1     -39.360  15.415  18.508  1.00  0.00    -0.000 C 
BRANCH  16  17
ATOM     17  C   UNL     1     -40.014  16.743  18.094  1.00  0.00    -0.003 C 
ATOM     18  C   UNL     1     -40.944  16.594  16.890  1.00  0.00     0.004 C 
ENDBRANCH  16  17
ENDBRANCH  15  16
ENDBRANCH  14  15
ENDBRANCH  13  14
ENDBRANCH  12  13
ENDBRANCH  11  12
ENDBRANCH   1  11
TORSDOF 14
ENDMDL
MODEL 7
REMARK VINA RESULT:    10.724      2.470      3.472
REMARK INTER + INTRA:          18.766
REMARK INTER:                  19.654
REMARK INTRA:                  -0.888
REMARK UNBOUND:                -0.734
REMARK SMILES CCCCCCCCCCCCCCCC(=O)[O-]
REMARK SMILES IDX 9 1 10 2 11 3 12 4 13 5 14 6 15 7 16 8 17 9 18 10 8 11 7 12
REMARK SMILES IDX 6 13 5 14 4 15 3 16 2 17 1 18
REMARK H PARENT
REMARK Flexibility Score: inf
ROOT
ATOM      1  C   UNL     1     -33.307  11.933  19.680  1.00  0.00     0.000 C 
ENDROOT
BRANCH   1   2
ATOM      2  C   UNL     1     -32.048  12.140  18.816  1.00  0.00     0.000 C 
BRANCH   2   3
ATOM      3  C   UNL     1     -32.373  12.473  17.350  1.00  0.00     0.000 C 
BRANCH   3   4
ATOM      4  C   UNL     1     -33.878  12.383  17.034  1.00  0.00     0.000 C 
BRANCH   4   5
ATOM      5  C   UNL     1     -34.501  13.662  16.446  1.00  0.00     0.000 C 
BRANCH   5   6
ATOM      6  C   UNL     1     -34.811  14.726  17.514  1.00  0.00     0.006 C 
BRANCH   6   7
ATOM      7  C   UNL     1     -35.174  16.081  16.892  1.00  0.00     0.053 C 
BRANCH   7   8
ATOM      8  C   UNL     1     -35.716  17.031  17.916  1.00  0.00     0.041 C 
ATOM      9  O   UNL     1     -36.907  16.926  18.311  1.00  0.00    -0.550 OA
ATOM     10  O   UNL     1     -34.895  18.010  18.460  1.00  0.00    -0.550 OA
ENDBRANCH   7   8
ENDBRANCH   6   7
ENDBRANCH   5   6
ENDBRANCH   4   5
ENDBRANCH   3   4
ENDBRANCH   2   3
ENDBRANCH   1   2
BRANCH   1  11
ATOM     11  C   UNL     1     -33.494  10.511  20.242  1.00  0.00     0.000 C 
BRANCH  11  12
ATOM     12  C   UNL     1     -34.130  10.495  21.639  1.00  0.00    -0.000 C 
BRANCH  12  13
ATOM     13  C   UNL     1     -34.345  11.922  22.163  1.00  0.00    -0.000 C 
BRANCH  13  14
ATOM     14  C   UNL     1     -34.477  11.988  23.696  1.00  0.00    -0.000 C 
BRANCH  14  15
ATOM     15  C   UNL     1     -33.964  10.748  24.453  1.00  0.00    -0.000 C 
BRANCH  15  16
ATOM     16  C   UNL     1     -34.843  10.373  25.657  1.00  0.00    -0.000 C 
BRANCH  16  17
ATOM     17  C   UNL     1     -34.332   9.124  26.392  1.00  0.00    -0.003 C 
ATOM     18  C   UNL     1     -32.963   9.335  27.039  1.00  0.00     0.004 C 
ENDBRANCH  16  17
ENDBRANCH  15  16
ENDBRANCH  14  15
ENDBRANCH  13  14
ENDBRANCH  12  13
ENDBRANCH  11  12
ENDBRANCH   1  11
TORSDOF 14
ENDMDL
