MODEL 1
REMARK VINA RESULT:    -7.439      0.000      0.000
REMARK INTER + INTRA:         -12.047
REMARK INTER:                 -10.919
REMARK INTRA:                  -1.128
REMARK UNBOUND:                -1.128
REMARK SMILES O=c1c(O[C@@H]2O[C@H](CO)[C@@H](O)[C@@H](O)[C@H]2O)c(-c2ccc(O)c(O)c2)oc2cc(O)cc(O)c12
REMARK SMILES IDX 4 1 3 2 16 3 25 4 2 5 26 6 1 7 33 8 27 9 31 10 28 11 30 12
REMARK SMILES IDX 17 13 18 14 19 15 20 16 24 17 22 18 21 19 23 21 32 23 29 25
REMARK SMILES IDX 5 27 14 28 6 29 12 30 7 31 10 32 15 33 13 35 8 37 9 38 11 40
REMARK H PARENT 21 20 23 22 32 24 29 26 15 34 13 36 9 39 11 41
REMARK Flexibility Score: inf
ROOT
ATOM      1  O   UNL     1     157.979 169.756 174.177  1.00  0.00    -0.454 OA
ENDROOT
BRANCH   1   2
ATOM      2  C   UNL     1     158.103 168.384 173.927  1.00  0.00     0.214 A 
ATOM      3  C   UNL     1     158.865 167.893 172.849  1.00  0.00     0.180 A 
ATOM      4  O   UNL     1     158.864 166.591 172.586  1.00  0.00    -0.452 OA
ATOM      5  C   UNL     1     157.442 167.475 174.762  1.00  0.00     0.239 A 
ATOM      6  C   UNL     1     158.226 165.694 173.329  1.00  0.00     0.146 A 
ATOM      7  O   UNL     1     156.753 167.928 175.712  1.00  0.00    -0.285 OA
ATOM      8  C   UNL     1     157.518 166.087 174.496  1.00  0.00     0.111 A 
ATOM      9  C   UNL     1     158.269 164.353 172.942  1.00  0.00     0.094 A 
ATOM     10  C   UNL     1     156.900 165.074 175.289  1.00  0.00     0.134 A 
ATOM     11  C   UNL     1     157.613 163.380 173.691  1.00  0.00     0.123 A 
ATOM     12  C   UNL     1     156.932 163.743 174.855  1.00  0.00     0.093 A 
BRANCH   3  13
ATOM     13  C   UNL     1     159.678 168.778 171.987  1.00  0.00     0.025 A 
ATOM     14  C   UNL     1     160.903 169.273 172.460  1.00  0.00     0.016 A 
ATOM     15  C   UNL     1     161.683 170.112 171.659  1.00  0.00     0.051 A 
ATOM     16  C   UNL     1     161.244 170.477 170.379  1.00  0.00     0.157 A 
ATOM     17  C   UNL     1     159.229 169.166 170.711  1.00  0.00     0.062 A 
ATOM     18  C   UNL     1     160.008 170.003 169.906  1.00  0.00     0.158 A 
BRANCH  16  19
ATOM     19  O   UNL     1     162.026 171.308 169.580  1.00  0.00    -0.504 OA
ATOM     20  H   UNL     1     161.612 171.926 168.892  1.00  0.00     0.293 HD
ENDBRANCH  16  19
BRANCH  18  21
ATOM     21  O   UNL     1     159.537 170.356 168.641  1.00  0.00    -0.504 OA
ATOM     22  H   UNL     1     158.771 169.866 168.196  1.00  0.00     0.293 HD
ENDBRANCH  18  21
ENDBRANCH   3  13
BRANCH  10  23
ATOM     23  O   UNL     1     156.270 165.318 176.513  1.00  0.00    -0.507 OA
ATOM     24  H   UNL     1     155.404 164.895 176.809  1.00  0.00     0.293 HD
ENDBRANCH  10  23
BRANCH  11  25
ATOM     25  O   UNL     1     157.651 162.051 173.275  1.00  0.00    -0.508 OA
ATOM     26  H   UNL     1     158.200 161.356 173.768  1.00  0.00     0.293 HD
ENDBRANCH  11  25
ENDBRANCH   1   2
BRANCH   1  27
ATOM     27  C   UNL     1     158.271 170.345 175.447  1.00  0.00     0.339 C 
ATOM     28  C   UNL     1     159.756 170.746 175.548  1.00  0.00     0.214 C 
ATOM     29  O   UNL     1     157.392 171.429 175.716  1.00  0.00    -0.332 OA
ATOM     30  C   UNL     1     160.047 171.938 174.631  1.00  0.00     0.180 C 
ATOM     31  C   UNL     1     157.596 172.569 174.887  1.00  0.00     0.179 C 
ATOM     32  C   UNL     1     159.057 173.083 174.904  1.00  0.00     0.177 C 
BRANCH  28  33
ATOM     33  O   UNL     1     160.075 171.073 176.878  1.00  0.00    -0.384 OA
ATOM     34  H   UNL     1     161.049 170.921 176.986  1.00  0.00     0.211 HD
ENDBRANCH  28  33
BRANCH  30  35
ATOM     35  O   UNL     1     161.368 172.374 174.828  1.00  0.00    -0.387 OA
ATOM     36  H   UNL     1     161.902 172.024 174.066  1.00  0.00     0.211 HD
ENDBRANCH  30  35
BRANCH  31  37
ATOM     37  C   UNL     1     157.035 172.390 173.462  1.00  0.00     0.191 C 
BRANCH  37  38
ATOM     38  O   UNL     1     155.791 171.749 173.518  1.00  0.00    -0.394 OA
ATOM     39  H   UNL     1     155.805 171.055 172.808  1.00  0.00     0.210 HD
ENDBRANCH  37  38
ENDBRANCH  31  37
BRANCH  32  40
ATOM     40  O   UNL     1     159.342 173.665 176.152  1.00  0.00    -0.387 OA
ATOM     41  H   UNL     1     158.488 173.697 176.657  1.00  0.00     0.211 HD
ENDBRANCH  32  40
ENDBRANCH   1  27
TORSDOF 12
ENDMDL
MODEL 2
REMARK VINA RESULT:    -7.312      2.151      6.252
REMARK INTER + INTRA:         -11.860
REMARK INTER:                 -10.383
REMARK INTRA:                  -1.477
REMARK UNBOUND:                -1.128
REMARK SMILES O=c1c(O[C@@H]2O[C@H](CO)[C@@H](O)[C@@H](O)[C@H]2O)c(-c2ccc(O)c(O)c2)oc2cc(O)cc(O)c12
REMARK SMILES IDX 4 1 3 2 16 3 25 4 2 5 26 6 1 7 33 8 27 9 31 10 28 11 30 12
REMARK SMILES IDX 17 13 18 14 19 15 20 16 24 17 22 18 21 19 23 21 32 23 29 25
REMARK SMILES IDX 5 27 14 28 6 29 12 30 7 31 10 32 15 33 13 35 8 37 9 38 11 40
REMARK H PARENT 21 20 23 22 32 24 29 26 15 34 13 36 9 39 11 41
REMARK Flexibility Score: inf
ROOT
ATOM      1  O   UNL     1     159.186 171.345 173.393  1.00  0.00    -0.454 OA
ENDROOT
BRANCH   1   2
ATOM      2  C   UNL     1     160.353 171.170 172.639  1.00  0.00     0.214 A 
ATOM      3  C   UNL     1     160.752 169.901 172.175  1.00  0.00     0.180 A 
ATOM      4  O   UNL     1     161.921 169.767 171.559  1.00  0.00    -0.452 OA
ATOM      5  C   UNL     1     161.154 172.281 172.351  1.00  0.00     0.239 A 
ATOM      6  C   UNL     1     162.729 170.786 171.292  1.00  0.00     0.146 A 
ATOM      7  O   UNL     1     160.793 173.406 172.785  1.00  0.00    -0.285 OA
ATOM      8  C   UNL     1     162.361 172.115 171.631  1.00  0.00     0.111 A 
ATOM      9  C   UNL     1     163.949 170.525 170.666  1.00  0.00     0.094 A 
ATOM     10  C   UNL     1     163.242 173.177 171.269  1.00  0.00     0.134 A 
ATOM     11  C   UNL     1     164.828 171.563 170.370  1.00  0.00     0.123 A 
ATOM     12  C   UNL     1     164.474 172.880 170.674  1.00  0.00     0.093 A 
BRANCH   3  13
ATOM     13  C   UNL     1     159.910 168.696 172.344  1.00  0.00     0.025 A 
ATOM     14  C   UNL     1     160.008 167.940 173.522  1.00  0.00     0.016 A 
ATOM     15  C   UNL     1     159.221 166.799 173.697  1.00  0.00     0.051 A 
ATOM     16  C   UNL     1     158.335 166.390 172.692  1.00  0.00     0.157 A 
ATOM     17  C   UNL     1     159.037 168.269 171.327  1.00  0.00     0.062 A 
ATOM     18  C   UNL     1     158.247 167.128 171.499  1.00  0.00     0.158 A 
BRANCH  16  19
ATOM     19  O   UNL     1     157.547 165.254 172.871  1.00  0.00    -0.504 OA
ATOM     20  H   UNL     1     156.800 165.229 173.556  1.00  0.00     0.293 HD
ENDBRANCH  16  19
BRANCH  18  21
ATOM     21  O   UNL     1     157.382 166.741 170.474  1.00  0.00    -0.504 OA
ATOM     22  H   UNL     1     156.620 167.330 170.163  1.00  0.00     0.293 HD
ENDBRANCH  18  21
ENDBRANCH   3  13
BRANCH  10  23
ATOM     23  O   UNL     1     162.945 174.532 171.447  1.00  0.00    -0.507 OA
ATOM     24  H   UNL     1     163.624 175.277 171.430  1.00  0.00     0.293 HD
ENDBRANCH  10  23
BRANCH  11  25
ATOM     25  O   UNL     1     166.051 171.278 169.764  1.00  0.00    -0.508 OA
ATOM     26  H   UNL     1     166.174 171.344 168.761  1.00  0.00     0.293 HD
ENDBRANCH  11  25
ENDBRANCH   1   2
BRANCH   1  27
ATOM     27  C   UNL     1     159.153 171.220 174.817  1.00  0.00     0.339 C 
ATOM     28  C   UNL     1     159.249 172.599 175.500  1.00  0.00     0.214 C 
ATOM     29  O   UNL     1     158.014 170.481 175.234  1.00  0.00    -0.332 OA
ATOM     30  C   UNL     1     157.958 173.392 175.275  1.00  0.00     0.180 C 
ATOM     31  C   UNL     1     156.774 171.154 175.039  1.00  0.00     0.179 C 
ATOM     32  C   UNL     1     156.733 172.559 175.688  1.00  0.00     0.177 C 
BRANCH  28  33
ATOM     33  O   UNL     1     159.480 172.436 176.878  1.00  0.00    -0.384 OA
ATOM     34  H   UNL     1     158.591 172.354 177.311  1.00  0.00     0.211 HD
ENDBRANCH  28  33
BRANCH  30  35
ATOM     35  O   UNL     1     158.007 174.591 176.008  1.00  0.00    -0.387 OA
ATOM     36  H   UNL     1     158.345 175.291 175.390  1.00  0.00     0.211 HD
ENDBRANCH  30  35
BRANCH  31  37
ATOM     37  C   UNL     1     156.310 171.153 173.569  1.00  0.00     0.191 C 
BRANCH  37  38
ATOM     38  O   UNL     1     156.507 169.885 173.008  1.00  0.00    -0.394 OA
ATOM     39  H   UNL     1     156.907 170.038 172.112  1.00  0.00     0.210 HD
ENDBRANCH  37  38
ENDBRANCH  31  37
BRANCH  32  40
ATOM     40  O   UNL     1     156.698 172.436 177.089  1.00  0.00    -0.387 OA
ATOM     41  H   UNL     1     156.829 171.473 177.297  1.00  0.00     0.211 HD
ENDBRANCH  32  40
ENDBRANCH   1  27
TORSDOF 12
ENDMDL
MODEL 3
REMARK VINA RESULT:    -7.144      1.341      2.541
REMARK INTER + INTRA:         -11.613
REMARK INTER:                 -10.432
REMARK INTRA:                  -1.182
REMARK UNBOUND:                -1.128
REMARK SMILES O=c1c(O[C@@H]2O[C@H](CO)[C@@H](O)[C@@H](O)[C@H]2O)c(-c2ccc(O)c(O)c2)oc2cc(O)cc(O)c12
REMARK SMILES IDX 4 1 3 2 16 3 25 4 2 5 26 6 1 7 33 8 27 9 31 10 28 11 30 12
REMARK SMILES IDX 17 13 18 14 19 15 20 16 24 17 22 18 21 19 23 21 32 23 29 25
REMARK SMILES IDX 5 27 14 28 6 29 12 30 7 31 10 32 15 33 13 35 8 37 9 38 11 40
REMARK H PARENT 21 20 23 22 32 24 29 26 15 34 13 36 9 39 11 41
REMARK Flexibility Score: inf
ROOT
ATOM      1  O   UNL     1     158.036 168.514 174.801  1.00  0.00    -0.454 OA
ENDROOT
BRANCH   1   2
ATOM      2  C   UNL     1     158.059 167.250 174.199  1.00  0.00     0.214 A 
ATOM      3  C   UNL     1     158.624 167.046 172.925  1.00  0.00     0.180 A 
ATOM      4  O   UNL     1     158.525 165.855 172.347  1.00  0.00    -0.452 OA
ATOM      5  C   UNL     1     157.492 166.162 174.872  1.00  0.00     0.239 A 
ATOM      6  C   UNL     1     157.968 164.801 172.933  1.00  0.00     0.146 A 
ATOM      7  O   UNL     1     156.977 166.362 176.003  1.00  0.00    -0.285 OA
ATOM      8  C   UNL     1     157.464 164.887 174.258  1.00  0.00     0.111 A 
ATOM      9  C   UNL     1     157.891 163.603 172.221  1.00  0.00     0.094 A 
ATOM     10  C   UNL     1     156.929 163.709 174.859  1.00  0.00     0.134 A 
ATOM     11  C   UNL     1     157.313 162.474 172.796  1.00  0.00     0.123 A 
ATOM     12  C   UNL     1     156.834 162.532 174.107  1.00  0.00     0.093 A 
BRANCH   3  13
ATOM     13  C   UNL     1     159.336 168.118 172.194  1.00  0.00     0.025 A 
ATOM     14  C   UNL     1     160.457 168.729 172.777  1.00  0.00     0.016 A 
ATOM     15  C   UNL     1     161.140 169.744 172.101  1.00  0.00     0.051 A 
ATOM     16  C   UNL     1     160.705 170.171 170.840  1.00  0.00     0.157 A 
ATOM     17  C   UNL     1     158.887 168.566 170.939  1.00  0.00     0.062 A 
ATOM     18  C   UNL     1     159.569 169.580 170.258  1.00  0.00     0.158 A 
BRANCH  16  19
ATOM     19  O   UNL     1     161.391 171.179 170.165  1.00  0.00    -0.504 OA
ATOM     20  H   UNL     1     161.854 171.005 169.281  1.00  0.00     0.293 HD
ENDBRANCH  16  19
BRANCH  18  21
ATOM     21  O   UNL     1     159.104 169.990 169.009  1.00  0.00    -0.504 OA
ATOM     22  H   UNL     1     159.507 169.647 168.145  1.00  0.00     0.293 HD
ENDBRANCH  18  21
ENDBRANCH   3  13
BRANCH  10  23
ATOM     23  O   UNL     1     156.504 163.636 176.190  1.00  0.00    -0.507 OA
ATOM     24  H   UNL     1     156.287 162.781 176.678  1.00  0.00     0.293 HD
ENDBRANCH  10  23
BRANCH  11  25
ATOM     25  O   UNL     1     157.227 161.295 172.059  1.00  0.00    -0.508 OA
ATOM     26  H   UNL     1     156.493 160.617 172.227  1.00  0.00     0.293 HD
ENDBRANCH  11  25
ENDBRANCH   1   2
BRANCH   1  27
ATOM     27  C   UNL     1     157.027 169.489 174.525  1.00  0.00     0.339 C 
ATOM     28  C   UNL     1     155.984 169.549 175.660  1.00  0.00     0.214 C 
ATOM     29  O   UNL     1     157.609 170.756 174.250  1.00  0.00    -0.332 OA
ATOM     30  C   UNL     1     156.606 170.161 176.919  1.00  0.00     0.180 C 
ATOM     31  C   UNL     1     158.221 171.378 175.376  1.00  0.00     0.179 C 
ATOM     32  C   UNL     1     157.271 171.508 176.593  1.00  0.00     0.177 C 
BRANCH  28  33
ATOM     33  O   UNL     1     154.875 170.311 175.252  1.00  0.00    -0.384 OA
ATOM     34  H   UNL     1     155.232 171.109 174.780  1.00  0.00     0.211 HD
ENDBRANCH  28  33
BRANCH  30  35
ATOM     35  O   UNL     1     155.615 170.328 177.901  1.00  0.00    -0.387 OA
ATOM     36  H   UNL     1     155.076 169.493 177.910  1.00  0.00     0.211 HD
ENDBRANCH  30  35
BRANCH  31  37
ATOM     37  C   UNL     1     159.587 170.762 175.739  1.00  0.00     0.191 C 
BRANCH  37  38
ATOM     38  O   UNL     1     160.000 171.227 176.994  1.00  0.00    -0.394 OA
ATOM     39  H   UNL     1     160.636 171.969 176.819  1.00  0.00     0.210 HD
ENDBRANCH  37  38
ENDBRANCH  31  37
BRANCH  32  40
ATOM     40  O   UNL     1     156.282 172.470 176.322  1.00  0.00    -0.387 OA
ATOM     41  H   UNL     1     155.653 172.461 177.091  1.00  0.00     0.211 HD
ENDBRANCH  32  40
ENDBRANCH   1  27
TORSDOF 12
ENDMDL
MODEL 4
REMARK VINA RESULT:    -7.016      1.178      1.341
REMARK INTER + INTRA:         -11.425
REMARK INTER:                 -10.029
REMARK INTRA:                  -1.397
REMARK UNBOUND:                -1.128
REMARK SMILES O=c1c(O[C@@H]2O[C@H](CO)[C@@H](O)[C@@H](O)[C@H]2O)c(-c2ccc(O)c(O)c2)oc2cc(O)cc(O)c12
REMARK SMILES IDX 4 1 3 2 16 3 25 4 2 5 26 6 1 7 33 8 27 9 31 10 28 11 30 12
REMARK SMILES IDX 17 13 18 14 19 15 20 16 24 17 22 18 21 19 23 21 32 23 29 25
REMARK SMILES IDX 5 27 14 28 6 29 12 30 7 31 10 32 15 33 13 35 8 37 9 38 11 40
REMARK H PARENT 21 20 23 22 32 24 29 26 15 34 13 36 9 39 11 41
REMARK Flexibility Score: inf
ROOT
ATOM      1  O   UNL     1     157.710 168.877 174.453  1.00  0.00    -0.454 OA
ENDROOT
BRANCH   1   2
ATOM      2  C   UNL     1     157.860 167.554 174.017  1.00  0.00     0.214 A 
ATOM      3  C   UNL     1     158.606 167.234 172.865  1.00  0.00     0.180 A 
ATOM      4  O   UNL     1     158.629 165.980 172.428  1.00  0.00    -0.452 OA
ATOM      5  C   UNL     1     157.243 166.524 174.735  1.00  0.00     0.239 A 
ATOM      6  C   UNL     1     158.032 164.975 173.057  1.00  0.00     0.146 A 
ATOM      7  O   UNL     1     156.568 166.826 175.753  1.00  0.00    -0.285 OA
ATOM      8  C   UNL     1     157.345 165.187 174.281  1.00  0.00     0.111 A 
ATOM      9  C   UNL     1     158.097 163.700 172.491  1.00  0.00     0.094 A 
ATOM     10  C   UNL     1     156.771 164.060 174.943  1.00  0.00     0.134 A 
ATOM     11  C   UNL     1     157.483 162.617 173.115  1.00  0.00     0.123 A 
ATOM     12  C   UNL     1     156.824 162.801 174.332  1.00  0.00     0.093 A 
BRANCH   3  13
ATOM     13  C   UNL     1     159.375 168.249 172.113  1.00  0.00     0.025 A 
ATOM     14  C   UNL     1     160.517 168.824 172.692  1.00  0.00     0.016 A 
ATOM     15  C   UNL     1     161.255 169.786 171.996  1.00  0.00     0.051 A 
ATOM     16  C   UNL     1     160.855 170.195 170.717  1.00  0.00     0.157 A 
ATOM     17  C   UNL     1     158.963 168.680 170.839  1.00  0.00     0.062 A 
ATOM     18  C   UNL     1     159.700 169.640 170.138  1.00  0.00     0.158 A 
BRANCH  16  19
ATOM     19  O   UNL     1     161.596 171.149 170.023  1.00  0.00    -0.504 OA
ATOM     20  H   UNL     1     161.768 171.066 169.027  1.00  0.00     0.293 HD
ENDBRANCH  16  19
BRANCH  18  21
ATOM     21  O   UNL     1     159.269 170.034 168.871  1.00  0.00    -0.504 OA
ATOM     22  H   UNL     1     159.917 170.218 168.115  1.00  0.00     0.293 HD
ENDBRANCH  18  21
ENDBRANCH   3  13
BRANCH  10  23
ATOM     23  O   UNL     1     156.168 164.119 176.202  1.00  0.00    -0.507 OA
ATOM     24  H   UNL     1     155.259 163.742 176.424  1.00  0.00     0.293 HD
ENDBRANCH  10  23
BRANCH  11  25
ATOM     25  O   UNL     1     157.542 161.358 172.522  1.00  0.00    -0.508 OA
ATOM     26  H   UNL     1     157.048 160.564 172.912  1.00  0.00     0.293 HD
ENDBRANCH  11  25
ENDBRANCH   1   2
BRANCH   1  27
ATOM     27  C   UNL     1     158.329 169.379 175.641  1.00  0.00     0.339 C 
ATOM     28  C   UNL     1     159.311 170.523 175.318  1.00  0.00     0.214 C 
ATOM     29  O   UNL     1     157.351 169.752 176.601  1.00  0.00    -0.332 OA
ATOM     30  C   UNL     1     158.542 171.771 174.872  1.00  0.00     0.180 C 
ATOM     31  C   UNL     1     156.585 170.899 176.244  1.00  0.00     0.179 C 
ATOM     32  C   UNL     1     157.457 172.132 175.900  1.00  0.00     0.177 C 
BRANCH  28  33
ATOM     33  O   UNL     1     160.092 170.817 176.449  1.00  0.00    -0.384 OA
ATOM     34  H   UNL     1     159.971 170.066 177.086  1.00  0.00     0.211 HD
ENDBRANCH  28  33
BRANCH  30  35
ATOM     35  O   UNL     1     159.437 172.841 174.705  1.00  0.00    -0.387 OA
ATOM     36  H   UNL     1     158.994 173.493 174.100  1.00  0.00     0.211 HD
ENDBRANCH  30  35
BRANCH  31  37
ATOM     37  C   UNL     1     155.512 170.602 175.178  1.00  0.00     0.191 C 
BRANCH  37  38
ATOM     38  O   UNL     1     154.937 169.348 175.418  1.00  0.00    -0.394 OA
ATOM     39  H   UNL     1     153.955 169.473 175.334  1.00  0.00     0.210 HD
ENDBRANCH  37  38
ENDBRANCH  31  37
BRANCH  32  40
ATOM     40  O   UNL     1     158.062 172.628 177.069  1.00  0.00    -0.387 OA
ATOM     41  H   UNL     1     157.644 172.151 177.834  1.00  0.00     0.211 HD
ENDBRANCH  32  40
ENDBRANCH   1  27
TORSDOF 12
ENDMDL
MODEL 5
REMARK VINA RESULT:    -6.832      2.148      6.491
REMARK INTER + INTRA:         -11.155
REMARK INTER:                  -9.416
REMARK INTRA:                  -1.739
REMARK UNBOUND:                -1.128
REMARK SMILES O=c1c(O[C@@H]2O[C@H](CO)[C@@H](O)[C@@H](O)[C@H]2O)c(-c2ccc(O)c(O)c2)oc2cc(O)cc(O)c12
REMARK SMILES IDX 4 1 3 2 16 3 25 4 2 5 26 6 1 7 33 8 27 9 31 10 28 11 30 12
REMARK SMILES IDX 17 13 18 14 19 15 20 16 24 17 22 18 21 19 23 21 32 23 29 25
REMARK SMILES IDX 5 27 14 28 6 29 12 30 7 31 10 32 15 33 13 35 8 37 9 38 11 40
REMARK H PARENT 21 20 23 22 32 24 29 26 15 34 13 36 9 39 11 41
REMARK Flexibility Score: inf
ROOT
ATOM      1  O   UNL     1     159.367 171.072 173.866  1.00  0.00    -0.454 OA
ENDROOT
BRANCH   1   2
ATOM      2  C   UNL     1     160.439 170.989 172.970  1.00  0.00     0.214 A 
ATOM      3  C   UNL     1     160.743 169.794 172.287  1.00  0.00     0.180 A 
ATOM      4  O   UNL     1     161.834 169.732 171.531  1.00  0.00    -0.452 OA
ATOM      5  C   UNL     1     161.240 172.116 172.756  1.00  0.00     0.239 A 
ATOM      6  C   UNL     1     162.641 170.765 171.325  1.00  0.00     0.146 A 
ATOM      7  O   UNL     1     160.966 173.171 173.385  1.00  0.00    -0.285 OA
ATOM      8  C   UNL     1     162.357 172.036 171.890  1.00  0.00     0.111 A 
ATOM      9  C   UNL     1     163.778 170.577 170.535  1.00  0.00     0.094 A 
ATOM     10  C   UNL     1     163.228 173.125 171.587  1.00  0.00     0.134 A 
ATOM     11  C   UNL     1     164.654 171.633 170.294  1.00  0.00     0.123 A 
ATOM     12  C   UNL     1     164.377 172.897 170.821  1.00  0.00     0.093 A 
BRANCH   3  13
ATOM     13  C   UNL     1     159.885 168.592 172.374  1.00  0.00     0.025 A 
ATOM     14  C   UNL     1     159.923 167.795 173.528  1.00  0.00     0.016 A 
ATOM     15  C   UNL     1     159.120 166.656 173.627  1.00  0.00     0.051 A 
ATOM     16  C   UNL     1     158.277 166.290 172.568  1.00  0.00     0.157 A 
ATOM     17  C   UNL     1     159.057 168.209 171.304  1.00  0.00     0.062 A 
ATOM     18  C   UNL     1     158.250 167.071 171.399  1.00  0.00     0.158 A 
BRANCH  16  19
ATOM     19  O   UNL     1     157.473 165.157 172.671  1.00  0.00    -0.504 OA
ATOM     20  H   UNL     1     157.633 164.339 172.095  1.00  0.00     0.293 HD
ENDBRANCH  16  19
BRANCH  18  21
ATOM     21  O   UNL     1     157.431 166.728 170.323  1.00  0.00    -0.504 OA
ATOM     22  H   UNL     1     157.289 167.349 169.536  1.00  0.00     0.293 HD
ENDBRANCH  18  21
ENDBRANCH   3  13
BRANCH  10  23
ATOM     23  O   UNL     1     162.997 174.444 171.990  1.00  0.00    -0.507 OA
ATOM     24  H   UNL     1     163.007 174.764 172.945  1.00  0.00     0.293 HD
ENDBRANCH  10  23
BRANCH  11  25
ATOM     25  O   UNL     1     165.793 171.418 169.521  1.00  0.00    -0.508 OA
ATOM     26  H   UNL     1     166.572 170.870 169.866  1.00  0.00     0.293 HD
ENDBRANCH  11  25
ENDBRANCH   1   2
BRANCH   1  27
ATOM     27  C   UNL     1     158.056 171.489 173.474  1.00  0.00     0.339 C 
ATOM     28  C   UNL     1     157.065 170.308 173.495  1.00  0.00     0.214 C 
ATOM     29  O   UNL     1     157.617 172.585 174.264  1.00  0.00    -0.332 OA
ATOM     30  C   UNL     1     156.785 169.876 174.938  1.00  0.00     0.180 C 
ATOM     31  C   UNL     1     157.352 172.258 175.626  1.00  0.00     0.179 C 
ATOM     32  C   UNL     1     156.356 171.083 175.788  1.00  0.00     0.177 C 
BRANCH  28  33
ATOM     33  O   UNL     1     155.866 170.678 172.862  1.00  0.00    -0.384 OA
ATOM     34  H   UNL     1     155.537 169.877 172.377  1.00  0.00     0.211 HD
ENDBRANCH  28  33
BRANCH  30  35
ATOM     35  O   UNL     1     155.786 168.888 174.948  1.00  0.00    -0.387 OA
ATOM     36  H   UNL     1     155.645 168.632 175.898  1.00  0.00     0.211 HD
ENDBRANCH  30  35
BRANCH  31  37
ATOM     37  C   UNL     1     158.632 172.087 176.467  1.00  0.00     0.191 C 
BRANCH  37  38
ATOM     38  O   UNL     1     159.570 173.064 176.111  1.00  0.00    -0.394 OA
ATOM     39  H   UNL     1     160.292 172.589 175.622  1.00  0.00     0.210 HD
ENDBRANCH  37  38
ENDBRANCH  31  37
BRANCH  32  40
ATOM     40  O   UNL     1     155.067 171.495 175.407  1.00  0.00    -0.387 OA
ATOM     41  H   UNL     1     154.503 171.474 176.224  1.00  0.00     0.211 HD
ENDBRANCH  32  40
ENDBRANCH   1  27
TORSDOF 12
ENDMDL
MODEL 6
REMARK VINA RESULT:    -6.825      2.704      6.821
REMARK INTER + INTRA:         -11.146
REMARK INTER:                  -9.800
REMARK INTRA:                  -1.346
REMARK UNBOUND:                -1.128
REMARK SMILES O=c1c(O[C@@H]2O[C@H](CO)[C@@H](O)[C@@H](O)[C@H]2O)c(-c2ccc(O)c(O)c2)oc2cc(O)cc(O)c12
REMARK SMILES IDX 4 1 3 2 16 3 25 4 2 5 26 6 1 7 33 8 27 9 31 10 28 11 30 12
REMARK SMILES IDX 17 13 18 14 19 15 20 16 24 17 22 18 21 19 23 21 32 23 29 25
REMARK SMILES IDX 5 27 14 28 6 29 12 30 7 31 10 32 15 33 13 35 8 37 9 38 11 40
REMARK H PARENT 21 20 23 22 32 24 29 26 15 34 13 36 9 39 11 41
REMARK Flexibility Score: inf
ROOT
ATOM      1  O   UNL     1     160.090 172.352 172.098  1.00  0.00    -0.454 OA
ENDROOT
BRANCH   1   2
ATOM      2  C   UNL     1     161.333 171.902 171.637  1.00  0.00     0.214 A 
ATOM      3  C   UNL     1     161.579 170.538 171.383  1.00  0.00     0.180 A 
ATOM      4  O   UNL     1     162.804 170.144 171.052  1.00  0.00    -0.452 OA
ATOM      5  C   UNL     1     162.364 172.827 171.436  1.00  0.00     0.239 A 
ATOM      6  C   UNL     1     163.820 170.981 170.881  1.00  0.00     0.146 A 
ATOM      7  O   UNL     1     162.134 174.040 171.681  1.00  0.00    -0.285 OA
ATOM      8  C   UNL     1     163.640 172.383 171.015  1.00  0.00     0.111 A 
ATOM      9  C   UNL     1     165.073 170.453 170.563  1.00  0.00     0.094 A 
ATOM     10  C   UNL     1     164.754 173.238 170.764  1.00  0.00     0.134 A 
ATOM     11  C   UNL     1     166.168 171.294 170.377  1.00  0.00     0.123 A 
ATOM     12  C   UNL     1     166.005 172.677 170.481  1.00  0.00     0.093 A 
BRANCH   3  13
ATOM     13  C   UNL     1     160.516 169.513 171.467  1.00  0.00     0.025 A 
ATOM     14  C   UNL     1     159.576 169.400 170.430  1.00  0.00     0.016 A 
ATOM     15  C   UNL     1     158.565 168.438 170.495  1.00  0.00     0.051 A 
ATOM     16  C   UNL     1     158.470 167.584 171.602  1.00  0.00     0.157 A 
ATOM     17  C   UNL     1     160.403 168.670 172.588  1.00  0.00     0.062 A 
ATOM     18  C   UNL     1     159.393 167.705 172.655  1.00  0.00     0.158 A 
BRANCH  16  19
ATOM     19  O   UNL     1     157.464 166.622 171.661  1.00  0.00    -0.504 OA
ATOM     20  H   UNL     1     157.317 166.059 172.491  1.00  0.00     0.293 HD
ENDBRANCH  16  19
BRANCH  18  21
ATOM     21  O   UNL     1     159.320 166.878 173.776  1.00  0.00    -0.504 OA
ATOM     22  H   UNL     1     158.559 166.939 174.442  1.00  0.00     0.293 HD
ENDBRANCH  18  21
ENDBRANCH   3  13
BRANCH  10  23
ATOM     23  O   UNL     1     164.679 174.635 170.755  1.00  0.00    -0.507 OA
ATOM     24  H   UNL     1     163.912 175.172 171.127  1.00  0.00     0.293 HD
ENDBRANCH  10  23
BRANCH  11  25
ATOM     25  O   UNL     1     167.414 170.745 170.081  1.00  0.00    -0.508 OA
ATOM     26  H   UNL     1     168.085 171.235 169.502  1.00  0.00     0.293 HD
ENDBRANCH  11  25
ENDBRANCH   1   2
BRANCH   1  27
ATOM     27  C   UNL     1     159.604 172.079 173.416  1.00  0.00     0.339 C 
ATOM     28  C   UNL     1     160.452 172.799 174.483  1.00  0.00     0.214 C 
ATOM     29  O   UNL     1     158.220 172.386 173.517  1.00  0.00    -0.332 OA
ATOM     30  C   UNL     1     160.211 174.311 174.421  1.00  0.00     0.180 C 
ATOM     31  C   UNL     1     157.921 173.778 173.451  1.00  0.00     0.179 C 
ATOM     32  C   UNL     1     158.707 174.621 174.485  1.00  0.00     0.177 C 
BRANCH  28  33
ATOM     33  O   UNL     1     160.126 172.313 175.761  1.00  0.00    -0.384 OA
ATOM     34  H   UNL     1     159.317 172.805 176.060  1.00  0.00     0.211 HD
ENDBRANCH  28  33
BRANCH  30  35
ATOM     35  O   UNL     1     160.889 174.940 175.478  1.00  0.00    -0.387 OA
ATOM     36  H   UNL     1     160.283 175.645 175.828  1.00  0.00     0.211 HD
ENDBRANCH  30  35
BRANCH  31  37
ATOM     37  C   UNL     1     158.003 174.346 172.020  1.00  0.00     0.191 C 
BRANCH  37  38
ATOM     38  O   UNL     1     157.436 173.440 171.114  1.00  0.00    -0.394 OA
ATOM     39  H   UNL     1     157.073 173.985 170.369  1.00  0.00     0.210 HD
ENDBRANCH  37  38
ENDBRANCH  31  37
BRANCH  32  40
ATOM     40  O   UNL     1     158.225 174.355 175.779  1.00  0.00    -0.387 OA
ATOM     41  H   UNL     1     158.936 173.848 176.253  1.00  0.00     0.211 HD
ENDBRANCH  32  40
ENDBRANCH   1  27
TORSDOF 12
ENDMDL
MODEL 7
REMARK VINA RESULT:    -6.803      8.915     13.571
REMARK INTER + INTRA:         -11.113
REMARK INTER:                  -9.911
REMARK INTRA:                  -1.202
REMARK UNBOUND:                -1.128
REMARK SMILES O=c1c(O[C@@H]2O[C@H](CO)[C@@H](O)[C@@H](O)[C@H]2O)c(-c2ccc(O)c(O)c2)oc2cc(O)cc(O)c12
REMARK SMILES IDX 4 1 3 2 16 3 25 4 2 5 26 6 1 7 33 8 27 9 31 10 28 11 30 12
REMARK SMILES IDX 17 13 18 14 19 15 20 16 24 17 22 18 21 19 23 21 32 23 29 25
REMARK SMILES IDX 5 27 14 28 6 29 12 30 7 31 10 32 15 33 13 35 8 37 9 38 11 40
REMARK H PARENT 21 20 23 22 32 24 29 26 15 34 13 36 9 39 11 41
REMARK Flexibility Score: inf
ROOT
ATOM      1  O   UNL     1     168.302 171.622 168.630  1.00  0.00    -0.454 OA
ENDROOT
BRANCH   1   2
ATOM      2  C   UNL     1     169.467 171.665 167.853  1.00  0.00     0.214 A 
ATOM      3  C   UNL     1     170.685 171.129 168.315  1.00  0.00     0.180 A 
ATOM      4  O   UNL     1     171.787 171.290 167.591  1.00  0.00    -0.452 OA
ATOM      5  C   UNL     1     169.425 172.268 166.591  1.00  0.00     0.239 A 
ATOM      6  C   UNL     1     171.803 171.884 166.404  1.00  0.00     0.146 A 
ATOM      7  O   UNL     1     168.333 172.756 166.198  1.00  0.00    -0.285 OA
ATOM      8  C   UNL     1     170.603 172.363 165.813  1.00  0.00     0.111 A 
ATOM      9  C   UNL     1     173.025 172.025 165.744  1.00  0.00     0.094 A 
ATOM     10  C   UNL     1     170.671 172.940 164.510  1.00  0.00     0.134 A 
ATOM     11  C   UNL     1     173.088 172.644 164.498  1.00  0.00     0.123 A 
ATOM     12  C   UNL     1     171.915 173.099 163.889  1.00  0.00     0.093 A 
BRANCH   3  13
ATOM     13  C   UNL     1     170.789 170.382 169.587  1.00  0.00     0.025 A 
ATOM     14  C   UNL     1     171.496 170.939 170.664  1.00  0.00     0.016 A 
ATOM     15  C   UNL     1     171.605 170.246 171.873  1.00  0.00     0.051 A 
ATOM     16  C   UNL     1     171.020 168.981 172.018  1.00  0.00     0.157 A 
ATOM     17  C   UNL     1     170.224 169.101 169.728  1.00  0.00     0.062 A 
ATOM     18  C   UNL     1     170.330 168.406 170.937  1.00  0.00     0.158 A 
BRANCH  16  19
ATOM     19  O   UNL     1     171.125 168.295 173.226  1.00  0.00    -0.504 OA
ATOM     20  H   UNL     1     170.706 168.651 174.077  1.00  0.00     0.293 HD
ENDBRANCH  16  19
BRANCH  18  21
ATOM     21  O   UNL     1     169.746 167.143 171.045  1.00  0.00    -0.504 OA
ATOM     22  H   UNL     1     169.652 166.668 171.935  1.00  0.00     0.293 HD
ENDBRANCH  18  21
ENDBRANCH   3  13
BRANCH  10  23
ATOM     23  O   UNL     1     169.551 173.347 163.778  1.00  0.00    -0.507 OA
ATOM     24  H   UNL     1     169.297 174.306 163.599  1.00  0.00     0.293 HD
ENDBRANCH  10  23
BRANCH  11  25
ATOM     25  O   UNL     1     174.321 172.794 163.866  1.00  0.00    -0.508 OA
ATOM     26  H   UNL     1     175.192 172.697 164.373  1.00  0.00     0.293 HD
ENDBRANCH  11  25
ENDBRANCH   1   2
BRANCH   1  27
ATOM     27  C   UNL     1     168.029 172.559 169.675  1.00  0.00     0.339 C 
ATOM     28  C   UNL     1     167.127 173.705 169.175  1.00  0.00     0.214 C 
ATOM     29  O   UNL     1     167.496 171.902 170.817  1.00  0.00    -0.332 OA
ATOM     30  C   UNL     1     165.710 173.187 168.908  1.00  0.00     0.180 C 
ATOM     31  C   UNL     1     166.183 171.380 170.634  1.00  0.00     0.179 C 
ATOM     32  C   UNL     1     165.168 172.439 170.137  1.00  0.00     0.177 C 
BRANCH  28  33
ATOM     33  O   UNL     1     167.090 174.737 170.129  1.00  0.00    -0.384 OA
ATOM     34  H   UNL     1     166.165 174.764 170.489  1.00  0.00     0.211 HD
ENDBRANCH  28  33
BRANCH  30  35
ATOM     35  O   UNL     1     164.869 174.263 168.577  1.00  0.00    -0.387 OA
ATOM     36  H   UNL     1     163.940 173.972 168.772  1.00  0.00     0.211 HD
ENDBRANCH  30  35
BRANCH  31  37
ATOM     37  C   UNL     1     166.158 170.083 169.802  1.00  0.00     0.191 C 
BRANCH  37  38
ATOM     38  O   UNL     1     165.057 169.300 170.172  1.00  0.00    -0.394 OA
ATOM     39  H   UNL     1     165.243 168.385 169.837  1.00  0.00     0.210 HD
ENDBRANCH  37  38
ENDBRANCH  31  37
BRANCH  32  40
ATOM     40  O   UNL     1     164.898 173.358 171.166  1.00  0.00    -0.387 OA
ATOM     41  H   UNL     1     164.349 174.085 170.769  1.00  0.00     0.211 HD
ENDBRANCH  32  40
ENDBRANCH   1  27
TORSDOF 12
ENDMDL
MODEL 8
REMARK VINA RESULT:    -6.702      8.739     13.699
REMARK INTER + INTRA:         -10.964
REMARK INTER:                 -10.198
REMARK INTRA:                  -0.766
REMARK UNBOUND:                -1.128
REMARK SMILES O=c1c(O[C@@H]2O[C@H](CO)[C@@H](O)[C@@H](O)[C@H]2O)c(-c2ccc(O)c(O)c2)oc2cc(O)cc(O)c12
REMARK SMILES IDX 4 1 3 2 16 3 25 4 2 5 26 6 1 7 33 8 27 9 31 10 28 11 30 12
REMARK SMILES IDX 17 13 18 14 19 15 20 16 24 17 22 18 21 19 23 21 32 23 29 25
REMARK SMILES IDX 5 27 14 28 6 29 12 30 7 31 10 32 15 33 13 35 8 37 9 38 11 40
REMARK H PARENT 21 20 23 22 32 24 29 26 15 34 13 36 9 39 11 41
REMARK Flexibility Score: inf
ROOT
ATOM      1  O   UNL     1     168.132 172.701 166.557  1.00  0.00    -0.454 OA
ENDROOT
BRANCH   1   2
ATOM      2  C   UNL     1     169.291 172.145 167.113  1.00  0.00     0.214 A 
ATOM      3  C   UNL     1     169.337 171.713 168.453  1.00  0.00     0.180 A 
ATOM      4  O   UNL     1     170.488 171.295 168.967  1.00  0.00    -0.452 OA
ATOM      5  C   UNL     1     170.440 172.029 166.322  1.00  0.00     0.239 A 
ATOM      6  C   UNL     1     171.611 171.197 168.266  1.00  0.00     0.146 A 
ATOM      7  O   UNL     1     170.389 172.433 165.131  1.00  0.00    -0.285 OA
ATOM      8  C   UNL     1     171.634 171.513 166.881  1.00  0.00     0.111 A 
ATOM      9  C   UNL     1     172.771 170.774 168.917  1.00  0.00     0.094 A 
ATOM     10  C   UNL     1     172.854 171.335 166.164  1.00  0.00     0.134 A 
ATOM     11  C   UNL     1     173.971 170.659 168.220  1.00  0.00     0.123 A 
ATOM     12  C   UNL     1     174.008 170.942 166.852  1.00  0.00     0.093 A 
BRANCH   3  13
ATOM     13  C   UNL     1     168.140 171.702 169.322  1.00  0.00     0.025 A 
ATOM     14  C   UNL     1     167.883 172.796 170.163  1.00  0.00     0.016 A 
ATOM     15  C   UNL     1     166.757 172.801 170.992  1.00  0.00     0.051 A 
ATOM     16  C   UNL     1     165.879 171.709 170.999  1.00  0.00     0.157 A 
ATOM     17  C   UNL     1     167.270 170.597 169.351  1.00  0.00     0.062 A 
ATOM     18  C   UNL     1     166.141 170.600 170.177  1.00  0.00     0.158 A 
BRANCH  16  19
ATOM     19  O   UNL     1     164.754 171.720 171.822  1.00  0.00    -0.504 OA
ATOM     20  H   UNL     1     163.916 172.229 171.568  1.00  0.00     0.293 HD
ENDBRANCH  16  19
BRANCH  18  21
ATOM     21  O   UNL     1     165.293 169.492 170.169  1.00  0.00    -0.504 OA
ATOM     22  H   UNL     1     164.779 169.213 169.342  1.00  0.00     0.293 HD
ENDBRANCH  18  21
ENDBRANCH   3  13
BRANCH  10  23
ATOM     23  O   UNL     1     172.979 171.504 164.782  1.00  0.00    -0.507 OA
ATOM     24  H   UNL     1     172.969 170.756 164.107  1.00  0.00     0.293 HD
ENDBRANCH  10  23
BRANCH  11  25
ATOM     25  O   UNL     1     175.122 170.255 168.894  1.00  0.00    -0.508 OA
ATOM     26  H   UNL     1     175.286 169.283 169.126  1.00  0.00     0.293 HD
ENDBRANCH  11  25
ENDBRANCH   1   2
BRANCH   1  27
ATOM     27  C   UNL     1     168.112 173.980 165.917  1.00  0.00     0.339 C 
ATOM     28  C   UNL     1     167.653 173.862 164.450  1.00  0.00     0.214 C 
ATOM     29  O   UNL     1     167.334 174.906 166.661  1.00  0.00    -0.332 OA
ATOM     30  C   UNL     1     166.163 173.513 164.387  1.00  0.00     0.180 C 
ATOM     31  C   UNL     1     165.936 174.632 166.660  1.00  0.00     0.179 C 
ATOM     32  C   UNL     1     165.341 174.496 165.236  1.00  0.00     0.177 C 
BRANCH  28  33
ATOM     33  O   UNL     1     167.892 175.072 163.775  1.00  0.00    -0.384 OA
ATOM     34  H   UNL     1     167.304 175.755 164.190  1.00  0.00     0.211 HD
ENDBRANCH  28  33
BRANCH  30  35
ATOM     35  O   UNL     1     165.729 173.535 163.051  1.00  0.00    -0.387 OA
ATOM     36  H   UNL     1     165.986 172.662 162.651  1.00  0.00     0.211 HD
ENDBRANCH  30  35
BRANCH  31  37
ATOM     37  C   UNL     1     165.547 173.465 167.590  1.00  0.00     0.191 C 
BRANCH  37  38
ATOM     38  O   UNL     1     164.639 173.912 168.559  1.00  0.00    -0.394 OA
ATOM     39  H   UNL     1     163.735 173.793 168.167  1.00  0.00     0.210 HD
ENDBRANCH  37  38
ENDBRANCH  31  37
BRANCH  32  40
ATOM     40  O   UNL     1     165.319 175.755 164.609  1.00  0.00    -0.387 OA
ATOM     41  H   UNL     1     165.404 176.437 165.327  1.00  0.00     0.211 HD
ENDBRANCH  32  40
ENDBRANCH   1  27
TORSDOF 12
ENDMDL
MODEL 9
REMARK VINA RESULT:    -6.622      8.747     13.676
REMARK INTER + INTRA:         -10.846
REMARK INTER:                  -9.482
REMARK INTRA:                  -1.364
REMARK UNBOUND:                -1.128
REMARK SMILES O=c1c(O[C@@H]2O[C@H](CO)[C@@H](O)[C@@H](O)[C@H]2O)c(-c2ccc(O)c(O)c2)oc2cc(O)cc(O)c12
REMARK SMILES IDX 4 1 3 2 16 3 25 4 2 5 26 6 1 7 33 8 27 9 31 10 28 11 30 12
REMARK SMILES IDX 17 13 18 14 19 15 20 16 24 17 22 18 21 19 23 21 32 23 29 25
REMARK SMILES IDX 5 27 14 28 6 29 12 30 7 31 10 32 15 33 13 35 8 37 9 38 11 40
REMARK H PARENT 21 20 23 22 32 24 29 26 15 34 13 36 9 39 11 41
REMARK Flexibility Score: inf
ROOT
ATOM      1  O   UNL     1     167.876 173.096 168.763  1.00  0.00    -0.454 OA
ENDROOT
BRANCH   1   2
ATOM      2  C   UNL     1     168.931 173.373 167.884  1.00  0.00     0.214 A 
ATOM      3  C   UNL     1     170.254 172.981 168.168  1.00  0.00     0.180 A 
ATOM      4  O   UNL     1     171.237 173.360 167.359  1.00  0.00    -0.452 OA
ATOM      5  C   UNL     1     168.668 174.070 166.700  1.00  0.00     0.239 A 
ATOM      6  C   UNL     1     171.040 174.050 166.241  1.00  0.00     0.146 A 
ATOM      7  O   UNL     1     167.484 174.427 166.467  1.00  0.00    -0.285 OA
ATOM      8  C   UNL     1     169.729 174.399 165.823  1.00  0.00     0.111 A 
ATOM      9  C   UNL     1     172.151 174.422 165.482  1.00  0.00     0.094 A 
ATOM     10  C   UNL     1     169.572 175.090 164.584  1.00  0.00     0.134 A 
ATOM     11  C   UNL     1     171.991 175.147 164.304  1.00  0.00     0.123 A 
ATOM     12  C   UNL     1     170.707 175.479 163.863  1.00  0.00     0.093 A 
BRANCH   3  13
ATOM     13  C   UNL     1     170.599 172.150 169.342  1.00  0.00     0.025 A 
ATOM     14  C   UNL     1     171.230 172.740 170.449  1.00  0.00     0.016 A 
ATOM     15  C   UNL     1     171.564 171.969 171.566  1.00  0.00     0.051 A 
ATOM     16  C   UNL     1     171.283 170.597 171.588  1.00  0.00     0.157 A 
ATOM     17  C   UNL     1     170.341 170.767 169.358  1.00  0.00     0.062 A 
ATOM     18  C   UNL     1     170.671 169.993 170.475  1.00  0.00     0.158 A 
BRANCH  16  19
ATOM     19  O   UNL     1     171.611 169.831 172.705  1.00  0.00    -0.504 OA
ATOM     20  H   UNL     1     170.950 169.680 173.458  1.00  0.00     0.293 HD
ENDBRANCH  16  19
BRANCH  18  21
ATOM     21  O   UNL     1     170.388 168.628 170.461  1.00  0.00    -0.504 OA
ATOM     22  H   UNL     1     170.363 168.074 171.309  1.00  0.00     0.293 HD
ENDBRANCH  18  21
ENDBRANCH   3  13
BRANCH  10  23
ATOM     23  O   UNL     1     168.334 175.392 164.010  1.00  0.00    -0.507 OA
ATOM     24  H   UNL     1     167.860 176.278 164.096  1.00  0.00     0.293 HD
ENDBRANCH  10  23
BRANCH  11  25
ATOM     25  O   UNL     1     173.114 175.527 163.572  1.00  0.00    -0.508 OA
ATOM     26  H   UNL     1     173.726 174.841 163.145  1.00  0.00     0.293 HD
ENDBRANCH  11  25
ENDBRANCH   1   2
BRANCH   1  27
ATOM     27  C   UNL     1     166.969 172.007 168.571  1.00  0.00     0.339 C 
ATOM     28  C   UNL     1     166.776 171.205 169.874  1.00  0.00     0.214 C 
ATOM     29  O   UNL     1     165.741 172.463 168.023  1.00  0.00    -0.332 OA
ATOM     30  C   UNL     1     165.985 172.031 170.893  1.00  0.00     0.180 C 
ATOM     31  C   UNL     1     164.958 173.254 168.913  1.00  0.00     0.179 C 
ATOM     32  C   UNL     1     164.682 172.556 170.267  1.00  0.00     0.177 C 
BRANCH  28  33
ATOM     33  O   UNL     1     166.100 170.003 169.601  1.00  0.00    -0.384 OA
ATOM     34  H   UNL     1     166.465 169.655 168.746  1.00  0.00     0.211 HD
ENDBRANCH  28  33
BRANCH  30  35
ATOM     35  O   UNL     1     165.706 171.245 172.023  1.00  0.00    -0.387 OA
ATOM     36  H   UNL     1     164.871 170.744 171.826  1.00  0.00     0.211 HD
ENDBRANCH  30  35
BRANCH  31  37
ATOM     37  C   UNL     1     165.490 174.692 169.072  1.00  0.00     0.191 C 
BRANCH  37  38
ATOM     38  O   UNL     1     165.098 175.469 167.974  1.00  0.00    -0.394 OA
ATOM     39  H   UNL     1     164.168 175.195 167.760  1.00  0.00     0.210 HD
ENDBRANCH  37  38
ENDBRANCH  31  37
BRANCH  32  40
ATOM     40  O   UNL     1     163.787 171.488 170.078  1.00  0.00    -0.387 OA
ATOM     41  H   UNL     1     163.442 171.237 170.975  1.00  0.00     0.211 HD
ENDBRANCH  32  40
ENDBRANCH   1  27
TORSDOF 12
ENDMDL
