MODEL 1
REMARK VINA RESULT:    -2.397      0.000      0.000
REMARK INTER + INTRA:          -6.242
REMARK INTER:                  -5.200
REMARK INTRA:                  -1.042
REMARK UNBOUND:                -1.042
REMARK SMILES CCCCCCCCCCCCCCCCCCCCCC(=O)[O-]
REMARK SMILES IDX 12 1 11 2 10 3 9 4 8 5 7 6 6 7 5 8 4 9 3 10 2 11 1 12 13 13
REMARK SMILES IDX 14 14 15 15 16 16 17 17 18 18 19 19 20 20 21 21 22 22 23 23
REMARK SMILES IDX 24 24
REMARK H PARENT
REMARK Flexibility Score: inf
ROOT
ATOM      1  C   UNL     1       4.053  11.099   7.549  1.00  0.00     0.000 C 
ENDROOT
BRANCH   1   2
ATOM      2  C   UNL     1       5.418  11.812   7.575  1.00  0.00     0.000 C 
BRANCH   2   3
ATOM      3  C   UNL     1       6.125  11.703   8.936  1.00  0.00     0.000 C 
BRANCH   3   4
ATOM      4  C   UNL     1       7.000  12.927   9.247  1.00  0.00    -0.000 C 
BRANCH   4   5
ATOM      5  C   UNL     1       8.262  12.993   8.372  1.00  0.00    -0.000 C 
BRANCH   5   6
ATOM      6  C   UNL     1       8.755  11.585   8.012  1.00  0.00    -0.000 C 
BRANCH   6   7
ATOM      7  C   UNL     1       9.253  11.531   6.561  1.00  0.00    -0.000 C 
BRANCH   7   8
ATOM      8  C   UNL     1       8.747  12.710   5.714  1.00  0.00    -0.000 C 
BRANCH   8   9
ATOM      9  C   UNL     1       7.779  12.265   4.604  1.00  0.00    -0.000 C 
BRANCH   9  10
ATOM     10  C   UNL     1       7.270  10.828   4.805  1.00  0.00    -0.000 C 
BRANCH  10  11
ATOM     11  C   UNL     1       5.959  10.553   4.053  1.00  0.00    -0.003 C 
ATOM     12  C   UNL     1       5.081  11.801   4.006  1.00  0.00     0.004 C 
ENDBRANCH  10  11
ENDBRANCH   9  10
ENDBRANCH   8   9
ENDBRANCH   7   8
ENDBRANCH   6   7
ENDBRANCH   5   6
ENDBRANCH   4   5
ENDBRANCH   3   4
ENDBRANCH   2   3
ENDBRANCH   1   2
BRANCH   1  13
ATOM     13  C   UNL     1       4.122   9.561   7.554  1.00  0.00     0.000 C 
BRANCH  13  14
ATOM     14  C   UNL     1       4.354   8.977   8.957  1.00  0.00     0.000 C 
BRANCH  14  15
ATOM     15  C   UNL     1       3.263   9.392   9.958  1.00  0.00     0.000 C 
BRANCH  15  16
ATOM     16  C   UNL     1       2.225  10.344   9.337  1.00  0.00     0.000 C 
BRANCH  16  17
ATOM     17  C   UNL     1       1.750  11.422  10.324  1.00  0.00     0.000 C 
BRANCH  17  18
ATOM     18  C   UNL     1       1.353  12.732   9.622  1.00  0.00     0.000 C 
BRANCH  18  19
ATOM     19  C   UNL     1      -0.128  13.087   9.831  1.00  0.00     0.000 C 
BRANCH  19  20
ATOM     20  C   UNL     1      -0.947  12.989   8.533  1.00  0.00     0.006 C 
BRANCH  20  21
ATOM     21  C   UNL     1      -2.455  13.120   8.790  1.00  0.00     0.053 C 
BRANCH  21  22
ATOM     22  C   UNL     1      -3.259  12.444   7.722  1.00  0.00     0.041 C 
ATOM     23  O   UNL     1      -3.814  13.124   6.819  1.00  0.00    -0.550 OA
ATOM     24  O   UNL     1      -3.368  11.059   7.706  1.00  0.00    -0.550 OA
ENDBRANCH  21  22
ENDBRANCH  20  21
ENDBRANCH  19  20
ENDBRANCH  18  19
ENDBRANCH  17  18
ENDBRANCH  16  17
ENDBRANCH  15  16
ENDBRANCH  14  15
ENDBRANCH  13  14
ENDBRANCH   1  13
TORSDOF 20
ENDMDL
MODEL 2
REMARK VINA RESULT:    -1.742      3.385      7.703
REMARK INTER + INTRA:          -4.821
REMARK INTER:                  -5.732
REMARK INTRA:                   0.911
REMARK UNBOUND:                -1.042
REMARK SMILES CCCCCCCCCCCCCCCCCCCCCC(=O)[O-]
REMARK SMILES IDX 12 1 11 2 10 3 9 4 8 5 7 6 6 7 5 8 4 9 3 10 2 11 1 12 13 13
REMARK SMILES IDX 14 14 15 15 16 16 17 17 18 18 19 19 20 20 21 21 22 22 23 23
REMARK SMILES IDX 24 24
REMARK H PARENT
REMARK Flexibility Score: inf
ROOT
ATOM      1  C   UNL     1       5.639  11.788   6.928  1.00  0.00     0.000 C 
ENDROOT
BRANCH   1   2
ATOM      2  C   UNL     1       6.220  13.051   7.592  1.00  0.00     0.000 C 
BRANCH   2   3
ATOM      3  C   UNL     1       6.147  13.008   9.128  1.00  0.00     0.000 C 
BRANCH   3   4
ATOM      4  C   UNL     1       4.798  12.477   9.640  1.00  0.00    -0.000 C 
BRANCH   4   5
ATOM      5  C   UNL     1       3.606  13.002   8.824  1.00  0.00    -0.000 C 
BRANCH   5   6
ATOM      6  C   UNL     1       2.352  13.123   9.700  1.00  0.00    -0.000 C 
BRANCH   6   7
ATOM      7  C   UNL     1       1.422  11.918   9.499  1.00  0.00    -0.000 C 
BRANCH   7   8
ATOM      8  C   UNL     1       1.537  10.883  10.630  1.00  0.00    -0.000 C 
BRANCH   8   9
ATOM      9  C   UNL     1       2.846  10.077  10.561  1.00  0.00    -0.000 C 
BRANCH   9  10
ATOM     10  C   UNL     1       2.764   8.899   9.576  1.00  0.00    -0.000 C 
BRANCH  10  11
ATOM     11  C   UNL     1       3.521   9.167   8.267  1.00  0.00    -0.003 C 
ATOM     12  C   UNL     1       2.597   9.767   7.212  1.00  0.00     0.004 C 
ENDBRANCH  10  11
ENDBRANCH   9  10
ENDBRANCH   8   9
ENDBRANCH   7   8
ENDBRANCH   6   7
ENDBRANCH   5   6
ENDBRANCH   4   5
ENDBRANCH   3   4
ENDBRANCH   2   3
ENDBRANCH   1   2
BRANCH   1  13
ATOM     13  C   UNL     1       6.110  10.457   7.539  1.00  0.00     0.000 C 
BRANCH  13  14
ATOM     14  C   UNL     1       7.511  10.548   8.166  1.00  0.00     0.000 C 
BRANCH  14  15
ATOM     15  C   UNL     1       8.596  10.905   7.137  1.00  0.00     0.000 C 
BRANCH  15  16
ATOM     16  C   UNL     1       9.282  12.249   7.445  1.00  0.00     0.000 C 
BRANCH  16  17
ATOM     17  C   UNL     1       9.446  13.125   6.193  1.00  0.00     0.000 C 
BRANCH  17  18
ATOM     18  C   UNL     1      10.125  12.375   5.033  1.00  0.00     0.000 C 
BRANCH  18  19
ATOM     19  C   UNL     1       9.949  13.092   3.685  1.00  0.00     0.000 C 
BRANCH  19  20
ATOM     20  C   UNL     1       8.555  12.870   3.074  1.00  0.00     0.006 C 
BRANCH  20  21
ATOM     21  C   UNL     1       7.502  12.541   4.141  1.00  0.00     0.053 C 
BRANCH  21  22
ATOM     22  C   UNL     1       6.951  11.159   3.969  1.00  0.00     0.041 C 
ATOM     23  O   UNL     1       7.723  10.164   3.966  1.00  0.00    -0.550 OA
ATOM     24  O   UNL     1       5.580  10.967   3.846  1.00  0.00    -0.550 OA
ENDBRANCH  21  22
ENDBRANCH  20  21
ENDBRANCH  19  20
ENDBRANCH  18  19
ENDBRANCH  17  18
ENDBRANCH  16  17
ENDBRANCH  15  16
ENDBRANCH  14  15
ENDBRANCH  13  14
ENDBRANCH   1  13
TORSDOF 20
ENDMDL
MODEL 3
REMARK VINA RESULT:    -1.047      3.138      7.354
REMARK INTER + INTRA:          -3.313
REMARK INTER:                  -3.473
REMARK INTRA:                   0.160
REMARK UNBOUND:                -1.042
REMARK SMILES CCCCCCCCCCCCCCCCCCCCCC(=O)[O-]
REMARK SMILES IDX 12 1 11 2 10 3 9 4 8 5 7 6 6 7 5 8 4 9 3 10 2 11 1 12 13 13
REMARK SMILES IDX 14 14 15 15 16 16 17 17 18 18 19 19 20 20 21 21 22 22 23 23
REMARK SMILES IDX 24 24
REMARK H PARENT
REMARK Flexibility Score: inf
ROOT
ATOM      1  C   UNL     1       5.151  12.654   8.723  1.00  0.00     0.000 C 
ENDROOT
BRANCH   1   2
ATOM      2  C   UNL     1       3.960  12.534   9.692  1.00  0.00     0.000 C 
BRANCH   2   3
ATOM      3  C   UNL     1       2.641  13.041   9.086  1.00  0.00     0.000 C 
BRANCH   3   4
ATOM      4  C   UNL     1       1.498  12.023   9.223  1.00  0.00    -0.000 C 
BRANCH   4   5
ATOM      5  C   UNL     1       1.459  11.357  10.607  1.00  0.00    -0.000 C 
BRANCH   5   6
ATOM      6  C   UNL     1       2.065   9.948  10.556  1.00  0.00    -0.000 C 
BRANCH   6   7
ATOM      7  C   UNL     1       3.594  10.002  10.684  1.00  0.00    -0.000 C 
BRANCH   7   8
ATOM      8  C   UNL     1       4.279   8.725  10.171  1.00  0.00    -0.000 C 
BRANCH   8   9
ATOM      9  C   UNL     1       5.272   9.006   9.030  1.00  0.00    -0.000 C 
BRANCH   9  10
ATOM     10  C   UNL     1       4.627   9.764   7.859  1.00  0.00    -0.000 C 
BRANCH  10  11
ATOM     11  C   UNL     1       3.240   9.217   7.490  1.00  0.00    -0.003 C 
ATOM     12  C   UNL     1       2.505  10.172   6.554  1.00  0.00     0.004 C 
ENDBRANCH  10  11
ENDBRANCH   9  10
ENDBRANCH   8   9
ENDBRANCH   7   8
ENDBRANCH   6   7
ENDBRANCH   5   6
ENDBRANCH   4   5
ENDBRANCH   3   4
ENDBRANCH   2   3
ENDBRANCH   1   2
BRANCH   1  13
ATOM     13  C   UNL     1       6.505  12.955   9.390  1.00  0.00     0.000 C 
BRANCH  13  14
ATOM     14  C   UNL     1       7.675  12.201   8.735  1.00  0.00     0.000 C 
BRANCH  14  15
ATOM     15  C   UNL     1       8.473  13.080   7.759  1.00  0.00     0.000 C 
BRANCH  15  16
ATOM     16  C   UNL     1       9.460  12.266   6.904  1.00  0.00     0.000 C 
BRANCH  16  17
ATOM     17  C   UNL     1      10.088  13.099   5.776  1.00  0.00     0.000 C 
BRANCH  17  18
ATOM     18  C   UNL     1       9.923  12.441   4.395  1.00  0.00     0.000 C 
BRANCH  18  19
ATOM     19  C   UNL     1       8.490  12.559   3.852  1.00  0.00     0.000 C 
BRANCH  19  20
ATOM     20  C   UNL     1       7.810  11.190   3.678  1.00  0.00     0.006 C 
BRANCH  20  21
ATOM     21  C   UNL     1       6.873  10.857   4.847  1.00  0.00     0.053 C 
BRANCH  21  22
ATOM     22  C   UNL     1       5.842  11.924   5.053  1.00  0.00     0.041 C 
ATOM     23  O   UNL     1       5.262  12.041   6.164  1.00  0.00    -0.550 OA
ATOM     24  O   UNL     1       5.547  12.813   4.025  1.00  0.00    -0.550 OA
ENDBRANCH  21  22
ENDBRANCH  20  21
ENDBRANCH  19  20
ENDBRANCH  18  19
ENDBRANCH  17  18
ENDBRANCH  16  17
ENDBRANCH  15  16
ENDBRANCH  14  15
ENDBRANCH  13  14
ENDBRANCH   1  13
TORSDOF 20
ENDMDL
MODEL 4
REMARK VINA RESULT:    -1.023      2.855      7.491
REMARK INTER + INTRA:          -3.260
REMARK INTER:                  -4.617
REMARK INTRA:                   1.356
REMARK UNBOUND:                -1.042
REMARK SMILES CCCCCCCCCCCCCCCCCCCCCC(=O)[O-]
REMARK SMILES IDX 12 1 11 2 10 3 9 4 8 5 7 6 6 7 5 8 4 9 3 10 2 11 1 12 13 13
REMARK SMILES IDX 14 14 15 15 16 16 17 17 18 18 19 19 20 20 21 21 22 22 23 23
REMARK SMILES IDX 24 24
REMARK H PARENT
REMARK Flexibility Score: inf
ROOT
ATOM      1  C   UNL     1       5.803  11.888   8.114  1.00  0.00     0.000 C 
ENDROOT
BRANCH   1   2
ATOM      2  C   UNL     1       4.899  13.125   8.276  1.00  0.00     0.000 C 
BRANCH   2   3
ATOM      3  C   UNL     1       4.080  13.102   9.577  1.00  0.00     0.000 C 
BRANCH   3   4
ATOM      4  C   UNL     1       2.760  12.328   9.431  1.00  0.00    -0.000 C 
BRANCH   4   5
ATOM      5  C   UNL     1       1.553  13.102   9.986  1.00  0.00    -0.000 C 
BRANCH   5   6
ATOM      6  C   UNL     1       0.235  12.469   9.523  1.00  0.00    -0.000 C 
BRANCH   6   7
ATOM      7  C   UNL     1       0.487  11.383   8.468  1.00  0.00    -0.000 C 
BRANCH   7   8
ATOM      8  C   UNL     1       1.689  10.488   8.811  1.00  0.00    -0.000 C 
BRANCH   8   9
ATOM      9  C   UNL     1       2.478  10.057   7.563  1.00  0.00    -0.000 C 
BRANCH   9  10
ATOM     10  C   UNL     1       3.494   8.941   7.862  1.00  0.00    -0.000 C 
BRANCH  10  11
ATOM     11  C   UNL     1       4.692   9.435   8.686  1.00  0.00    -0.003 C 
ATOM     12  C   UNL     1       4.495   9.142  10.171  1.00  0.00     0.004 C 
ENDBRANCH  10  11
ENDBRANCH   9  10
ENDBRANCH   8   9
ENDBRANCH   7   8
ENDBRANCH   6   7
ENDBRANCH   5   6
ENDBRANCH   4   5
ENDBRANCH   3   4
ENDBRANCH   2   3
ENDBRANCH   1   2
BRANCH   1  13
ATOM     13  C   UNL     1       7.260  12.083   8.573  1.00  0.00     0.000 C 
BRANCH  13  14
ATOM     14  C   UNL     1       8.041  13.066   7.684  1.00  0.00     0.000 C 
BRANCH  14  15
ATOM     15  C   UNL     1       9.563  12.927   7.845  1.00  0.00     0.000 C 
BRANCH  15  16
ATOM     16  C   UNL     1      10.105  11.628   7.222  1.00  0.00     0.000 C 
BRANCH  16  17
ATOM     17  C   UNL     1       9.617  11.419   5.780  1.00  0.00     0.000 C 
BRANCH  17  18
ATOM     18  C   UNL     1       9.891  12.638   4.882  1.00  0.00     0.000 C 
BRANCH  18  19
ATOM     19  C   UNL     1       8.666  13.040   4.046  1.00  0.00     0.000 C 
BRANCH  19  20
ATOM     20  C   UNL     1       7.643  11.899   3.908  1.00  0.00     0.006 C 
BRANCH  20  21
ATOM     21  C   UNL     1       6.436  12.089   4.838  1.00  0.00     0.053 C 
BRANCH  21  22
ATOM     22  C   UNL     1       5.283  11.223   4.433  1.00  0.00     0.041 C 
ATOM     23  O   UNL     1       4.337  11.010   5.235  1.00  0.00    -0.550 OA
ATOM     24  O   UNL     1       5.238  10.680   3.154  1.00  0.00    -0.550 OA
ENDBRANCH  21  22
ENDBRANCH  20  21
ENDBRANCH  19  20
ENDBRANCH  18  19
ENDBRANCH  17  18
ENDBRANCH  16  17
ENDBRANCH  15  16
ENDBRANCH  14  15
ENDBRANCH  13  14
ENDBRANCH   1  13
TORSDOF 20
ENDMDL
MODEL 5
REMARK VINA RESULT:    -0.969      3.263      4.955
REMARK INTER + INTRA:          -3.144
REMARK INTER:                  -1.854
REMARK INTRA:                  -1.290
REMARK UNBOUND:                -1.042
REMARK SMILES CCCCCCCCCCCCCCCCCCCCCC(=O)[O-]
REMARK SMILES IDX 12 1 11 2 10 3 9 4 8 5 7 6 6 7 5 8 4 9 3 10 2 11 1 12 13 13
REMARK SMILES IDX 14 14 15 15 16 16 17 17 18 18 19 19 20 20 21 21 22 22 23 23
REMARK SMILES IDX 24 24
REMARK H PARENT
REMARK Flexibility Score: inf
ROOT
ATOM      1  C   UNL     1       4.642  10.665   4.964  1.00  0.00     0.000 C 
ENDROOT
BRANCH   1   2
ATOM      2  C   UNL     1       6.119  11.055   5.164  1.00  0.00     0.000 C 
BRANCH   2   3
ATOM      3  C   UNL     1       6.327  12.575   5.277  1.00  0.00     0.000 C 
BRANCH   3   4
ATOM      4  C   UNL     1       7.268  13.124   4.193  1.00  0.00    -0.000 C 
BRANCH   4   5
ATOM      5  C   UNL     1       8.446  12.181   3.897  1.00  0.00    -0.000 C 
BRANCH   5   6
ATOM      6  C   UNL     1       9.599  12.418   4.880  1.00  0.00    -0.000 C 
BRANCH   6   7
ATOM      7  C   UNL     1      10.000  11.112   5.582  1.00  0.00    -0.000 C 
BRANCH   7   8
ATOM      8  C   UNL     1       9.811  11.175   7.107  1.00  0.00    -0.000 C 
BRANCH   8   9
ATOM      9  C   UNL     1      10.057  12.583   7.675  1.00  0.00    -0.000 C 
BRANCH   9  10
ATOM     10  C   UNL     1       8.848  13.125   8.456  1.00  0.00    -0.000 C 
BRANCH  10  11
ATOM     11  C   UNL     1       7.636  12.184   8.399  1.00  0.00    -0.003 C 
ATOM     12  C   UNL     1       6.347  12.930   8.732  1.00  0.00     0.004 C 
ENDBRANCH  10  11
ENDBRANCH   9  10
ENDBRANCH   8   9
ENDBRANCH   7   8
ENDBRANCH   6   7
ENDBRANCH   5   6
ENDBRANCH   4   5
ENDBRANCH   3   4
ENDBRANCH   2   3
ENDBRANCH   1   2
BRANCH   1  13
ATOM     13  C   UNL     1       3.692  11.117   6.087  1.00  0.00     0.000 C 
BRANCH  13  14
ATOM     14  C   UNL     1       2.434  10.239   6.196  1.00  0.00     0.000 C 
BRANCH  14  15
ATOM     15  C   UNL     1       1.936  10.097   7.643  1.00  0.00     0.000 C 
BRANCH  15  16
ATOM     16  C   UNL     1       1.178  11.345   8.131  1.00  0.00     0.000 C 
BRANCH  16  17
ATOM     17  C   UNL     1       1.750  11.906   9.442  1.00  0.00     0.000 C 
BRANCH  17  18
ATOM     18  C   UNL     1       1.460  10.996  10.649  1.00  0.00     0.000 C 
BRANCH  18  19
ATOM     19  C   UNL     1       2.389   9.773  10.702  1.00  0.00     0.000 C 
BRANCH  19  20
ATOM     20  C   UNL     1       3.828  10.141  11.105  1.00  0.00     0.006 C 
BRANCH  20  21
ATOM     21  C   UNL     1       4.692  10.511   9.892  1.00  0.00     0.053 C 
BRANCH  21  22
ATOM     22  C   UNL     1       5.031   9.309   9.066  1.00  0.00     0.041 C 
ATOM     23  O   UNL     1       5.367   9.443   7.860  1.00  0.00    -0.550 OA
ATOM     24  O   UNL     1       5.010   8.043   9.639  1.00  0.00    -0.550 OA
ENDBRANCH  21  22
ENDBRANCH  20  21
ENDBRANCH  19  20
ENDBRANCH  18  19
ENDBRANCH  17  18
ENDBRANCH  16  17
ENDBRANCH  15  16
ENDBRANCH  14  15
ENDBRANCH  13  14
ENDBRANCH   1  13
TORSDOF 20
ENDMDL
MODEL 6
REMARK VINA RESULT:    -0.419      3.005      7.835
REMARK INTER + INTRA:          -1.950
REMARK INTER:                  -2.221
REMARK INTRA:                   0.271
REMARK UNBOUND:                -1.042
REMARK SMILES CCCCCCCCCCCCCCCCCCCCCC(=O)[O-]
REMARK SMILES IDX 12 1 11 2 10 3 9 4 8 5 7 6 6 7 5 8 4 9 3 10 2 11 1 12 13 13
REMARK SMILES IDX 14 14 15 15 16 16 17 17 18 18 19 19 20 20 21 21 22 22 23 23
REMARK SMILES IDX 24 24
REMARK H PARENT
REMARK Flexibility Score: inf
ROOT
ATOM      1  C   UNL     1       5.891  10.181   4.003  1.00  0.00     0.000 C 
ENDROOT
BRANCH   1   2
ATOM      2  C   UNL     1       4.883  11.326   4.223  1.00  0.00     0.000 C 
BRANCH   2   3
ATOM      3  C   UNL     1       4.567  11.567   5.708  1.00  0.00     0.000 C 
BRANCH   3   4
ATOM      4  C   UNL     1       4.001  10.318   6.402  1.00  0.00    -0.000 C 
BRANCH   4   5
ATOM      5  C   UNL     1       2.470  10.222   6.295  1.00  0.00    -0.000 C 
BRANCH   5   6
ATOM      6  C   UNL     1       1.801  10.610   7.619  1.00  0.00    -0.000 C 
BRANCH   6   7
ATOM      7  C   UNL     1       2.798  11.310   8.554  1.00  0.00    -0.000 C 
BRANCH   7   8
ATOM      8  C   UNL     1       2.377  11.242  10.031  1.00  0.00    -0.000 C 
BRANCH   8   9
ATOM      9  C   UNL     1       1.465  12.411  10.440  1.00  0.00    -0.000 C 
BRANCH   9  10
ATOM     10  C   UNL     1       0.628  12.945   9.266  1.00  0.00    -0.000 C 
BRANCH  10  11
ATOM     11  C   UNL     1      -0.880  12.727   9.466  1.00  0.00    -0.003 C 
ATOM     12  C   UNL     1      -1.662  13.124   8.217  1.00  0.00     0.004 C 
ENDBRANCH  10  11
ENDBRANCH   9  10
ENDBRANCH   8   9
ENDBRANCH   7   8
ENDBRANCH   6   7
ENDBRANCH   5   6
ENDBRANCH   4   5
ENDBRANCH   3   4
ENDBRANCH   2   3
ENDBRANCH   1   2
BRANCH   1  13
ATOM     13  C   UNL     1       7.350  10.523   4.354  1.00  0.00     0.000 C 
BRANCH  13  14
ATOM     14  C   UNL     1       7.770  11.922   3.873  1.00  0.00     0.000 C 
BRANCH  14  15
ATOM     15  C   UNL     1       8.146  12.858   5.033  1.00  0.00     0.000 C 
BRANCH  15  16
ATOM     16  C   UNL     1       9.660  12.874   5.311  1.00  0.00     0.000 C 
BRANCH  16  17
ATOM     17  C   UNL     1      10.039  12.058   6.557  1.00  0.00     0.000 C 
BRANCH  17  18
ATOM     18  C   UNL     1      10.055  12.910   7.837  1.00  0.00     0.000 C 
BRANCH  18  19
ATOM     19  C   UNL     1       8.664  13.036   8.479  1.00  0.00     0.000 C 
BRANCH  19  20
ATOM     20  C   UNL     1       7.560  12.384   7.629  1.00  0.00     0.006 C 
BRANCH  20  21
ATOM     21  C   UNL     1       7.400  10.889   7.938  1.00  0.00     0.053 C 
BRANCH  21  22
ATOM     22  C   UNL     1       6.275  10.638   8.895  1.00  0.00     0.041 C 
ATOM     23  O   UNL     1       5.985   9.462   9.239  1.00  0.00    -0.550 OA
ATOM     24  O   UNL     1       5.570  11.707   9.435  1.00  0.00    -0.550 OA
ENDBRANCH  21  22
ENDBRANCH  20  21
ENDBRANCH  19  20
ENDBRANCH  18  19
ENDBRANCH  17  18
ENDBRANCH  16  17
ENDBRANCH  15  16
ENDBRANCH  14  15
ENDBRANCH  13  14
ENDBRANCH   1  13
TORSDOF 20
ENDMDL
MODEL 7
REMARK VINA RESULT:    -0.271      3.502      4.972
REMARK INTER + INTRA:          -1.630
REMARK INTER:                  -1.191
REMARK INTRA:                  -0.440
REMARK UNBOUND:                -1.042
REMARK SMILES CCCCCCCCCCCCCCCCCCCCCC(=O)[O-]
REMARK SMILES IDX 12 1 11 2 10 3 9 4 8 5 7 6 6 7 5 8 4 9 3 10 2 11 1 12 13 13
REMARK SMILES IDX 14 14 15 15 16 16 17 17 18 18 19 19 20 20 21 21 22 22 23 23
REMARK SMILES IDX 24 24
REMARK H PARENT
REMARK Flexibility Score: inf
ROOT
ATOM      1  C   UNL     1       2.568  12.217   8.986  1.00  0.00     0.000 C 
ENDROOT
BRANCH   1   2
ATOM      2  C   UNL     1       3.666  13.125   9.572  1.00  0.00     0.000 C 
BRANCH   2   3
ATOM      3  C   UNL     1       4.969  13.090   8.756  1.00  0.00     0.000 C 
BRANCH   3   4
ATOM      4  C   UNL     1       5.932  11.989   9.228  1.00  0.00    -0.000 C 
BRANCH   4   5
ATOM      5  C   UNL     1       6.515  11.172   8.063  1.00  0.00    -0.000 C 
BRANCH   5   6
ATOM      6  C   UNL     1       8.048  11.154   8.118  1.00  0.00    -0.000 C 
BRANCH   6   7
ATOM      7  C   UNL     1       8.587  12.404   8.827  1.00  0.00    -0.000 C 
BRANCH   7   8
ATOM      8  C   UNL     1       9.765  13.051   8.080  1.00  0.00    -0.000 C 
BRANCH   8   9
ATOM      9  C   UNL     1       9.531  13.124   6.562  1.00  0.00    -0.000 C 
BRANCH   9  10
ATOM     10  C   UNL     1       9.916  11.822   5.841  1.00  0.00    -0.000 C 
BRANCH  10  11
ATOM     11  C   UNL     1       9.238  11.680   4.470  1.00  0.00    -0.003 C 
ATOM     12  C   UNL     1       8.735  13.030   3.965  1.00  0.00     0.004 C 
ENDBRANCH  10  11
ENDBRANCH   9  10
ENDBRANCH   8   9
ENDBRANCH   7   8
ENDBRANCH   6   7
ENDBRANCH   5   6
ENDBRANCH   4   5
ENDBRANCH   3   4
ENDBRANCH   2   3
ENDBRANCH   1   2
BRANCH   1  13
ATOM     13  C   UNL     1       1.610  11.602  10.022  1.00  0.00     0.000 C 
BRANCH  13  14
ATOM     14  C   UNL     1       2.304  10.592  10.952  1.00  0.00     0.000 C 
BRANCH  14  15
ATOM     15  C   UNL     1       2.317   9.168  10.372  1.00  0.00     0.000 C 
BRANCH  15  16
ATOM     16  C   UNL     1       3.731   8.705   9.977  1.00  0.00     0.000 C 
BRANCH  16  17
ATOM     17  C   UNL     1       3.891   8.535   8.458  1.00  0.00     0.000 C 
BRANCH  17  18
ATOM     18  C   UNL     1       3.842   9.876   7.706  1.00  0.00     0.000 C 
BRANCH  18  19
ATOM     19  C   UNL     1       3.068   9.781   6.381  1.00  0.00     0.000 C 
BRANCH  19  20
ATOM     20  C   UNL     1       3.512  10.842   5.360  1.00  0.00     0.006 C 
BRANCH  20  21
ATOM     21  C   UNL     1       4.985  11.235   5.538  1.00  0.00     0.053 C 
BRANCH  21  22
ATOM     22  C   UNL     1       5.598  11.686   4.248  1.00  0.00     0.041 C 
ATOM     23  O   UNL     1       5.797  10.861   3.317  1.00  0.00    -0.550 OA
ATOM     24  O   UNL     1       5.920  13.025   4.061  1.00  0.00    -0.550 OA
ENDBRANCH  21  22
ENDBRANCH  20  21
ENDBRANCH  19  20
ENDBRANCH  18  19
ENDBRANCH  17  18
ENDBRANCH  16  17
ENDBRANCH  15  16
ENDBRANCH  14  15
ENDBRANCH  13  14
ENDBRANCH   1  13
TORSDOF 20
ENDMDL
