MODEL 1
REMARK VINA RESULT:    -2.052      0.000      0.000
REMARK INTER + INTRA:          -3.869
REMARK INTER:                  -2.952
REMARK INTRA:                  -0.916
REMARK UNBOUND:                -0.916
REMARK SMILES O=c1cc(-c2ccc(O)c(O)c2)oc2cc(O[C@H]3O[C@@H](CO)[C@H](O)[C@H](O)[C@@H]3O)cc(O)c12
REMARK SMILES IDX 17 1 16 2 4 3 3 4 13 5 2 6 14 7 1 8 32 9 15 10 30 11 29 12
REMARK SMILES IDX 5 13 6 14 7 15 8 16 12 17 10 18 9 19 11 21 31 23 18 25 27 26
REMARK SMILES IDX 19 27 25 28 20 29 23 30 28 31 26 33 21 35 22 36 24 38
REMARK H PARENT 9 20 11 22 31 24 28 32 26 34 22 37 24 39
REMARK Flexibility Score: inf
ROOT
ATOM      1  O   UNL     1     -17.831  29.875  14.912  1.00  0.00    -0.462 OA
ENDROOT
BRANCH   1   2
ATOM      2  C   UNL     1     -16.569  29.631  14.349  1.00  0.00     0.130 A 
ATOM      3  C   UNL     1     -13.584  30.568  10.750  1.00  0.00     0.138 A 
ATOM      4  C   UNL     1     -12.568  29.770  11.301  1.00  0.00     0.100 A 
ATOM      5  O   UNL     1     -14.750  30.674  11.383  1.00  0.00    -0.456 OA
ATOM      6  C   UNL     1     -12.798  29.101  12.503  1.00  0.00     0.197 A 
ATOM      7  C   UNL     1     -15.015  30.057  12.531  1.00  0.00     0.146 A 
ATOM      8  O   UNL     1     -11.878  28.388  12.992  1.00  0.00    -0.289 OA
ATOM      9  C   UNL     1     -14.042  29.237  13.150  1.00  0.00     0.107 A 
ATOM     10  C   UNL     1     -16.267  30.234  13.127  1.00  0.00     0.094 A 
ATOM     11  C   UNL     1     -14.349  28.612  14.379  1.00  0.00     0.134 A 
ATOM     12  C   UNL     1     -15.605  28.815  14.970  1.00  0.00     0.093 A 
BRANCH   3  13
ATOM     13  C   UNL     1     -13.387  31.327   9.488  1.00  0.00     0.021 A 
ATOM     14  C   UNL     1     -12.087  31.498   8.982  1.00  0.00     0.016 A 
ATOM     15  C   UNL     1     -11.875  32.189   7.786  1.00  0.00     0.051 A 
ATOM     16  C   UNL     1     -12.953  32.730   7.081  1.00  0.00     0.157 A 
ATOM     17  C   UNL     1     -14.469  31.892   8.785  1.00  0.00     0.062 A 
ATOM     18  C   UNL     1     -14.257  32.586   7.584  1.00  0.00     0.158 A 
BRANCH  16  19
ATOM     19  O   UNL     1     -12.711  33.407   5.886  1.00  0.00    -0.504 OA
ATOM     20  H   UNL     1     -11.946  34.062   5.785  1.00  0.00     0.293 HD
ENDBRANCH  16  19
BRANCH  18  21
ATOM     21  O   UNL     1     -15.334  33.135   6.892  1.00  0.00    -0.504 OA
ATOM     22  H   UNL     1     -16.116  33.562   7.378  1.00  0.00     0.293 HD
ENDBRANCH  18  21
ENDBRANCH   3  13
BRANCH  11  23
ATOM     23  O   UNL     1     -13.415  27.800  15.023  1.00  0.00    -0.507 OA
ATOM     24  H   UNL     1     -12.935  28.101  15.863  1.00  0.00     0.293 HD
ENDBRANCH  11  23
ENDBRANCH   1   2
BRANCH   1  25
ATOM     25  C   UNL     1     -19.023  29.151  14.603  1.00  0.00     0.339 C 
ATOM     26  C   UNL     1     -20.233  30.128  14.704  1.00  0.00     0.214 C 
ATOM     27  O   UNL     1     -19.125  28.048  15.497  1.00  0.00    -0.332 OA
ATOM     28  C   UNL     1     -21.010  29.877  16.010  1.00  0.00     0.180 C 
ATOM     29  C   UNL     1     -20.412  27.467  15.433  1.00  0.00     0.179 C 
ATOM     30  C   UNL     1     -21.444  28.395  16.125  1.00  0.00     0.177 C 
BRANCH  26  31
ATOM     31  O   UNL     1     -21.096  29.956  13.607  1.00  0.00    -0.384 OA
ATOM     32  H   UNL     1     -22.016  29.888  13.974  1.00  0.00     0.211 HD
ENDBRANCH  26  31
BRANCH  28  33
ATOM     33  O   UNL     1     -22.127  30.729  16.097  1.00  0.00    -0.387 OA
ATOM     34  H   UNL     1     -22.914  30.194  15.810  1.00  0.00     0.211 HD
ENDBRANCH  28  33
BRANCH  29  35
ATOM     35  C   UNL     1     -20.370  26.089  16.106  1.00  0.00     0.191 C 
BRANCH  35  36
ATOM     36  O   UNL     1     -21.568  25.400  15.876  1.00  0.00    -0.394 OA
ATOM     37  H   UNL     1     -22.267  26.088  15.728  1.00  0.00     0.210 HD
ENDBRANCH  35  36
ENDBRANCH  29  35
BRANCH  30  38
ATOM     38  O   UNL     1     -22.705  28.201  15.529  1.00  0.00    -0.387 OA
ATOM     39  H   UNL     1     -23.367  28.697  16.076  1.00  0.00     0.211 HD
ENDBRANCH  30  38
ENDBRANCH   1  25
TORSDOF 11
ENDMDL
MODEL 2
REMARK VINA RESULT:    -1.204      2.183      9.073
REMARK INTER + INTRA:          -2.648
REMARK INTER:                  -1.997
REMARK INTRA:                  -0.651
REMARK UNBOUND:                -0.916
REMARK SMILES O=c1cc(-c2ccc(O)c(O)c2)oc2cc(O[C@H]3O[C@@H](CO)[C@H](O)[C@H](O)[C@@H]3O)cc(O)c12
REMARK SMILES IDX 17 1 16 2 4 3 3 4 13 5 2 6 14 7 1 8 32 9 15 10 30 11 29 12
REMARK SMILES IDX 5 13 6 14 7 15 8 16 12 17 10 18 9 19 11 21 31 23 18 25 27 26
REMARK SMILES IDX 19 27 25 28 20 29 23 30 28 31 26 33 21 35 22 36 24 38
REMARK H PARENT 9 20 11 22 31 24 28 32 26 34 22 37 24 39
REMARK Flexibility Score: inf
ROOT
ATOM      1  O   UNL     1     -12.224  30.534  10.329  1.00  0.00    -0.462 OA
ENDROOT
BRANCH   1   2
ATOM      2  C   UNL     1     -12.747  30.916  11.575  1.00  0.00     0.130 A 
ATOM      3  C   UNL     1     -16.161  30.208  14.828  1.00  0.00     0.138 A 
ATOM      4  C   UNL     1     -15.612  31.160  15.703  1.00  0.00     0.100 A 
ATOM      5  O   UNL     1     -15.573  29.980  13.656  1.00  0.00    -0.456 OA
ATOM      6  C   UNL     1     -14.459  31.850  15.330  1.00  0.00     0.197 A 
ATOM      7  C   UNL     1     -14.472  30.612  13.257  1.00  0.00     0.146 A 
ATOM      8  O   UNL     1     -13.972  32.701  16.125  1.00  0.00    -0.289 OA
ATOM      9  C   UNL     1     -13.859  31.581  14.084  1.00  0.00     0.107 A 
ATOM     10  C   UNL     1     -13.921  30.299  12.012  1.00  0.00     0.094 A 
ATOM     11  C   UNL     1     -12.679  32.219  13.639  1.00  0.00     0.134 A 
ATOM     12  C   UNL     1     -12.131  31.881  12.393  1.00  0.00     0.093 A 
BRANCH   3  13
ATOM     13  C   UNL     1     -17.371  29.422  15.183  1.00  0.00     0.021 A 
ATOM     14  C   UNL     1     -18.612  30.073  15.282  1.00  0.00     0.016 A 
ATOM     15  C   UNL     1     -19.769  29.356  15.594  1.00  0.00     0.051 A 
ATOM     16  C   UNL     1     -19.707  27.979  15.824  1.00  0.00     0.157 A 
ATOM     17  C   UNL     1     -17.309  28.038  15.437  1.00  0.00     0.062 A 
ATOM     18  C   UNL     1     -18.471  27.316  15.751  1.00  0.00     0.158 A 
BRANCH  16  19
ATOM     19  O   UNL     1     -20.881  27.288  16.125  1.00  0.00    -0.504 OA
ATOM     20  H   UNL     1     -21.255  27.249  17.065  1.00  0.00     0.293 HD
ENDBRANCH  16  19
BRANCH  18  21
ATOM     21  O   UNL     1     -18.401  25.946  15.992  1.00  0.00    -0.504 OA
ATOM     22  H   UNL     1     -17.530  25.434  15.900  1.00  0.00     0.293 HD
ENDBRANCH  18  21
ENDBRANCH   3  13
BRANCH  11  23
ATOM     23  O   UNL     1     -12.042  33.179  14.427  1.00  0.00    -0.507 OA
ATOM     24  H   UNL     1     -12.368  34.137  14.469  1.00  0.00     0.293 HD
ENDBRANCH  11  23
ENDBRANCH   1   2
BRANCH   1  25
ATOM     25  C   UNL     1     -12.867  30.741   9.071  1.00  0.00     0.339 C 
ATOM     26  C   UNL     1     -12.000  31.727   8.231  1.00  0.00     0.214 C 
ATOM     27  O   UNL     1     -14.183  31.227   9.311  1.00  0.00    -0.332 OA
ATOM     28  C   UNL     1     -12.641  33.128   8.229  1.00  0.00     0.180 C 
ATOM     29  C   UNL     1     -14.763  31.718   8.119  1.00  0.00     0.179 C 
ATOM     30  C   UNL     1     -14.107  33.069   7.732  1.00  0.00     0.177 C 
BRANCH  26  31
ATOM     31  O   UNL     1     -11.877  31.269   6.908  1.00  0.00    -0.384 OA
ATOM     32  H   UNL     1     -11.217  30.527   6.921  1.00  0.00     0.211 HD
ENDBRANCH  26  31
BRANCH  28  33
ATOM     33  O   UNL     1     -11.887  34.020   7.445  1.00  0.00    -0.387 OA
ATOM     34  H   UNL     1     -12.503  34.378   6.752  1.00  0.00     0.211 HD
ENDBRANCH  28  33
BRANCH  29  35
ATOM     35  C   UNL     1     -16.274  31.878   8.329  1.00  0.00     0.191 C 
BRANCH  35  36
ATOM     36  O   UNL     1     -16.817  32.705   7.337  1.00  0.00    -0.394 OA
ATOM     37  H   UNL     1     -17.151  32.107   6.619  1.00  0.00     0.210 HD
ENDBRANCH  35  36
ENDBRANCH  29  35
BRANCH  30  38
ATOM     38  O   UNL     1     -14.162  33.221   6.334  1.00  0.00    -0.387 OA
ATOM     39  H   UNL     1     -14.738  32.494   5.982  1.00  0.00     0.211 HD
ENDBRANCH  30  38
ENDBRANCH   1  25
TORSDOF 11
ENDMDL
MODEL 3
REMARK VINA RESULT:    -0.646      3.139      9.279
REMARK INTER + INTRA:          -1.846
REMARK INTER:                  -1.163
REMARK INTRA:                  -0.683
REMARK UNBOUND:                -0.916
REMARK SMILES O=c1cc(-c2ccc(O)c(O)c2)oc2cc(O[C@H]3O[C@@H](CO)[C@H](O)[C@H](O)[C@@H]3O)cc(O)c12
REMARK SMILES IDX 17 1 16 2 4 3 3 4 13 5 2 6 14 7 1 8 32 9 15 10 30 11 29 12
REMARK SMILES IDX 5 13 6 14 7 15 8 16 12 17 10 18 9 19 11 21 31 23 18 25 27 26
REMARK SMILES IDX 19 27 25 28 20 29 23 30 28 31 26 33 21 35 22 36 24 38
REMARK H PARENT 9 20 11 22 31 24 28 32 26 34 22 37 24 39
REMARK Flexibility Score: inf
ROOT
ATOM      1  O   UNL     1     -15.039  31.005  16.122  1.00  0.00    -0.462 OA
ENDROOT
BRANCH   1   2
ATOM      2  C   UNL     1     -16.414  30.725  16.089  1.00  0.00     0.130 A 
ATOM      3  C   UNL     1     -19.771  27.339  16.021  1.00  0.00     0.138 A 
ATOM      4  C   UNL     1     -20.812  28.282  16.042  1.00  0.00     0.100 A 
ATOM      5  O   UNL     1     -18.508  27.758  16.017  1.00  0.00    -0.456 OA
ATOM      6  C   UNL     1     -20.505  29.642  16.058  1.00  0.00     0.197 A 
ATOM      7  C   UNL     1     -18.166  29.043  16.034  1.00  0.00     0.146 A 
ATOM      8  O   UNL     1     -21.447  30.482  16.080  1.00  0.00    -0.289 OA
ATOM      9  C   UNL     1     -19.157  30.052  16.058  1.00  0.00     0.107 A 
ATOM     10  C   UNL     1     -16.811  29.388  16.036  1.00  0.00     0.094 A 
ATOM     11  C   UNL     1     -18.759  31.408  16.095  1.00  0.00     0.134 A 
ATOM     12  C   UNL     1     -17.394  31.734  16.114  1.00  0.00     0.093 A 
BRANCH   3  13
ATOM     13  C   UNL     1     -20.037  25.878  16.031  1.00  0.00     0.021 A 
ATOM     14  C   UNL     1     -18.957  24.980  16.004  1.00  0.00     0.016 A 
ATOM     15  C   UNL     1     -19.178  23.600  16.033  1.00  0.00     0.051 A 
ATOM     16  C   UNL     1     -20.478  23.093  16.078  1.00  0.00     0.157 A 
ATOM     17  C   UNL     1     -21.348  25.362  16.055  1.00  0.00     0.062 A 
ATOM     18  C   UNL     1     -21.570  23.976  16.085  1.00  0.00     0.158 A 
BRANCH  16  19
ATOM     19  O   UNL     1     -20.667  21.711  16.116  1.00  0.00    -0.504 OA
ATOM     20  H   UNL     1     -19.977  21.065  15.752  1.00  0.00     0.293 HD
ENDBRANCH  16  19
BRANCH  18  21
ATOM     21  O   UNL     1     -22.870  23.476  16.117  1.00  0.00    -0.504 OA
ATOM     22  H   UNL     1     -23.389  23.289  15.266  1.00  0.00     0.293 HD
ENDBRANCH  18  21
ENDBRANCH   3  13
BRANCH  11  23
ATOM     23  O   UNL     1     -19.706  32.432  16.125  1.00  0.00    -0.507 OA
ATOM     24  H   UNL     1     -20.695  32.241  16.233  1.00  0.00     0.293 HD
ENDBRANCH  11  23
ENDBRANCH   1   2
BRANCH   1  25
ATOM     25  C   UNL     1     -14.123  30.759  15.054  1.00  0.00     0.339 C 
ATOM     26  C   UNL     1     -14.735  31.332  13.740  1.00  0.00     0.214 C 
ATOM     27  O   UNL     1     -13.876  29.359  14.985  1.00  0.00    -0.332 OA
ATOM     28  C   UNL     1     -15.290  30.188  12.870  1.00  0.00     0.180 C 
ATOM     29  C   UNL     1     -13.213  29.024  13.783  1.00  0.00     0.179 C 
ATOM     30  C   UNL     1     -14.201  29.121  12.592  1.00  0.00     0.177 C 
BRANCH  26  31
ATOM     31  O   UNL     1     -13.762  32.041  13.014  1.00  0.00    -0.384 OA
ATOM     32  H   UNL     1     -13.631  31.555  12.158  1.00  0.00     0.211 HD
ENDBRANCH  26  31
BRANCH  28  33
ATOM     33  O   UNL     1     -15.813  30.688  11.663  1.00  0.00    -0.387 OA
ATOM     34  H   UNL     1     -15.799  29.935  11.014  1.00  0.00     0.211 HD
ENDBRANCH  28  33
BRANCH  29  35
ATOM     35  C   UNL     1     -12.638  27.607  13.910  1.00  0.00     0.191 C 
BRANCH  35  36
ATOM     36  O   UNL     1     -13.436  26.835  14.765  1.00  0.00    -0.394 OA
ATOM     37  H   UNL     1     -13.966  26.227  14.187  1.00  0.00     0.210 HD
ENDBRANCH  35  36
ENDBRANCH  29  35
BRANCH  30  38
ATOM     38  O   UNL     1     -13.481  29.441  11.425  1.00  0.00    -0.387 OA
ATOM     39  H   UNL     1     -13.132  30.362  11.539  1.00  0.00     0.211 HD
ENDBRANCH  30  38
ENDBRANCH   1  25
TORSDOF 11
ENDMDL
MODEL 4
REMARK VINA RESULT:    -0.458      1.778      3.025
REMARK INTER + INTRA:          -1.576
REMARK INTER:                  -0.794
REMARK INTRA:                  -0.782
REMARK UNBOUND:                -0.916
REMARK SMILES O=c1cc(-c2ccc(O)c(O)c2)oc2cc(O[C@H]3O[C@@H](CO)[C@H](O)[C@H](O)[C@@H]3O)cc(O)c12
REMARK SMILES IDX 17 1 16 2 4 3 3 4 13 5 2 6 14 7 1 8 32 9 15 10 30 11 29 12
REMARK SMILES IDX 5 13 6 14 7 15 8 16 12 17 10 18 9 19 11 21 31 23 18 25 27 26
REMARK SMILES IDX 19 27 25 28 20 29 23 30 28 31 26 33 21 35 22 36 24 38
REMARK H PARENT 9 20 11 22 31 24 28 32 26 34 22 37 24 39
REMARK Flexibility Score: inf
ROOT
ATOM      1  O   UNL     1     -16.390  25.948  14.143  1.00  0.00    -0.462 OA
ENDROOT
BRANCH   1   2
ATOM      2  C   UNL     1     -15.430  26.971  14.067  1.00  0.00     0.130 A 
ATOM      3  C   UNL     1     -13.514  30.420  11.390  1.00  0.00     0.138 A 
ATOM      4  C   UNL     1     -12.642  30.819  12.416  1.00  0.00     0.100 A 
ATOM      5  O   UNL     1     -14.346  29.402  11.597  1.00  0.00    -0.456 OA
ATOM      6  C   UNL     1     -12.663  30.143  13.636  1.00  0.00     0.197 A 
ATOM      7  C   UNL     1     -14.404  28.728  12.742  1.00  0.00     0.146 A 
ATOM      8  O   UNL     1     -11.879  30.512  14.553  1.00  0.00    -0.289 OA
ATOM      9  C   UNL     1     -13.560  29.073  13.824  1.00  0.00     0.107 A 
ATOM     10  C   UNL     1     -15.316  27.677  12.869  1.00  0.00     0.094 A 
ATOM     11  C   UNL     1     -13.661  28.349  15.033  1.00  0.00     0.134 A 
ATOM     12  C   UNL     1     -14.595  27.308  15.148  1.00  0.00     0.093 A 
BRANCH   3  13
ATOM     13  C   UNL     1     -13.555  31.120  10.080  1.00  0.00     0.021 A 
ATOM     14  C   UNL     1     -12.352  31.429   9.425  1.00  0.00     0.016 A 
ATOM     15  C   UNL     1     -12.362  32.069   8.182  1.00  0.00     0.051 A 
ATOM     16  C   UNL     1     -13.571  32.421   7.578  1.00  0.00     0.157 A 
ATOM     17  C   UNL     1     -14.772  31.496   9.478  1.00  0.00     0.062 A 
ATOM     18  C   UNL     1     -14.783  32.138   8.230  1.00  0.00     0.158 A 
BRANCH  16  19
ATOM     19  O   UNL     1     -13.551  33.050   6.334  1.00  0.00    -0.504 OA
ATOM     20  H   UNL     1     -14.204  32.808   5.599  1.00  0.00     0.293 HD
ENDBRANCH  16  19
BRANCH  18  21
ATOM     21  O   UNL     1     -15.992  32.499   7.639  1.00  0.00    -0.504 OA
ATOM     22  H   UNL     1     -16.071  32.648   6.638  1.00  0.00     0.293 HD
ENDBRANCH  18  21
ENDBRANCH   3  13
BRANCH  11  23
ATOM     23  O   UNL     1     -12.849  28.661  16.125  1.00  0.00    -0.507 OA
ATOM     24  H   UNL     1     -13.008  28.257  17.040  1.00  0.00     0.293 HD
ENDBRANCH  11  23
ENDBRANCH   1   2
BRANCH   1  25
ATOM     25  C   UNL     1     -17.389  25.832  15.157  1.00  0.00     0.339 C 
ATOM     26  C   UNL     1     -18.185  24.513  14.915  1.00  0.00     0.214 C 
ATOM     27  O   UNL     1     -18.213  26.991  15.113  1.00  0.00    -0.332 OA
ATOM     28  C   UNL     1     -19.557  24.829  14.292  1.00  0.00     0.180 C 
ATOM     29  C   UNL     1     -19.380  26.808  15.889  1.00  0.00     0.179 C 
ATOM     30  C   UNL     1     -20.347  25.837  15.164  1.00  0.00     0.177 C 
BRANCH  26  31
ATOM     31  O   UNL     1     -18.369  23.822  16.125  1.00  0.00    -0.384 OA
ATOM     32  H   UNL     1     -17.925  24.358  16.833  1.00  0.00     0.211 HD
ENDBRANCH  26  31
BRANCH  28  33
ATOM     33  O   UNL     1     -20.301  23.650  14.101  1.00  0.00    -0.387 OA
ATOM     34  H   UNL     1     -21.106  23.725  14.679  1.00  0.00     0.211 HD
ENDBRANCH  28  33
BRANCH  29  35
ATOM     35  C   UNL     1     -20.041  28.173  16.123  1.00  0.00     0.191 C 
BRANCH  35  36
ATOM     36  O   UNL     1     -20.798  28.543  15.004  1.00  0.00    -0.394 OA
ATOM     37  H   UNL     1     -21.748  28.554  15.294  1.00  0.00     0.210 HD
ENDBRANCH  35  36
ENDBRANCH  29  35
BRANCH  30  38
ATOM     38  O   UNL     1     -21.121  25.160  16.125  1.00  0.00    -0.387 OA
ATOM     39  H   UNL     1     -20.590  25.132  16.962  1.00  0.00     0.211 HD
ENDBRANCH  30  38
ENDBRANCH   1  25
TORSDOF 11
ENDMDL
MODEL 5
REMARK VINA RESULT:    -0.274      3.879      6.149
REMARK INTER + INTRA:          -1.310
REMARK INTER:                  -1.350
REMARK INTRA:                   0.040
REMARK UNBOUND:                -0.916
REMARK SMILES O=c1cc(-c2ccc(O)c(O)c2)oc2cc(O[C@H]3O[C@@H](CO)[C@H](O)[C@H](O)[C@@H]3O)cc(O)c12
REMARK SMILES IDX 17 1 16 2 4 3 3 4 13 5 2 6 14 7 1 8 32 9 15 10 30 11 29 12
REMARK SMILES IDX 5 13 6 14 7 15 8 16 12 17 10 18 9 19 11 21 31 23 18 25 27 26
REMARK SMILES IDX 19 27 25 28 20 29 23 30 28 31 26 33 21 35 22 36 24 38
REMARK H PARENT 9 20 11 22 31 24 28 32 26 34 22 37 24 39
REMARK Flexibility Score: inf
ROOT
ATOM      1  O   UNL     1     -15.797  29.497  12.757  1.00  0.00    -0.462 OA
ENDROOT
BRANCH   1   2
ATOM      2  C   UNL     1     -15.182  30.057  11.625  1.00  0.00     0.130 A 
ATOM      3  C   UNL     1     -15.736  32.783   7.753  1.00  0.00     0.138 A 
ATOM      4  C   UNL     1     -14.381  32.668   7.401  1.00  0.00     0.100 A 
ATOM      5  O   UNL     1     -16.185  32.160   8.840  1.00  0.00    -0.456 OA
ATOM      6  C   UNL     1     -13.529  31.903   8.195  1.00  0.00     0.197 A 
ATOM      7  C   UNL     1     -15.411  31.421   9.629  1.00  0.00     0.146 A 
ATOM      8  O   UNL     1     -12.312  31.807   7.872  1.00  0.00    -0.289 OA
ATOM      9  C   UNL     1     -14.035  31.259   9.342  1.00  0.00     0.107 A 
ATOM     10  C   UNL     1     -15.971  30.810  10.755  1.00  0.00     0.094 A 
ATOM     11  C   UNL     1     -13.237  30.483  10.212  1.00  0.00     0.134 A 
ATOM     12  C   UNL     1     -13.813  29.891  11.346  1.00  0.00     0.093 A 
BRANCH   3  13
ATOM     13  C   UNL     1     -16.684  33.608   6.960  1.00  0.00     0.021 A 
ATOM     14  C   UNL     1     -16.477  33.762   5.579  1.00  0.00     0.016 A 
ATOM     15  C   UNL     1     -17.365  34.514   4.806  1.00  0.00     0.051 A 
ATOM     16  C   UNL     1     -18.467  35.135   5.398  1.00  0.00     0.157 A 
ATOM     17  C   UNL     1     -17.785  34.253   7.557  1.00  0.00     0.062 A 
ATOM     18  C   UNL     1     -18.678  35.009   6.781  1.00  0.00     0.158 A 
BRANCH  16  19
ATOM     19  O   UNL     1     -19.341  35.872   4.599  1.00  0.00    -0.504 OA
ATOM     20  H   UNL     1     -20.274  36.115   4.908  1.00  0.00     0.293 HD
ENDBRANCH  16  19
BRANCH  18  21
ATOM     21  O   UNL     1     -19.768  35.636   7.380  1.00  0.00    -0.504 OA
ATOM     22  H   UNL     1     -19.922  35.593   8.381  1.00  0.00     0.293 HD
ENDBRANCH  18  21
ENDBRANCH   3  13
BRANCH  11  23
ATOM     23  O   UNL     1     -11.875  30.303   9.966  1.00  0.00    -0.507 OA
ATOM     24  H   UNL     1     -11.171  30.575  10.642  1.00  0.00     0.293 HD
ENDBRANCH  11  23
ENDBRANCH   1   2
BRANCH   1  25
ATOM     25  C   UNL     1     -15.112  29.038  13.922  1.00  0.00     0.339 C 
ATOM     26  C   UNL     1     -14.472  30.268  14.634  1.00  0.00     0.214 C 
ATOM     27  O   UNL     1     -14.151  28.065  13.527  1.00  0.00    -0.332 OA
ATOM     28  C   UNL     1     -12.957  30.310  14.363  1.00  0.00     0.180 C 
ATOM     29  C   UNL     1     -13.253  27.787  14.583  1.00  0.00     0.179 C 
ATOM     30  C   UNL     1     -12.280  28.979  14.775  1.00  0.00     0.177 C 
BRANCH  26  31
ATOM     31  O   UNL     1     -14.697  30.205  16.021  1.00  0.00    -0.384 OA
ATOM     32  H   UNL     1     -13.804  30.178  16.455  1.00  0.00     0.211 HD
ENDBRANCH  26  31
BRANCH  28  33
ATOM     33  O   UNL     1     -12.361  31.396  15.029  1.00  0.00    -0.387 OA
ATOM     34  H   UNL     1     -11.802  31.011  15.755  1.00  0.00     0.211 HD
ENDBRANCH  28  33
BRANCH  29  35
ATOM     35  C   UNL     1     -12.490  26.496  14.259  1.00  0.00     0.191 C 
BRANCH  35  36
ATOM     36  O   UNL     1     -12.298  25.742  15.425  1.00  0.00    -0.394 OA
ATOM     37  H   UNL     1     -12.659  26.282  16.175  1.00  0.00     0.210 HD
ENDBRANCH  35  36
ENDBRANCH  29  35
BRANCH  30  38
ATOM     38  O   UNL     1     -11.875  29.025  16.122  1.00  0.00    -0.387 OA
ATOM     39  H   UNL     1     -11.515  29.934  16.289  1.00  0.00     0.211 HD
ENDBRANCH  30  38
ENDBRANCH   1  25
TORSDOF 11
ENDMDL
MODEL 6
REMARK VINA RESULT:     0.824      2.901      3.827
REMARK INTER + INTRA:           0.269
REMARK INTER:                   0.991
REMARK INTRA:                  -0.722
REMARK UNBOUND:                -0.916
REMARK SMILES O=c1cc(-c2ccc(O)c(O)c2)oc2cc(O[C@H]3O[C@@H](CO)[C@H](O)[C@H](O)[C@@H]3O)cc(O)c12
REMARK SMILES IDX 17 1 16 2 4 3 3 4 13 5 2 6 14 7 1 8 32 9 15 10 30 11 29 12
REMARK SMILES IDX 5 13 6 14 7 15 8 16 12 17 10 18 9 19 11 21 31 23 18 25 27 26
REMARK SMILES IDX 19 27 25 28 20 29 23 30 28 31 26 33 21 35 22 36 24 38
REMARK H PARENT 9 20 11 22 31 24 28 32 26 34 22 37 24 39
REMARK Flexibility Score: inf
ROOT
ATOM      1  O   UNL     1     -15.046  26.426  14.421  1.00  0.00    -0.462 OA
ENDROOT
BRANCH   1   2
ATOM      2  C   UNL     1     -14.376  27.646  14.237  1.00  0.00     0.130 A 
ATOM      3  C   UNL     1     -13.224  31.114  11.174  1.00  0.00     0.138 A 
ATOM      4  C   UNL     1     -12.554  31.852  12.163  1.00  0.00     0.100 A 
ATOM      5  O   UNL     1     -13.781  29.948  11.491  1.00  0.00    -0.456 OA
ATOM      6  C   UNL     1     -12.485  31.351  13.463  1.00  0.00     0.197 A 
ATOM      7  C   UNL     1     -13.743  29.430  12.716  1.00  0.00     0.146 A 
ATOM      8  O   UNL     1     -11.883  32.023  14.346  1.00  0.00    -0.289 OA
ATOM      9  C   UNL     1     -13.090  30.116  13.767  1.00  0.00     0.107 A 
ATOM     10  C   UNL     1     -14.365  28.202  12.957  1.00  0.00     0.094 A 
ATOM     11  C   UNL     1     -13.084  29.547  15.061  1.00  0.00     0.134 A 
ATOM     12  C   UNL     1     -13.728  28.322  15.287  1.00  0.00     0.093 A 
BRANCH   3  13
ATOM     13  C   UNL     1     -13.354  31.610   9.779  1.00  0.00     0.021 A 
ATOM     14  C   UNL     1     -12.196  31.838   9.017  1.00  0.00     0.016 A 
ATOM     15  C   UNL     1     -12.290  32.284   7.696  1.00  0.00     0.051 A 
ATOM     16  C   UNL     1     -13.538  32.523   7.117  1.00  0.00     0.157 A 
ATOM     17  C   UNL     1     -14.611  31.872   9.199  1.00  0.00     0.062 A 
ATOM     18  C   UNL     1     -14.706  32.321   7.872  1.00  0.00     0.158 A 
BRANCH  16  19
ATOM     19  O   UNL     1     -13.601  32.960   5.794  1.00  0.00    -0.504 OA
ATOM     20  H   UNL     1     -14.442  32.869   5.238  1.00  0.00     0.293 HD
ENDBRANCH  16  19
BRANCH  18  21
ATOM     21  O   UNL     1     -15.954  32.569   7.304  1.00  0.00    -0.504 OA
ATOM     22  H   UNL     1     -16.802  32.166   7.688  1.00  0.00     0.293 HD
ENDBRANCH  18  21
ENDBRANCH   3  13
BRANCH  11  23
ATOM     23  O   UNL     1     -12.454  30.194  16.125  1.00  0.00    -0.507 OA
ATOM     24  H   UNL     1     -12.234  29.711  16.988  1.00  0.00     0.293 HD
ENDBRANCH  11  23
ENDBRANCH   1   2
BRANCH   1  25
ATOM     25  C   UNL     1     -16.298  26.079  13.830  1.00  0.00     0.339 C 
ATOM     26  C   UNL     1     -17.317  25.780  14.971  1.00  0.00     0.214 C 
ATOM     27  O   UNL     1     -16.096  24.967  12.964  1.00  0.00    -0.332 OA
ATOM     28  C   UNL     1     -17.524  24.261  15.114  1.00  0.00     0.180 C 
ATOM     29  C   UNL     1     -17.331  24.400  12.576  1.00  0.00     0.179 C 
ATOM     30  C   UNL     1     -17.955  23.628  13.767  1.00  0.00     0.177 C 
BRANCH  26  31
ATOM     31  O   UNL     1     -18.551  26.397  14.702  1.00  0.00    -0.384 OA
ATOM     32  H   UNL     1     -18.528  26.683  13.752  1.00  0.00     0.211 HD
ENDBRANCH  26  31
BRANCH  28  33
ATOM     33  O   UNL     1     -18.469  23.979  16.118  1.00  0.00    -0.387 OA
ATOM     34  H   UNL     1     -17.991  23.460  16.819  1.00  0.00     0.211 HD
ENDBRANCH  28  33
BRANCH  29  35
ATOM     35  C   UNL     1     -17.098  23.472  11.377  1.00  0.00     0.191 C 
BRANCH  35  36
ATOM     36  O   UNL     1     -18.074  23.692  10.396  1.00  0.00    -0.394 OA
ATOM     37  H   UNL     1     -18.330  22.799  10.045  1.00  0.00     0.210 HD
ENDBRANCH  35  36
ENDBRANCH  29  35
BRANCH  30  38
ATOM     38  O   UNL     1     -19.356  23.643  13.639  1.00  0.00    -0.387 OA
ATOM     39  H   UNL     1     -19.564  23.530  12.676  1.00  0.00     0.211 HD
ENDBRANCH  30  38
ENDBRANCH   1  25
TORSDOF 11
ENDMDL
MODEL 7
REMARK VINA RESULT:     0.843      3.913      5.048
REMARK INTER + INTRA:           0.297
REMARK INTER:                   0.585
REMARK INTRA:                  -0.288
REMARK UNBOUND:                -0.916
REMARK SMILES O=c1cc(-c2ccc(O)c(O)c2)oc2cc(O[C@H]3O[C@@H](CO)[C@H](O)[C@H](O)[C@@H]3O)cc(O)c12
REMARK SMILES IDX 17 1 16 2 4 3 3 4 13 5 2 6 14 7 1 8 32 9 15 10 30 11 29 12
REMARK SMILES IDX 5 13 6 14 7 15 8 16 12 17 10 18 9 19 11 21 31 23 18 25 27 26
REMARK SMILES IDX 19 27 25 28 20 29 23 30 28 31 26 33 21 35 22 36 24 38
REMARK H PARENT 9 20 11 22 31 24 28 32 26 34 22 37 24 39
REMARK Flexibility Score: inf
ROOT
ATOM      1  O   UNL     1     -18.268  27.563  14.857  1.00  0.00    -0.462 OA
ENDROOT
BRANCH   1   2
ATOM      2  C   UNL     1     -16.900  27.875  14.805  1.00  0.00     0.130 A 
ATOM      3  C   UNL     1     -13.620  31.336  14.815  1.00  0.00     0.138 A 
ATOM      4  C   UNL     1     -12.559  30.417  14.769  1.00  0.00     0.100 A 
ATOM      5  O   UNL     1     -14.873  30.889  14.820  1.00  0.00    -0.456 OA
ATOM      6  C   UNL     1     -12.836  29.051  14.731  1.00  0.00     0.197 A 
ATOM      7  C   UNL     1     -15.187  29.597  14.786  1.00  0.00     0.146 A 
ATOM      8  O   UNL     1     -11.875  28.234  14.693  1.00  0.00    -0.289 OA
ATOM      9  C   UNL     1     -14.174  28.611  14.743  1.00  0.00     0.107 A 
ATOM     10  C   UNL     1     -16.534  29.222  14.803  1.00  0.00     0.094 A 
ATOM     11  C   UNL     1     -14.541  27.247  14.727  1.00  0.00     0.134 A 
ATOM     12  C   UNL     1     -15.897  26.889  14.762  1.00  0.00     0.093 A 
BRANCH   3  13
ATOM     13  C   UNL     1     -13.386  32.802  14.886  1.00  0.00     0.021 A 
ATOM     14  C   UNL     1     -13.803  33.513  16.023  1.00  0.00     0.016 A 
ATOM     15  C   UNL     1     -13.577  34.889  16.125  1.00  0.00     0.051 A 
ATOM     16  C   UNL     1     -12.942  35.579  15.090  1.00  0.00     0.157 A 
ATOM     17  C   UNL     1     -12.765  33.506  13.835  1.00  0.00     0.062 A 
ATOM     18  C   UNL     1     -12.538  34.887  13.936  1.00  0.00     0.158 A 
BRANCH  16  19
ATOM     19  O   UNL     1     -12.722  36.950  15.223  1.00  0.00    -0.504 OA
ATOM     20  H   UNL     1     -11.880  37.394  14.880  1.00  0.00     0.293 HD
ENDBRANCH  16  19
BRANCH  18  21
ATOM     21  O   UNL     1     -11.915  35.573  12.895  1.00  0.00    -0.504 OA
ATOM     22  H   UNL     1     -11.205  35.133  12.319  1.00  0.00     0.293 HD
ENDBRANCH  18  21
ENDBRANCH   3  13
BRANCH  11  23
ATOM     23  O   UNL     1     -13.572  26.244  14.688  1.00  0.00    -0.507 OA
ATOM     24  H   UNL     1     -13.814  25.273  14.529  1.00  0.00     0.293 HD
ENDBRANCH  11  23
ENDBRANCH   1   2
BRANCH   1  25
ATOM     25  C   UNL     1     -18.836  26.479  15.593  1.00  0.00     0.339 C 
ATOM     26  C   UNL     1     -18.230  25.147  15.057  1.00  0.00     0.214 C 
ATOM     27  O   UNL     1     -20.252  26.536  15.459  1.00  0.00    -0.332 OA
ATOM     28  C   UNL     1     -19.250  24.423  14.158  1.00  0.00     0.180 C 
ATOM     29  C   UNL     1     -20.850  25.341  15.919  1.00  0.00     0.179 C 
ATOM     30  C   UNL     1     -20.588  24.197  14.905  1.00  0.00     0.177 C 
BRANCH  26  31
ATOM     31  O   UNL     1     -17.868  24.307  16.125  1.00  0.00    -0.384 OA
ATOM     32  H   UNL     1     -17.925  23.375  15.788  1.00  0.00     0.211 HD
ENDBRANCH  26  31
BRANCH  28  33
ATOM     33  O   UNL     1     -18.728  23.201  13.696  1.00  0.00    -0.387 OA
ATOM     34  H   UNL     1     -19.461  22.750  13.199  1.00  0.00     0.211 HD
ENDBRANCH  28  33
BRANCH  29  35
ATOM     35  C   UNL     1     -22.353  25.577  16.110  1.00  0.00     0.191 C 
BRANCH  35  36
ATOM     36  O   UNL     1     -23.089  24.658  15.350  1.00  0.00    -0.394 OA
ATOM     37  H   UNL     1     -23.185  25.053  14.444  1.00  0.00     0.210 HD
ENDBRANCH  35  36
ENDBRANCH  29  35
BRANCH  30  38
ATOM     38  O   UNL     1     -20.569  22.970  15.595  1.00  0.00    -0.387 OA
ATOM     39  H   UNL     1     -21.276  22.399  15.197  1.00  0.00     0.211 HD
ENDBRANCH  30  38
ENDBRANCH   1  25
TORSDOF 11
ENDMDL
