MODEL 1
REMARK VINA RESULT:    -4.588      0.000      0.000
REMARK INTER + INTRA:          -5.363
REMARK INTER:                  -5.527
REMARK INTRA:                   0.164
REMARK UNBOUND:                 0.164
REMARK SMILES O=c1c(O)c(-c2ccc(O)cc2O)oc2cc(O)cc(O)c12
REMARK SMILES IDX 5 1 3 2 2 3 1 4 22 5 20 6 19 7 17 8 16 9 15 10 14 11 6 12
REMARK SMILES IDX 8 13 7 14 9 15 11 16 12 17 10 18 13 20 4 22 21 24 18 26
REMARK H PARENT 10 19 13 21 4 23 21 25 18 27
REMARK Flexibility Score: inf
ROOT
ATOM      1  C   UNL     1      72.882  41.420  20.322  1.00  0.00     0.184 A 
ATOM      2  C   UNL     1      73.463  41.692  19.074  1.00  0.00     0.208 A 
ATOM      3  C   UNL     1      74.858  41.818  18.986  1.00  0.00     0.238 A 
ATOM      4  O   UNL     1      75.370  42.115  17.875  1.00  0.00    -0.285 OA
ATOM      5  C   UNL     1      75.653  41.654  20.146  1.00  0.00     0.111 A 
ATOM      6  C   UNL     1      77.079  41.721  20.167  1.00  0.00     0.134 A 
ATOM      7  C   UNL     1      77.755  41.674  21.393  1.00  0.00     0.093 A 
ATOM      8  C   UNL     1      77.060  41.496  22.592  1.00  0.00     0.123 A 
ATOM      9  C   UNL     1      75.674  41.371  22.576  1.00  0.00     0.094 A 
ATOM     10  C   UNL     1      74.968  41.451  21.372  1.00  0.00     0.146 A 
ATOM     11  O   UNL     1      73.646  41.337  21.403  1.00  0.00    -0.451 OA
ENDROOT
BRANCH   1  12
ATOM     12  C   UNL     1      71.420  41.259  20.480  1.00  0.00     0.063 A 
ATOM     13  C   UNL     1      69.175  41.860  19.769  1.00  0.00     0.047 A 
ATOM     14  C   UNL     1      70.560  41.985  19.642  1.00  0.00     0.020 A 
ATOM     15  C   UNL     1      68.632  41.016  20.746  1.00  0.00     0.119 A 
ATOM     16  C   UNL     1      69.480  40.307  21.600  1.00  0.00     0.093 A 
ATOM     17  C   UNL     1      70.873  40.432  21.483  1.00  0.00     0.130 A 
BRANCH  15  18
ATOM     18  O   UNL     1      67.251  40.881  20.879  1.00  0.00    -0.508 OA
ATOM     19  H   UNL     1      66.722  40.246  20.293  1.00  0.00     0.293 HD
ENDBRANCH  15  18
BRANCH  17  20
ATOM     20  O   UNL     1      71.707  39.756  22.374  1.00  0.00    -0.507 OA
ATOM     21  H   UNL     1      71.573  39.815  23.376  1.00  0.00     0.293 HD
ENDBRANCH  17  20
ENDBRANCH   1  12
BRANCH   2  22
ATOM     22  O   UNL     1      72.652  41.867  17.948  1.00  0.00    -0.502 OA
ATOM     23  H   UNL     1      72.827  42.590  17.262  1.00  0.00     0.293 HD
ENDBRANCH   2  22
BRANCH   6  24
ATOM     24  O   UNL     1      77.874  41.806  19.019  1.00  0.00    -0.507 OA
ATOM     25  H   UNL     1      78.767  42.272  18.973  1.00  0.00     0.293 HD
ENDBRANCH   6  24
BRANCH   8  26
ATOM     26  O   UNL     1      77.742  41.434  23.805  1.00  0.00    -0.508 OA
ATOM     27  H   UNL     1      77.741  42.212  24.454  1.00  0.00     0.293 HD
ENDBRANCH   8  26
TORSDOF 6
ENDMDL
MODEL 2
REMARK VINA RESULT:    -4.182      1.573      7.124
REMARK INTER + INTRA:          -4.874
REMARK INTER:                  -4.678
REMARK INTRA:                  -0.196
REMARK UNBOUND:                 0.164
REMARK SMILES O=c1c(O)c(-c2ccc(O)cc2O)oc2cc(O)cc(O)c12
REMARK SMILES IDX 5 1 3 2 2 3 1 4 22 5 20 6 19 7 17 8 16 9 15 10 14 11 6 12
REMARK SMILES IDX 8 13 7 14 9 15 11 16 12 17 10 18 13 20 4 22 21 24 18 26
REMARK H PARENT 10 19 13 21 4 23 21 25 18 27
REMARK Flexibility Score: inf
ROOT
ATOM      1  C   UNL     1      72.866  41.022  20.552  1.00  0.00     0.184 A 
ATOM      2  C   UNL     1      72.421  40.457  21.757  1.00  0.00     0.208 A 
ATOM      3  C   UNL     1      71.043  40.274  21.954  1.00  0.00     0.238 A 
ATOM      4  O   UNL     1      70.646  39.816  23.058  1.00  0.00    -0.285 OA
ATOM      5  C   UNL     1      70.132  40.644  20.936  1.00  0.00     0.111 A 
ATOM      6  C   UNL     1      68.717  40.466  21.011  1.00  0.00     0.134 A 
ATOM      7  C   UNL     1      67.901  40.988  20.000  1.00  0.00     0.093 A 
ATOM      8  C   UNL     1      68.453  41.623  18.884  1.00  0.00     0.123 A 
ATOM      9  C   UNL     1      69.835  41.748  18.773  1.00  0.00     0.094 A 
ATOM     10  C   UNL     1      70.674  41.270  19.783  1.00  0.00     0.146 A 
ATOM     11  O   UNL     1      71.986  41.420  19.643  1.00  0.00    -0.451 OA
ENDROOT
BRANCH   1  12
ATOM     12  C   UNL     1      74.304  41.227  20.274  1.00  0.00     0.063 A 
ATOM     13  C   UNL     1      76.449  42.125  20.982  1.00  0.00     0.047 A 
ATOM     14  C   UNL     1      75.089  41.910  21.216  1.00  0.00     0.020 A 
ATOM     15  C   UNL     1      77.039  41.672  19.795  1.00  0.00     0.119 A 
ATOM     16  C   UNL     1      76.260  41.011  18.841  1.00  0.00     0.093 A 
ATOM     17  C   UNL     1      74.892  40.796  19.066  1.00  0.00     0.130 A 
BRANCH  15  18
ATOM     18  O   UNL     1      78.395  41.878  19.553  1.00  0.00    -0.508 OA
ATOM     19  H   UNL     1      79.109  41.407  20.098  1.00  0.00     0.293 HD
ENDBRANCH  15  18
BRANCH  17  20
ATOM     20  O   UNL     1      74.116  40.179  18.084  1.00  0.00    -0.507 OA
ATOM     21  H   UNL     1      73.104  40.220  18.104  1.00  0.00     0.293 HD
ENDBRANCH  17  20
ENDBRANCH   1  12
BRANCH   2  22
ATOM     22  O   UNL     1      73.342  40.118  22.752  1.00  0.00    -0.502 OA
ATOM     23  H   UNL     1      73.499  40.699  23.566  1.00  0.00     0.293 HD
ENDBRANCH   2  22
BRANCH   6  24
ATOM     24  O   UNL     1      68.071  39.767  22.036  1.00  0.00    -0.507 OA
ATOM     25  H   UNL     1      67.564  38.905  21.910  1.00  0.00     0.293 HD
ENDBRANCH   6  24
BRANCH   8  26
ATOM     26  O   UNL     1      67.634  42.125  17.875  1.00  0.00    -0.508 OA
ATOM     27  H   UNL     1      67.995  42.737  17.154  1.00  0.00     0.293 HD
ENDBRANCH   8  26
TORSDOF 6
ENDMDL
MODEL 3
REMARK VINA RESULT:    -3.918      1.130      3.129
REMARK INTER + INTRA:          -4.556
REMARK INTER:                  -5.156
REMARK INTRA:                   0.600
REMARK UNBOUND:                 0.164
REMARK SMILES O=c1c(O)c(-c2ccc(O)cc2O)oc2cc(O)cc(O)c12
REMARK SMILES IDX 5 1 3 2 2 3 1 4 22 5 20 6 19 7 17 8 16 9 15 10 14 11 6 12
REMARK SMILES IDX 8 13 7 14 9 15 11 16 12 17 10 18 13 20 4 22 21 24 18 26
REMARK H PARENT 10 19 13 21 4 23 21 25 18 27
REMARK Flexibility Score: inf
ROOT
ATOM      1  C   UNL     1      72.772  41.359  20.804  1.00  0.00     0.184 A 
ATOM      2  C   UNL     1      73.252  41.047  22.085  1.00  0.00     0.208 A 
ATOM      3  C   UNL     1      74.637  41.056  22.314  1.00  0.00     0.238 A 
ATOM      4  O   UNL     1      75.063  40.723  23.451  1.00  0.00    -0.285 OA
ATOM      5  C   UNL     1      75.521  41.395  21.262  1.00  0.00     0.111 A 
ATOM      6  C   UNL     1      76.940  41.475  21.392  1.00  0.00     0.134 A 
ATOM      7  C   UNL     1      77.727  41.691  20.253  1.00  0.00     0.093 A 
ATOM      8  C   UNL     1      77.140  41.894  19.000  1.00  0.00     0.123 A 
ATOM      9  C   UNL     1      75.754  41.876  18.874  1.00  0.00     0.094 A 
ATOM     10  C   UNL     1      74.944  41.627  19.986  1.00  0.00     0.146 A 
ATOM     11  O   UNL     1      73.627  41.607  19.820  1.00  0.00    -0.451 OA
ENDROOT
BRANCH   1  12
ATOM     12  C   UNL     1      71.325  41.383  20.499  1.00  0.00     0.063 A 
ATOM     13  C   UNL     1      69.041  41.006  21.239  1.00  0.00     0.047 A 
ATOM     14  C   UNL     1      70.414  40.999  21.495  1.00  0.00     0.020 A 
ATOM     15  C   UNL     1      68.563  41.383  19.977  1.00  0.00     0.119 A 
ATOM     16  C   UNL     1      69.465  41.744  18.972  1.00  0.00     0.093 A 
ATOM     17  C   UNL     1      70.845  41.735  19.220  1.00  0.00     0.130 A 
BRANCH  15  18
ATOM     18  O   UNL     1      67.195  41.397  19.712  1.00  0.00    -0.508 OA
ATOM     19  H   UNL     1      66.632  40.558  19.788  1.00  0.00     0.293 HD
ENDBRANCH  15  18
BRANCH  17  20
ATOM     20  O   UNL     1      71.736  42.050  18.194  1.00  0.00    -0.507 OA
ATOM     21  H   UNL     1      72.565  42.607  18.363  1.00  0.00     0.293 HD
ENDBRANCH  17  20
ENDBRANCH   1  12
BRANCH   2  22
ATOM     22  O   UNL     1      72.356  40.699  23.100  1.00  0.00    -0.502 OA
ATOM     23  H   UNL     1      71.844  41.392  23.633  1.00  0.00     0.293 HD
ENDBRANCH   2  22
BRANCH   6  24
ATOM     24  O   UNL     1      77.620  41.379  22.610  1.00  0.00    -0.507 OA
ATOM     25  H   UNL     1      77.339  40.791  23.379  1.00  0.00     0.293 HD
ENDBRANCH   6  24
BRANCH   8  26
ATOM     26  O   UNL     1      77.930  42.124  17.876  1.00  0.00    -0.508 OA
ATOM     27  H   UNL     1      78.907  42.381  17.957  1.00  0.00     0.293 HD
ENDBRANCH   8  26
TORSDOF 6
ENDMDL
MODEL 4
REMARK VINA RESULT:    -3.440      1.548      7.014
REMARK INTER + INTRA:          -3.980
REMARK INTER:                  -4.437
REMARK INTRA:                   0.456
REMARK UNBOUND:                 0.164
REMARK SMILES O=c1c(O)c(-c2ccc(O)cc2O)oc2cc(O)cc(O)c12
REMARK SMILES IDX 5 1 3 2 2 3 1 4 22 5 20 6 19 7 17 8 16 9 15 10 14 11 6 12
REMARK SMILES IDX 8 13 7 14 9 15 11 16 12 17 10 18 13 20 4 22 21 24 18 26
REMARK H PARENT 10 19 13 21 4 23 21 25 18 27
REMARK Flexibility Score: inf
ROOT
ATOM      1  C   UNL     1      73.117  41.000  20.700  1.00  0.00     0.184 A 
ATOM      2  C   UNL     1      72.722  40.321  21.863  1.00  0.00     0.208 A 
ATOM      3  C   UNL     1      71.357  40.072  22.075  1.00  0.00     0.238 A 
ATOM      4  O   UNL     1      71.005  39.510  23.146  1.00  0.00    -0.285 OA
ATOM      5  C   UNL     1      70.408  40.490  21.113  1.00  0.00     0.111 A 
ATOM      6  C   UNL     1      69.003  40.254  21.205  1.00  0.00     0.134 A 
ATOM      7  C   UNL     1      68.143  40.827  20.259  1.00  0.00     0.093 A 
ATOM      8  C   UNL     1      68.644  41.572  19.188  1.00  0.00     0.123 A 
ATOM      9  C   UNL     1      70.017  41.758  19.056  1.00  0.00     0.094 A 
ATOM     10  C   UNL     1      70.898  41.229  20.004  1.00  0.00     0.146 A 
ATOM     11  O   UNL     1      72.200  41.439  19.847  1.00  0.00    -0.451 OA
ENDROOT
BRANCH   1  12
ATOM     12  C   UNL     1      74.539  41.281  20.408  1.00  0.00     0.063 A 
ATOM     13  C   UNL     1      76.395  41.186  18.842  1.00  0.00     0.047 A 
ATOM     14  C   UNL     1      75.055  40.939  19.148  1.00  0.00     0.020 A 
ATOM     15  C   UNL     1      77.240  41.766  19.797  1.00  0.00     0.119 A 
ATOM     16  C   UNL     1      76.740  42.089  21.061  1.00  0.00     0.093 A 
ATOM     17  C   UNL     1      75.397  41.839  21.379  1.00  0.00     0.130 A 
BRANCH  15  18
ATOM     18  O   UNL     1      78.577  42.020  19.500  1.00  0.00    -0.508 OA
ATOM     19  H   UNL     1      79.250  41.269  19.399  1.00  0.00     0.293 HD
ENDBRANCH  15  18
BRANCH  17  20
ATOM     20  O   UNL     1      74.923  42.120  22.661  1.00  0.00    -0.507 OA
ATOM     21  H   UNL     1      75.108  43.007  23.113  1.00  0.00     0.293 HD
ENDBRANCH  17  20
ENDBRANCH   1  12
BRANCH   2  22
ATOM     22  O   UNL     1      73.680  39.936  22.806  1.00  0.00    -0.502 OA
ATOM     23  H   UNL     1      73.684  40.295  23.752  1.00  0.00     0.293 HD
ENDBRANCH   2  22
BRANCH   6  24
ATOM     24  O   UNL     1      68.409  39.449  22.181  1.00  0.00    -0.507 OA
ATOM     25  H   UNL     1      67.958  39.796  23.014  1.00  0.00     0.293 HD
ENDBRANCH   6  24
BRANCH   8  26
ATOM     26  O   UNL     1      67.782  42.124  18.243  1.00  0.00    -0.508 OA
ATOM     27  H   UNL     1      66.977  42.674  18.517  1.00  0.00     0.293 HD
ENDBRANCH   8  26
TORSDOF 6
ENDMDL
MODEL 5
REMARK VINA RESULT:    -3.210      1.289      6.330
REMARK INTER + INTRA:          -3.703
REMARK INTER:                  -4.110
REMARK INTRA:                   0.407
REMARK UNBOUND:                 0.164
REMARK SMILES O=c1c(O)c(-c2ccc(O)cc2O)oc2cc(O)cc(O)c12
REMARK SMILES IDX 5 1 3 2 2 3 1 4 22 5 20 6 19 7 17 8 16 9 15 10 14 11 6 12
REMARK SMILES IDX 8 13 7 14 9 15 11 16 12 17 10 18 13 20 4 22 21 24 18 26
REMARK H PARENT 10 19 13 21 4 23 21 25 18 27
REMARK Flexibility Score: inf
ROOT
ATOM      1  C   UNL     1      73.630  41.222  21.042  1.00  0.00     0.184 A 
ATOM      2  C   UNL     1      73.572  41.687  19.720  1.00  0.00     0.208 A 
ATOM      3  C   UNL     1      72.325  41.758  19.078  1.00  0.00     0.238 A 
ATOM      4  O   UNL     1      72.285  42.125  17.875  1.00  0.00    -0.285 OA
ATOM      5  C   UNL     1      71.153  41.378  19.775  1.00  0.00     0.111 A 
ATOM      6  C   UNL     1      69.833  41.448  19.238  1.00  0.00     0.134 A 
ATOM      7  C   UNL     1      68.760  40.923  19.970  1.00  0.00     0.093 A 
ATOM      8  C   UNL     1      68.952  40.392  21.249  1.00  0.00     0.123 A 
ATOM      9  C   UNL     1      70.227  40.373  21.806  1.00  0.00     0.094 A 
ATOM     10  C   UNL     1      71.323  40.856  21.085  1.00  0.00     0.146 A 
ATOM     11  O   UNL     1      72.524  40.810  21.649  1.00  0.00    -0.451 OA
ENDROOT
BRANCH   1  12
ATOM     12  C   UNL     1      74.909  41.137  21.781  1.00  0.00     0.063 A 
ATOM     13  C   UNL     1      77.233  41.815  21.993  1.00  0.00     0.047 A 
ATOM     14  C   UNL     1      76.010  41.876  21.322  1.00  0.00     0.020 A 
ATOM     15  C   UNL     1      77.375  41.002  23.125  1.00  0.00     0.119 A 
ATOM     16  C   UNL     1      76.290  40.245  23.576  1.00  0.00     0.093 A 
ATOM     17  C   UNL     1      75.059  40.297  22.904  1.00  0.00     0.130 A 
BRANCH  15  18
ATOM     18  O   UNL     1      78.589  40.937  23.805  1.00  0.00    -0.508 OA
ATOM     19  H   UNL     1      78.899  40.085  24.257  1.00  0.00     0.293 HD
ENDBRANCH  15  18
BRANCH  17  20
ATOM     20  O   UNL     1      73.999  39.499  23.335  1.00  0.00    -0.507 OA
ATOM     21  H   UNL     1      74.008  38.493  23.214  1.00  0.00     0.293 HD
ENDBRANCH  17  20
ENDBRANCH   1  12
BRANCH   2  22
ATOM     22  O   UNL     1      74.747  42.038  19.050  1.00  0.00    -0.502 OA
ATOM     23  H   UNL     1      75.374  42.756  19.393  1.00  0.00     0.293 HD
ENDBRANCH   2  22
BRANCH   6  24
ATOM     24  O   UNL     1      69.519  42.041  18.011  1.00  0.00    -0.507 OA
ATOM     25  H   UNL     1      69.815  41.693  17.113  1.00  0.00     0.293 HD
ENDBRANCH   6  24
BRANCH   8  26
ATOM     26  O   UNL     1      67.877  39.887  21.976  1.00  0.00    -0.508 OA
ATOM     27  H   UNL     1      67.788  40.048  22.972  1.00  0.00     0.293 HD
ENDBRANCH   8  26
TORSDOF 6
ENDMDL
MODEL 6
REMARK VINA RESULT:    -3.128      0.926      1.044
REMARK INTER + INTRA:          -3.604
REMARK INTER:                  -4.076
REMARK INTRA:                   0.471
REMARK UNBOUND:                 0.164
REMARK SMILES O=c1c(O)c(-c2ccc(O)cc2O)oc2cc(O)cc(O)c12
REMARK SMILES IDX 5 1 3 2 2 3 1 4 22 5 20 6 19 7 17 8 16 9 15 10 14 11 6 12
REMARK SMILES IDX 8 13 7 14 9 15 11 16 12 17 10 18 13 20 4 22 21 24 18 26
REMARK H PARENT 10 19 13 21 4 23 21 25 18 27
REMARK Flexibility Score: inf
ROOT
ATOM      1  C   UNL     1      73.864  41.280  20.411  1.00  0.00     0.184 A 
ATOM      2  C   UNL     1      74.375  41.636  19.153  1.00  0.00     0.208 A 
ATOM      3  C   UNL     1      75.764  41.754  18.991  1.00  0.00     0.238 A 
ATOM      4  O   UNL     1      76.213  42.125  17.875  1.00  0.00    -0.285 OA
ATOM      5  C   UNL     1      76.624  41.497  20.085  1.00  0.00     0.111 A 
ATOM      6  C   UNL     1      78.049  41.547  20.025  1.00  0.00     0.134 A 
ATOM      7  C   UNL     1      78.796  41.403  21.202  1.00  0.00     0.093 A 
ATOM      8  C   UNL     1      78.171  41.146  22.425  1.00  0.00     0.123 A 
ATOM      9  C   UNL     1      76.784  41.037  22.484  1.00  0.00     0.094 A 
ATOM     10  C   UNL     1      76.010  41.212  21.333  1.00  0.00     0.146 A 
ATOM     11  O   UNL     1      74.690  41.111  21.436  1.00  0.00    -0.451 OA
ENDROOT
BRANCH   1  12
ATOM     12  C   UNL     1      72.412  41.123  20.645  1.00  0.00     0.063 A 
ATOM     13  C   UNL     1      70.133  41.557  19.921  1.00  0.00     0.047 A 
ATOM     14  C   UNL     1      71.511  41.682  19.727  1.00  0.00     0.020 A 
ATOM     15  C   UNL     1      69.640  40.882  21.045  1.00  0.00     0.119 A 
ATOM     16  C   UNL     1      70.531  40.343  21.978  1.00  0.00     0.093 A 
ATOM     17  C   UNL     1      71.916  40.469  21.793  1.00  0.00     0.130 A 
BRANCH  15  18
ATOM     18  O   UNL     1      68.268  40.748  21.247  1.00  0.00    -0.508 OA
ATOM     19  H   UNL     1      67.780  39.890  21.018  1.00  0.00     0.293 HD
ENDBRANCH  15  18
BRANCH  17  20
ATOM     20  O   UNL     1      72.793  39.970  22.755  1.00  0.00    -0.507 OA
ATOM     21  H   UNL     1      72.545  39.941  23.737  1.00  0.00     0.293 HD
ENDBRANCH  17  20
ENDBRANCH   1  12
BRANCH   2  22
ATOM     22  O   UNL     1      73.501  41.901  18.094  1.00  0.00    -0.502 OA
ATOM     23  H   UNL     1      73.779  41.807  17.125  1.00  0.00     0.293 HD
ENDBRANCH   2  22
BRANCH   6  24
ATOM     24  O   UNL     1      78.775  41.706  18.841  1.00  0.00    -0.507 OA
ATOM     25  H   UNL     1      79.551  42.341  18.724  1.00  0.00     0.293 HD
ENDBRANCH   6  24
BRANCH   8  26
ATOM     26  O   UNL     1      78.923  40.989  23.587  1.00  0.00    -0.508 OA
ATOM     27  H   UNL     1      78.618  41.375  24.472  1.00  0.00     0.293 HD
ENDBRANCH   8  26
TORSDOF 6
ENDMDL
MODEL 7
REMARK VINA RESULT:    -2.905      1.874      3.456
REMARK INTER + INTRA:          -3.335
REMARK INTER:                  -2.932
REMARK INTRA:                  -0.403
REMARK UNBOUND:                 0.164
REMARK SMILES O=c1c(O)c(-c2ccc(O)cc2O)oc2cc(O)cc(O)c12
REMARK SMILES IDX 5 1 3 2 2 3 1 4 22 5 20 6 19 7 17 8 16 9 15 10 14 11 6 12
REMARK SMILES IDX 8 13 7 14 9 15 11 16 12 17 10 18 13 20 4 22 21 24 18 26
REMARK H PARENT 10 19 13 21 4 23 21 25 18 27
REMARK Flexibility Score: inf
ROOT
ATOM      1  C   UNL     1      74.402  40.762  21.779  1.00  0.00     0.184 A 
ATOM      2  C   UNL     1      75.091  40.390  22.943  1.00  0.00     0.208 A 
ATOM      3  C   UNL     1      76.491  40.483  22.965  1.00  0.00     0.238 A 
ATOM      4  O   UNL     1      77.107  40.096  23.993  1.00  0.00    -0.285 OA
ATOM      5  C   UNL     1      77.181  40.964  21.827  1.00  0.00     0.111 A 
ATOM      6  C   UNL     1      78.596  41.139  21.751  1.00  0.00     0.134 A 
ATOM      7  C   UNL     1      79.184  41.498  20.531  1.00  0.00     0.093 A 
ATOM      8  C   UNL     1      78.400  41.753  19.402  1.00  0.00     0.123 A 
ATOM      9  C   UNL     1      77.015  41.643  19.481  1.00  0.00     0.094 A 
ATOM     10  C   UNL     1      76.402  41.251  20.675  1.00  0.00     0.146 A 
ATOM     11  O   UNL     1      75.079  41.147  20.704  1.00  0.00    -0.451 OA
ENDROOT
BRANCH   1  12
ATOM     12  C   UNL     1      72.927  40.703  21.695  1.00  0.00     0.063 A 
ATOM     13  C   UNL     1      70.785  41.820  21.967  1.00  0.00     0.047 A 
ATOM     14  C   UNL     1      72.180  41.844  22.031  1.00  0.00     0.020 A 
ATOM     15  C   UNL     1      70.118  40.651  21.581  1.00  0.00     0.119 A 
ATOM     16  C   UNL     1      70.853  39.504  21.268  1.00  0.00     0.093 A 
ATOM     17  C   UNL     1      72.254  39.517  21.335  1.00  0.00     0.130 A 
BRANCH  15  18
ATOM     18  O   UNL     1      68.727  40.617  21.511  1.00  0.00    -0.508 OA
ATOM     19  H   UNL     1      68.154  40.620  22.347  1.00  0.00     0.293 HD
ENDBRANCH  15  18
BRANCH  17  20
ATOM     20  O   UNL     1      72.973  38.352  21.067  1.00  0.00    -0.507 OA
ATOM     21  H   UNL     1      72.854  37.515  21.625  1.00  0.00     0.293 HD
ENDBRANCH  17  20
ENDBRANCH   1  12
BRANCH   2  22
ATOM     22  O   UNL     1      74.385  39.900  24.046  1.00  0.00    -0.502 OA
ATOM     23  H   UNL     1      73.420  40.150  24.226  1.00  0.00     0.293 HD
ENDBRANCH   2  22
BRANCH   6  24
ATOM     24  O   UNL     1      79.460  41.000  22.842  1.00  0.00    -0.507 OA
ATOM     25  H   UNL     1      80.028  40.186  23.024  1.00  0.00     0.293 HD
ENDBRANCH   6  24
BRANCH   8  26
ATOM     26  O   UNL     1      78.993  42.125  18.197  1.00  0.00    -0.508 OA
ATOM     27  H   UNL     1      78.530  42.753  17.551  1.00  0.00     0.293 HD
ENDBRANCH   8  26
TORSDOF 6
ENDMDL
MODEL 8
REMARK VINA RESULT:    -1.665      1.747      2.567
REMARK INTER + INTRA:          -1.841
REMARK INTER:                  -1.855
REMARK INTRA:                   0.014
REMARK UNBOUND:                 0.164
REMARK SMILES O=c1c(O)c(-c2ccc(O)cc2O)oc2cc(O)cc(O)c12
REMARK SMILES IDX 5 1 3 2 2 3 1 4 22 5 20 6 19 7 17 8 16 9 15 10 14 11 6 12
REMARK SMILES IDX 8 13 7 14 9 15 11 16 12 17 10 18 13 20 4 22 21 24 18 26
REMARK H PARENT 10 19 13 21 4 23 21 25 18 27
REMARK Flexibility Score: inf
ROOT
ATOM      1  C   UNL     1      73.887  41.132  20.732  1.00  0.00     0.184 A 
ATOM      2  C   UNL     1      75.090  41.557  20.147  1.00  0.00     0.208 A 
ATOM      3  C   UNL     1      76.282  41.434  20.877  1.00  0.00     0.238 A 
ATOM      4  O   UNL     1      77.349  41.866  20.368  1.00  0.00    -0.285 OA
ATOM      5  C   UNL     1      76.257  40.872  22.175  1.00  0.00     0.111 A 
ATOM      6  C   UNL     1      77.411  40.662  22.990  1.00  0.00     0.134 A 
ATOM      7  C   UNL     1      77.254  40.220  24.310  1.00  0.00     0.093 A 
ATOM      8  C   UNL     1      75.989  39.917  24.822  1.00  0.00     0.123 A 
ATOM      9  C   UNL     1      74.864  40.062  24.016  1.00  0.00     0.094 A 
ATOM     10  C   UNL     1      74.985  40.536  22.707  1.00  0.00     0.146 A 
ATOM     11  O   UNL     1      73.884  40.670  21.977  1.00  0.00    -0.451 OA
ENDROOT
BRANCH   1  12
ATOM     12  C   UNL     1      72.598  41.218  20.012  1.00  0.00     0.063 A 
ATOM     13  C   UNL     1      71.372  41.042  17.922  1.00  0.00     0.047 A 
ATOM     14  C   UNL     1      72.571  40.964  18.632  1.00  0.00     0.020 A 
ATOM     15  C   UNL     1      70.185  41.389  18.580  1.00  0.00     0.119 A 
ATOM     16  C   UNL     1      70.207  41.667  19.950  1.00  0.00     0.093 A 
ATOM     17  C   UNL     1      71.409  41.596  20.670  1.00  0.00     0.130 A 
BRANCH  15  18
ATOM     18  O   UNL     1      68.982  41.467  17.881  1.00  0.00    -0.508 OA
ATOM     19  H   UNL     1      68.089  41.390  18.353  1.00  0.00     0.293 HD
ENDBRANCH  15  18
BRANCH  17  20
ATOM     20  O   UNL     1      71.425  41.923  22.026  1.00  0.00    -0.507 OA
ATOM     21  H   UNL     1      72.280  41.895  22.569  1.00  0.00     0.293 HD
ENDBRANCH  17  20
ENDBRANCH   1  12
BRANCH   2  22
ATOM     22  O   UNL     1      75.082  42.125  18.870  1.00  0.00    -0.502 OA
ATOM     23  H   UNL     1      75.922  42.214  18.311  1.00  0.00     0.293 HD
ENDBRANCH   2  22
BRANCH   6  24
ATOM     24  O   UNL     1      78.724  40.846  22.546  1.00  0.00    -0.507 OA
ATOM     25  H   UNL     1      79.013  41.551  21.885  1.00  0.00     0.293 HD
ENDBRANCH   6  24
BRANCH   8  26
ATOM     26  O   UNL     1      75.844  39.462  26.131  1.00  0.00    -0.508 OA
ATOM     27  H   UNL     1      76.507  38.817  26.544  1.00  0.00     0.293 HD
ENDBRANCH   8  26
TORSDOF 6
ENDMDL
