MODEL 1
REMARK VINA RESULT:    -0.900      0.000      0.000
REMARK INTER + INTRA:          -1.177
REMARK INTER:                  -1.031
REMARK INTRA:                  -0.146
REMARK UNBOUND:                -0.146
REMARK SMILES O=C([O-])C=Cc1ccc(O)cc1
REMARK SMILES IDX 6 1 7 2 12 3 8 4 11 5 9 6 5 7 4 8 2 9 1 10 3 11 10 12
REMARK H PARENT 10 13
REMARK Flexibility Score: inf
ROOT
ATOM      1  C   UNL     1      91.729  17.454 119.947  1.00  0.00    -0.025 A 
ATOM      2  C   UNL     1      92.488  17.344 121.125  1.00  0.00     0.012 A 
ATOM      3  C   UNL     1      92.230  16.882 118.760  1.00  0.00     0.012 A 
ATOM      4  C   UNL     1      93.730  16.701 121.114  1.00  0.00     0.047 A 
ATOM      5  C   UNL     1      93.471  16.239 118.754  1.00  0.00     0.047 A 
ATOM      6  C   UNL     1      94.226  16.149 119.927  1.00  0.00     0.115 A 
ENDROOT
BRANCH   1   7
ATOM      7  C   UNL     1      90.413  18.137 120.012  1.00  0.00     0.010 C 
ATOM      8  C   UNL     1      89.566  18.029 121.046  1.00  0.00     0.025 C 
BRANCH   8   9
ATOM      9  C   UNL     1      88.263  18.713 121.069  1.00  0.00     0.064 C 
ATOM     10  O   UNL     1      88.186  19.969 121.125  1.00  0.00    -0.545 OA
ATOM     11  O   UNL     1      87.097  17.960 121.031  1.00  0.00    -0.545 OA
ENDBRANCH   8   9
ENDBRANCH   1   7
BRANCH   6  12
ATOM     12  O   UNL     1      95.461  15.506 119.904  1.00  0.00    -0.508 OA
ATOM     13  H   UNL     1      95.910  15.253 119.030  1.00  0.00     0.293 HD
ENDBRANCH   6  12
TORSDOF 3
ENDMDL
