MODEL 1
REMARK VINA RESULT:    -4.042      0.000      0.000
REMARK INTER + INTRA:         -10.755
REMARK INTER:                  -7.822
REMARK INTRA:                  -2.933
REMARK UNBOUND:                -2.933
REMARK SMILES CCCCCCCCCCCCCCCCCC(=O)[O-]
REMARK SMILES IDX 10 1 11 2 12 3 13 4 14 5 15 6 16 7 17 8 18 9 19 10 20 11
REMARK SMILES IDX 9 12 8 13 7 14 6 15 5 16 4 17 3 18 2 19 1 20
REMARK H PARENT
REMARK Flexibility Score: inf
ROOT
ATOM      1  C   UNL     1     -11.626   2.515 -12.182  1.00  0.00     0.000 C 
ENDROOT
BRANCH   1   2
ATOM      2  C   UNL     1     -11.170   3.984 -12.122  1.00  0.00     0.000 C 
BRANCH   2   3
ATOM      3  C   UNL     1     -12.341   4.962 -11.942  1.00  0.00     0.000 C 
BRANCH   3   4
ATOM      4  C   UNL     1     -12.049   6.051 -10.900  1.00  0.00     0.000 C 
BRANCH   4   5
ATOM      5  C   UNL     1     -10.891   5.638  -9.984  1.00  0.00     0.000 C 
BRANCH   5   6
ATOM      6  C   UNL     1      -9.665   6.530 -10.207  1.00  0.00     0.000 C 
BRANCH   6   7
ATOM      7  C   UNL     1     -10.066   7.861 -10.862  1.00  0.00     0.006 C 
BRANCH   7   8
ATOM      8  C   UNL     1      -9.116   8.255 -12.002  1.00  0.00     0.053 C 
BRANCH   8   9
ATOM      9  C   UNL     1      -9.125   7.244 -13.108  1.00  0.00     0.041 C 
ATOM     10  O   UNL     1     -10.165   7.066 -13.795  1.00  0.00    -0.550 OA
ATOM     11  O   UNL     1      -7.995   6.476 -13.357  1.00  0.00    -0.550 OA
ENDBRANCH   8   9
ENDBRANCH   7   8
ENDBRANCH   6   7
ENDBRANCH   5   6
ENDBRANCH   4   5
ENDBRANCH   3   4
ENDBRANCH   2   3
ENDBRANCH   1   2
BRANCH   1  12
ATOM     12  C   UNL     1     -13.022   2.316 -11.556  1.00  0.00     0.000 C 
BRANCH  12  13
ATOM     13  C   UNL     1     -12.991   1.596 -10.196  1.00  0.00    -0.000 C 
BRANCH  13  14
ATOM     14  C   UNL     1     -13.043   2.569  -9.005  1.00  0.00    -0.000 C 
BRANCH  14  15
ATOM     15  C   UNL     1     -11.733   2.587  -8.202  1.00  0.00    -0.000 C 
BRANCH  15  16
ATOM     16  C   UNL     1     -11.038   1.215  -8.168  1.00  0.00    -0.000 C 
BRANCH  16  17
ATOM     17  C   UNL     1      -9.547   1.301  -8.534  1.00  0.00    -0.000 C 
BRANCH  17  18
ATOM     18  C   UNL     1      -9.197   2.601  -9.279  1.00  0.00    -0.000 C 
BRANCH  18  19
ATOM     19  C   UNL     1      -7.824   2.536  -9.964  1.00  0.00    -0.003 C 
ATOM     20  C   UNL     1      -7.913   2.080 -11.421  1.00  0.00     0.004 C 
ENDBRANCH  18  19
ENDBRANCH  17  18
ENDBRANCH  16  17
ENDBRANCH  15  16
ENDBRANCH  14  15
ENDBRANCH  13  14
ENDBRANCH  12  13
ENDBRANCH   1  12
TORSDOF 16
ENDMDL
MODEL 2
REMARK VINA RESULT:    -4.009      2.416      3.520
REMARK INTER + INTRA:         -10.692
REMARK INTER:                  -8.079
REMARK INTRA:                  -2.613
REMARK UNBOUND:                -2.933
REMARK SMILES CCCCCCCCCCCCCCCCCC(=O)[O-]
REMARK SMILES IDX 10 1 11 2 12 3 13 4 14 5 15 6 16 7 17 8 18 9 19 10 20 11
REMARK SMILES IDX 9 12 8 13 7 14 6 15 5 16 4 17 3 18 2 19 1 20
REMARK H PARENT
REMARK Flexibility Score: inf
ROOT
ATOM      1  C   UNL     1     -11.596   6.762 -12.053  1.00  0.00     0.000 C 
ENDROOT
BRANCH   1   2
ATOM      2  C   UNL     1     -10.676   7.147 -10.879  1.00  0.00     0.000 C 
BRANCH   2   3
ATOM      3  C   UNL     1      -9.638   8.212 -11.264  1.00  0.00     0.000 C 
BRANCH   3   4
ATOM      4  C   UNL     1      -8.750   8.627 -10.083  1.00  0.00     0.000 C 
BRANCH   4   5
ATOM      5  C   UNL     1      -8.563   7.464  -9.101  1.00  0.00     0.000 C 
BRANCH   5   6
ATOM      6  C   UNL     1      -7.220   7.569  -8.372  1.00  0.00     0.000 C 
BRANCH   6   7
ATOM      7  C   UNL     1      -6.157   8.225  -9.267  1.00  0.00     0.006 C 
BRANCH   7   8
ATOM      8  C   UNL     1      -5.261   7.188  -9.959  1.00  0.00     0.053 C 
BRANCH   8   9
ATOM      9  C   UNL     1      -5.221   7.390 -11.443  1.00  0.00     0.041 C 
ATOM     10  O   UNL     1      -4.185   7.852 -11.991  1.00  0.00    -0.550 OA
ATOM     11  O   UNL     1      -6.338   7.099 -12.216  1.00  0.00    -0.550 OA
ENDBRANCH   8   9
ENDBRANCH   7   8
ENDBRANCH   6   7
ENDBRANCH   5   6
ENDBRANCH   4   5
ENDBRANCH   3   4
ENDBRANCH   2   3
ENDBRANCH   1   2
BRANCH   1  12
ATOM     12  C   UNL     1     -12.750   5.839 -11.607  1.00  0.00     0.000 C 
BRANCH  12  13
ATOM     13  C   UNL     1     -12.747   5.533 -10.099  1.00  0.00    -0.000 C 
BRANCH  13  14
ATOM     14  C   UNL     1     -12.985   4.045  -9.792  1.00  0.00    -0.000 C 
BRANCH  14  15
ATOM     15  C   UNL     1     -12.004   3.495  -8.745  1.00  0.00    -0.000 C 
BRANCH  15  16
ATOM     16  C   UNL     1     -10.794   4.419  -8.521  1.00  0.00    -0.000 C 
BRANCH  16  17
ATOM     17  C   UNL     1      -9.488   3.821  -9.068  1.00  0.00    -0.000 C 
BRANCH  17  18
ATOM     18  C   UNL     1      -9.735   2.714 -10.107  1.00  0.00    -0.000 C 
BRANCH  18  19
ATOM     19  C   UNL     1      -9.404   3.164 -11.538  1.00  0.00    -0.003 C 
ATOM     20  C   UNL     1      -8.504   4.399 -11.574  1.00  0.00     0.004 C 
ENDBRANCH  18  19
ENDBRANCH  17  18
ENDBRANCH  16  17
ENDBRANCH  15  16
ENDBRANCH  14  15
ENDBRANCH  13  14
ENDBRANCH  12  13
ENDBRANCH   1  12
TORSDOF 16
ENDMDL
MODEL 3
REMARK VINA RESULT:    -3.981     17.306     20.339
REMARK INTER + INTRA:         -10.637
REMARK INTER:                  -8.096
REMARK INTRA:                  -2.541
REMARK UNBOUND:                -2.933
REMARK SMILES CCCCCCCCCCCCCCCCCC(=O)[O-]
REMARK SMILES IDX 10 1 11 2 12 3 13 4 14 5 15 6 16 7 17 8 18 9 19 10 20 11
REMARK SMILES IDX 9 12 8 13 7 14 6 15 5 16 4 17 3 18 2 19 1 20
REMARK H PARENT
REMARK Flexibility Score: inf
ROOT
ATOM      1  C   UNL     1       6.846   7.466 -24.017  1.00  0.00     0.000 C 
ENDROOT
BRANCH   1   2
ATOM      2  C   UNL     1       6.811   5.958 -23.706  1.00  0.00     0.000 C 
BRANCH   2   3
ATOM      3  C   UNL     1       6.844   5.663 -22.199  1.00  0.00     0.000 C 
BRANCH   3   4
ATOM      4  C   UNL     1       5.569   6.122 -21.477  1.00  0.00     0.000 C 
BRANCH   4   5
ATOM      5  C   UNL     1       5.338   5.307 -20.198  1.00  0.00     0.000 C 
BRANCH   5   6
ATOM      6  C   UNL     1       3.960   5.603 -19.598  1.00  0.00     0.000 C 
BRANCH   6   7
ATOM      7  C   UNL     1       2.927   5.881 -20.702  1.00  0.00     0.006 C 
BRANCH   7   8
ATOM      8  C   UNL     1       1.706   6.646 -20.174  1.00  0.00     0.053 C 
BRANCH   8   9
ATOM      9  C   UNL     1       0.559   6.596 -21.136  1.00  0.00     0.041 C 
ATOM     10  O   UNL     1       0.497   5.681 -22.000  1.00  0.00    -0.550 OA
ATOM     11  O   UNL     1      -0.423   7.578 -21.102  1.00  0.00    -0.550 OA
ENDBRANCH   8   9
ENDBRANCH   7   8
ENDBRANCH   6   7
ENDBRANCH   5   6
ENDBRANCH   4   5
ENDBRANCH   3   4
ENDBRANCH   2   3
ENDBRANCH   1   2
BRANCH   1  12
ATOM     12  C   UNL     1       5.905   7.840 -25.181  1.00  0.00     0.000 C 
BRANCH  12  13
ATOM     13  C   UNL     1       6.442   7.432 -26.564  1.00  0.00    -0.000 C 
BRANCH  13  14
ATOM     14  C   UNL     1       5.668   6.255 -27.181  1.00  0.00    -0.000 C 
BRANCH  14  15
ATOM     15  C   UNL     1       6.516   4.976 -27.271  1.00  0.00    -0.000 C 
BRANCH  15  16
ATOM     16  C   UNL     1       5.712   3.707 -26.935  1.00  0.00    -0.000 C 
BRANCH  16  17
ATOM     17  C   UNL     1       4.400   4.019 -26.197  1.00  0.00    -0.000 C 
BRANCH  17  18
ATOM     18  C   UNL     1       4.363   3.420 -24.780  1.00  0.00    -0.000 C 
BRANCH  18  19
ATOM     19  C   UNL     1       3.440   4.202 -23.834  1.00  0.00    -0.003 C 
ATOM     20  C   UNL     1       3.133   5.611 -24.340  1.00  0.00     0.004 C 
ENDBRANCH  18  19
ENDBRANCH  17  18
ENDBRANCH  16  17
ENDBRANCH  15  16
ENDBRANCH  14  15
ENDBRANCH  13  14
ENDBRANCH  12  13
ENDBRANCH   1  12
TORSDOF 16
ENDMDL
MODEL 4
REMARK VINA RESULT:    -3.979      2.956      5.389
REMARK INTER + INTRA:         -10.634
REMARK INTER:                  -7.814
REMARK INTRA:                  -2.821
REMARK UNBOUND:                -2.933
REMARK SMILES CCCCCCCCCCCCCCCCCC(=O)[O-]
REMARK SMILES IDX 10 1 11 2 12 3 13 4 14 5 15 6 16 7 17 8 18 9 19 10 20 11
REMARK SMILES IDX 9 12 8 13 7 14 6 15 5 16 4 17 3 18 2 19 1 20
REMARK H PARENT
REMARK Flexibility Score: inf
ROOT
ATOM      1  C   UNL     1      -9.561   7.549 -13.077  1.00  0.00     0.000 C 
ENDROOT
BRANCH   1   2
ATOM      2  C   UNL     1     -10.987   7.064 -12.755  1.00  0.00     0.000 C 
BRANCH   2   3
ATOM      3  C   UNL     1     -11.218   5.598 -13.153  1.00  0.00     0.000 C 
BRANCH   3   4
ATOM      4  C   UNL     1     -12.126   4.852 -12.165  1.00  0.00     0.000 C 
BRANCH   4   5
ATOM      5  C   UNL     1     -12.598   5.784 -11.042  1.00  0.00     0.000 C 
BRANCH   5   6
ATOM      6  C   UNL     1     -12.890   4.998  -9.760  1.00  0.00     0.000 C 
BRANCH   6   7
ATOM      7  C   UNL     1     -12.920   3.486 -10.036  1.00  0.00     0.006 C 
BRANCH   7   8
ATOM      8  C   UNL     1     -13.046   2.663  -8.746  1.00  0.00     0.053 C 
BRANCH   8   9
ATOM      9  C   UNL     1     -12.409   1.314  -8.882  1.00  0.00     0.041 C 
ATOM     10  O   UNL     1     -13.099   0.322  -9.239  1.00  0.00    -0.550 OA
ATOM     11  O   UNL     1     -11.064   1.145  -8.583  1.00  0.00    -0.550 OA
ENDBRANCH   8   9
ENDBRANCH   7   8
ENDBRANCH   6   7
ENDBRANCH   5   6
ENDBRANCH   4   5
ENDBRANCH   3   4
ENDBRANCH   2   3
ENDBRANCH   1   2
BRANCH   1  12
ATOM     12  C   UNL     1      -8.922   8.299 -11.889  1.00  0.00     0.000 C 
BRANCH  12  13
ATOM     13  C   UNL     1      -9.674   8.106 -10.561  1.00  0.00    -0.000 C 
BRANCH  13  14
ATOM     14  C   UNL     1      -8.732   8.045  -9.346  1.00  0.00    -0.000 C 
BRANCH  14  15
ATOM     15  C   UNL     1      -8.096   6.658  -9.162  1.00  0.00    -0.000 C 
BRANCH  15  16
ATOM     16  C   UNL     1      -9.093   5.614  -8.629  1.00  0.00    -0.000 C 
BRANCH  16  17
ATOM     17  C   UNL     1      -9.354   4.482  -9.636  1.00  0.00    -0.000 C 
BRANCH  17  18
ATOM     18  C   UNL     1      -8.465   4.588 -10.887  1.00  0.00    -0.000 C 
BRANCH  18  19
ATOM     19  C   UNL     1      -8.051   3.214 -11.433  1.00  0.00    -0.003 C 
ATOM     20  C   UNL     1      -9.064   2.645 -12.427  1.00  0.00     0.004 C 
ENDBRANCH  18  19
ENDBRANCH  17  18
ENDBRANCH  16  17
ENDBRANCH  15  16
ENDBRANCH  14  15
ENDBRANCH  13  14
ENDBRANCH  12  13
ENDBRANCH   1  12
TORSDOF 16
ENDMDL
MODEL 5
REMARK VINA RESULT:    -3.963      4.414      6.838
REMARK INTER + INTRA:         -10.603
REMARK INTER:                  -9.685
REMARK INTRA:                  -0.918
REMARK UNBOUND:                -2.933
REMARK SMILES CCCCCCCCCCCCCCCCCC(=O)[O-]
REMARK SMILES IDX 10 1 11 2 12 3 13 4 14 5 15 6 16 7 17 8 18 9 19 10 20 11
REMARK SMILES IDX 9 12 8 13 7 14 6 15 5 16 4 17 3 18 2 19 1 20
REMARK H PARENT
REMARK Flexibility Score: inf
ROOT
ATOM      1  C   UNL     1      -7.015   8.474 -10.464  1.00  0.00     0.000 C 
ENDROOT
BRANCH   1   2
ATOM      2  C   UNL     1      -5.902   7.815  -9.630  1.00  0.00     0.000 C 
BRANCH   2   3
ATOM      3  C   UNL     1      -5.002   6.891 -10.466  1.00  0.00     0.000 C 
BRANCH   3   4
ATOM      4  C   UNL     1      -4.217   7.649 -11.546  1.00  0.00     0.000 C 
BRANCH   4   5
ATOM      5  C   UNL     1      -2.724   7.304 -11.484  1.00  0.00     0.000 C 
BRANCH   5   6
ATOM      6  C   UNL     1      -1.963   7.940 -12.651  1.00  0.00     0.000 C 
BRANCH   6   7
ATOM      7  C   UNL     1      -2.749   9.120 -13.244  1.00  0.00     0.006 C 
BRANCH   7   8
ATOM      8  C   UNL     1      -2.350   9.412 -14.697  1.00  0.00     0.053 C 
BRANCH   8   9
ATOM      9  C   UNL     1      -2.907   8.393 -15.643  1.00  0.00     0.041 C 
ATOM     10  O   UNL     1      -2.458   8.306 -16.816  1.00  0.00    -0.550 OA
ATOM     11  O   UNL     1      -3.946   7.563 -15.240  1.00  0.00    -0.550 OA
ENDBRANCH   8   9
ENDBRANCH   7   8
ENDBRANCH   6   7
ENDBRANCH   5   6
ENDBRANCH   4   5
ENDBRANCH   3   4
ENDBRANCH   2   3
ENDBRANCH   1   2
BRANCH   1  12
ATOM     12  C   UNL     1      -8.401   8.329  -9.801  1.00  0.00     0.000 C 
BRANCH  12  13
ATOM     13  C   UNL     1      -9.565   8.285 -10.806  1.00  0.00    -0.000 C 
BRANCH  13  14
ATOM     14  C   UNL     1     -10.429   7.021 -10.664  1.00  0.00    -0.000 C 
BRANCH  14  15
ATOM     15  C   UNL     1     -11.473   6.891 -11.784  1.00  0.00    -0.000 C 
BRANCH  15  16
ATOM     16  C   UNL     1     -12.857   6.471 -11.259  1.00  0.00    -0.000 C 
BRANCH  16  17
ATOM     17  C   UNL     1     -12.772   5.681  -9.942  1.00  0.00    -0.000 C 
BRANCH  17  18
ATOM     18  C   UNL     1     -12.848   4.160 -10.160  1.00  0.00    -0.000 C 
BRANCH  18  19
ATOM     19  C   UNL     1     -12.218   3.368  -9.006  1.00  0.00    -0.003 C 
ATOM     20  C   UNL     1     -11.043   4.102  -8.359  1.00  0.00     0.004 C 
ENDBRANCH  18  19
ENDBRANCH  17  18
ENDBRANCH  16  17
ENDBRANCH  15  16
ENDBRANCH  14  15
ENDBRANCH  13  14
ENDBRANCH  12  13
ENDBRANCH   1  12
TORSDOF 16
ENDMDL
MODEL 6
REMARK VINA RESULT:    -3.947     12.353     14.464
REMARK INTER + INTRA:         -10.571
REMARK INTER:                  -7.952
REMARK INTRA:                  -2.618
REMARK UNBOUND:                -2.933
REMARK SMILES CCCCCCCCCCCCCCCCCC(=O)[O-]
REMARK SMILES IDX 10 1 11 2 12 3 13 4 14 5 15 6 16 7 17 8 18 9 19 10 20 11
REMARK SMILES IDX 9 12 8 13 7 14 6 15 5 16 4 17 3 18 2 19 1 20
REMARK H PARENT
REMARK Flexibility Score: inf
ROOT
ATOM      1  C   UNL     1     -12.620  -0.737 -21.129  1.00  0.00     0.000 C 
ENDROOT
BRANCH   1   2
ATOM      2  C   UNL     1     -11.671  -0.294 -20.001  1.00  0.00     0.000 C 
BRANCH   2   3
ATOM      3  C   UNL     1     -10.727   0.840 -20.433  1.00  0.00     0.000 C 
BRANCH   3   4
ATOM      4  C   UNL     1      -9.252   0.523 -20.146  1.00  0.00     0.000 C 
BRANCH   4   5
ATOM      5  C   UNL     1      -8.667  -0.394 -21.227  1.00  0.00     0.000 C 
BRANCH   5   6
ATOM      6  C   UNL     1      -8.773   0.251 -22.613  1.00  0.00     0.000 C 
BRANCH   6   7
ATOM      7  C   UNL     1      -9.125  -0.796 -23.681  1.00  0.00     0.006 C 
BRANCH   7   8
ATOM      8  C   UNL     1      -8.403  -0.536 -25.010  1.00  0.00     0.053 C 
BRANCH   8   9
ATOM      9  C   UNL     1      -6.920  -0.704 -24.880  1.00  0.00     0.041 C 
ATOM     10  O   UNL     1      -6.437  -1.810 -24.518  1.00  0.00    -0.550 OA
ATOM     11  O   UNL     1      -6.073   0.370 -25.124  1.00  0.00    -0.550 OA
ENDBRANCH   8   9
ENDBRANCH   7   8
ENDBRANCH   6   7
ENDBRANCH   5   6
ENDBRANCH   4   5
ENDBRANCH   3   4
ENDBRANCH   2   3
ENDBRANCH   1   2
BRANCH   1  12
ATOM     12  C   UNL     1     -12.008  -1.860 -21.994  1.00  0.00     0.000 C 
BRANCH  12  13
ATOM     13  C   UNL     1     -12.868  -2.238 -23.213  1.00  0.00    -0.000 C 
BRANCH  13  14
ATOM     14  C   UNL     1     -12.042  -2.842 -24.361  1.00  0.00    -0.000 C 
BRANCH  14  15
ATOM     15  C   UNL     1     -12.818  -2.881 -25.687  1.00  0.00    -0.000 C 
BRANCH  15  16
ATOM     16  C   UNL     1     -12.088  -2.143 -26.823  1.00  0.00    -0.000 C 
BRANCH  16  17
ATOM     17  C   UNL     1     -11.688  -0.711 -26.432  1.00  0.00    -0.000 C 
BRANCH  17  18
ATOM     18  C   UNL     1     -12.906   0.201 -26.202  1.00  0.00    -0.000 C 
BRANCH  18  19
ATOM     19  C   UNL     1     -12.528   1.530 -25.532  1.00  0.00    -0.003 C 
ATOM     20  C   UNL     1     -12.204   1.371 -24.047  1.00  0.00     0.004 C 
ENDBRANCH  18  19
ENDBRANCH  17  18
ENDBRANCH  16  17
ENDBRANCH  15  16
ENDBRANCH  14  15
ENDBRANCH  13  14
ENDBRANCH  12  13
ENDBRANCH   1  12
TORSDOF 16
ENDMDL
MODEL 7
REMARK VINA RESULT:    -3.927      3.823      6.758
REMARK INTER + INTRA:         -10.533
REMARK INTER:                  -9.111
REMARK INTRA:                  -1.422
REMARK UNBOUND:                -2.933
REMARK SMILES CCCCCCCCCCCCCCCCCC(=O)[O-]
REMARK SMILES IDX 10 1 11 2 12 3 13 4 14 5 15 6 16 7 17 8 18 9 19 10 20 11
REMARK SMILES IDX 9 12 8 13 7 14 6 15 5 16 4 17 3 18 2 19 1 20
REMARK H PARENT
REMARK Flexibility Score: inf
ROOT
ATOM      1  C   UNL     1      -8.835   8.676 -10.354  1.00  0.00     0.000 C 
ENDROOT
BRANCH   1   2
ATOM      2  C   UNL     1      -9.673   7.984 -11.445  1.00  0.00     0.000 C 
BRANCH   2   3
ATOM      3  C   UNL     1     -10.673   6.969 -10.870  1.00  0.00     0.000 C 
BRANCH   3   4
ATOM      4  C   UNL     1     -11.831   6.669 -11.831  1.00  0.00     0.000 C 
BRANCH   4   5
ATOM      5  C   UNL     1     -13.125   6.379 -11.060  1.00  0.00     0.000 C 
BRANCH   5   6
ATOM      6  C   UNL     1     -12.834   5.624  -9.759  1.00  0.00     0.000 C 
BRANCH   6   7
ATOM      7  C   UNL     1     -12.860   4.105  -9.987  1.00  0.00     0.006 C 
BRANCH   7   8
ATOM      8  C   UNL     1     -11.833   3.369  -9.114  1.00  0.00     0.053 C 
BRANCH   8   9
ATOM      9  C   UNL     1     -10.644   2.924  -9.910  1.00  0.00     0.041 C 
ATOM     10  O   UNL     1     -10.511   3.289 -11.108  1.00  0.00    -0.550 OA
ATOM     11  O   UNL     1      -9.702   2.078  -9.339  1.00  0.00    -0.550 OA
ENDBRANCH   8   9
ENDBRANCH   7   8
ENDBRANCH   6   7
ENDBRANCH   5   6
ENDBRANCH   4   5
ENDBRANCH   3   4
ENDBRANCH   2   3
ENDBRANCH   1   2
BRANCH   1  12
ATOM     12  C   UNL     1      -8.405   7.694  -9.244  1.00  0.00     0.000 C 
BRANCH  12  13
ATOM     13  C   UNL     1      -6.913   7.791  -8.879  1.00  0.00    -0.000 C 
BRANCH  13  14
ATOM     14  C   UNL     1      -6.080   8.502  -9.959  1.00  0.00    -0.000 C 
BRANCH  14  15
ATOM     15  C   UNL     1      -5.058   7.567 -10.626  1.00  0.00    -0.000 C 
BRANCH  15  16
ATOM     16  C   UNL     1      -5.490   7.126 -12.036  1.00  0.00    -0.000 C 
BRANCH  16  17
ATOM     17  C   UNL     1      -4.438   6.238 -12.722  1.00  0.00    -0.000 C 
BRANCH  17  18
ATOM     18  C   UNL     1      -3.025   6.845 -12.664  1.00  0.00    -0.000 C 
BRANCH  18  19
ATOM     19  C   UNL     1      -2.837   7.995 -13.663  1.00  0.00    -0.003 C 
ATOM     20  C   UNL     1      -1.937   9.106 -13.121  1.00  0.00     0.004 C 
ENDBRANCH  18  19
ENDBRANCH  17  18
ENDBRANCH  16  17
ENDBRANCH  15  16
ENDBRANCH  14  15
ENDBRANCH  13  14
ENDBRANCH  12  13
ENDBRANCH   1  12
TORSDOF 16
ENDMDL
MODEL 8
REMARK VINA RESULT:    -3.896     10.706     12.981
REMARK INTER + INTRA:         -10.473
REMARK INTER:                  -8.880
REMARK INTRA:                  -1.593
REMARK UNBOUND:                -2.933
REMARK SMILES CCCCCCCCCCCCCCCCCC(=O)[O-]
REMARK SMILES IDX 10 1 11 2 12 3 13 4 14 5 15 6 16 7 17 8 18 9 19 10 20 11
REMARK SMILES IDX 9 12 8 13 7 14 6 15 5 16 4 17 3 18 2 19 1 20
REMARK H PARENT
REMARK Flexibility Score: inf
ROOT
ATOM      1  C   UNL     1     -12.063  -2.336 -22.829  1.00  0.00     0.000 C 
ENDROOT
BRANCH   1   2
ATOM      2  C   UNL     1     -12.430  -1.144 -21.927  1.00  0.00     0.000 C 
BRANCH   2   3
ATOM      3  C   UNL     1     -11.343  -0.831 -20.887  1.00  0.00     0.000 C 
BRANCH   3   4
ATOM      4  C   UNL     1     -11.885  -0.050 -19.681  1.00  0.00     0.000 C 
BRANCH   4   5
ATOM      5  C   UNL     1     -10.746   0.628 -18.909  1.00  0.00     0.000 C 
BRANCH   5   6
ATOM      6  C   UNL     1     -10.880   0.383 -17.402  1.00  0.00     0.000 C 
BRANCH   6   7
ATOM      7  C   UNL     1      -9.520   0.034 -16.779  1.00  0.00     0.006 C 
BRANCH   7   8
ATOM      8  C   UNL     1      -9.521   0.200 -15.253  1.00  0.00     0.053 C 
BRANCH   8   9
ATOM      9  C   UNL     1      -9.029   1.553 -14.840  1.00  0.00     0.041 C 
ATOM     10  O   UNL     1      -9.360   2.033 -13.723  1.00  0.00    -0.550 OA
ATOM     11  O   UNL     1      -8.235   2.298 -15.702  1.00  0.00    -0.550 OA
ENDBRANCH   8   9
ENDBRANCH   7   8
ENDBRANCH   6   7
ENDBRANCH   5   6
ENDBRANCH   4   5
ENDBRANCH   3   4
ENDBRANCH   2   3
ENDBRANCH   1   2
BRANCH   1  12
ATOM     12  C   UNL     1     -12.859  -2.329 -24.152  1.00  0.00     0.000 C 
BRANCH  12  13
ATOM     13  C   UNL     1     -12.307  -3.302 -25.209  1.00  0.00    -0.000 C 
BRANCH  13  14
ATOM     14  C   UNL     1     -12.410  -2.749 -26.640  1.00  0.00    -0.000 C 
BRANCH  14  15
ATOM     15  C   UNL     1     -11.965  -1.281 -26.738  1.00  0.00    -0.000 C 
BRANCH  15  16
ATOM     16  C   UNL     1     -10.456  -1.101 -26.500  1.00  0.00    -0.000 C 
BRANCH  16  17
ATOM     17  C   UNL     1     -10.151  -0.062 -25.409  1.00  0.00    -0.000 C 
BRANCH  17  18
ATOM     18  C   UNL     1     -11.073   1.168 -25.492  1.00  0.00    -0.000 C 
BRANCH  18  19
ATOM     19  C   UNL     1     -11.598   1.605 -24.116  1.00  0.00    -0.003 C 
ATOM     20  C   UNL     1     -13.125   1.624 -24.046  1.00  0.00     0.004 C 
ENDBRANCH  18  19
ENDBRANCH  17  18
ENDBRANCH  16  17
ENDBRANCH  15  16
ENDBRANCH  14  15
ENDBRANCH  13  14
ENDBRANCH  12  13
ENDBRANCH   1  12
TORSDOF 16
ENDMDL
MODEL 9
REMARK VINA RESULT:    -3.821      1.912      2.472
REMARK INTER + INTRA:         -10.327
REMARK INTER:                  -7.685
REMARK INTRA:                  -2.642
REMARK UNBOUND:                -2.933
REMARK SMILES CCCCCCCCCCCCCCCCCC(=O)[O-]
REMARK SMILES IDX 10 1 11 2 12 3 13 4 14 5 15 6 16 7 17 8 18 9 19 10 20 11
REMARK SMILES IDX 9 12 8 13 7 14 6 15 5 16 4 17 3 18 2 19 1 20
REMARK H PARENT
REMARK Flexibility Score: inf
ROOT
ATOM      1  C   UNL     1     -12.833   2.067 -10.746  1.00  0.00     0.000 C 
ENDROOT
BRANCH   1   2
ATOM      2  C   UNL     1     -12.720   3.531 -11.210  1.00  0.00     0.000 C 
BRANCH   2   3
ATOM      3  C   UNL     1     -12.943   4.533 -10.067  1.00  0.00     0.000 C 
BRANCH   3   4
ATOM      4  C   UNL     1     -12.764   5.991 -10.514  1.00  0.00     0.000 C 
BRANCH   4   5
ATOM      5  C   UNL     1     -12.386   6.068 -11.998  1.00  0.00     0.000 C 
BRANCH   5   6
ATOM      6  C   UNL     1     -11.242   7.062 -12.225  1.00  0.00     0.000 C 
BRANCH   6   7
ATOM      7  C   UNL     1     -10.452   7.297 -10.928  1.00  0.00     0.006 C 
BRANCH   7   8
ATOM      8  C   UNL     1      -9.042   6.694 -10.990  1.00  0.00     0.053 C 
BRANCH   8   9
ATOM      9  C   UNL     1      -8.318   6.837  -9.686  1.00  0.00     0.041 C 
ATOM     10  O   UNL     1      -8.625   7.763  -8.890  1.00  0.00    -0.550 OA
ATOM     11  O   UNL     1      -7.282   5.969  -9.366  1.00  0.00    -0.550 OA
ENDBRANCH   8   9
ENDBRANCH   7   8
ENDBRANCH   6   7
ENDBRANCH   5   6
ENDBRANCH   4   5
ENDBRANCH   3   4
ENDBRANCH   2   3
ENDBRANCH   1   2
BRANCH   1  12
ATOM     12  C   UNL     1     -13.062   1.957  -9.224  1.00  0.00     0.000 C 
BRANCH  12  13
ATOM     13  C   UNL     1     -12.229   0.851  -8.553  1.00  0.00    -0.000 C 
BRANCH  13  14
ATOM     14  C   UNL     1     -10.900   1.369  -7.980  1.00  0.00    -0.000 C 
BRANCH  14  15
ATOM     15  C   UNL     1     -10.862   2.902  -7.875  1.00  0.00    -0.000 C 
BRANCH  15  16
ATOM     16  C   UNL     1      -9.703   3.523  -8.675  1.00  0.00    -0.000 C 
BRANCH  16  17
ATOM     17  C   UNL     1      -8.491   2.583  -8.781  1.00  0.00    -0.000 C 
BRANCH  17  18
ATOM     18  C   UNL     1      -8.133   2.244 -10.238  1.00  0.00    -0.000 C 
BRANCH  18  19
ATOM     19  C   UNL     1      -9.239   2.645 -11.225  1.00  0.00    -0.003 C 
ATOM     20  C   UNL     1      -8.712   3.467 -12.400  1.00  0.00     0.004 C 
ENDBRANCH  18  19
ENDBRANCH  17  18
ENDBRANCH  16  17
ENDBRANCH  15  16
ENDBRANCH  14  15
ENDBRANCH  13  14
ENDBRANCH  12  13
ENDBRANCH   1  12
TORSDOF 16
ENDMDL
