MODEL 1
REMARK VINA RESULT:    -3.167      0.000      0.000
REMARK INTER + INTRA:          -9.846
REMARK INTER:                  -6.871
REMARK INTRA:                  -2.975
REMARK UNBOUND:                -2.975
REMARK SMILES CCCCCCCCCCCCCCCCCCCCCC(=O)[O-]
REMARK SMILES IDX 12 1 11 2 10 3 9 4 8 5 7 6 6 7 5 8 4 9 3 10 2 11 1 12 13 13
REMARK SMILES IDX 14 14 15 15 16 16 17 17 18 18 19 19 20 20 21 21 22 22 23 23
REMARK SMILES IDX 24 24
REMARK H PARENT
REMARK Flexibility Score: inf
ROOT
ATOM      1  C   UNL     1      47.717  44.582  15.162  1.00  0.00     0.000 C 
ENDROOT
BRANCH   1   2
ATOM      2  C   UNL     1      46.544  43.885  14.450  1.00  0.00     0.000 C 
BRANCH   2   3
ATOM      3  C   UNL     1      46.541  42.347  14.551  1.00  0.00     0.000 C 
BRANCH   3   4
ATOM      4  C   UNL     1      45.271  41.738  15.177  1.00  0.00    -0.000 C 
BRANCH   4   5
ATOM      5  C   UNL     1      45.477  41.061  16.547  1.00  0.00    -0.000 C 
BRANCH   5   6
ATOM      6  C   UNL     1      46.603  40.012  16.589  1.00  0.00    -0.000 C 
BRANCH   6   7
ATOM      7  C   UNL     1      47.445  40.096  17.873  1.00  0.00    -0.000 C 
BRANCH   7   8
ATOM      8  C   UNL     1      48.915  40.448  17.590  1.00  0.00    -0.000 C 
BRANCH   8   9
ATOM      9  C   UNL     1      49.091  41.900  17.121  1.00  0.00    -0.000 C 
BRANCH   9  10
ATOM     10  C   UNL     1      49.843  42.731  18.173  1.00  0.00    -0.000 C 
BRANCH  10  11
ATOM     11  C   UNL     1      49.013  43.914  18.693  1.00  0.00    -0.003 C 
ATOM     12  C   UNL     1      47.507  43.697  18.536  1.00  0.00     0.004 C 
ENDBRANCH  10  11
ENDBRANCH   9  10
ENDBRANCH   8   9
ENDBRANCH   7   8
ENDBRANCH   6   7
ENDBRANCH   5   6
ENDBRANCH   4   5
ENDBRANCH   3   4
ENDBRANCH   2   3
ENDBRANCH   1   2
BRANCH   1  13
ATOM     13  C   UNL     1      49.066  44.357  14.456  1.00  0.00     0.000 C 
BRANCH  13  14
ATOM     14  C   UNL     1      49.983  45.595  14.546  1.00  0.00     0.000 C 
BRANCH  14  15
ATOM     15  C   UNL     1      49.881  46.344  15.886  1.00  0.00     0.000 C 
BRANCH  15  16
ATOM     16  C   UNL     1      49.405  47.796  15.725  1.00  0.00     0.000 C 
BRANCH  16  17
ATOM     17  C   UNL     1      48.896  48.100  14.307  1.00  0.00     0.000 C 
BRANCH  17  18
ATOM     18  C   UNL     1      49.350  49.476  13.797  1.00  0.00     0.000 C 
BRANCH  18  19
ATOM     19  C   UNL     1      50.020  49.356  12.421  1.00  0.00     0.000 C 
BRANCH  19  20
ATOM     20  C   UNL     1      51.556  49.314  12.503  1.00  0.00     0.006 C 
BRANCH  20  21
ATOM     21  C   UNL     1      52.153  47.898  12.556  1.00  0.00     0.053 C 
BRANCH  21  22
ATOM     22  C   UNL     1      53.256  47.787  13.564  1.00  0.00     0.041 C 
ATOM     23  O   UNL     1      54.458  47.805  13.193  1.00  0.00    -0.550 OA
ATOM     24  O   UNL     1      52.954  47.697  14.917  1.00  0.00    -0.550 OA
ENDBRANCH  21  22
ENDBRANCH  20  21
ENDBRANCH  19  20
ENDBRANCH  18  19
ENDBRANCH  17  18
ENDBRANCH  16  17
ENDBRANCH  15  16
ENDBRANCH  14  15
ENDBRANCH  13  14
ENDBRANCH   1  13
TORSDOF 20
ENDMDL
MODEL 2
REMARK VINA RESULT:    -3.160      2.035      4.917
REMARK INTER + INTRA:          -9.830
REMARK INTER:                  -5.786
REMARK INTRA:                  -4.044
REMARK UNBOUND:                -2.975
REMARK SMILES CCCCCCCCCCCCCCCCCCCCCC(=O)[O-]
REMARK SMILES IDX 12 1 11 2 10 3 9 4 8 5 7 6 6 7 5 8 4 9 3 10 2 11 1 12 13 13
REMARK SMILES IDX 14 14 15 15 16 16 17 17 18 18 19 19 20 20 21 21 22 22 23 23
REMARK SMILES IDX 24 24
REMARK H PARENT
REMARK Flexibility Score: inf
ROOT
ATOM      1  C   UNL     1      46.534  41.990  18.500  1.00  0.00     0.000 C 
ENDROOT
BRANCH   1   2
ATOM      2  C   UNL     1      46.818  43.501  18.430  1.00  0.00     0.000 C 
BRANCH   2   3
ATOM      3  C   UNL     1      45.604  44.376  18.057  1.00  0.00     0.000 C 
BRANCH   3   4
ATOM      4  C   UNL     1      45.625  45.802  18.644  1.00  0.00    -0.000 C 
BRANCH   4   5
ATOM      5  C   UNL     1      46.052  46.908  17.659  1.00  0.00    -0.000 C 
BRANCH   5   6
ATOM      6  C   UNL     1      47.342  47.656  18.044  1.00  0.00    -0.000 C 
BRANCH   6   7
ATOM      7  C   UNL     1      48.231  46.852  19.005  1.00  0.00    -0.000 C 
BRANCH   7   8
ATOM      8  C   UNL     1      49.561  46.426  18.361  1.00  0.00    -0.000 C 
BRANCH   8   9
ATOM      9  C   UNL     1      50.159  45.174  19.019  1.00  0.00    -0.000 C 
BRANCH   9  10
ATOM     10  C   UNL     1      50.752  44.228  17.964  1.00  0.00    -0.000 C 
BRANCH  10  11
ATOM     11  C   UNL     1      50.240  42.786  18.110  1.00  0.00    -0.003 C 
ATOM     12  C   UNL     1      50.476  41.942  16.857  1.00  0.00     0.004 C 
ENDBRANCH  10  11
ENDBRANCH   9  10
ENDBRANCH   8   9
ENDBRANCH   7   8
ENDBRANCH   6   7
ENDBRANCH   5   6
ENDBRANCH   4   5
ENDBRANCH   3   4
ENDBRANCH   2   3
ENDBRANCH   1   2
BRANCH   1  13
ATOM     13  C   UNL     1      45.713  41.479  17.303  1.00  0.00     0.000 C 
BRANCH  13  14
ATOM     14  C   UNL     1      46.610  40.920  16.178  1.00  0.00     0.000 C 
BRANCH  14  15
ATOM     15  C   UNL     1      46.409  41.620  14.823  1.00  0.00     0.000 C 
BRANCH  15  16
ATOM     16  C   UNL     1      47.502  42.657  14.518  1.00  0.00     0.000 C 
BRANCH  16  17
ATOM     17  C   UNL     1      47.012  44.104  14.691  1.00  0.00     0.000 C 
BRANCH  17  18
ATOM     18  C   UNL     1      48.088  45.026  15.284  1.00  0.00     0.000 C 
BRANCH  18  19
ATOM     19  C   UNL     1      49.462  44.734  14.664  1.00  0.00     0.000 C 
BRANCH  19  20
ATOM     20  C   UNL     1      50.216  46.010  14.248  1.00  0.00     0.006 C 
BRANCH  20  21
ATOM     21  C   UNL     1      49.529  47.320  14.667  1.00  0.00     0.053 C 
BRANCH  21  22
ATOM     22  C   UNL     1      49.795  48.432  13.698  1.00  0.00     0.041 C 
ATOM     23  O   UNL     1      48.958  49.361  13.554  1.00  0.00    -0.550 OA
ATOM     24  O   UNL     1      50.983  48.456  12.977  1.00  0.00    -0.550 OA
ENDBRANCH  21  22
ENDBRANCH  20  21
ENDBRANCH  19  20
ENDBRANCH  18  19
ENDBRANCH  17  18
ENDBRANCH  16  17
ENDBRANCH  15  16
ENDBRANCH  14  15
ENDBRANCH  13  14
ENDBRANCH   1  13
TORSDOF 20
ENDMDL
MODEL 3
REMARK VINA RESULT:    -3.153      2.435      4.215
REMARK INTER + INTRA:          -9.815
REMARK INTER:                  -5.703
REMARK INTRA:                  -4.112
REMARK UNBOUND:                -2.975
REMARK SMILES CCCCCCCCCCCCCCCCCCCCCC(=O)[O-]
REMARK SMILES IDX 12 1 11 2 10 3 9 4 8 5 7 6 6 7 5 8 4 9 3 10 2 11 1 12 13 13
REMARK SMILES IDX 14 14 15 15 16 16 17 17 18 18 19 19 20 20 21 21 22 22 23 23
REMARK SMILES IDX 24 24
REMARK H PARENT
REMARK Flexibility Score: inf
ROOT
ATOM      1  C   UNL     1      50.497  46.250  13.891  1.00  0.00     0.000 C 
ENDROOT
BRANCH   1   2
ATOM      2  C   UNL     1      49.301  45.694  14.685  1.00  0.00     0.000 C 
BRANCH   2   3
ATOM      3  C   UNL     1      49.434  44.220  15.116  1.00  0.00     0.000 C 
BRANCH   3   4
ATOM      4  C   UNL     1      48.180  43.356  14.874  1.00  0.00    -0.000 C 
BRANCH   4   5
ATOM      5  C   UNL     1      46.895  44.144  14.553  1.00  0.00    -0.000 C 
BRANCH   5   6
ATOM      6  C   UNL     1      45.614  43.589  15.203  1.00  0.00    -0.000 C 
BRANCH   6   7
ATOM      7  C   UNL     1      45.089  44.482  16.340  1.00  0.00    -0.000 C 
BRANCH   7   8
ATOM      8  C   UNL     1      45.551  45.942  16.203  1.00  0.00    -0.000 C 
BRANCH   8   9
ATOM      9  C   UNL     1      46.393  46.406  17.401  1.00  0.00    -0.000 C 
BRANCH   9  10
ATOM     10  C   UNL     1      46.590  45.263  18.410  1.00  0.00    -0.000 C 
BRANCH  10  11
ATOM     11  C   UNL     1      48.055  44.809  18.506  1.00  0.00    -0.003 C 
ATOM     12  C   UNL     1      48.205  43.288  18.525  1.00  0.00     0.004 C 
ENDBRANCH  10  11
ENDBRANCH   9  10
ENDBRANCH   8   9
ENDBRANCH   7   8
ENDBRANCH   6   7
ENDBRANCH   5   6
ENDBRANCH   4   5
ENDBRANCH   3   4
ENDBRANCH   2   3
ENDBRANCH   1   2
BRANCH   1  13
ATOM     13  C   UNL     1      50.411  47.769  13.664  1.00  0.00     0.000 C 
BRANCH  13  14
ATOM     14  C   UNL     1      49.286  48.420  14.496  1.00  0.00     0.000 C 
BRANCH  14  15
ATOM     15  C   UNL     1      49.668  49.787  15.089  1.00  0.00     0.000 C 
BRANCH  15  16
ATOM     16  C   UNL     1      49.955  49.725  16.598  1.00  0.00     0.000 C 
BRANCH  16  17
ATOM     17  C   UNL     1      49.365  48.470  17.263  1.00  0.00     0.000 C 
BRANCH  17  18
ATOM     18  C   UNL     1      50.406  47.686  18.076  1.00  0.00     0.000 C 
BRANCH  18  19
ATOM     19  C   UNL     1      51.686  47.464  17.257  1.00  0.00     0.000 C 
BRANCH  19  20
ATOM     20  C   UNL     1      52.105  45.985  17.189  1.00  0.00     0.006 C 
BRANCH  20  21
ATOM     21  C   UNL     1      53.303  45.704  16.267  1.00  0.00     0.053 C 
BRANCH  21  22
ATOM     22  C   UNL     1      54.171  44.600  16.788  1.00  0.00     0.041 C 
ATOM     23  O   UNL     1      54.192  44.338  18.019  1.00  0.00    -0.550 OA
ATOM     24  O   UNL     1      54.931  43.839  15.909  1.00  0.00    -0.550 OA
ENDBRANCH  21  22
ENDBRANCH  20  21
ENDBRANCH  19  20
ENDBRANCH  18  19
ENDBRANCH  17  18
ENDBRANCH  16  17
ENDBRANCH  15  16
ENDBRANCH  14  15
ENDBRANCH  13  14
ENDBRANCH   1  13
TORSDOF 20
ENDMDL
MODEL 4
REMARK VINA RESULT:    -3.126      2.999      5.595
REMARK INTER + INTRA:          -9.757
REMARK INTER:                  -6.046
REMARK INTRA:                  -3.710
REMARK UNBOUND:                -2.975
REMARK SMILES CCCCCCCCCCCCCCCCCCCCCC(=O)[O-]
REMARK SMILES IDX 12 1 11 2 10 3 9 4 8 5 7 6 6 7 5 8 4 9 3 10 2 11 1 12 13 13
REMARK SMILES IDX 14 14 15 15 16 16 17 17 18 18 19 19 20 20 21 21 22 22 23 23
REMARK SMILES IDX 24 24
REMARK H PARENT
REMARK Flexibility Score: inf
ROOT
ATOM      1  C   UNL     1      51.231  49.308  12.394  1.00  0.00     0.000 C 
ENDROOT
BRANCH   1   2
ATOM      2  C   UNL     1      49.818  49.245  13.002  1.00  0.00     0.000 C 
BRANCH   2   3
ATOM      3  C   UNL     1      49.752  49.485  14.523  1.00  0.00     0.000 C 
BRANCH   3   4
ATOM      4  C   UNL     1      49.625  48.209  15.379  1.00  0.00    -0.000 C 
BRANCH   4   5
ATOM      5  C   UNL     1      49.027  46.989  14.649  1.00  0.00    -0.000 C 
BRANCH   5   6
ATOM      6  C   UNL     1      49.981  45.790  14.500  1.00  0.00    -0.000 C 
BRANCH   6   7
ATOM      7  C   UNL     1      49.305  44.448  14.828  1.00  0.00    -0.000 C 
BRANCH   7   8
ATOM      8  C   UNL     1      50.114  43.612  15.834  1.00  0.00    -0.000 C 
BRANCH   8   9
ATOM      9  C   UNL     1      51.264  44.409  16.468  1.00  0.00    -0.000 C 
BRANCH   9  10
ATOM     10  C   UNL     1      51.026  44.616  17.972  1.00  0.00    -0.000 C 
BRANCH  10  11
ATOM     11  C   UNL     1      50.425  45.994  18.289  1.00  0.00    -0.003 C 
ATOM     12  C   UNL     1      48.902  45.962  18.420  1.00  0.00     0.004 C 
ENDBRANCH  10  11
ENDBRANCH   9  10
ENDBRANCH   8   9
ENDBRANCH   7   8
ENDBRANCH   6   7
ENDBRANCH   5   6
ENDBRANCH   4   5
ENDBRANCH   3   4
ENDBRANCH   2   3
ENDBRANCH   1   2
BRANCH   1  13
ATOM     13  C   UNL     1      51.952  47.949  12.409  1.00  0.00     0.000 C 
BRANCH  13  14
ATOM     14  C   UNL     1      53.382  48.056  12.979  1.00  0.00     0.000 C 
BRANCH  14  15
ATOM     15  C   UNL     1      53.430  48.527  14.443  1.00  0.00     0.000 C 
BRANCH  15  16
ATOM     16  C   UNL     1      53.175  47.390  15.446  1.00  0.00     0.000 C 
BRANCH  16  17
ATOM     17  C   UNL     1      53.332  47.842  16.907  1.00  0.00     0.000 C 
BRANCH  17  18
ATOM     18  C   UNL     1      54.797  48.091  17.296  1.00  0.00     0.000 C 
BRANCH  18  19
ATOM     19  C   UNL     1      55.635  46.818  17.115  1.00  0.00     0.000 C 
BRANCH  19  20
ATOM     20  C   UNL     1      56.736  46.970  16.050  1.00  0.00     0.006 C 
BRANCH  20  21
ATOM     21  C   UNL     1      56.656  45.950  14.902  1.00  0.00     0.053 C 
BRANCH  21  22
ATOM     22  C   UNL     1      56.857  44.545  15.380  1.00  0.00     0.041 C 
ATOM     23  O   UNL     1      57.935  44.213  15.939  1.00  0.00    -0.550 OA
ATOM     24  O   UNL     1      55.840  43.609  15.236  1.00  0.00    -0.550 OA
ENDBRANCH  21  22
ENDBRANCH  20  21
ENDBRANCH  19  20
ENDBRANCH  18  19
ENDBRANCH  17  18
ENDBRANCH  16  17
ENDBRANCH  15  16
ENDBRANCH  14  15
ENDBRANCH  13  14
ENDBRANCH   1  13
TORSDOF 20
ENDMDL
MODEL 5
REMARK VINA RESULT:    -3.098      1.625      2.631
REMARK INTER + INTRA:          -9.694
REMARK INTER:                  -5.887
REMARK INTRA:                  -3.808
REMARK UNBOUND:                -2.975
REMARK SMILES CCCCCCCCCCCCCCCCCCCCCC(=O)[O-]
REMARK SMILES IDX 12 1 11 2 10 3 9 4 8 5 7 6 6 7 5 8 4 9 3 10 2 11 1 12 13 13
REMARK SMILES IDX 14 14 15 15 16 16 17 17 18 18 19 19 20 20 21 21 22 22 23 23
REMARK SMILES IDX 24 24
REMARK H PARENT
REMARK Flexibility Score: inf
ROOT
ATOM      1  C   UNL     1      48.233  44.484  15.594  1.00  0.00     0.000 C 
ENDROOT
BRANCH   1   2
ATOM      2  C   UNL     1      48.421  43.110  14.925  1.00  0.00     0.000 C 
BRANCH   2   3
ATOM      3  C   UNL     1      47.200  42.599  14.133  1.00  0.00     0.000 C 
BRANCH   3   4
ATOM      4  C   UNL     1      46.462  41.407  14.775  1.00  0.00    -0.000 C 
BRANCH   4   5
ATOM      5  C   UNL     1      45.017  41.701  15.229  1.00  0.00    -0.000 C 
BRANCH   5   6
ATOM      6  C   UNL     1      44.897  42.647  16.437  1.00  0.00    -0.000 C 
BRANCH   6   7
ATOM      7  C   UNL     1      45.236  41.957  17.769  1.00  0.00    -0.000 C 
BRANCH   7   8
ATOM      8  C   UNL     1      46.569  42.442  18.361  1.00  0.00    -0.000 C 
BRANCH   8   9
ATOM      9  C   UNL     1      47.671  41.375  18.280  1.00  0.00    -0.000 C 
BRANCH   9  10
ATOM     10  C   UNL     1      49.065  42.021  18.300  1.00  0.00    -0.000 C 
BRANCH  10  11
ATOM     11  C   UNL     1      49.095  43.333  19.099  1.00  0.00    -0.003 C 
ATOM     12  C   UNL     1      50.417  44.088  18.952  1.00  0.00     0.004 C 
ENDBRANCH  10  11
ENDBRANCH   9  10
ENDBRANCH   8   9
ENDBRANCH   7   8
ENDBRANCH   6   7
ENDBRANCH   5   6
ENDBRANCH   4   5
ENDBRANCH   3   4
ENDBRANCH   2   3
ENDBRANCH   1   2
BRANCH   1  13
ATOM     13  C   UNL     1      46.897  45.152  15.226  1.00  0.00     0.000 C 
BRANCH  13  14
ATOM     14  C   UNL     1      46.417  46.132  16.318  1.00  0.00     0.000 C 
BRANCH  14  15
ATOM     15  C   UNL     1      47.226  46.048  17.623  1.00  0.00     0.000 C 
BRANCH  15  16
ATOM     16  C   UNL     1      47.806  47.404  18.056  1.00  0.00     0.000 C 
BRANCH  16  17
ATOM     17  C   UNL     1      48.864  47.937  17.077  1.00  0.00     0.000 C 
BRANCH  17  18
ATOM     18  C   UNL     1      50.282  47.460  17.421  1.00  0.00     0.000 C 
BRANCH  18  19
ATOM     19  C   UNL     1      50.994  46.917  16.173  1.00  0.00     0.000 C 
BRANCH  19  20
ATOM     20  C   UNL     1      51.087  47.950  15.037  1.00  0.00     0.006 C 
BRANCH  20  21
ATOM     21  C   UNL     1      50.938  47.360  13.625  1.00  0.00     0.053 C 
BRANCH  21  22
ATOM     22  C   UNL     1      52.042  47.796  12.711  1.00  0.00     0.041 C 
ATOM     23  O   UNL     1      51.775  48.375  11.626  1.00  0.00    -0.550 OA
ATOM     24  O   UNL     1      53.367  47.591  13.075  1.00  0.00    -0.550 OA
ENDBRANCH  21  22
ENDBRANCH  20  21
ENDBRANCH  19  20
ENDBRANCH  18  19
ENDBRANCH  17  18
ENDBRANCH  16  17
ENDBRANCH  15  16
ENDBRANCH  14  15
ENDBRANCH  13  14
ENDBRANCH   1  13
TORSDOF 20
ENDMDL
MODEL 6
REMARK VINA RESULT:    -3.077      3.564      8.640
REMARK INTER + INTRA:          -9.650
REMARK INTER:                  -6.683
REMARK INTRA:                  -2.967
REMARK UNBOUND:                -2.975
REMARK SMILES CCCCCCCCCCCCCCCCCCCCCC(=O)[O-]
REMARK SMILES IDX 12 1 11 2 10 3 9 4 8 5 7 6 6 7 5 8 4 9 3 10 2 11 1 12 13 13
REMARK SMILES IDX 14 14 15 15 16 16 17 17 18 18 19 19 20 20 21 21 22 22 23 23
REMARK SMILES IDX 24 24
REMARK H PARENT
REMARK Flexibility Score: inf
ROOT
ATOM      1  C   UNL     1      57.211  45.848  15.485  1.00  0.00     0.000 C 
ENDROOT
BRANCH   1   2
ATOM      2  C   UNL     1      56.549  46.366  14.196  1.00  0.00     0.000 C 
BRANCH   2   3
ATOM      3  C   UNL     1      56.887  47.826  13.832  1.00  0.00     0.000 C 
BRANCH   3   4
ATOM      4  C   UNL     1      56.440  48.875  14.869  1.00  0.00    -0.000 C 
BRANCH   4   5
ATOM      5  C   UNL     1      55.751  50.123  14.281  1.00  0.00    -0.000 C 
BRANCH   5   6
ATOM      6  C   UNL     1      54.545  49.829  13.371  1.00  0.00    -0.000 C 
BRANCH   6   7
ATOM      7  C   UNL     1      53.415  49.085  14.102  1.00  0.00    -0.000 C 
BRANCH   7   8
ATOM      8  C   UNL     1      53.128  47.704  13.491  1.00  0.00    -0.000 C 
BRANCH   8   9
ATOM      9  C   UNL     1      51.861  47.700  12.621  1.00  0.00    -0.000 C 
BRANCH   9  10
ATOM     10  C   UNL     1      51.037  48.978  12.843  1.00  0.00    -0.000 C 
BRANCH  10  11
ATOM     11  C   UNL     1      49.700  48.702  13.549  1.00  0.00    -0.003 C 
ATOM     12  C   UNL     1      49.746  49.004  15.047  1.00  0.00     0.004 C 
ENDBRANCH  10  11
ENDBRANCH   9  10
ENDBRANCH   8   9
ENDBRANCH   7   8
ENDBRANCH   6   7
ENDBRANCH   5   6
ENDBRANCH   4   5
ENDBRANCH   3   4
ENDBRANCH   2   3
ENDBRANCH   1   2
BRANCH   1  13
ATOM     13  C   UNL     1      56.289  44.927  16.304  1.00  0.00     0.000 C 
BRANCH  13  14
ATOM     14  C   UNL     1      54.803  45.113  15.933  1.00  0.00     0.000 C 
BRANCH  14  15
ATOM     15  C   UNL     1      54.060  46.110  16.840  1.00  0.00     0.000 C 
BRANCH  15  16
ATOM     16  C   UNL     1      52.640  45.646  17.201  1.00  0.00     0.000 C 
BRANCH  16  17
ATOM     17  C   UNL     1      51.609  45.987  16.113  1.00  0.00     0.000 C 
BRANCH  17  18
ATOM     18  C   UNL     1      50.748  44.779  15.714  1.00  0.00     0.000 C 
BRANCH  18  19
ATOM     19  C   UNL     1      49.861  45.114  14.507  1.00  0.00     0.000 C 
BRANCH  19  20
ATOM     20  C   UNL     1      48.429  45.512  14.906  1.00  0.00     0.006 C 
BRANCH  20  21
ATOM     21  C   UNL     1      47.419  44.353  14.897  1.00  0.00     0.053 C 
BRANCH  21  22
ATOM     22  C   UNL     1      46.354  44.523  15.936  1.00  0.00     0.041 C 
ATOM     23  O   UNL     1      45.215  44.949  15.612  1.00  0.00    -0.550 OA
ATOM     24  O   UNL     1      46.610  44.182  17.258  1.00  0.00    -0.550 OA
ENDBRANCH  21  22
ENDBRANCH  20  21
ENDBRANCH  19  20
ENDBRANCH  18  19
ENDBRANCH  17  18
ENDBRANCH  16  17
ENDBRANCH  15  16
ENDBRANCH  14  15
ENDBRANCH  13  14
ENDBRANCH   1  13
TORSDOF 20
ENDMDL
MODEL 7
REMARK VINA RESULT:    -3.076      3.661      8.038
REMARK INTER + INTRA:          -9.648
REMARK INTER:                  -6.670
REMARK INTRA:                  -2.978
REMARK UNBOUND:                -2.975
REMARK SMILES CCCCCCCCCCCCCCCCCCCCCC(=O)[O-]
REMARK SMILES IDX 12 1 11 2 10 3 9 4 8 5 7 6 6 7 5 8 4 9 3 10 2 11 1 12 13 13
REMARK SMILES IDX 14 14 15 15 16 16 17 17 18 18 19 19 20 20 21 21 22 22 23 23
REMARK SMILES IDX 24 24
REMARK H PARENT
REMARK Flexibility Score: inf
ROOT
ATOM      1  C   UNL     1      53.435  49.569  15.189  1.00  0.00     0.000 C 
ENDROOT
BRANCH   1   2
ATOM      2  C   UNL     1      54.773  49.744  15.929  1.00  0.00     0.000 C 
BRANCH   2   3
ATOM      3  C   UNL     1      55.983  50.052  15.023  1.00  0.00     0.000 C 
BRANCH   3   4
ATOM      4  C   UNL     1      57.074  48.962  15.002  1.00  0.00    -0.000 C 
BRANCH   4   5
ATOM      5  C   UNL     1      56.889  47.873  13.926  1.00  0.00    -0.000 C 
BRANCH   5   6
ATOM      6  C   UNL     1      56.719  46.444  14.473  1.00  0.00    -0.000 C 
BRANCH   6   7
ATOM      7  C   UNL     1      55.319  46.194  15.058  1.00  0.00    -0.000 C 
BRANCH   7   8
ATOM      8  C   UNL     1      55.319  46.167  16.595  1.00  0.00    -0.000 C 
BRANCH   8   9
ATOM      9  C   UNL     1      55.670  44.782  17.157  1.00  0.00    -0.000 C 
BRANCH   9  10
ATOM     10  C   UNL     1      57.097  44.766  17.727  1.00  0.00    -0.000 C 
BRANCH  10  11
ATOM     11  C   UNL     1      58.015  43.779  16.989  1.00  0.00    -0.003 C 
ATOM     12  C   UNL     1      57.291  43.004  15.888  1.00  0.00     0.004 C 
ENDBRANCH  10  11
ENDBRANCH   9  10
ENDBRANCH   8   9
ENDBRANCH   7   8
ENDBRANCH   6   7
ENDBRANCH   5   6
ENDBRANCH   4   5
ENDBRANCH   3   4
ENDBRANCH   2   3
ENDBRANCH   1   2
BRANCH   1  13
ATOM     13  C   UNL     1      53.573  49.691  13.662  1.00  0.00     0.000 C 
BRANCH  13  14
ATOM     14  C   UNL     1      53.390  48.333  12.951  1.00  0.00     0.000 C 
BRANCH  14  15
ATOM     15  C   UNL     1      52.041  48.193  12.225  1.00  0.00     0.000 C 
BRANCH  15  16
ATOM     16  C   UNL     1      51.454  49.545  11.788  1.00  0.00     0.000 C 
BRANCH  16  17
ATOM     17  C   UNL     1      50.017  49.757  12.292  1.00  0.00     0.000 C 
BRANCH  17  18
ATOM     18  C   UNL     1      49.868  49.473  13.794  1.00  0.00     0.000 C 
BRANCH  18  19
ATOM     19  C   UNL     1      48.998  48.230  14.032  1.00  0.00     0.000 C 
BRANCH  19  20
ATOM     20  C   UNL     1      49.656  47.208  14.975  1.00  0.00     0.006 C 
BRANCH  20  21
ATOM     21  C   UNL     1      50.284  45.998  14.265  1.00  0.00     0.053 C 
BRANCH  21  22
ATOM     22  C   UNL     1      50.014  44.715  14.990  1.00  0.00     0.041 C 
ATOM     23  O   UNL     1      48.868  44.196  14.955  1.00  0.00    -0.550 OA
ATOM     24  O   UNL     1      51.039  44.076  15.678  1.00  0.00    -0.550 OA
ENDBRANCH  21  22
ENDBRANCH  20  21
ENDBRANCH  19  20
ENDBRANCH  18  19
ENDBRANCH  17  18
ENDBRANCH  16  17
ENDBRANCH  15  16
ENDBRANCH  14  15
ENDBRANCH  13  14
ENDBRANCH   1  13
TORSDOF 20
ENDMDL
MODEL 8
REMARK VINA RESULT:    -3.073      2.699      6.881
REMARK INTER + INTRA:          -9.641
REMARK INTER:                  -5.575
REMARK INTRA:                  -4.066
REMARK UNBOUND:                -2.975
REMARK SMILES CCCCCCCCCCCCCCCCCCCCCC(=O)[O-]
REMARK SMILES IDX 12 1 11 2 10 3 9 4 8 5 7 6 6 7 5 8 4 9 3 10 2 11 1 12 13 13
REMARK SMILES IDX 14 14 15 15 16 16 17 17 18 18 19 19 20 20 21 21 22 22 23 23
REMARK SMILES IDX 24 24
REMARK H PARENT
REMARK Flexibility Score: inf
ROOT
ATOM      1  C   UNL     1      46.348  44.456  15.230  1.00  0.00     0.000 C 
ENDROOT
BRANCH   1   2
ATOM      2  C   UNL     1      46.903  45.327  16.371  1.00  0.00     0.000 C 
BRANCH   2   3
ATOM      3  C   UNL     1      47.801  44.583  17.380  1.00  0.00     0.000 C 
BRANCH   3   4
ATOM      4  C   UNL     1      48.936  45.431  17.990  1.00  0.00    -0.000 C 
BRANCH   4   5
ATOM      5  C   UNL     1      50.360  44.903  17.726  1.00  0.00    -0.000 C 
BRANCH   5   6
ATOM      6  C   UNL     1      50.609  44.392  16.295  1.00  0.00    -0.000 C 
BRANCH   6   7
ATOM      7  C   UNL     1      51.163  45.482  15.363  1.00  0.00    -0.000 C 
BRANCH   7   8
ATOM      8  C   UNL     1      50.202  45.816  14.211  1.00  0.00    -0.000 C 
BRANCH   8   9
ATOM      9  C   UNL     1      49.367  47.075  14.490  1.00  0.00    -0.000 C 
BRANCH   9  10
ATOM     10  C   UNL     1      50.216  48.156  15.179  1.00  0.00    -0.000 C 
BRANCH  10  11
ATOM     11  C   UNL     1      49.531  48.737  16.426  1.00  0.00    -0.003 C 
ATOM     12  C   UNL     1      50.445  48.755  17.651  1.00  0.00     0.004 C 
ENDBRANCH  10  11
ENDBRANCH   9  10
ENDBRANCH   8   9
ENDBRANCH   7   8
ENDBRANCH   6   7
ENDBRANCH   5   6
ENDBRANCH   4   5
ENDBRANCH   3   4
ENDBRANCH   2   3
ENDBRANCH   1   2
BRANCH   1  13
ATOM     13  C   UNL     1      47.380  43.456  14.681  1.00  0.00     0.000 C 
BRANCH  13  14
ATOM     14  C   UNL     1      46.721  42.150  14.189  1.00  0.00     0.000 C 
BRANCH  14  15
ATOM     15  C   UNL     1      45.443  41.775  14.959  1.00  0.00     0.000 C 
BRANCH  15  16
ATOM     16  C   UNL     1      45.693  40.731  16.059  1.00  0.00     0.000 C 
BRANCH  16  17
ATOM     17  C   UNL     1      45.738  41.349  17.465  1.00  0.00     0.000 C 
BRANCH  17  18
ATOM     18  C   UNL     1      47.086  41.126  18.167  1.00  0.00     0.000 C 
BRANCH  18  19
ATOM     19  C   UNL     1      48.163  40.700  17.160  1.00  0.00     0.000 C 
BRANCH  19  20
ATOM     20  C   UNL     1      49.565  41.221  17.523  1.00  0.00     0.006 C 
BRANCH  20  21
ATOM     21  C   UNL     1      50.583  40.122  17.868  1.00  0.00     0.053 C 
BRANCH  21  22
ATOM     22  C   UNL     1      51.904  40.346  17.198  1.00  0.00     0.041 C 
ATOM     23  O   UNL     1      52.396  39.459  16.453  1.00  0.00    -0.550 OA
ATOM     24  O   UNL     1      52.577  41.549  17.371  1.00  0.00    -0.550 OA
ENDBRANCH  21  22
ENDBRANCH  20  21
ENDBRANCH  19  20
ENDBRANCH  18  19
ENDBRANCH  17  18
ENDBRANCH  16  17
ENDBRANCH  15  16
ENDBRANCH  14  15
ENDBRANCH  13  14
ENDBRANCH   1  13
TORSDOF 20
ENDMDL
