MODEL 1
REMARK VINA RESULT:    -4.470      0.000      0.000
REMARK INTER + INTRA:          -8.996
REMARK INTER:                  -7.605
REMARK INTRA:                  -1.390
REMARK UNBOUND:                -1.390
REMARK SMILES CCCCCCCCCCCCCC(=O)[O-]
REMARK SMILES IDX 8 1 9 2 10 3 11 4 12 5 13 6 14 7 15 8 16 9 7 10 6 11 5 12
REMARK SMILES IDX 4 13 3 14 2 15 1 16
REMARK H PARENT
REMARK Flexibility Score: inf
ROOT
ATOM      1  C   UNL     1      30.887   8.588  49.401  1.00  0.00     0.000 C 
ENDROOT
BRANCH   1   2
ATOM      2  C   UNL     1      30.090   7.602  48.532  1.00  0.00     0.000 C 
BRANCH   2   3
ATOM      3  C   UNL     1      30.816   6.257  48.351  1.00  0.00     0.000 C 
BRANCH   3   4
ATOM      4  C   UNL     1      31.760   6.255  47.138  1.00  0.00     0.000 C 
BRANCH   4   5
ATOM      5  C   UNL     1      33.240   6.120  47.538  1.00  0.00     0.006 C 
BRANCH   5   6
ATOM      6  C   UNL     1      34.161   6.011  46.316  1.00  0.00     0.053 C 
BRANCH   6   7
ATOM      7  C   UNL     1      35.137   4.881  46.451  1.00  0.00     0.041 C 
ATOM      8  O   UNL     1      35.761   4.710  47.531  1.00  0.00    -0.550 OA
ATOM      9  O   UNL     1      35.333   4.000  45.395  1.00  0.00    -0.550 OA
ENDBRANCH   6   7
ENDBRANCH   5   6
ENDBRANCH   4   5
ENDBRANCH   3   4
ENDBRANCH   2   3
ENDBRANCH   1   2
BRANCH   1  10
ATOM     10  C   UNL     1      31.760   9.544  48.569  1.00  0.00     0.000 C 
BRANCH  10  11
ATOM     11  C   UNL     1      33.126   9.813  49.219  1.00  0.00    -0.000 C 
BRANCH  11  12
ATOM     12  C   UNL     1      34.293   9.640  48.235  1.00  0.00    -0.000 C 
BRANCH  12  13
ATOM     13  C   UNL     1      33.810   9.777  46.784  1.00  0.00    -0.000 C 
BRANCH  13  14
ATOM     14  C   UNL     1      34.732  10.666  45.933  1.00  0.00    -0.000 C 
BRANCH  14  15
ATOM     15  C   UNL     1      34.568  10.419  44.427  1.00  0.00    -0.003 C 
ATOM     16  C   UNL     1      34.607   8.927  44.108  1.00  0.00     0.004 C 
ENDBRANCH  14  15
ENDBRANCH  13  14
ENDBRANCH  12  13
ENDBRANCH  11  12
ENDBRANCH  10  11
ENDBRANCH   1  10
TORSDOF 12
ENDMDL
MODEL 2
REMARK VINA RESULT:    -4.298      2.443      4.744
REMARK INTER + INTRA:          -8.704
REMARK INTER:                  -7.274
REMARK INTRA:                  -1.430
REMARK UNBOUND:                -1.390
REMARK SMILES CCCCCCCCCCCCCC(=O)[O-]
REMARK SMILES IDX 8 1 9 2 10 3 11 4 12 5 13 6 14 7 15 8 16 9 7 10 6 11 5 12
REMARK SMILES IDX 4 13 3 14 2 15 1 16
REMARK H PARENT
REMARK Flexibility Score: inf
ROOT
ATOM      1  C   UNL     1      30.648   8.547  49.016  1.00  0.00     0.000 C 
ENDROOT
BRANCH   1   2
ATOM      2  C   UNL     1      31.774   8.823  50.025  1.00  0.00     0.000 C 
BRANCH   2   3
ATOM      3  C   UNL     1      32.936   9.620  49.406  1.00  0.00     0.000 C 
BRANCH   3   4
ATOM      4  C   UNL     1      32.716   9.921  47.914  1.00  0.00     0.000 C 
BRANCH   4   5
ATOM      5  C   UNL     1      33.840   9.362  47.024  1.00  0.00     0.006 C 
BRANCH   5   6
ATOM      6  C   UNL     1      34.632  10.475  46.326  1.00  0.00     0.053 C 
BRANCH   6   7
ATOM      7  C   UNL     1      34.619  10.318  44.835  1.00  0.00     0.041 C 
ATOM      8  O   UNL     1      34.785   9.183  44.317  1.00  0.00    -0.550 OA
ATOM      9  O   UNL     1      34.395  11.421  44.021  1.00  0.00    -0.550 OA
ENDBRANCH   6   7
ENDBRANCH   5   6
ENDBRANCH   4   5
ENDBRANCH   3   4
ENDBRANCH   2   3
ENDBRANCH   1   2
BRANCH   1  10
ATOM     10  C   UNL     1      30.037   7.143  49.178  1.00  0.00     0.000 C 
BRANCH  10  11
ATOM     11  C   UNL     1      30.205   6.278  47.918  1.00  0.00    -0.000 C 
BRANCH  11  12
ATOM     12  C   UNL     1      31.631   6.333  47.350  1.00  0.00    -0.000 C 
BRANCH  12  13
ATOM     13  C   UNL     1      32.557   5.366  48.103  1.00  0.00    -0.000 C 
BRANCH  13  14
ATOM     14  C   UNL     1      33.999   5.889  48.209  1.00  0.00    -0.000 C 
BRANCH  14  15
ATOM     15  C   UNL     1      35.043   4.824  47.846  1.00  0.00    -0.003 C 
ATOM     16  C   UNL     1      35.157   4.659  46.333  1.00  0.00     0.004 C 
ENDBRANCH  14  15
ENDBRANCH  13  14
ENDBRANCH  12  13
ENDBRANCH  11  12
ENDBRANCH  10  11
ENDBRANCH   1  10
TORSDOF 12
ENDMDL
MODEL 3
REMARK VINA RESULT:    -4.182      0.926      1.678
REMARK INTER + INTRA:          -8.506
REMARK INTER:                  -7.487
REMARK INTRA:                  -1.019
REMARK UNBOUND:                -1.390
REMARK SMILES CCCCCCCCCCCCCC(=O)[O-]
REMARK SMILES IDX 8 1 9 2 10 3 11 4 12 5 13 6 14 7 15 8 16 9 7 10 6 11 5 12
REMARK SMILES IDX 4 13 3 14 2 15 1 16
REMARK H PARENT
REMARK Flexibility Score: inf
ROOT
ATOM      1  C   UNL     1      31.608   9.775  48.541  1.00  0.00     0.000 C 
ENDROOT
BRANCH   1   2
ATOM      2  C   UNL     1      31.422   8.459  49.315  1.00  0.00     0.000 C 
BRANCH   2   3
ATOM      3  C   UNL     1      30.398   7.524  48.648  1.00  0.00     0.000 C 
BRANCH   3   4
ATOM      4  C   UNL     1      31.038   6.604  47.595  1.00  0.00     0.000 C 
BRANCH   4   5
ATOM      5  C   UNL     1      32.240   5.817  48.145  1.00  0.00     0.006 C 
BRANCH   5   6
ATOM      6  C   UNL     1      33.549   6.191  47.437  1.00  0.00     0.053 C 
BRANCH   6   7
ATOM      7  C   UNL     1      34.616   5.161  47.656  1.00  0.00     0.041 C 
ATOM      8  O   UNL     1      34.840   4.285  46.779  1.00  0.00    -0.550 OA
ATOM      9  O   UNL     1      35.382   5.187  48.815  1.00  0.00    -0.550 OA
ENDBRANCH   6   7
ENDBRANCH   5   6
ENDBRANCH   4   5
ENDBRANCH   3   4
ENDBRANCH   2   3
ENDBRANCH   1   2
BRANCH   1  10
ATOM     10  C   UNL     1      32.997  10.401  48.760  1.00  0.00     0.000 C 
BRANCH  10  11
ATOM     11  C   UNL     1      34.007   9.988  47.677  1.00  0.00    -0.000 C 
BRANCH  11  12
ATOM     12  C   UNL     1      34.908  11.151  47.236  1.00  0.00    -0.000 C 
BRANCH  12  13
ATOM     13  C   UNL     1      35.487  10.896  45.837  1.00  0.00    -0.000 C 
BRANCH  13  14
ATOM     14  C   UNL     1      34.590  11.445  44.715  1.00  0.00    -0.000 C 
BRANCH  14  15
ATOM     15  C   UNL     1      34.186  10.367  43.699  1.00  0.00    -0.003 C 
ATOM     16  C   UNL     1      34.706   8.995  44.118  1.00  0.00     0.004 C 
ENDBRANCH  14  15
ENDBRANCH  13  14
ENDBRANCH  12  13
ENDBRANCH  11  12
ENDBRANCH  10  11
ENDBRANCH   1  10
TORSDOF 12
ENDMDL
MODEL 4
REMARK VINA RESULT:    -4.113      2.478      4.857
REMARK INTER + INTRA:          -8.388
REMARK INTER:                  -7.027
REMARK INTRA:                  -1.361
REMARK UNBOUND:                -1.390
REMARK SMILES CCCCCCCCCCCCCC(=O)[O-]
REMARK SMILES IDX 8 1 9 2 10 3 11 4 12 5 13 6 14 7 15 8 16 9 7 10 6 11 5 12
REMARK SMILES IDX 4 13 3 14 2 15 1 16
REMARK H PARENT
REMARK Flexibility Score: inf
ROOT
ATOM      1  C   UNL     1      31.556   9.522  48.664  1.00  0.00     0.000 C 
ENDROOT
BRANCH   1   2
ATOM      2  C   UNL     1      32.713  10.330  49.273  1.00  0.00     0.000 C 
BRANCH   2   3
ATOM      3  C   UNL     1      34.083   9.913  48.711  1.00  0.00     0.000 C 
BRANCH   3   4
ATOM      4  C   UNL     1      34.951  11.119  48.317  1.00  0.00     0.000 C 
BRANCH   4   5
ATOM      5  C   UNL     1      35.235  11.177  46.805  1.00  0.00     0.006 C 
BRANCH   5   6
ATOM      6  C   UNL     1      34.368  10.190  46.015  1.00  0.00     0.053 C 
BRANCH   6   7
ATOM      7  C   UNL     1      34.621  10.279  44.541  1.00  0.00     0.041 C 
ATOM      8  O   UNL     1      34.943   9.250  43.891  1.00  0.00    -0.550 OA
ATOM      9  O   UNL     1      34.473  11.492  43.881  1.00  0.00    -0.550 OA
ENDBRANCH   6   7
ENDBRANCH   5   6
ENDBRANCH   4   5
ENDBRANCH   3   4
ENDBRANCH   2   3
ENDBRANCH   1   2
BRANCH   1  10
ATOM     10  C   UNL     1      31.113   8.351  49.559  1.00  0.00     0.000 C 
BRANCH  10  11
ATOM     11  C   UNL     1      30.010   7.497  48.913  1.00  0.00    -0.000 C 
BRANCH  11  12
ATOM     12  C   UNL     1      30.536   6.628  47.761  1.00  0.00    -0.000 C 
BRANCH  12  13
ATOM     13  C   UNL     1      31.514   5.563  48.280  1.00  0.00    -0.000 C 
BRANCH  13  14
ATOM     14  C   UNL     1      32.956   5.799  47.803  1.00  0.00    -0.000 C 
BRANCH  14  15
ATOM     15  C   UNL     1      33.033   6.749  46.599  1.00  0.00    -0.003 C 
ATOM     16  C   UNL     1      34.143   6.331  45.639  1.00  0.00     0.004 C 
ENDBRANCH  14  15
ENDBRANCH  13  14
ENDBRANCH  12  13
ENDBRANCH  11  12
ENDBRANCH  10  11
ENDBRANCH   1  10
TORSDOF 12
ENDMDL
MODEL 5
REMARK VINA RESULT:    -4.046     17.861     19.368
REMARK INTER + INTRA:          -8.274
REMARK INTER:                  -7.033
REMARK INTRA:                  -1.241
REMARK UNBOUND:                -1.390
REMARK SMILES CCCCCCCCCCCCCC(=O)[O-]
REMARK SMILES IDX 8 1 9 2 10 3 11 4 12 5 13 6 14 7 15 8 16 9 7 10 6 11 5 12
REMARK SMILES IDX 4 13 3 14 2 15 1 16
REMARK H PARENT
REMARK Flexibility Score: inf
ROOT
ATOM      1  C   UNL     1      20.698  13.908  35.070  1.00  0.00     0.000 C 
ENDROOT
BRANCH   1   2
ATOM      2  C   UNL     1      20.382  14.160  33.587  1.00  0.00     0.000 C 
BRANCH   2   3
ATOM      3  C   UNL     1      21.115  13.181  32.654  1.00  0.00     0.000 C 
BRANCH   3   4
ATOM      4  C   UNL     1      21.229  13.710  31.215  1.00  0.00     0.000 C 
BRANCH   4   5
ATOM      5  C   UNL     1      22.668  14.101  30.837  1.00  0.00     0.006 C 
BRANCH   5   6
ATOM      6  C   UNL     1      22.876  15.621  30.849  1.00  0.00     0.053 C 
BRANCH   6   7
ATOM      7  C   UNL     1      24.277  15.996  30.472  1.00  0.00     0.041 C 
ATOM      8  O   UNL     1      24.615  17.208  30.417  1.00  0.00    -0.550 OA
ATOM      9  O   UNL     1      25.217  15.007  30.210  1.00  0.00    -0.550 OA
ENDBRANCH   6   7
ENDBRANCH   5   6
ENDBRANCH   4   5
ENDBRANCH   3   4
ENDBRANCH   2   3
ENDBRANCH   1   2
BRANCH   1  10
ATOM     10  C   UNL     1      19.481  13.388  35.856  1.00  0.00     0.000 C 
BRANCH  10  11
ATOM     11  C   UNL     1      19.656  11.932  36.317  1.00  0.00    -0.000 C 
BRANCH  11  12
ATOM     12  C   UNL     1      19.413  10.921  35.186  1.00  0.00    -0.000 C 
BRANCH  12  13
ATOM     13  C   UNL     1      20.601   9.958  35.048  1.00  0.00    -0.000 C 
BRANCH  13  14
ATOM     14  C   UNL     1      21.823  10.402  35.869  1.00  0.00    -0.000 C 
BRANCH  14  15
ATOM     15  C   UNL     1      22.956  10.954  34.991  1.00  0.00    -0.003 C 
ATOM     16  C   UNL     1      24.287  10.938  35.739  1.00  0.00     0.004 C 
ENDBRANCH  14  15
ENDBRANCH  13  14
ENDBRANCH  12  13
ENDBRANCH  11  12
ENDBRANCH  10  11
ENDBRANCH   1  10
TORSDOF 12
ENDMDL
MODEL 6
REMARK VINA RESULT:    -3.993     18.358     20.000
REMARK INTER + INTRA:          -8.185
REMARK INTER:                  -7.283
REMARK INTRA:                  -0.903
REMARK UNBOUND:                -1.390
REMARK SMILES CCCCCCCCCCCCCC(=O)[O-]
REMARK SMILES IDX 8 1 9 2 10 3 11 4 12 5 13 6 14 7 15 8 16 9 7 10 6 11 5 12
REMARK SMILES IDX 4 13 3 14 2 15 1 16
REMARK H PARENT
REMARK Flexibility Score: inf
ROOT
ATOM      1  C   UNL     1      20.751  14.501  33.981  1.00  0.00     0.000 C 
ENDROOT
BRANCH   1   2
ATOM      2  C   UNL     1      21.075  14.913  32.536  1.00  0.00     0.000 C 
BRANCH   2   3
ATOM      3  C   UNL     1      21.872  13.836  31.781  1.00  0.00     0.000 C 
BRANCH   3   4
ATOM      4  C   UNL     1      22.403  14.336  30.427  1.00  0.00     0.000 C 
BRANCH   4   5
ATOM      5  C   UNL     1      23.579  15.317  30.576  1.00  0.00     0.006 C 
BRANCH   5   6
ATOM      6  C   UNL     1      23.257  16.698  29.991  1.00  0.00     0.053 C 
BRANCH   6   7
ATOM      7  C   UNL     1      23.597  17.802  30.946  1.00  0.00     0.041 C 
ATOM      8  O   UNL     1      24.796  18.014  31.267  1.00  0.00    -0.550 OA
ATOM      9  O   UNL     1      22.594  18.615  31.458  1.00  0.00    -0.550 OA
ENDBRANCH   6   7
ENDBRANCH   5   6
ENDBRANCH   4   5
ENDBRANCH   3   4
ENDBRANCH   2   3
ENDBRANCH   1   2
BRANCH   1  10
ATOM     10  C   UNL     1      19.502  13.607  34.078  1.00  0.00     0.000 C 
BRANCH  10  11
ATOM     11  C   UNL     1      19.011  13.434  35.525  1.00  0.00    -0.000 C 
BRANCH  11  12
ATOM     12  C   UNL     1      19.781  12.343  36.283  1.00  0.00    -0.000 C 
BRANCH  12  13
ATOM     13  C   UNL     1      20.079  11.146  35.367  1.00  0.00    -0.000 C 
BRANCH  13  14
ATOM     14  C   UNL     1      21.465  10.532  35.625  1.00  0.00    -0.000 C 
BRANCH  14  15
ATOM     15  C   UNL     1      22.589  11.578  35.601  1.00  0.00    -0.003 C 
ATOM     16  C   UNL     1      23.960  10.910  35.656  1.00  0.00     0.004 C 
ENDBRANCH  14  15
ENDBRANCH  13  14
ENDBRANCH  12  13
ENDBRANCH  11  12
ENDBRANCH  10  11
ENDBRANCH   1  10
TORSDOF 12
ENDMDL
MODEL 7
REMARK VINA RESULT:    -3.948     18.559     20.087
REMARK INTER + INTRA:          -8.108
REMARK INTER:                  -6.505
REMARK INTRA:                  -1.603
REMARK UNBOUND:                -1.390
REMARK SMILES CCCCCCCCCCCCCC(=O)[O-]
REMARK SMILES IDX 8 1 9 2 10 3 11 4 12 5 13 6 14 7 15 8 16 9 7 10 6 11 5 12
REMARK SMILES IDX 4 13 3 14 2 15 1 16
REMARK H PARENT
REMARK Flexibility Score: inf
ROOT
ATOM      1  C   UNL     1      19.742  13.863  34.465  1.00  0.00     0.000 C 
ENDROOT
BRANCH   1   2
ATOM      2  C   UNL     1      20.950  14.557  33.815  1.00  0.00     0.000 C 
BRANCH   2   3
ATOM      3  C   UNL     1      20.822  14.651  32.285  1.00  0.00     0.000 C 
BRANCH   3   4
ATOM      4  C   UNL     1      22.021  14.024  31.553  1.00  0.00     0.000 C 
BRANCH   4   5
ATOM      5  C   UNL     1      22.932  15.077  30.897  1.00  0.00     0.006 C 
BRANCH   5   6
ATOM      6  C   UNL     1      22.335  16.488  30.975  1.00  0.00     0.053 C 
BRANCH   6   7
ATOM      7  C   UNL     1      23.399  17.543  30.999  1.00  0.00     0.041 C 
ATOM      8  O   UNL     1      24.596  17.241  30.752  1.00  0.00    -0.550 OA
ATOM      9  O   UNL     1      23.063  18.865  31.264  1.00  0.00    -0.550 OA
ENDBRANCH   6   7
ENDBRANCH   5   6
ENDBRANCH   4   5
ENDBRANCH   3   4
ENDBRANCH   2   3
ENDBRANCH   1   2
BRANCH   1  10
ATOM     10  C   UNL     1      20.051  13.328  35.875  1.00  0.00     0.000 C 
BRANCH  10  11
ATOM     11  C   UNL     1      20.452  11.845  35.868  1.00  0.00    -0.000 C 
BRANCH  11  12
ATOM     12  C   UNL     1      21.974  11.646  35.809  1.00  0.00    -0.000 C 
BRANCH  12  13
ATOM     13  C   UNL     1      22.400  11.079  34.446  1.00  0.00    -0.000 C 
BRANCH  13  14
ATOM     14  C   UNL     1      21.288  10.257  33.773  1.00  0.00    -0.000 C 
BRANCH  14  15
ATOM     15  C   UNL     1      20.962  10.752  32.357  1.00  0.00    -0.003 C 
ATOM     16  C   UNL     1      19.457  10.919  32.167  1.00  0.00     0.004 C 
ENDBRANCH  14  15
ENDBRANCH  13  14
ENDBRANCH  12  13
ENDBRANCH  11  12
ENDBRANCH  10  11
ENDBRANCH   1  10
TORSDOF 12
ENDMDL
MODEL 8
REMARK VINA RESULT:    -3.795      3.004      4.428
REMARK INTER + INTRA:          -7.848
REMARK INTER:                  -6.710
REMARK INTRA:                  -1.138
REMARK UNBOUND:                -1.390
REMARK SMILES CCCCCCCCCCCCCC(=O)[O-]
REMARK SMILES IDX 8 1 9 2 10 3 11 4 12 5 13 6 14 7 15 8 16 9 7 10 6 11 5 12
REMARK SMILES IDX 4 13 3 14 2 15 1 16
REMARK H PARENT
REMARK Flexibility Score: inf
ROOT
ATOM      1  C   UNL     1      35.352  10.377  48.365  1.00  0.00     0.000 C 
ENDROOT
BRANCH   1   2
ATOM      2  C   UNL     1      34.145   9.578  48.881  1.00  0.00     0.000 C 
BRANCH   2   3
ATOM      3  C   UNL     1      32.977   9.564  47.880  1.00  0.00     0.000 C 
BRANCH   3   4
ATOM      4  C   UNL     1      31.625   9.869  48.546  1.00  0.00     0.000 C 
BRANCH   4   5
ATOM      5  C   UNL     1      31.029   8.648  49.268  1.00  0.00     0.006 C 
BRANCH   5   6
ATOM      6  C   UNL     1      30.714   7.501  48.300  1.00  0.00     0.053 C 
BRANCH   6   7
ATOM      7  C   UNL     1      29.585   6.647  48.794  1.00  0.00     0.041 C 
ATOM      8  O   UNL     1      29.332   6.583  50.026  1.00  0.00    -0.550 OA
ATOM      9  O   UNL     1      28.795   5.947  47.891  1.00  0.00    -0.550 OA
ENDBRANCH   6   7
ENDBRANCH   5   6
ENDBRANCH   4   5
ENDBRANCH   3   4
ENDBRANCH   2   3
ENDBRANCH   1   2
BRANCH   1  10
ATOM     10  C   UNL     1      35.025  11.863  48.130  1.00  0.00     0.000 C 
BRANCH  10  11
ATOM     11  C   UNL     1      35.496  12.361  46.755  1.00  0.00    -0.000 C 
BRANCH  11  12
ATOM     12  C   UNL     1      35.508  11.248  45.696  1.00  0.00    -0.000 C 
BRANCH  12  13
ATOM     13  C   UNL     1      34.619  11.620  44.500  1.00  0.00    -0.000 C 
BRANCH  13  14
ATOM     14  C   UNL     1      34.012  10.390  43.807  1.00  0.00    -0.000 C 
BRANCH  14  15
ATOM     15  C   UNL     1      34.912   9.150  43.908  1.00  0.00    -0.003 C 
ATOM     16  C   UNL     1      34.186   7.999  44.600  1.00  0.00     0.004 C 
ENDBRANCH  14  15
ENDBRANCH  13  14
ENDBRANCH  12  13
ENDBRANCH  11  12
ENDBRANCH  10  11
ENDBRANCH   1  10
TORSDOF 12
ENDMDL
MODEL 9
REMARK VINA RESULT:    -3.786     17.767     19.101
REMARK INTER + INTRA:          -7.833
REMARK INTER:                  -6.894
REMARK INTRA:                  -0.939
REMARK UNBOUND:                -1.390
REMARK SMILES CCCCCCCCCCCCCC(=O)[O-]
REMARK SMILES IDX 8 1 9 2 10 3 11 4 12 5 13 6 14 7 15 8 16 9 7 10 6 11 5 12
REMARK SMILES IDX 4 13 3 14 2 15 1 16
REMARK H PARENT
REMARK Flexibility Score: inf
ROOT
ATOM      1  C   UNL     1      20.792  14.579  34.057  1.00  0.00     0.000 C 
ENDROOT
BRANCH   1   2
ATOM      2  C   UNL     1      19.604  13.604  34.073  1.00  0.00     0.000 C 
BRANCH   2   3
ATOM      3  C   UNL     1      19.140  13.264  35.501  1.00  0.00     0.000 C 
BRANCH   3   4
ATOM      4  C   UNL     1      20.114  12.322  36.228  1.00  0.00     0.000 C 
BRANCH   4   5
ATOM      5  C   UNL     1      20.270  10.966  35.517  1.00  0.00     0.006 C 
BRANCH   5   6
ATOM      6  C   UNL     1      21.617  10.301  35.828  1.00  0.00     0.053 C 
BRANCH   6   7
ATOM      7  C   UNL     1      22.728  10.879  35.006  1.00  0.00     0.041 C 
ATOM      8  O   UNL     1      22.501  11.299  33.841  1.00  0.00    -0.550 OA
ATOM      9  O   UNL     1      24.007  10.982  35.538  1.00  0.00    -0.550 OA
ENDBRANCH   6   7
ENDBRANCH   5   6
ENDBRANCH   4   5
ENDBRANCH   3   4
ENDBRANCH   2   3
ENDBRANCH   1   2
BRANCH   1  10
ATOM     10  C   UNL     1      21.151  15.054  32.638  1.00  0.00     0.000 C 
BRANCH  10  11
ATOM     11  C   UNL     1      21.558  13.896  31.713  1.00  0.00    -0.000 C 
BRANCH  11  12
ATOM     12  C   UNL     1      22.618  14.309  30.681  1.00  0.00    -0.000 C 
BRANCH  12  13
ATOM     13  C   UNL     1      22.770  15.837  30.634  1.00  0.00    -0.000 C 
BRANCH  13  14
ATOM     14  C   UNL     1      24.240  16.285  30.582  1.00  0.00    -0.000 C 
BRANCH  14  15
ATOM     15  C   UNL     1      24.434  17.731  31.062  1.00  0.00    -0.003 C 
ATOM     16  C   UNL     1      23.101  18.471  31.131  1.00  0.00     0.004 C 
ENDBRANCH  14  15
ENDBRANCH  13  14
ENDBRANCH  12  13
ENDBRANCH  11  12
ENDBRANCH  10  11
ENDBRANCH   1  10
TORSDOF 12
ENDMDL
