MODEL 1
REMARK VINA RESULT:    -2.989      0.000      0.000
REMARK INTER + INTRA:          -8.838
REMARK INTER:                  -6.834
REMARK INTRA:                  -2.004
REMARK UNBOUND:                -2.004
REMARK SMILES CCCCCCCCCCCCCCCCCCCCCCCC(=O)[O-]
REMARK SMILES IDX 13 1 14 2 15 3 16 4 17 5 18 6 19 7 20 8 21 9 22 10 23 11
REMARK SMILES IDX 24 12 25 13 26 14 12 15 11 16 10 17 9 18 8 19 7 20 6 21 5 22
REMARK SMILES IDX 4 23 3 24 2 25 1 26
REMARK H PARENT
REMARK Flexibility Score: inf
ROOT
ATOM      1  C   UNL     1      16.773  -7.350   6.107  1.00  0.00     0.000 C 
ENDROOT
BRANCH   1   2
ATOM      2  C   UNL     1      16.398  -6.399   7.254  1.00  0.00     0.000 C 
BRANCH   2   3
ATOM      3  C   UNL     1      17.446  -6.400   8.380  1.00  0.00     0.000 C 
BRANCH   3   4
ATOM      4  C   UNL     1      18.851  -6.774   7.882  1.00  0.00     0.000 C 
BRANCH   4   5
ATOM      5  C   UNL     1      19.404  -8.053   8.537  1.00  0.00     0.000 C 
BRANCH   5   6
ATOM      6  C   UNL     1      20.121  -9.008   7.557  1.00  0.00     0.000 C 
BRANCH   6   7
ATOM      7  C   UNL     1      19.204  -9.721   6.538  1.00  0.00     0.000 C 
BRANCH   7   8
ATOM      8  C   UNL     1      19.456  -9.381   5.056  1.00  0.00     0.000 C 
BRANCH   8   9
ATOM      9  C   UNL     1      20.571  -8.351   4.795  1.00  0.00     0.000 C 
BRANCH   9  10
ATOM     10  C   UNL     1      20.144  -7.188   3.875  1.00  0.00     0.006 C 
BRANCH  10  11
ATOM     11  C   UNL     1      19.976  -5.865   4.633  1.00  0.00     0.053 C 
BRANCH  11  12
ATOM     12  C   UNL     1      21.216  -5.034   4.519  1.00  0.00     0.041 C 
ATOM     13  O   UNL     1      21.131  -3.794   4.309  1.00  0.00    -0.550 OA
ATOM     14  O   UNL     1      22.466  -5.639   4.590  1.00  0.00    -0.550 OA
ENDBRANCH  11  12
ENDBRANCH  10  11
ENDBRANCH   9  10
ENDBRANCH   8   9
ENDBRANCH   7   8
ENDBRANCH   6   7
ENDBRANCH   5   6
ENDBRANCH   4   5
ENDBRANCH   3   4
ENDBRANCH   2   3
ENDBRANCH   1   2
BRANCH   1  15
ATOM     15  C   UNL     1      15.749  -7.275   4.968  1.00  0.00     0.000 C 
BRANCH  15  16
ATOM     16  C   UNL     1      14.569  -8.224   5.233  1.00  0.00     0.000 C 
BRANCH  16  17
ATOM     17  C   UNL     1      13.249  -7.474   5.471  1.00  0.00     0.000 C 
BRANCH  17  18
ATOM     18  C   UNL     1      12.317  -7.522   4.247  1.00  0.00    -0.000 C 
BRANCH  18  19
ATOM     19  C   UNL     1      10.971  -8.193   4.562  1.00  0.00    -0.000 C 
BRANCH  19  20
ATOM     20  C   UNL     1       9.950  -7.210   5.159  1.00  0.00    -0.000 C 
BRANCH  20  21
ATOM     21  C   UNL     1       8.504  -7.721   5.040  1.00  0.00    -0.000 C 
BRANCH  21  22
ATOM     22  C   UNL     1       8.120  -8.673   6.184  1.00  0.00    -0.000 C 
BRANCH  22  23
ATOM     23  C   UNL     1       6.647  -9.093   6.077  1.00  0.00    -0.000 C 
BRANCH  23  24
ATOM     24  C   UNL     1       5.970  -8.582   4.795  1.00  0.00    -0.000 C 
BRANCH  24  25
ATOM     25  C   UNL     1       4.775  -7.640   5.060  1.00  0.00    -0.003 C 
ATOM     26  C   UNL     1       5.196  -6.172   5.113  1.00  0.00     0.004 C 
ENDBRANCH  24  25
ENDBRANCH  23  24
ENDBRANCH  22  23
ENDBRANCH  21  22
ENDBRANCH  20  21
ENDBRANCH  19  20
ENDBRANCH  18  19
ENDBRANCH  17  18
ENDBRANCH  16  17
ENDBRANCH  15  16
ENDBRANCH   1  15
TORSDOF 22
ENDMDL
MODEL 2
REMARK VINA RESULT:    -2.815      1.360      2.034
REMARK INTER + INTRA:          -8.439
REMARK INTER:                  -6.305
REMARK INTRA:                  -2.134
REMARK UNBOUND:                -2.004
REMARK SMILES CCCCCCCCCCCCCCCCCCCCCCCC(=O)[O-]
REMARK SMILES IDX 13 1 14 2 15 3 16 4 17 5 18 6 19 7 20 8 21 9 22 10 23 11
REMARK SMILES IDX 24 12 25 13 26 14 12 15 11 16 10 17 9 18 8 19 7 20 6 21 5 22
REMARK SMILES IDX 4 23 3 24 2 25 1 26
REMARK H PARENT
REMARK Flexibility Score: inf
ROOT
ATOM      1  C   UNL     1      15.623  -7.486   7.013  1.00  0.00     0.000 C 
ENDROOT
BRANCH   1   2
ATOM      2  C   UNL     1      16.098  -6.373   6.065  1.00  0.00     0.000 C 
BRANCH   2   3
ATOM      3  C   UNL     1      17.081  -6.892   5.002  1.00  0.00     0.000 C 
BRANCH   3   4
ATOM      4  C   UNL     1      16.429  -7.885   4.027  1.00  0.00     0.000 C 
BRANCH   4   5
ATOM      5  C   UNL     1      17.084  -9.278   4.053  1.00  0.00     0.000 C 
BRANCH   5   6
ATOM      6  C   UNL     1      17.787  -9.623   5.385  1.00  0.00     0.000 C 
BRANCH   6   7
ATOM      7  C   UNL     1      19.329  -9.697   5.319  1.00  0.00     0.000 C 
BRANCH   7   8
ATOM      8  C   UNL     1      20.088  -8.557   6.025  1.00  0.00     0.000 C 
BRANCH   8   9
ATOM      9  C   UNL     1      20.794  -7.557   5.089  1.00  0.00     0.000 C 
BRANCH   9  10
ATOM     10  C   UNL     1      20.393  -6.087   5.330  1.00  0.00     0.006 C 
BRANCH  10  11
ATOM     11  C   UNL     1      20.329  -5.270   4.033  1.00  0.00     0.053 C 
BRANCH  11  12
ATOM     12  C   UNL     1      21.486  -4.322   3.953  1.00  0.00     0.041 C 
ATOM     13  O   UNL     1      21.284  -3.080   3.891  1.00  0.00    -0.550 OA
ATOM     14  O   UNL     1      22.784  -4.815   3.891  1.00  0.00    -0.550 OA
ENDBRANCH  11  12
ENDBRANCH  10  11
ENDBRANCH   9  10
ENDBRANCH   8   9
ENDBRANCH   7   8
ENDBRANCH   6   7
ENDBRANCH   5   6
ENDBRANCH   4   5
ENDBRANCH   3   4
ENDBRANCH   2   3
ENDBRANCH   1   2
BRANCH   1  15
ATOM     15  C   UNL     1      14.092  -7.578   7.035  1.00  0.00     0.000 C 
BRANCH  15  16
ATOM     16  C   UNL     1      13.568  -8.247   5.755  1.00  0.00     0.000 C 
BRANCH  16  17
ATOM     17  C   UNL     1      12.945  -7.242   4.774  1.00  0.00     0.000 C 
BRANCH  17  18
ATOM     18  C   UNL     1      11.723  -7.819   4.038  1.00  0.00    -0.000 C 
BRANCH  18  19
ATOM     19  C   UNL     1      10.540  -6.838   4.009  1.00  0.00    -0.000 C 
BRANCH  19  20
ATOM     20  C   UNL     1       9.735  -6.849   5.319  1.00  0.00    -0.000 C 
BRANCH  20  21
ATOM     21  C   UNL     1       9.681  -8.245   5.963  1.00  0.00    -0.000 C 
BRANCH  21  22
ATOM     22  C   UNL     1       8.270  -8.853   5.935  1.00  0.00    -0.000 C 
BRANCH  22  23
ATOM     23  C   UNL     1       7.753  -8.975   4.495  1.00  0.00    -0.000 C 
BRANCH  23  24
ATOM     24  C   UNL     1       6.715  -7.898   4.138  1.00  0.00    -0.000 C 
BRANCH  24  25
ATOM     25  C   UNL     1       5.758  -7.553   5.300  1.00  0.00    -0.003 C 
ATOM     26  C   UNL     1       5.590  -6.045   5.481  1.00  0.00     0.004 C 
ENDBRANCH  24  25
ENDBRANCH  23  24
ENDBRANCH  22  23
ENDBRANCH  21  22
ENDBRANCH  20  21
ENDBRANCH  19  20
ENDBRANCH  18  19
ENDBRANCH  17  18
ENDBRANCH  16  17
ENDBRANCH  15  16
ENDBRANCH   1  15
TORSDOF 22
ENDMDL
MODEL 3
REMARK VINA RESULT:    -2.662      4.570     12.053
REMARK INTER + INTRA:          -8.089
REMARK INTER:                  -6.415
REMARK INTRA:                  -1.674
REMARK UNBOUND:                -2.004
REMARK SMILES CCCCCCCCCCCCCCCCCCCCCCCC(=O)[O-]
REMARK SMILES IDX 13 1 14 2 15 3 16 4 17 5 18 6 19 7 20 8 21 9 22 10 23 11
REMARK SMILES IDX 24 12 25 13 26 14 12 15 11 16 10 17 9 18 8 19 7 20 6 21 5 22
REMARK SMILES IDX 4 23 3 24 2 25 1 26
REMARK H PARENT
REMARK Flexibility Score: inf
ROOT
ATOM      1  C   UNL     1      12.903  -8.765   4.508  1.00  0.00     0.000 C 
ENDROOT
BRANCH   1   2
ATOM      2  C   UNL     1      11.370  -8.670   4.473  1.00  0.00     0.000 C 
BRANCH   2   3
ATOM      3  C   UNL     1      10.853  -7.347   5.062  1.00  0.00     0.000 C 
BRANCH   3   4
ATOM      4  C   UNL     1       9.534  -7.515   5.831  1.00  0.00     0.000 C 
BRANCH   4   5
ATOM      5  C   UNL     1       9.198  -8.985   6.142  1.00  0.00     0.000 C 
BRANCH   5   6
ATOM      6  C   UNL     1       8.066  -9.172   7.177  1.00  0.00     0.000 C 
BRANCH   6   7
ATOM      7  C   UNL     1       6.659  -9.402   6.582  1.00  0.00     0.000 C 
BRANCH   7   8
ATOM      8  C   UNL     1       6.619  -9.966   5.148  1.00  0.00     0.000 C 
BRANCH   8   9
ATOM      9  C   UNL     1       5.662  -9.242   4.181  1.00  0.00     0.000 C 
BRANCH   9  10
ATOM     10  C   UNL     1       4.503  -8.506   4.886  1.00  0.00     0.006 C 
BRANCH  10  11
ATOM     11  C   UNL     1       4.134  -7.187   4.196  1.00  0.00     0.053 C 
BRANCH  11  12
ATOM     12  C   UNL     1       4.898  -6.048   4.798  1.00  0.00     0.041 C 
ATOM     13  O   UNL     1       4.354  -4.919   4.929  1.00  0.00    -0.550 OA
ATOM     14  O   UNL     1       6.229  -6.221   5.162  1.00  0.00    -0.550 OA
ENDBRANCH  11  12
ENDBRANCH  10  11
ENDBRANCH   9  10
ENDBRANCH   8   9
ENDBRANCH   7   8
ENDBRANCH   6   7
ENDBRANCH   5   6
ENDBRANCH   4   5
ENDBRANCH   3   4
ENDBRANCH   2   3
ENDBRANCH   1   2
BRANCH   1  15
ATOM     15  C   UNL     1      13.543  -7.375   4.609  1.00  0.00     0.000 C 
BRANCH  15  16
ATOM     16  C   UNL     1      14.894  -7.343   3.878  1.00  0.00     0.000 C 
BRANCH  16  17
ATOM     17  C   UNL     1      15.795  -6.192   4.351  1.00  0.00     0.000 C 
BRANCH  17  18
ATOM     18  C   UNL     1      16.280  -6.381   5.800  1.00  0.00    -0.000 C 
BRANCH  18  19
ATOM     19  C   UNL     1      17.067  -7.687   5.988  1.00  0.00    -0.000 C 
BRANCH  19  20
ATOM     20  C   UNL     1      18.332  -7.742   5.115  1.00  0.00    -0.000 C 
BRANCH  20  21
ATOM     21  C   UNL     1      19.284  -8.876   5.532  1.00  0.00    -0.000 C 
BRANCH  21  22
ATOM     22  C   UNL     1      20.480  -9.022   4.578  1.00  0.00    -0.000 C 
BRANCH  22  23
ATOM     23  C   UNL     1      20.788  -7.692   3.876  1.00  0.00    -0.000 C 
BRANCH  23  24
ATOM     24  C   UNL     1      22.230  -7.212   4.107  1.00  0.00    -0.000 C 
BRANCH  24  25
ATOM     25  C   UNL     1      22.326  -5.739   4.563  1.00  0.00    -0.003 C 
ATOM     26  C   UNL     1      20.980  -5.192   5.034  1.00  0.00     0.004 C 
ENDBRANCH  24  25
ENDBRANCH  23  24
ENDBRANCH  22  23
ENDBRANCH  21  22
ENDBRANCH  20  21
ENDBRANCH  19  20
ENDBRANCH  18  19
ENDBRANCH  17  18
ENDBRANCH  16  17
ENDBRANCH  15  16
ENDBRANCH   1  15
TORSDOF 22
ENDMDL
MODEL 4
REMARK VINA RESULT:    -2.498      4.773     12.164
REMARK INTER + INTRA:          -7.716
REMARK INTER:                  -6.115
REMARK INTRA:                  -1.601
REMARK UNBOUND:                -2.004
REMARK SMILES CCCCCCCCCCCCCCCCCCCCCCCC(=O)[O-]
REMARK SMILES IDX 13 1 14 2 15 3 16 4 17 5 18 6 19 7 20 8 21 9 22 10 23 11
REMARK SMILES IDX 24 12 25 13 26 14 12 15 11 16 10 17 9 18 8 19 7 20 6 21 5 22
REMARK SMILES IDX 4 23 3 24 2 25 1 26
REMARK H PARENT
REMARK Flexibility Score: inf
ROOT
ATOM      1  C   UNL     1      12.571  -8.216   5.116  1.00  0.00     0.000 C 
ENDROOT
BRANCH   1   2
ATOM      2  C   UNL     1      11.046  -8.170   5.302  1.00  0.00     0.000 C 
BRANCH   2   3
ATOM      3  C   UNL     1      10.358  -7.276   4.257  1.00  0.00     0.000 C 
BRANCH   3   4
ATOM      4  C   UNL     1       9.041  -6.671   4.769  1.00  0.00     0.000 C 
BRANCH   4   5
ATOM      5  C   UNL     1       7.831  -7.018   3.884  1.00  0.00     0.000 C 
BRANCH   5   6
ATOM      6  C   UNL     1       7.316  -8.465   4.052  1.00  0.00     0.000 C 
BRANCH   6   7
ATOM      7  C   UNL     1       7.044  -8.905   5.508  1.00  0.00     0.000 C 
BRANCH   7   8
ATOM      8  C   UNL     1       5.563  -9.107   5.883  1.00  0.00     0.000 C 
BRANCH   8   9
ATOM      9  C   UNL     1       4.575  -9.080   4.702  1.00  0.00     0.000 C 
BRANCH   9  10
ATOM     10  C   UNL     1       3.640  -7.852   4.699  1.00  0.00     0.006 C 
BRANCH  10  11
ATOM     11  C   UNL     1       4.198  -6.685   3.875  1.00  0.00     0.053 C 
BRANCH  11  12
ATOM     12  C   UNL     1       4.496  -5.514   4.760  1.00  0.00     0.041 C 
ATOM     13  O   UNL     1       3.989  -4.387   4.512  1.00  0.00    -0.550 OA
ATOM     14  O   UNL     1       5.378  -5.656   5.825  1.00  0.00    -0.550 OA
ENDBRANCH  11  12
ENDBRANCH  10  11
ENDBRANCH   9  10
ENDBRANCH   8   9
ENDBRANCH   7   8
ENDBRANCH   6   7
ENDBRANCH   5   6
ENDBRANCH   4   5
ENDBRANCH   3   4
ENDBRANCH   2   3
ENDBRANCH   1   2
BRANCH   1  15
ATOM     15  C   UNL     1      13.291  -7.482   6.254  1.00  0.00     0.000 C 
BRANCH  15  16
ATOM     16  C   UNL     1      14.788  -7.825   6.262  1.00  0.00     0.000 C 
BRANCH  16  17
ATOM     17  C   UNL     1      15.436  -7.685   4.876  1.00  0.00     0.000 C 
BRANCH  17  18
ATOM     18  C   UNL     1      16.604  -6.683   4.871  1.00  0.00    -0.000 C 
BRANCH  18  19
ATOM     19  C   UNL     1      17.783  -7.163   4.011  1.00  0.00    -0.000 C 
BRANCH  19  20
ATOM     20  C   UNL     1      18.987  -6.207   4.078  1.00  0.00    -0.000 C 
BRANCH  20  21
ATOM     21  C   UNL     1      20.206  -6.846   4.765  1.00  0.00    -0.000 C 
BRANCH  21  22
ATOM     22  C   UNL     1      19.823  -7.644   6.021  1.00  0.00    -0.000 C 
BRANCH  22  23
ATOM     23  C   UNL     1      19.298  -6.713   7.124  1.00  0.00    -0.000 C 
BRANCH  23  24
ATOM     24  C   UNL     1      19.359  -7.349   8.523  1.00  0.00    -0.000 C 
BRANCH  24  25
ATOM     25  C   UNL     1      19.728  -8.849   8.505  1.00  0.00    -0.003 C 
ATOM     26  C   UNL     1      20.075  -9.374   9.897  1.00  0.00     0.004 C 
ENDBRANCH  24  25
ENDBRANCH  23  24
ENDBRANCH  22  23
ENDBRANCH  21  22
ENDBRANCH  20  21
ENDBRANCH  19  20
ENDBRANCH  18  19
ENDBRANCH  17  18
ENDBRANCH  16  17
ENDBRANCH  15  16
ENDBRANCH   1  15
TORSDOF 22
ENDMDL
MODEL 5
REMARK VINA RESULT:    -2.108      4.769     12.124
REMARK INTER + INTRA:          -6.824
REMARK INTER:                  -5.806
REMARK INTRA:                  -1.018
REMARK UNBOUND:                -2.004
REMARK SMILES CCCCCCCCCCCCCCCCCCCCCCCC(=O)[O-]
REMARK SMILES IDX 13 1 14 2 15 3 16 4 17 5 18 6 19 7 20 8 21 9 22 10 23 11
REMARK SMILES IDX 24 12 25 13 26 14 12 15 11 16 10 17 9 18 8 19 7 20 6 21 5 22
REMARK SMILES IDX 4 23 3 24 2 25 1 26
REMARK H PARENT
REMARK Flexibility Score: inf
ROOT
ATOM      1  C   UNL     1      14.324  -7.759   5.144  1.00  0.00     0.000 C 
ENDROOT
BRANCH   1   2
ATOM      2  C   UNL     1      12.890  -8.313   5.163  1.00  0.00     0.000 C 
BRANCH   2   3
ATOM      3  C   UNL     1      11.911  -7.424   4.378  1.00  0.00     0.000 C 
BRANCH   3   4
ATOM      4  C   UNL     1      10.497  -8.022   4.303  1.00  0.00     0.000 C 
BRANCH   4   5
ATOM      5  C   UNL     1       9.643  -7.713   5.545  1.00  0.00     0.000 C 
BRANCH   5   6
ATOM      6  C   UNL     1       8.680  -8.851   5.952  1.00  0.00     0.000 C 
BRANCH   6   7
ATOM      7  C   UNL     1       7.371  -8.933   5.135  1.00  0.00     0.000 C 
BRANCH   7   8
ATOM      8  C   UNL     1       6.182  -9.617   5.837  1.00  0.00     0.000 C 
BRANCH   8   9
ATOM      9  C   UNL     1       4.788  -9.194   5.335  1.00  0.00     0.000 C 
BRANCH   9  10
ATOM     10  C   UNL     1       4.826  -8.179   4.173  1.00  0.00     0.006 C 
BRANCH  10  11
ATOM     11  C   UNL     1       3.864  -7.003   4.383  1.00  0.00     0.053 C 
BRANCH  11  12
ATOM     12  C   UNL     1       4.609  -5.793   4.856  1.00  0.00     0.041 C 
ATOM     13  O   UNL     1       5.534  -5.910   5.705  1.00  0.00    -0.550 OA
ATOM     14  O   UNL     1       4.246  -4.531   4.400  1.00  0.00    -0.550 OA
ENDBRANCH  11  12
ENDBRANCH  10  11
ENDBRANCH   9  10
ENDBRANCH   8   9
ENDBRANCH   7   8
ENDBRANCH   6   7
ENDBRANCH   5   6
ENDBRANCH   4   5
ENDBRANCH   3   4
ENDBRANCH   2   3
ENDBRANCH   1   2
BRANCH   1  15
ATOM     15  C   UNL     1      14.932  -7.749   6.552  1.00  0.00     0.000 C 
BRANCH  15  16
ATOM     16  C   UNL     1      15.729  -9.037   6.810  1.00  0.00     0.000 C 
BRANCH  16  17
ATOM     17  C   UNL     1      16.520  -9.501   5.577  1.00  0.00     0.000 C 
BRANCH  17  18
ATOM     18  C   UNL     1      17.943  -9.968   5.932  1.00  0.00    -0.000 C 
BRANCH  18  19
ATOM     19  C   UNL     1      19.002  -9.398   4.975  1.00  0.00    -0.000 C 
BRANCH  19  20
ATOM     20  C   UNL     1      20.051  -8.540   5.703  1.00  0.00    -0.000 C 
BRANCH  20  21
ATOM     21  C   UNL     1      19.583  -7.090   5.910  1.00  0.00    -0.000 C 
BRANCH  21  22
ATOM     22  C   UNL     1      18.686  -6.591   4.766  1.00  0.00    -0.000 C 
BRANCH  22  23
ATOM     23  C   UNL     1      19.427  -5.567   3.895  1.00  0.00    -0.000 C 
BRANCH  23  24
ATOM     24  C   UNL     1      20.875  -5.325   4.355  1.00  0.00    -0.000 C 
BRANCH  24  25
ATOM     25  C   UNL     1      21.864  -6.410   3.875  1.00  0.00    -0.003 C 
ATOM     26  C   UNL     1      22.935  -6.718   4.921  1.00  0.00     0.004 C 
ENDBRANCH  24  25
ENDBRANCH  23  24
ENDBRANCH  22  23
ENDBRANCH  21  22
ENDBRANCH  20  21
ENDBRANCH  19  20
ENDBRANCH  18  19
ENDBRANCH  17  18
ENDBRANCH  16  17
ENDBRANCH  15  16
ENDBRANCH   1  15
TORSDOF 22
ENDMDL
MODEL 6
REMARK VINA RESULT:    -2.012      2.051      3.872
REMARK INTER + INTRA:          -6.604
REMARK INTER:                  -5.004
REMARK INTRA:                  -1.600
REMARK UNBOUND:                -2.004
REMARK SMILES CCCCCCCCCCCCCCCCCCCCCCCC(=O)[O-]
REMARK SMILES IDX 13 1 14 2 15 3 16 4 17 5 18 6 19 7 20 8 21 9 22 10 23 11
REMARK SMILES IDX 24 12 25 13 26 14 12 15 11 16 10 17 9 18 8 19 7 20 6 21 5 22
REMARK SMILES IDX 4 23 3 24 2 25 1 26
REMARK H PARENT
REMARK Flexibility Score: inf
ROOT
ATOM      1  C   UNL     1      12.977  -7.666   6.088  1.00  0.00     0.000 C 
ENDROOT
BRANCH   1   2
ATOM      2  C   UNL     1      13.665  -8.832   5.362  1.00  0.00     0.000 C 
BRANCH   2   3
ATOM      3  C   UNL     1      15.121  -9.027   5.818  1.00  0.00     0.000 C 
BRANCH   3   4
ATOM      4  C   UNL     1      16.136  -8.427   4.832  1.00  0.00     0.000 C 
BRANCH   4   5
ATOM      5  C   UNL     1      16.426  -6.939   5.093  1.00  0.00     0.000 C 
BRANCH   5   6
ATOM      6  C   UNL     1      17.001  -6.181   3.875  1.00  0.00     0.000 C 
BRANCH   6   7
ATOM      7  C   UNL     1      18.534  -5.989   3.880  1.00  0.00     0.000 C 
BRANCH   7   8
ATOM      8  C   UNL     1      19.362  -7.202   4.348  1.00  0.00     0.000 C 
BRANCH   8   9
ATOM      9  C   UNL     1      20.572  -6.868   5.241  1.00  0.00     0.000 C 
BRANCH   9  10
ATOM     10  C   UNL     1      20.450  -7.404   6.683  1.00  0.00     0.006 C 
BRANCH  10  11
ATOM     11  C   UNL     1      18.994  -7.646   7.103  1.00  0.00     0.053 C 
BRANCH  11  12
ATOM     12  C   UNL     1      18.520  -6.551   8.008  1.00  0.00     0.041 C 
ATOM     13  O   UNL     1      19.346  -5.906   8.709  1.00  0.00    -0.550 OA
ATOM     14  O   UNL     1      17.161  -6.280   8.116  1.00  0.00    -0.550 OA
ENDBRANCH  11  12
ENDBRANCH  10  11
ENDBRANCH   9  10
ENDBRANCH   8   9
ENDBRANCH   7   8
ENDBRANCH   6   7
ENDBRANCH   5   6
ENDBRANCH   4   5
ENDBRANCH   3   4
ENDBRANCH   2   3
ENDBRANCH   1   2
BRANCH   1  15
ATOM     15  C   UNL     1      11.644  -7.307   5.420  1.00  0.00     0.000 C 
BRANCH  15  16
ATOM     16  C   UNL     1      10.488  -7.395   6.429  1.00  0.00     0.000 C 
BRANCH  16  17
ATOM     17  C   UNL     1      10.030  -8.841   6.679  1.00  0.00     0.000 C 
BRANCH  17  18
ATOM     18  C   UNL     1       8.537  -8.931   7.039  1.00  0.00    -0.000 C 
BRANCH  18  19
ATOM     19  C   UNL     1       7.767  -9.885   6.113  1.00  0.00    -0.000 C 
BRANCH  19  20
ATOM     20  C   UNL     1       8.413 -10.001   4.721  1.00  0.00    -0.000 C 
BRANCH  20  21
ATOM     21  C   UNL     1       8.221  -8.729   3.877  1.00  0.00    -0.000 C 
BRANCH  21  22
ATOM     22  C   UNL     1       6.814  -8.130   4.026  1.00  0.00    -0.000 C 
BRANCH  22  23
ATOM     23  C   UNL     1       6.886  -6.673   4.504  1.00  0.00    -0.000 C 
BRANCH  23  24
ATOM     24  C   UNL     1       5.499  -6.042   4.712  1.00  0.00    -0.000 C 
BRANCH  24  25
ATOM     25  C   UNL     1       4.374  -7.078   4.923  1.00  0.00    -0.003 C 
ATOM     26  C   UNL     1       3.114  -6.733   4.129  1.00  0.00     0.004 C 
ENDBRANCH  24  25
ENDBRANCH  23  24
ENDBRANCH  22  23
ENDBRANCH  21  22
ENDBRANCH  20  21
ENDBRANCH  19  20
ENDBRANCH  18  19
ENDBRANCH  17  18
ENDBRANCH  16  17
ENDBRANCH  15  16
ENDBRANCH   1  15
TORSDOF 22
ENDMDL
MODEL 7
REMARK VINA RESULT:    -1.731      4.694     11.556
REMARK INTER + INTRA:          -5.961
REMARK INTER:                  -5.013
REMARK INTRA:                  -0.948
REMARK UNBOUND:                -2.004
REMARK SMILES CCCCCCCCCCCCCCCCCCCCCCCC(=O)[O-]
REMARK SMILES IDX 13 1 14 2 15 3 16 4 17 5 18 6 19 7 20 8 21 9 22 10 23 11
REMARK SMILES IDX 24 12 25 13 26 14 12 15 11 16 10 17 9 18 8 19 7 20 6 21 5 22
REMARK SMILES IDX 4 23 3 24 2 25 1 26
REMARK H PARENT
REMARK Flexibility Score: inf
ROOT
ATOM      1  C   UNL     1      15.093  -7.466   4.443  1.00  0.00     0.000 C 
ENDROOT
BRANCH   1   2
ATOM      2  C   UNL     1      14.162  -7.922   5.578  1.00  0.00     0.000 C 
BRANCH   2   3
ATOM      3  C   UNL     1      12.687  -7.956   5.145  1.00  0.00     0.000 C 
BRANCH   3   4
ATOM      4  C   UNL     1      12.277  -6.715   4.337  1.00  0.00     0.000 C 
BRANCH   4   5
ATOM      5  C   UNL     1      10.762  -6.639   4.073  1.00  0.00     0.000 C 
BRANCH   5   6
ATOM      6  C   UNL     1       9.915  -7.579   4.959  1.00  0.00     0.000 C 
BRANCH   6   7
ATOM      7  C   UNL     1       8.599  -8.079   4.323  1.00  0.00     0.000 C 
BRANCH   7   8
ATOM      8  C   UNL     1       7.662  -8.874   5.254  1.00  0.00     0.000 C 
BRANCH   8   9
ATOM      9  C   UNL     1       6.187  -8.429   5.240  1.00  0.00     0.000 C 
BRANCH   9  10
ATOM     10  C   UNL     1       5.785  -7.642   3.975  1.00  0.00     0.006 C 
BRANCH  10  11
ATOM     11  C   UNL     1       4.437  -6.925   4.128  1.00  0.00     0.053 C 
BRANCH  11  12
ATOM     12  C   UNL     1       4.625  -5.588   4.775  1.00  0.00     0.041 C 
ATOM     13  O   UNL     1       4.078  -4.564   4.285  1.00  0.00    -0.550 OA
ATOM     14  O   UNL     1       5.449  -5.466   5.889  1.00  0.00    -0.550 OA
ENDBRANCH  11  12
ENDBRANCH  10  11
ENDBRANCH   9  10
ENDBRANCH   8   9
ENDBRANCH   7   8
ENDBRANCH   6   7
ENDBRANCH   5   6
ENDBRANCH   4   5
ENDBRANCH   3   4
ENDBRANCH   2   3
ENDBRANCH   1   2
BRANCH   1  15
ATOM     15  C   UNL     1      16.559  -7.774   4.772  1.00  0.00     0.000 C 
BRANCH  15  16
ATOM     16  C   UNL     1      17.382  -6.478   4.858  1.00  0.00     0.000 C 
BRANCH  16  17
ATOM     17  C   UNL     1      18.568  -6.466   3.882  1.00  0.00     0.000 C 
BRANCH  17  18
ATOM     18  C   UNL     1      19.911  -6.731   4.585  1.00  0.00    -0.000 C 
BRANCH  18  19
ATOM     19  C   UNL     1      20.478  -5.471   5.258  1.00  0.00    -0.000 C 
BRANCH  19  20
ATOM     20  C   UNL     1      20.372  -5.525   6.792  1.00  0.00    -0.000 C 
BRANCH  20  21
ATOM     21  C   UNL     1      19.096  -6.241   7.266  1.00  0.00    -0.000 C 
BRANCH  21  22
ATOM     22  C   UNL     1      19.165  -6.648   8.747  1.00  0.00    -0.000 C 
BRANCH  22  23
ATOM     23  C   UNL     1      19.367  -8.163   8.891  1.00  0.00    -0.000 C 
BRANCH  23  24
ATOM     24  C   UNL     1      20.109  -8.785   7.696  1.00  0.00    -0.000 C 
BRANCH  24  25
ATOM     25  C   UNL     1      19.500 -10.121   7.218  1.00  0.00    -0.003 C 
ATOM     26  C   UNL     1      19.067 -10.067   5.753  1.00  0.00     0.004 C 
ENDBRANCH  24  25
ENDBRANCH  23  24
ENDBRANCH  22  23
ENDBRANCH  21  22
ENDBRANCH  20  21
ENDBRANCH  19  20
ENDBRANCH  18  19
ENDBRANCH  17  18
ENDBRANCH  16  17
ENDBRANCH  15  16
ENDBRANCH   1  15
TORSDOF 22
ENDMDL
MODEL 8
REMARK VINA RESULT:    -1.679      2.074      3.456
REMARK INTER + INTRA:          -5.844
REMARK INTER:                  -4.712
REMARK INTRA:                  -1.132
REMARK UNBOUND:                -2.004
REMARK SMILES CCCCCCCCCCCCCCCCCCCCCCCC(=O)[O-]
REMARK SMILES IDX 13 1 14 2 15 3 16 4 17 5 18 6 19 7 20 8 21 9 22 10 23 11
REMARK SMILES IDX 24 12 25 13 26 14 12 15 11 16 10 17 9 18 8 19 7 20 6 21 5 22
REMARK SMILES IDX 4 23 3 24 2 25 1 26
REMARK H PARENT
REMARK Flexibility Score: inf
ROOT
ATOM      1  C   UNL     1      14.059  -7.248   5.436  1.00  0.00     0.000 C 
ENDROOT
BRANCH   1   2
ATOM      2  C   UNL     1      15.504  -7.160   4.921  1.00  0.00     0.000 C 
BRANCH   2   3
ATOM      3  C   UNL     1      16.381  -8.310   5.443  1.00  0.00     0.000 C 
BRANCH   3   4
ATOM      4  C   UNL     1      16.366  -9.536   4.516  1.00  0.00     0.000 C 
BRANCH   4   5
ATOM      5  C   UNL     1      17.738  -9.833   3.884  1.00  0.00     0.000 C 
BRANCH   5   6
ATOM      6  C   UNL     1      18.938  -9.270   4.677  1.00  0.00     0.000 C 
BRANCH   6   7
ATOM      7  C   UNL     1      20.251  -9.128   3.876  1.00  0.00     0.000 C 
BRANCH   7   8
ATOM      8  C   UNL     1      21.036  -7.820   4.098  1.00  0.00     0.000 C 
BRANCH   8   9
ATOM      9  C   UNL     1      20.172  -6.557   4.279  1.00  0.00     0.000 C 
BRANCH   9  10
ATOM     10  C   UNL     1      20.264  -5.936   5.689  1.00  0.00     0.006 C 
BRANCH  10  11
ATOM     11  C   UNL     1      18.962  -6.087   6.487  1.00  0.00     0.053 C 
BRANCH  11  12
ATOM     12  C   UNL     1      19.155  -7.037   7.629  1.00  0.00     0.041 C 
ATOM     13  O   UNL     1      19.474  -8.236   7.409  1.00  0.00    -0.550 OA
ATOM     14  O   UNL     1      18.929  -6.609   8.932  1.00  0.00    -0.550 OA
ENDBRANCH  11  12
ENDBRANCH  10  11
ENDBRANCH   9  10
ENDBRANCH   8   9
ENDBRANCH   7   8
ENDBRANCH   6   7
ENDBRANCH   5   6
ENDBRANCH   4   5
ENDBRANCH   3   4
ENDBRANCH   2   3
ENDBRANCH   1   2
BRANCH   1  15
ATOM     15  C   UNL     1      13.412  -8.583   5.046  1.00  0.00     0.000 C 
BRANCH  15  16
ATOM     16  C   UNL     1      12.275  -8.364   4.037  1.00  0.00     0.000 C 
BRANCH  16  17
ATOM     17  C   UNL     1      11.356  -7.195   4.425  1.00  0.00     0.000 C 
BRANCH  17  18
ATOM     18  C   UNL     1       9.927  -7.363   3.882  1.00  0.00    -0.000 C 
BRANCH  18  19
ATOM     19  C   UNL     1       8.903  -6.514   4.651  1.00  0.00    -0.000 C 
BRANCH  19  20
ATOM     20  C   UNL     1       7.476  -7.078   4.551  1.00  0.00    -0.000 C 
BRANCH  20  21
ATOM     21  C   UNL     1       6.427  -5.981   4.300  1.00  0.00    -0.000 C 
BRANCH  21  22
ATOM     22  C   UNL     1       5.251  -6.055   5.286  1.00  0.00    -0.000 C 
BRANCH  22  23
ATOM     23  C   UNL     1       3.922  -5.754   4.579  1.00  0.00    -0.000 C 
BRANCH  23  24
ATOM     24  C   UNL     1       3.325  -6.985   3.876  1.00  0.00    -0.000 C 
BRANCH  24  25
ATOM     25  C   UNL     1       3.001  -8.149   4.839  1.00  0.00    -0.003 C 
ATOM     26  C   UNL     1       3.655  -9.459   4.402  1.00  0.00     0.004 C 
ENDBRANCH  24  25
ENDBRANCH  23  24
ENDBRANCH  22  23
ENDBRANCH  21  22
ENDBRANCH  20  21
ENDBRANCH  19  20
ENDBRANCH  18  19
ENDBRANCH  17  18
ENDBRANCH  16  17
ENDBRANCH  15  16
ENDBRANCH   1  15
TORSDOF 22
ENDMDL
