MODEL 1
REMARK VINA RESULT:    -4.486      0.000      0.000
REMARK INTER + INTRA:          -9.390
REMARK INTER:                  -8.157
REMARK INTRA:                  -1.233
REMARK UNBOUND:                -1.233
REMARK SMILES CCCCCCCCCCCCCCCC(=O)[O-]
REMARK SMILES IDX 9 1 10 2 11 3 12 4 13 5 14 6 15 7 16 8 17 9 18 10 8 11 7 12
REMARK SMILES IDX 6 13 5 14 4 15 3 16 2 17 1 18
REMARK H PARENT
REMARK Flexibility Score: inf
ROOT
ATOM      1  C   UNL     1      44.825  27.420   1.612  1.00  0.00     0.000 C 
ENDROOT
BRANCH   1   2
ATOM      2  C   UNL     1      43.341  27.155   1.932  1.00  0.00     0.000 C 
BRANCH   2   3
ATOM      3  C   UNL     1      42.331  27.868   1.010  1.00  0.00     0.000 C 
BRANCH   3   4
ATOM      4  C   UNL     1      42.667  29.337   0.691  1.00  0.00     0.000 C 
BRANCH   4   5
ATOM      5  C   UNL     1      43.261  29.575  -0.710  1.00  0.00     0.000 C 
BRANCH   5   6
ATOM      6  C   UNL     1      42.680  28.644  -1.797  1.00  0.00     0.006 C 
BRANCH   6   7
ATOM      7  C   UNL     1      43.747  28.161  -2.787  1.00  0.00     0.053 C 
BRANCH   7   8
ATOM      8  C   UNL     1      44.537  27.036  -2.196  1.00  0.00     0.041 C 
ATOM      9  O   UNL     1      45.789  27.002  -2.331  1.00  0.00    -0.550 OA
ATOM     10  O   UNL     1      43.888  26.000  -1.538  1.00  0.00    -0.550 OA
ENDBRANCH   7   8
ENDBRANCH   6   7
ENDBRANCH   5   6
ENDBRANCH   4   5
ENDBRANCH   3   4
ENDBRANCH   2   3
ENDBRANCH   1   2
BRANCH   1  11
ATOM     11  C   UNL     1      45.827  26.495   2.328  1.00  0.00     0.000 C 
BRANCH  11  12
ATOM     12  C   UNL     1      45.184  25.696   3.474  1.00  0.00    -0.000 C 
BRANCH  12  13
ATOM     13  C   UNL     1      45.833  25.991   4.836  1.00  0.00    -0.000 C 
BRANCH  13  14
ATOM     14  C   UNL     1      46.013  27.494   5.094  1.00  0.00    -0.000 C 
BRANCH  14  15
ATOM     15  C   UNL     1      46.550  27.749   6.508  1.00  0.00    -0.000 C 
BRANCH  15  16
ATOM     16  C   UNL     1      45.570  28.608   7.322  1.00  0.00    -0.000 C 
BRANCH  16  17
ATOM     17  C   UNL     1      45.168  27.947   8.648  1.00  0.00    -0.003 C 
ATOM     18  C   UNL     1      45.351  26.429   8.634  1.00  0.00     0.004 C 
ENDBRANCH  16  17
ENDBRANCH  15  16
ENDBRANCH  14  15
ENDBRANCH  13  14
ENDBRANCH  12  13
ENDBRANCH  11  12
ENDBRANCH   1  11
TORSDOF 14
ENDMDL
MODEL 2
REMARK VINA RESULT:    -4.374      1.230      2.917
REMARK INTER + INTRA:          -9.187
REMARK INTER:                  -7.652
REMARK INTRA:                  -1.535
REMARK UNBOUND:                -1.233
REMARK SMILES CCCCCCCCCCCCCCCC(=O)[O-]
REMARK SMILES IDX 9 1 10 2 11 3 12 4 13 5 14 6 15 7 16 8 17 9 18 10 8 11 7 12
REMARK SMILES IDX 6 13 5 14 4 15 3 16 2 17 1 18
REMARK H PARENT
REMARK Flexibility Score: inf
ROOT
ATOM      1  C   UNL     1      45.757  26.125   5.081  1.00  0.00     0.000 C 
ENDROOT
BRANCH   1   2
ATOM      2  C   UNL     1      45.689  25.332   3.762  1.00  0.00     0.000 C 
BRANCH   2   3
ATOM      3  C   UNL     1      44.752  25.921   2.687  1.00  0.00     0.000 C 
BRANCH   3   4
ATOM      4  C   UNL     1      44.786  27.455   2.567  1.00  0.00     0.000 C 
BRANCH   4   5
ATOM      5  C   UNL     1      43.461  28.098   2.114  1.00  0.00     0.000 C 
BRANCH   5   6
ATOM      6  C   UNL     1      42.763  27.337   0.966  1.00  0.00     0.006 C 
BRANCH   6   7
ATOM      7  C   UNL     1      43.157  27.871  -0.417  1.00  0.00     0.053 C 
BRANCH   7   8
ATOM      8  C   UNL     1      44.183  26.982  -1.047  1.00  0.00     0.041 C 
ATOM      9  O   UNL     1      43.834  25.904  -1.597  1.00  0.00    -0.550 OA
ATOM     10  O   UNL     1      45.529  27.320  -0.986  1.00  0.00    -0.550 OA
ENDBRANCH   7   8
ENDBRANCH   6   7
ENDBRANCH   5   6
ENDBRANCH   4   5
ENDBRANCH   3   4
ENDBRANCH   2   3
ENDBRANCH   1   2
BRANCH   1  11
ATOM     11  C   UNL     1      47.125  26.760   5.395  1.00  0.00     0.000 C 
BRANCH  11  12
ATOM     12  C   UNL     1      47.052  28.289   5.541  1.00  0.00    -0.000 C 
BRANCH  12  13
ATOM     13  C   UNL     1      45.745  28.756   6.203  1.00  0.00    -0.000 C 
BRANCH  13  14
ATOM     14  C   UNL     1      45.973  29.383   7.588  1.00  0.00    -0.000 C 
BRANCH  14  15
ATOM     15  C   UNL     1      45.088  28.714   8.646  1.00  0.00    -0.000 C 
BRANCH  15  16
ATOM     16  C   UNL     1      45.287  27.191   8.649  1.00  0.00    -0.000 C 
BRANCH  16  17
ATOM     17  C   UNL     1      46.659  26.776   9.201  1.00  0.00    -0.003 C 
ATOM     18  C   UNL     1      46.567  25.657  10.238  1.00  0.00     0.004 C 
ENDBRANCH  16  17
ENDBRANCH  15  16
ENDBRANCH  14  15
ENDBRANCH  13  14
ENDBRANCH  12  13
ENDBRANCH  11  12
ENDBRANCH   1  11
TORSDOF 14
ENDMDL
MODEL 3
REMARK VINA RESULT:    -4.146      4.200      8.675
REMARK INTER + INTRA:          -8.771
REMARK INTER:                  -7.714
REMARK INTRA:                  -1.057
REMARK UNBOUND:                -1.233
REMARK SMILES CCCCCCCCCCCCCCCC(=O)[O-]
REMARK SMILES IDX 9 1 10 2 11 3 12 4 13 5 14 6 15 7 16 8 17 9 18 10 8 11 7 12
REMARK SMILES IDX 6 13 5 14 4 15 3 16 2 17 1 18
REMARK H PARENT
REMARK Flexibility Score: inf
ROOT
ATOM      1  C   UNL     1      44.814  27.022   2.581  1.00  0.00     0.000 C 
ENDROOT
BRANCH   1   2
ATOM      2  C   UNL     1      45.098  25.701   3.321  1.00  0.00     0.000 C 
BRANCH   2   3
ATOM      3  C   UNL     1      45.896  25.840   4.634  1.00  0.00     0.000 C 
BRANCH   3   4
ATOM      4  C   UNL     1      46.146  27.289   5.092  1.00  0.00     0.000 C 
BRANCH   4   5
ATOM      5  C   UNL     1      46.105  27.501   6.618  1.00  0.00     0.000 C 
BRANCH   5   6
ATOM      6  C   UNL     1      45.862  26.203   7.418  1.00  0.00     0.006 C 
BRANCH   6   7
ATOM      7  C   UNL     1      45.233  26.470   8.791  1.00  0.00     0.053 C 
BRANCH   7   8
ATOM      8  C   UNL     1      46.220  26.191   9.882  1.00  0.00     0.041 C 
ATOM      9  O   UNL     1      46.466  25.005  10.224  1.00  0.00    -0.550 OA
ATOM     10  O   UNL     1      46.832  27.242  10.552  1.00  0.00    -0.550 OA
ENDBRANCH   7   8
ENDBRANCH   6   7
ENDBRANCH   5   6
ENDBRANCH   4   5
ENDBRANCH   3   4
ENDBRANCH   2   3
ENDBRANCH   1   2
BRANCH   1  11
ATOM     11  C   UNL     1      43.732  26.943   1.489  1.00  0.00     0.000 C 
BRANCH  11  12
ATOM     12  C   UNL     1      42.460  27.727   1.853  1.00  0.00    -0.000 C 
BRANCH  12  13
ATOM     13  C   UNL     1      42.185  28.888   0.884  1.00  0.00    -0.000 C 
BRANCH  13  14
ATOM     14  C   UNL     1      43.473  29.542   0.361  1.00  0.00    -0.000 C 
BRANCH  14  15
ATOM     15  C   UNL     1      43.301  30.017  -1.086  1.00  0.00    -0.000 C 
BRANCH  15  16
ATOM     16  C   UNL     1      42.711  28.903  -1.965  1.00  0.00    -0.000 C 
BRANCH  16  17
ATOM     17  C   UNL     1      43.788  28.131  -2.741  1.00  0.00    -0.003 C 
ATOM     18  C   UNL     1      44.105  26.771  -2.120  1.00  0.00     0.004 C 
ENDBRANCH  16  17
ENDBRANCH  15  16
ENDBRANCH  14  15
ENDBRANCH  13  14
ENDBRANCH  12  13
ENDBRANCH  11  12
ENDBRANCH   1  11
TORSDOF 14
ENDMDL
MODEL 4
REMARK VINA RESULT:    -4.117      1.782      2.197
REMARK INTER + INTRA:          -8.720
REMARK INTER:                  -7.997
REMARK INTRA:                  -0.722
REMARK UNBOUND:                -1.233
REMARK SMILES CCCCCCCCCCCCCCCC(=O)[O-]
REMARK SMILES IDX 9 1 10 2 11 3 12 4 13 5 14 6 15 7 16 8 17 9 18 10 8 11 7 12
REMARK SMILES IDX 6 13 5 14 4 15 3 16 2 17 1 18
REMARK H PARENT
REMARK Flexibility Score: inf
ROOT
ATOM      1  C   UNL     1      44.123  26.504   2.091  1.00  0.00     0.000 C 
ENDROOT
BRANCH   1   2
ATOM      2  C   UNL     1      42.992  27.538   1.920  1.00  0.00     0.000 C 
BRANCH   2   3
ATOM      3  C   UNL     1      42.759  28.026   0.476  1.00  0.00     0.000 C 
BRANCH   3   4
ATOM      4  C   UNL     1      43.332  27.108  -0.620  1.00  0.00     0.000 C 
BRANCH   4   5
ATOM      5  C   UNL     1      44.663  27.585  -1.233  1.00  0.00     0.000 C 
BRANCH   5   6
ATOM      6  C   UNL     1      44.569  27.920  -2.738  1.00  0.00     0.006 C 
BRANCH   6   7
ATOM      7  C   UNL     1      43.134  28.228  -3.181  1.00  0.00     0.053 C 
BRANCH   7   8
ATOM      8  C   UNL     1      42.854  27.608  -4.514  1.00  0.00     0.041 C 
ATOM      9  O   UNL     1      43.604  26.700  -4.960  1.00  0.00    -0.550 OA
ATOM     10  O   UNL     1      41.793  28.065  -5.285  1.00  0.00    -0.550 OA
ENDBRANCH   7   8
ENDBRANCH   6   7
ENDBRANCH   5   6
ENDBRANCH   4   5
ENDBRANCH   3   4
ENDBRANCH   2   3
ENDBRANCH   1   2
BRANCH   1  11
ATOM     11  C   UNL     1      45.246  26.915   3.062  1.00  0.00     0.000 C 
BRANCH  11  12
ATOM     12  C   UNL     1      45.574  25.818   4.089  1.00  0.00    -0.000 C 
BRANCH  12  13
ATOM     13  C   UNL     1      47.021  25.903   4.600  1.00  0.00    -0.000 C 
BRANCH  13  14
ATOM     14  C   UNL     1      47.103  26.094   6.122  1.00  0.00    -0.000 C 
BRANCH  14  15
ATOM     15  C   UNL     1      45.708  26.293   6.727  1.00  0.00    -0.000 C 
BRANCH  15  16
ATOM     16  C   UNL     1      45.755  26.203   8.260  1.00  0.00    -0.000 C 
BRANCH  16  17
ATOM     17  C   UNL     1      45.403  27.534   8.940  1.00  0.00    -0.003 C 
ATOM     18  C   UNL     1      45.196  28.673   7.942  1.00  0.00     0.004 C 
ENDBRANCH  16  17
ENDBRANCH  15  16
ENDBRANCH  14  15
ENDBRANCH  13  14
ENDBRANCH  12  13
ENDBRANCH  11  12
ENDBRANCH   1  11
TORSDOF 14
ENDMDL
MODEL 5
REMARK VINA RESULT:    -4.099      3.677      8.543
REMARK INTER + INTRA:          -8.686
REMARK INTER:                  -7.720
REMARK INTRA:                  -0.967
REMARK UNBOUND:                -1.233
REMARK SMILES CCCCCCCCCCCCCCCC(=O)[O-]
REMARK SMILES IDX 9 1 10 2 11 3 12 4 13 5 14 6 15 7 16 8 17 9 18 10 8 11 7 12
REMARK SMILES IDX 6 13 5 14 4 15 3 16 2 17 1 18
REMARK H PARENT
REMARK Flexibility Score: inf
ROOT
ATOM      1  C   UNL     1      43.504  26.986   1.120  1.00  0.00     0.000 C 
ENDROOT
BRANCH   1   2
ATOM      2  C   UNL     1      44.699  27.012   2.093  1.00  0.00     0.000 C 
BRANCH   2   3
ATOM      3  C   UNL     1      44.775  25.825   3.074  1.00  0.00     0.000 C 
BRANCH   3   4
ATOM      4  C   UNL     1      45.752  26.015   4.249  1.00  0.00     0.000 C 
BRANCH   4   5
ATOM      5  C   UNL     1      45.955  27.477   4.691  1.00  0.00     0.000 C 
BRANCH   5   6
ATOM      6  C   UNL     1      46.249  27.634   6.199  1.00  0.00     0.006 C 
BRANCH   6   7
ATOM      7  C   UNL     1      45.977  26.347   6.987  1.00  0.00     0.053 C 
BRANCH   7   8
ATOM      8  C   UNL     1      45.475  26.670   8.359  1.00  0.00     0.041 C 
ATOM      9  O   UNL     1      45.440  25.777   9.247  1.00  0.00    -0.550 OA
ATOM     10  O   UNL     1      45.001  27.944   8.644  1.00  0.00    -0.550 OA
ENDBRANCH   7   8
ENDBRANCH   6   7
ENDBRANCH   5   6
ENDBRANCH   4   5
ENDBRANCH   3   4
ENDBRANCH   2   3
ENDBRANCH   1   2
BRANCH   1  11
ATOM     11  C   UNL     1      42.316  27.883   1.516  1.00  0.00     0.000 C 
BRANCH  11  12
ATOM     12  C   UNL     1      42.445  29.316   0.973  1.00  0.00    -0.000 C 
BRANCH  12  13
ATOM     13  C   UNL     1      43.229  29.378  -0.348  1.00  0.00    -0.000 C 
BRANCH  13  14
ATOM     14  C   UNL     1      42.337  29.711  -1.553  1.00  0.00    -0.000 C 
BRANCH  14  15
ATOM     15  C   UNL     1      42.734  28.879  -2.778  1.00  0.00    -0.000 C 
BRANCH  15  16
ATOM     16  C   UNL     1      43.761  27.800  -2.402  1.00  0.00    -0.000 C 
BRANCH  16  17
ATOM     17  C   UNL     1      44.456  27.193  -3.629  1.00  0.00    -0.003 C 
ATOM     18  C   UNL     1      43.468  26.705  -4.688  1.00  0.00     0.004 C 
ENDBRANCH  16  17
ENDBRANCH  15  16
ENDBRANCH  14  15
ENDBRANCH  13  14
ENDBRANCH  12  13
ENDBRANCH  11  12
ENDBRANCH   1  11
TORSDOF 14
ENDMDL
MODEL 6
REMARK VINA RESULT:    -3.992      2.759      5.106
REMARK INTER + INTRA:          -8.491
REMARK INTER:                  -6.867
REMARK INTRA:                  -1.624
REMARK UNBOUND:                -1.233
REMARK SMILES CCCCCCCCCCCCCCCC(=O)[O-]
REMARK SMILES IDX 9 1 10 2 11 3 12 4 13 5 14 6 15 7 16 8 17 9 18 10 8 11 7 12
REMARK SMILES IDX 6 13 5 14 4 15 3 16 2 17 1 18
REMARK H PARENT
REMARK Flexibility Score: inf
ROOT
ATOM      1  C   UNL     1      42.575  29.058  -2.621  1.00  0.00     0.000 C 
ENDROOT
BRANCH   1   2
ATOM      2  C   UNL     1      43.144  29.958  -3.735  1.00  0.00     0.000 C 
BRANCH   2   3
ATOM      3  C   UNL     1      42.706  29.589  -5.167  1.00  0.00     0.000 C 
BRANCH   3   4
ATOM      4  C   UNL     1      42.344  28.107  -5.374  1.00  0.00     0.000 C 
BRANCH   4   5
ATOM      5  C   UNL     1      43.476  27.241  -5.960  1.00  0.00     0.000 C 
BRANCH   5   6
ATOM      6  C   UNL     1      44.487  26.743  -4.903  1.00  0.00     0.006 C 
BRANCH   6   7
ATOM      7  C   UNL     1      45.883  27.348  -5.097  1.00  0.00     0.053 C 
BRANCH   7   8
ATOM      8  C   UNL     1      46.506  27.661  -3.772  1.00  0.00     0.041 C 
ATOM      9  O   UNL     1      46.875  26.729  -3.010  1.00  0.00    -0.550 OA
ATOM     10  O   UNL     1      46.635  28.981  -3.359  1.00  0.00    -0.550 OA
ENDBRANCH   7   8
ENDBRANCH   6   7
ENDBRANCH   5   6
ENDBRANCH   4   5
ENDBRANCH   3   4
ENDBRANCH   2   3
ENDBRANCH   1   2
BRANCH   1  11
ATOM     11  C   UNL     1      43.580  28.655  -1.525  1.00  0.00     0.000 C 
BRANCH  11  12
ATOM     12  C   UNL     1      43.718  27.131  -1.375  1.00  0.00    -0.000 C 
BRANCH  12  13
ATOM     13  C   UNL     1      43.130  26.613  -0.052  1.00  0.00    -0.000 C 
BRANCH  13  14
ATOM     14  C   UNL     1      42.677  27.747   0.880  1.00  0.00    -0.000 C 
BRANCH  14  15
ATOM     15  C   UNL     1      43.565  27.822   2.127  1.00  0.00    -0.000 C 
BRANCH  15  16
ATOM     16  C   UNL     1      44.723  26.815   2.041  1.00  0.00    -0.000 C 
BRANCH  16  17
ATOM     17  C   UNL     1      44.830  25.930   3.290  1.00  0.00    -0.003 C 
ATOM     18  C   UNL     1      46.158  25.178   3.372  1.00  0.00     0.004 C 
ENDBRANCH  16  17
ENDBRANCH  15  16
ENDBRANCH  14  15
ENDBRANCH  13  14
ENDBRANCH  12  13
ENDBRANCH  11  12
ENDBRANCH   1  11
TORSDOF 14
ENDMDL
MODEL 7
REMARK VINA RESULT:    -3.978      2.812      3.967
REMARK INTER + INTRA:          -8.467
REMARK INTER:                  -5.967
REMARK INTRA:                  -2.500
REMARK UNBOUND:                -1.233
REMARK SMILES CCCCCCCCCCCCCCCC(=O)[O-]
REMARK SMILES IDX 9 1 10 2 11 3 12 4 13 5 14 6 15 7 16 8 17 9 18 10 8 11 7 12
REMARK SMILES IDX 6 13 5 14 4 15 3 16 2 17 1 18
REMARK H PARENT
REMARK Flexibility Score: inf
ROOT
ATOM      1  C   UNL     1      43.324  26.653   0.128  1.00  0.00     0.000 C 
ENDROOT
BRANCH   1   2
ATOM      2  C   UNL     1      43.842  26.932  -1.297  1.00  0.00     0.000 C 
BRANCH   2   3
ATOM      3  C   UNL     1      44.864  28.081  -1.413  1.00  0.00     0.000 C 
BRANCH   3   4
ATOM      4  C   UNL     1      44.295  29.404  -1.957  1.00  0.00     0.000 C 
BRANCH   4   5
ATOM      5  C   UNL     1      42.939  29.277  -2.678  1.00  0.00     0.000 C 
BRANCH   5   6
ATOM      6  C   UNL     1      42.992  29.659  -4.173  1.00  0.00     0.006 C 
BRANCH   6   7
ATOM      7  C   UNL     1      42.631  28.486  -5.092  1.00  0.00     0.053 C 
BRANCH   7   8
ATOM      8  C   UNL     1      43.664  27.408  -4.994  1.00  0.00     0.041 C 
ATOM      9  O   UNL     1      44.861  27.647  -5.307  1.00  0.00    -0.550 OA
ATOM     10  O   UNL     1      43.298  26.126  -4.603  1.00  0.00    -0.550 OA
ENDBRANCH   7   8
ENDBRANCH   6   7
ENDBRANCH   5   6
ENDBRANCH   4   5
ENDBRANCH   3   4
ENDBRANCH   2   3
ENDBRANCH   1   2
BRANCH   1  11
ATOM     11  C   UNL     1      42.114  27.499   0.563  1.00  0.00     0.000 C 
BRANCH  11  12
ATOM     12  C   UNL     1      42.355  28.246   1.886  1.00  0.00    -0.000 C 
BRANCH  12  13
ATOM     13  C   UNL     1      42.923  29.658   1.671  1.00  0.00    -0.000 C 
BRANCH  13  14
ATOM     14  C   UNL     1      44.439  29.730   1.907  1.00  0.00    -0.000 C 
BRANCH  14  15
ATOM     15  C   UNL     1      44.907  28.594   2.825  1.00  0.00    -0.000 C 
BRANCH  15  16
ATOM     16  C   UNL     1      46.172  27.922   2.268  1.00  0.00    -0.000 C 
BRANCH  16  17
ATOM     17  C   UNL     1      46.132  26.393   2.392  1.00  0.00    -0.003 C 
ATOM     18  C   UNL     1      44.992  25.900   3.284  1.00  0.00     0.004 C 
ENDBRANCH  16  17
ENDBRANCH  15  16
ENDBRANCH  14  15
ENDBRANCH  13  14
ENDBRANCH  12  13
ENDBRANCH  11  12
ENDBRANCH   1  11
TORSDOF 14
ENDMDL
MODEL 8
REMARK VINA RESULT:    -3.971      1.495      3.869
REMARK INTER + INTRA:          -8.453
REMARK INTER:                  -6.826
REMARK INTRA:                  -1.628
REMARK UNBOUND:                -1.233
REMARK SMILES CCCCCCCCCCCCCCCC(=O)[O-]
REMARK SMILES IDX 9 1 10 2 11 3 12 4 13 5 14 6 15 7 16 8 17 9 18 10 8 11 7 12
REMARK SMILES IDX 6 13 5 14 4 15 3 16 2 17 1 18
REMARK H PARENT
REMARK Flexibility Score: inf
ROOT
ATOM      1  C   UNL     1      45.979  26.267   5.607  1.00  0.00     0.000 C 
ENDROOT
BRANCH   1   2
ATOM      2  C   UNL     1      47.012  26.061   4.482  1.00  0.00     0.000 C 
BRANCH   2   3
ATOM      3  C   UNL     1      46.442  26.103   3.049  1.00  0.00     0.000 C 
BRANCH   3   4
ATOM      4  C   UNL     1      44.917  26.295   2.963  1.00  0.00     0.000 C 
BRANCH   4   5
ATOM      5  C   UNL     1      44.466  27.688   2.483  1.00  0.00     0.000 C 
BRANCH   5   6
ATOM      6  C   UNL     1      43.081  27.691   1.800  1.00  0.00     0.006 C 
BRANCH   6   7
ATOM      7  C   UNL     1      42.998  26.695   0.638  1.00  0.00     0.053 C 
BRANCH   7   8
ATOM      8  C   UNL     1      43.678  27.247  -0.575  1.00  0.00     0.041 C 
ATOM      9  O   UNL     1      43.144  28.182  -1.230  1.00  0.00    -0.550 OA
ATOM     10  O   UNL     1      44.878  26.700  -1.010  1.00  0.00    -0.550 OA
ENDBRANCH   7   8
ENDBRANCH   6   7
ENDBRANCH   5   6
ENDBRANCH   4   5
ENDBRANCH   3   4
ENDBRANCH   2   3
ENDBRANCH   1   2
BRANCH   1  11
ATOM     11  C   UNL     1      46.503  26.013   7.033  1.00  0.00     0.000 C 
BRANCH  11  12
ATOM     12  C   UNL     1      45.391  26.068   8.094  1.00  0.00    -0.000 C 
BRANCH  12  13
ATOM     13  C   UNL     1      45.581  27.226   9.087  1.00  0.00    -0.000 C 
BRANCH  13  14
ATOM     14  C   UNL     1      45.137  28.580   8.512  1.00  0.00    -0.000 C 
BRANCH  14  15
ATOM     15  C   UNL     1      46.263  29.616   8.614  1.00  0.00    -0.000 C 
BRANCH  15  16
ATOM     16  C   UNL     1      46.670  30.125   7.222  1.00  0.00    -0.000 C 
BRANCH  16  17
ATOM     17  C   UNL     1      45.629  29.793   6.144  1.00  0.00    -0.003 C 
ATOM     18  C   UNL     1      46.164  29.982   4.725  1.00  0.00     0.004 C 
ENDBRANCH  16  17
ENDBRANCH  15  16
ENDBRANCH  14  15
ENDBRANCH  13  14
ENDBRANCH  12  13
ENDBRANCH  11  12
ENDBRANCH   1  11
TORSDOF 14
ENDMDL
MODEL 9
REMARK VINA RESULT:    -3.905      1.185      2.364
REMARK INTER + INTRA:          -8.334
REMARK INTER:                  -7.035
REMARK INTRA:                  -1.299
REMARK UNBOUND:                -1.233
REMARK SMILES CCCCCCCCCCCCCCCC(=O)[O-]
REMARK SMILES IDX 9 1 10 2 11 3 12 4 13 5 14 6 15 7 16 8 17 9 18 10 8 11 7 12
REMARK SMILES IDX 6 13 5 14 4 15 3 16 2 17 1 18
REMARK H PARENT
REMARK Flexibility Score: inf
ROOT
ATOM      1  C   UNL     1      42.226  28.003   1.488  1.00  0.00     0.000 C 
ENDROOT
BRANCH   1   2
ATOM      2  C   UNL     1      42.671  29.460   1.253  1.00  0.00     0.000 C 
BRANCH   2   3
ATOM      3  C   UNL     1      42.247  30.067  -0.100  1.00  0.00     0.000 C 
BRANCH   3   4
ATOM      4  C   UNL     1      43.198  29.766  -1.273  1.00  0.00     0.000 C 
BRANCH   4   5
ATOM      5  C   UNL     1      42.585  28.913  -2.400  1.00  0.00     0.000 C 
BRANCH   5   6
ATOM      6  C   UNL     1      43.633  28.166  -3.253  1.00  0.00     0.006 C 
BRANCH   6   7
ATOM      7  C   UNL     1      44.544  27.266  -2.409  1.00  0.00     0.053 C 
BRANCH   7   8
ATOM      8  C   UNL     1      45.980  27.625  -2.625  1.00  0.00     0.041 C 
ATOM      9  O   UNL     1      46.326  28.834  -2.699  1.00  0.00    -0.550 OA
ATOM     10  O   UNL     1      46.930  26.626  -2.792  1.00  0.00    -0.550 OA
ENDBRANCH   7   8
ENDBRANCH   6   7
ENDBRANCH   5   6
ENDBRANCH   4   5
ENDBRANCH   3   4
ENDBRANCH   2   3
ENDBRANCH   1   2
BRANCH   1  11
ATOM     11  C   UNL     1      43.184  26.928   0.942  1.00  0.00     0.000 C 
BRANCH  11  12
ATOM     12  C   UNL     1      44.646  27.168   1.356  1.00  0.00    -0.000 C 
BRANCH  12  13
ATOM     13  C   UNL     1      44.848  27.086   2.878  1.00  0.00    -0.000 C 
BRANCH  13  14
ATOM     14  C   UNL     1      45.300  25.693   3.342  1.00  0.00    -0.000 C 
BRANCH  14  15
ATOM     15  C   UNL     1      45.647  25.697   4.836  1.00  0.00    -0.000 C 
BRANCH  15  16
ATOM     16  C   UNL     1      46.398  26.981   5.223  1.00  0.00    -0.000 C 
BRANCH  16  17
ATOM     17  C   UNL     1      45.991  27.507   6.607  1.00  0.00    -0.003 C 
ATOM     18  C   UNL     1      45.707  26.386   7.607  1.00  0.00     0.004 C 
ENDBRANCH  16  17
ENDBRANCH  15  16
ENDBRANCH  14  15
ENDBRANCH  13  14
ENDBRANCH  12  13
ENDBRANCH  11  12
ENDBRANCH   1  11
TORSDOF 14
ENDMDL
