MODEL 1
REMARK VINA RESULT:    -0.490      0.000      0.000
REMARK INTER + INTRA:          -2.694
REMARK INTER:                  -1.293
REMARK INTRA:                  -1.401
REMARK UNBOUND:                -1.401
REMARK SMILES CCCCCCCCCCCCCCCCCCCCCCCCCCCCCC(=O)[O-]
REMARK SMILES IDX 16 1 17 2 18 3 19 4 20 5 21 6 22 7 23 8 24 9 25 10 26 11
REMARK SMILES IDX 27 12 28 13 29 14 30 15 31 16 32 17 15 18 14 19 13 20 12 21
REMARK SMILES IDX 11 22 10 23 9 24 8 25 7 26 6 27 5 28 4 29 3 30 2 31 1 32
REMARK H PARENT
REMARK Flexibility Score: inf
ROOT
ATOM      1  C   UNL     1      28.603  -2.805  46.227  1.00  0.00     0.000 C 
ENDROOT
BRANCH   1   2
ATOM      2  C   UNL     1      29.139  -2.837  44.788  1.00  0.00     0.000 C 
BRANCH   2   3
ATOM      3  C   UNL     1      29.696  -1.482  44.327  1.00  0.00     0.000 C 
BRANCH   3   4
ATOM      4  C   UNL     1      29.513  -1.252  42.817  1.00  0.00     0.000 C 
BRANCH   4   5
ATOM      5  C   UNL     1      30.805  -0.794  42.116  1.00  0.00     0.000 C 
BRANCH   5   6
ATOM      6  C   UNL     1      32.055  -0.726  43.017  1.00  0.00     0.000 C 
BRANCH   6   7
ATOM      7  C   UNL     1      33.109   0.318  42.600  1.00  0.00     0.000 C 
BRANCH   7   8
ATOM      8  C   UNL     1      34.392  -0.272  41.981  1.00  0.00     0.000 C 
BRANCH   8   9
ATOM      9  C   UNL     1      35.653  -0.154  42.859  1.00  0.00     0.000 C 
BRANCH   9  10
ATOM     10  C   UNL     1      36.913  -0.832  42.292  1.00  0.00     0.000 C 
BRANCH  10  11
ATOM     11  C   UNL     1      37.730  -1.567  43.369  1.00  0.00     0.000 C 
BRANCH  11  12
ATOM     12  C   UNL     1      38.522  -2.757  42.805  1.00  0.00     0.000 C 
BRANCH  12  13
ATOM     13  C   UNL     1      37.756  -4.084  42.913  1.00  0.00     0.006 C 
BRANCH  13  14
ATOM     14  C   UNL     1      36.709  -4.024  44.031  1.00  0.00     0.053 C 
BRANCH  14  15
ATOM     15  C   UNL     1      35.329  -4.137  43.463  1.00  0.00     0.041 C 
ATOM     16  O   UNL     1      35.080  -3.697  42.310  1.00  0.00    -0.550 OA
ATOM     17  O   UNL     1      34.310  -4.689  44.228  1.00  0.00    -0.550 OA
ENDBRANCH  14  15
ENDBRANCH  13  14
ENDBRANCH  12  13
ENDBRANCH  11  12
ENDBRANCH  10  11
ENDBRANCH   9  10
ENDBRANCH   8   9
ENDBRANCH   7   8
ENDBRANCH   6   7
ENDBRANCH   5   6
ENDBRANCH   4   5
ENDBRANCH   3   4
ENDBRANCH   2   3
ENDBRANCH   1   2
BRANCH   1  18
ATOM     18  C   UNL     1      28.024  -4.173  46.625  1.00  0.00     0.000 C 
BRANCH  18  19
ATOM     19  C   UNL     1      26.871  -4.065  47.638  1.00  0.00     0.000 C 
BRANCH  19  20
ATOM     20  C   UNL     1      25.680  -3.202  47.184  1.00  0.00     0.000 C 
BRANCH  20  21
ATOM     21  C   UNL     1      24.316  -3.795  47.582  1.00  0.00     0.000 C 
BRANCH  21  22
ATOM     22  C   UNL     1      23.290  -3.741  46.432  1.00  0.00     0.000 C 
BRANCH  22  23
ATOM     23  C   UNL     1      21.832  -3.965  46.881  1.00  0.00     0.000 C 
BRANCH  23  24
ATOM     24  C   UNL     1      20.778  -3.472  45.864  1.00  0.00    -0.000 C 
BRANCH  24  25
ATOM     25  C   UNL     1      20.954  -4.072  44.452  1.00  0.00    -0.000 C 
BRANCH  25  26
ATOM     26  C   UNL     1      19.637  -4.273  43.672  1.00  0.00    -0.000 C 
BRANCH  26  27
ATOM     27  C   UNL     1      19.756  -5.092  42.370  1.00  0.00    -0.000 C 
BRANCH  27  28
ATOM     28  C   UNL     1      19.265  -6.552  42.462  1.00  0.00    -0.000 C 
BRANCH  28  29
ATOM     29  C   UNL     1      20.388  -7.606  42.490  1.00  0.00    -0.000 C 
BRANCH  29  30
ATOM     30  C   UNL     1      20.241  -8.583  43.670  1.00  0.00    -0.000 C 
BRANCH  30  31
ATOM     31  C   UNL     1      20.860  -9.956  43.373  1.00  0.00    -0.003 C 
ATOM     32  C   UNL     1      22.028 -10.280  44.302  1.00  0.00     0.004 C 
ENDBRANCH  30  31
ENDBRANCH  29  30
ENDBRANCH  28  29
ENDBRANCH  27  28
ENDBRANCH  26  27
ENDBRANCH  25  26
ENDBRANCH  24  25
ENDBRANCH  23  24
ENDBRANCH  22  23
ENDBRANCH  21  22
ENDBRANCH  20  21
ENDBRANCH  19  20
ENDBRANCH  18  19
ENDBRANCH   1  18
TORSDOF 28
ENDMDL
MODEL 2
REMARK VINA RESULT:    -0.443      3.702     13.521
REMARK INTER + INTRA:          -2.570
REMARK INTER:                  -0.926
REMARK INTRA:                  -1.644
REMARK UNBOUND:                -1.401
REMARK SMILES CCCCCCCCCCCCCCCCCCCCCCCCCCCCCC(=O)[O-]
REMARK SMILES IDX 16 1 17 2 18 3 19 4 20 5 21 6 22 7 23 8 24 9 25 10 26 11
REMARK SMILES IDX 27 12 28 13 29 14 30 15 31 16 32 17 15 18 14 19 13 20 12 21
REMARK SMILES IDX 11 22 10 23 9 24 8 25 7 26 6 27 5 28 4 29 3 30 2 31 1 32
REMARK H PARENT
REMARK Flexibility Score: inf
ROOT
ATOM      1  C   UNL     1      26.783  -4.239  47.446  1.00  0.00     0.000 C 
ENDROOT
BRANCH   1   2
ATOM      2  C   UNL     1      25.602  -3.260  47.526  1.00  0.00     0.000 C 
BRANCH   2   3
ATOM      3  C   UNL     1      24.385  -3.723  46.711  1.00  0.00     0.000 C 
BRANCH   3   4
ATOM      4  C   UNL     1      23.095  -3.759  47.547  1.00  0.00     0.000 C 
BRANCH   4   5
ATOM      5  C   UNL     1      21.873  -4.255  46.751  1.00  0.00     0.000 C 
BRANCH   5   6
ATOM      6  C   UNL     1      21.100  -3.162  45.984  1.00  0.00     0.000 C 
BRANCH   6   7
ATOM      7  C   UNL     1      20.217  -3.672  44.829  1.00  0.00     0.000 C 
BRANCH   7   8
ATOM      8  C   UNL     1      20.991  -4.118  43.573  1.00  0.00     0.000 C 
BRANCH   8   9
ATOM      9  C   UNL     1      20.132  -4.280  42.302  1.00  0.00     0.000 C 
BRANCH   9  10
ATOM     10  C   UNL     1      19.709  -5.723  41.976  1.00  0.00     0.000 C 
BRANCH  10  11
ATOM     11  C   UNL     1      20.346  -6.758  42.920  1.00  0.00     0.000 C 
BRANCH  11  12
ATOM     12  C   UNL     1      19.933  -8.200  42.586  1.00  0.00     0.000 C 
BRANCH  12  13
ATOM     13  C   UNL     1      20.905  -9.243  43.160  1.00  0.00     0.006 C 
BRANCH  13  14
ATOM     14  C   UNL     1      20.201 -10.150  44.175  1.00  0.00     0.053 C 
BRANCH  14  15
ATOM     15  C   UNL     1      21.201 -10.800  45.078  1.00  0.00     0.041 C 
ATOM     16  O   UNL     1      22.356 -11.073  44.654  1.00  0.00    -0.550 OA
ATOM     17  O   UNL     1      20.841 -11.145  46.374  1.00  0.00    -0.550 OA
ENDBRANCH  14  15
ENDBRANCH  13  14
ENDBRANCH  12  13
ENDBRANCH  11  12
ENDBRANCH  10  11
ENDBRANCH   9  10
ENDBRANCH   8   9
ENDBRANCH   7   8
ENDBRANCH   6   7
ENDBRANCH   5   6
ENDBRANCH   4   5
ENDBRANCH   3   4
ENDBRANCH   2   3
ENDBRANCH   1   2
BRANCH   1  18
ATOM     18  C   UNL     1      28.067  -3.510  47.018  1.00  0.00     0.000 C 
BRANCH  18  19
ATOM     19  C   UNL     1      27.874  -2.635  45.767  1.00  0.00     0.000 C 
BRANCH  19  20
ATOM     20  C   UNL     1      28.349  -1.177  45.908  1.00  0.00     0.000 C 
BRANCH  20  21
ATOM     21  C   UNL     1      29.875  -1.051  46.061  1.00  0.00     0.000 C 
BRANCH  21  22
ATOM     22  C   UNL     1      30.644  -2.028  45.148  1.00  0.00     0.000 C 
BRANCH  22  23
ATOM     23  C   UNL     1      30.930  -1.477  43.737  1.00  0.00     0.000 C 
BRANCH  23  24
ATOM     24  C   UNL     1      32.139  -0.518  43.669  1.00  0.00    -0.000 C 
BRANCH  24  25
ATOM     25  C   UNL     1      32.721  -0.357  42.249  1.00  0.00    -0.000 C 
BRANCH  25  26
ATOM     26  C   UNL     1      34.181  -0.835  42.095  1.00  0.00    -0.000 C 
BRANCH  26  27
ATOM     27  C   UNL     1      35.250   0.090  42.714  1.00  0.00    -0.000 C 
BRANCH  27  28
ATOM     28  C   UNL     1      36.558  -0.608  43.141  1.00  0.00    -0.000 C 
BRANCH  28  29
ATOM     29  C   UNL     1      36.765  -2.010  42.535  1.00  0.00    -0.000 C 
BRANCH  29  30
ATOM     30  C   UNL     1      37.593  -2.926  43.454  1.00  0.00    -0.000 C 
BRANCH  30  31
ATOM     31  C   UNL     1      36.827  -4.192  43.862  1.00  0.00    -0.003 C 
ATOM     32  C   UNL     1      35.324  -4.067  43.613  1.00  0.00     0.004 C 
ENDBRANCH  30  31
ENDBRANCH  29  30
ENDBRANCH  28  29
ENDBRANCH  27  28
ENDBRANCH  26  27
ENDBRANCH  25  26
ENDBRANCH  24  25
ENDBRANCH  23  24
ENDBRANCH  22  23
ENDBRANCH  21  22
ENDBRANCH  20  21
ENDBRANCH  19  20
ENDBRANCH  18  19
ENDBRANCH   1  18
TORSDOF 28
ENDMDL
MODEL 3
REMARK VINA RESULT:    -0.247      3.689     13.420
REMARK INTER + INTRA:          -2.052
REMARK INTER:                  -0.443
REMARK INTRA:                  -1.609
REMARK UNBOUND:                -1.401
REMARK SMILES CCCCCCCCCCCCCCCCCCCCCCCCCCCCCC(=O)[O-]
REMARK SMILES IDX 16 1 17 2 18 3 19 4 20 5 21 6 22 7 23 8 24 9 25 10 26 11
REMARK SMILES IDX 27 12 28 13 29 14 30 15 31 16 32 17 15 18 14 19 13 20 12 21
REMARK SMILES IDX 11 22 10 23 9 24 8 25 7 26 6 27 5 28 4 29 3 30 2 31 1 32
REMARK H PARENT
REMARK Flexibility Score: inf
ROOT
ATOM      1  C   UNL     1      25.440  -3.143  47.158  1.00  0.00     0.000 C 
ENDROOT
BRANCH   1   2
ATOM      2  C   UNL     1      24.270  -4.138  47.172  1.00  0.00     0.000 C 
BRANCH   2   3
ATOM      3  C   UNL     1      22.898  -3.447  47.181  1.00  0.00     0.000 C 
BRANCH   3   4
ATOM      4  C   UNL     1      21.824  -4.259  46.438  1.00  0.00     0.000 C 
BRANCH   4   5
ATOM      5  C   UNL     1      20.726  -3.379  45.814  1.00  0.00     0.000 C 
BRANCH   5   6
ATOM      6  C   UNL     1      20.166  -3.882  44.467  1.00  0.00     0.000 C 
BRANCH   6   7
ATOM      7  C   UNL     1      21.202  -4.019  43.335  1.00  0.00     0.000 C 
BRANCH   7   8
ATOM      8  C   UNL     1      21.210  -5.390  42.629  1.00  0.00     0.000 C 
BRANCH   8   9
ATOM      9  C   UNL     1      19.957  -6.254  42.872  1.00  0.00     0.000 C 
BRANCH   9  10
ATOM     10  C   UNL     1      19.981  -7.644  42.209  1.00  0.00     0.000 C 
BRANCH  10  11
ATOM     11  C   UNL     1      21.265  -8.431  42.524  1.00  0.00     0.000 C 
BRANCH  11  12
ATOM     12  C   UNL     1      21.256  -9.045  43.933  1.00  0.00     0.000 C 
BRANCH  12  13
ATOM     13  C   UNL     1      20.345 -10.277  44.037  1.00  0.00     0.006 C 
BRANCH  13  14
ATOM     14  C   UNL     1      21.094 -11.550  43.628  1.00  0.00     0.053 C 
BRANCH  14  15
ATOM     15  C   UNL     1      22.171 -11.864  44.619  1.00  0.00     0.041 C 
ATOM     16  O   UNL     1      23.261 -12.364  44.234  1.00  0.00    -0.550 OA
ATOM     17  O   UNL     1      21.950 -11.647  45.973  1.00  0.00    -0.550 OA
ENDBRANCH  14  15
ENDBRANCH  13  14
ENDBRANCH  12  13
ENDBRANCH  11  12
ENDBRANCH  10  11
ENDBRANCH   9  10
ENDBRANCH   8   9
ENDBRANCH   7   8
ENDBRANCH   6   7
ENDBRANCH   5   6
ENDBRANCH   4   5
ENDBRANCH   3   4
ENDBRANCH   2   3
ENDBRANCH   1   2
BRANCH   1  18
ATOM     18  C   UNL     1      26.748  -3.833  47.578  1.00  0.00     0.000 C 
BRANCH  18  19
ATOM     19  C   UNL     1      27.966  -3.357  46.766  1.00  0.00     0.000 C 
BRANCH  19  20
ATOM     20  C   UNL     1      27.730  -2.100  45.910  1.00  0.00     0.000 C 
BRANCH  20  21
ATOM     21  C   UNL     1      28.953  -1.167  45.855  1.00  0.00     0.000 C 
BRANCH  21  22
ATOM     22  C   UNL     1      30.288  -1.936  45.938  1.00  0.00     0.000 C 
BRANCH  22  23
ATOM     23  C   UNL     1      31.399  -1.363  45.036  1.00  0.00     0.000 C 
BRANCH  23  24
ATOM     24  C   UNL     1      30.978  -1.173  43.562  1.00  0.00    -0.000 C 
BRANCH  24  25
ATOM     25  C   UNL     1      32.149  -0.809  42.626  1.00  0.00    -0.000 C 
BRANCH  25  26
ATOM     26  C   UNL     1      33.055   0.329  43.144  1.00  0.00    -0.000 C 
BRANCH  26  27
ATOM     27  C   UNL     1      34.376   0.529  42.373  1.00  0.00    -0.000 C 
BRANCH  27  28
ATOM     28  C   UNL     1      35.603  -0.193  42.968  1.00  0.00    -0.000 C 
BRANCH  28  29
ATOM     29  C   UNL     1      35.760  -1.662  42.528  1.00  0.00    -0.000 C 
BRANCH  29  30
ATOM     30  C   UNL     1      36.631  -2.473  43.503  1.00  0.00    -0.000 C 
BRANCH  30  31
ATOM     31  C   UNL     1      36.837  -3.921  43.037  1.00  0.00    -0.003 C 
ATOM     32  C   UNL     1      38.152  -4.512  43.543  1.00  0.00     0.004 C 
ENDBRANCH  30  31
ENDBRANCH  29  30
ENDBRANCH  28  29
ENDBRANCH  27  28
ENDBRANCH  26  27
ENDBRANCH  25  26
ENDBRANCH  24  25
ENDBRANCH  23  24
ENDBRANCH  22  23
ENDBRANCH  21  22
ENDBRANCH  20  21
ENDBRANCH  19  20
ENDBRANCH  18  19
ENDBRANCH   1  18
TORSDOF 28
ENDMDL
MODEL 4
REMARK VINA RESULT:    -0.157      4.523     13.698
REMARK INTER + INTRA:          -1.814
REMARK INTER:                  -0.415
REMARK INTRA:                  -1.399
REMARK UNBOUND:                -1.401
REMARK SMILES CCCCCCCCCCCCCCCCCCCCCCCCCCCCCC(=O)[O-]
REMARK SMILES IDX 16 1 17 2 18 3 19 4 20 5 21 6 22 7 23 8 24 9 25 10 26 11
REMARK SMILES IDX 27 12 28 13 29 14 30 15 31 16 32 17 15 18 14 19 13 20 12 21
REMARK SMILES IDX 11 22 10 23 9 24 8 25 7 26 6 27 5 28 4 29 3 30 2 31 1 32
REMARK H PARENT
REMARK Flexibility Score: inf
ROOT
ATOM      1  C   UNL     1      23.917  -3.681  46.629  1.00  0.00     0.000 C 
ENDROOT
BRANCH   1   2
ATOM      2  C   UNL     1      22.476  -3.738  47.156  1.00  0.00     0.000 C 
BRANCH   2   3
ATOM      3  C   UNL     1      21.501  -4.390  46.164  1.00  0.00     0.000 C 
BRANCH   3   4
ATOM      4  C   UNL     1      20.687  -3.355  45.370  1.00  0.00     0.000 C 
BRANCH   4   5
ATOM      5  C   UNL     1      20.687  -3.622  43.854  1.00  0.00     0.000 C 
BRANCH   5   6
ATOM      6  C   UNL     1      20.198  -5.023  43.432  1.00  0.00     0.000 C 
BRANCH   6   7
ATOM      7  C   UNL     1      21.272  -5.929  42.798  1.00  0.00     0.000 C 
BRANCH   7   8
ATOM      8  C   UNL     1      20.717  -7.112  41.979  1.00  0.00     0.000 C 
BRANCH   8   9
ATOM      9  C   UNL     1      19.505  -7.828  42.609  1.00  0.00     0.000 C 
BRANCH   9  10
ATOM     10  C   UNL     1      19.788  -9.241  43.150  1.00  0.00     0.000 C 
BRANCH  10  11
ATOM     11  C   UNL     1      20.829  -9.247  44.283  1.00  0.00     0.000 C 
BRANCH  11  12
ATOM     12  C   UNL     1      21.745 -10.480  44.242  1.00  0.00     0.000 C 
BRANCH  12  13
ATOM     13  C   UNL     1      20.981 -11.794  44.467  1.00  0.00     0.006 C 
BRANCH  13  14
ATOM     14  C   UNL     1      21.684 -12.665  45.514  1.00  0.00     0.053 C 
BRANCH  14  15
ATOM     15  C   UNL     1      20.684 -13.480  46.273  1.00  0.00     0.041 C 
ATOM     16  O   UNL     1      19.982 -12.946  47.173  1.00  0.00    -0.550 OA
ATOM     17  O   UNL     1      20.561 -14.839  46.015  1.00  0.00    -0.550 OA
ENDBRANCH  14  15
ENDBRANCH  13  14
ENDBRANCH  12  13
ENDBRANCH  11  12
ENDBRANCH  10  11
ENDBRANCH   9  10
ENDBRANCH   8   9
ENDBRANCH   7   8
ENDBRANCH   6   7
ENDBRANCH   5   6
ENDBRANCH   4   5
ENDBRANCH   3   4
ENDBRANCH   2   3
ENDBRANCH   1   2
BRANCH   1  18
ATOM     18  C   UNL     1      24.926  -3.848  47.778  1.00  0.00     0.000 C 
BRANCH  18  19
ATOM     19  C   UNL     1      26.355  -3.435  47.386  1.00  0.00     0.000 C 
BRANCH  19  20
ATOM     20  C   UNL     1      26.463  -2.122  46.590  1.00  0.00     0.000 C 
BRANCH  20  21
ATOM     21  C   UNL     1      27.817  -1.953  45.880  1.00  0.00     0.000 C 
BRANCH  21  22
ATOM     22  C   UNL     1      28.808  -3.085  46.220  1.00  0.00     0.000 C 
BRANCH  22  23
ATOM     23  C   UNL     1      29.818  -3.396  45.097  1.00  0.00     0.000 C 
BRANCH  23  24
ATOM     24  C   UNL     1      31.095  -2.528  45.142  1.00  0.00    -0.000 C 
BRANCH  24  25
ATOM     25  C   UNL     1      31.059  -1.324  44.177  1.00  0.00    -0.000 C 
BRANCH  25  26
ATOM     26  C   UNL     1      32.265  -1.235  43.216  1.00  0.00    -0.000 C 
BRANCH  26  27
ATOM     27  C   UNL     1      32.898   0.165  43.076  1.00  0.00    -0.000 C 
BRANCH  27  28
ATOM     28  C   UNL     1      34.233   0.209  42.303  1.00  0.00    -0.000 C 
BRANCH  28  29
ATOM     29  C   UNL     1      35.424  -0.430  43.043  1.00  0.00    -0.000 C 
BRANCH  29  30
ATOM     30  C   UNL     1      35.682  -1.878  42.591  1.00  0.00    -0.000 C 
BRANCH  30  31
ATOM     31  C   UNL     1      36.892  -2.505  43.298  1.00  0.00    -0.003 C 
ATOM     32  C   UNL     1      36.623  -3.940  43.746  1.00  0.00     0.004 C 
ENDBRANCH  30  31
ENDBRANCH  29  30
ENDBRANCH  28  29
ENDBRANCH  27  28
ENDBRANCH  26  27
ENDBRANCH  25  26
ENDBRANCH  24  25
ENDBRANCH  23  24
ENDBRANCH  22  23
ENDBRANCH  21  22
ENDBRANCH  20  21
ENDBRANCH  19  20
ENDBRANCH  18  19
ENDBRANCH   1  18
TORSDOF 28
ENDMDL
MODEL 5
REMARK VINA RESULT:     0.023      1.280      3.398
REMARK INTER + INTRA:          -1.341
REMARK INTER:                  -0.126
REMARK INTRA:                  -1.215
REMARK UNBOUND:                -1.401
REMARK SMILES CCCCCCCCCCCCCCCCCCCCCCCCCCCCCC(=O)[O-]
REMARK SMILES IDX 16 1 17 2 18 3 19 4 20 5 21 6 22 7 23 8 24 9 25 10 26 11
REMARK SMILES IDX 27 12 28 13 29 14 30 15 31 16 32 17 15 18 14 19 13 20 12 21
REMARK SMILES IDX 11 22 10 23 9 24 8 25 7 26 6 27 5 28 4 29 3 30 2 31 1 32
REMARK H PARENT
REMARK Flexibility Score: inf
ROOT
ATOM      1  C   UNL     1      25.669  -3.877  47.026  1.00  0.00     0.000 C 
ENDROOT
BRANCH   1   2
ATOM      2  C   UNL     1      26.424  -2.543  47.117  1.00  0.00     0.000 C 
BRANCH   2   3
ATOM      3  C   UNL     1      27.860  -2.630  46.579  1.00  0.00     0.000 C 
BRANCH   3   4
ATOM      4  C   UNL     1      28.245  -1.411  45.724  1.00  0.00     0.000 C 
BRANCH   4   5
ATOM      5  C   UNL     1      28.444  -1.756  44.237  1.00  0.00     0.000 C 
BRANCH   5   6
ATOM      6  C   UNL     1      29.888  -1.605  43.714  1.00  0.00     0.000 C 
BRANCH   6   7
ATOM      7  C   UNL     1      30.011  -1.213  42.229  1.00  0.00     0.000 C 
BRANCH   7   8
ATOM      8  C   UNL     1      30.916   0.004  41.955  1.00  0.00     0.000 C 
BRANCH   8   9
ATOM      9  C   UNL     1      32.423  -0.310  41.877  1.00  0.00     0.000 C 
BRANCH   9  10
ATOM     10  C   UNL     1      33.312   0.503  42.835  1.00  0.00     0.000 C 
BRANCH  10  11
ATOM     11  C   UNL     1      34.683   0.848  42.227  1.00  0.00     0.000 C 
BRANCH  11  12
ATOM     12  C   UNL     1      35.827   0.018  42.831  1.00  0.00     0.000 C 
BRANCH  12  13
ATOM     13  C   UNL     1      35.732  -1.472  42.470  1.00  0.00     0.006 C 
BRANCH  13  14
ATOM     14  C   UNL     1      36.992  -2.225  42.911  1.00  0.00     0.053 C 
BRANCH  14  15
ATOM     15  C   UNL     1      36.638  -3.592  43.407  1.00  0.00     0.041 C 
ATOM     16  O   UNL     1      37.457  -4.244  44.108  1.00  0.00    -0.550 OA
ATOM     17  O   UNL     1      35.421  -4.162  43.056  1.00  0.00    -0.550 OA
ENDBRANCH  14  15
ENDBRANCH  13  14
ENDBRANCH  12  13
ENDBRANCH  11  12
ENDBRANCH  10  11
ENDBRANCH   9  10
ENDBRANCH   8   9
ENDBRANCH   7   8
ENDBRANCH   6   7
ENDBRANCH   5   6
ENDBRANCH   4   5
ENDBRANCH   3   4
ENDBRANCH   2   3
ENDBRANCH   1   2
BRANCH   1  18
ATOM     18  C   UNL     1      24.220  -3.719  47.517  1.00  0.00     0.000 C 
BRANCH  18  19
ATOM     19  C   UNL     1      23.210  -3.563  46.367  1.00  0.00     0.000 C 
BRANCH  19  20
ATOM     20  C   UNL     1      21.786  -4.060  46.675  1.00  0.00     0.000 C 
BRANCH  20  21
ATOM     21  C   UNL     1      20.722  -3.467  45.735  1.00  0.00     0.000 C 
BRANCH  21  22
ATOM     22  C   UNL     1      20.499  -4.330  44.476  1.00  0.00     0.000 C 
BRANCH  22  23
ATOM     23  C   UNL     1      21.555  -4.117  43.373  1.00  0.00     0.000 C 
BRANCH  23  24
ATOM     24  C   UNL     1      21.702  -5.311  42.403  1.00  0.00    -0.000 C 
BRANCH  24  25
ATOM     25  C   UNL     1      20.354  -5.924  41.970  1.00  0.00    -0.000 C 
BRANCH  25  26
ATOM     26  C   UNL     1      20.250  -7.452  42.169  1.00  0.00    -0.000 C 
BRANCH  26  27
ATOM     27  C   UNL     1      21.046  -8.020  43.363  1.00  0.00    -0.000 C 
BRANCH  27  28
ATOM     28  C   UNL     1      20.936  -9.546  43.562  1.00  0.00    -0.000 C 
BRANCH  28  29
ATOM     29  C   UNL     1      21.991 -10.147  44.511  1.00  0.00    -0.000 C 
BRANCH  29  30
ATOM     30  C   UNL     1      21.699 -11.619  44.851  1.00  0.00    -0.000 C 
BRANCH  30  31
ATOM     31  C   UNL     1      22.332 -12.589  43.844  1.00  0.00    -0.003 C 
ATOM     32  C   UNL     1      21.285 -13.351  43.034  1.00  0.00     0.004 C 
ENDBRANCH  30  31
ENDBRANCH  29  30
ENDBRANCH  28  29
ENDBRANCH  27  28
ENDBRANCH  26  27
ENDBRANCH  25  26
ENDBRANCH  24  25
ENDBRANCH  23  24
ENDBRANCH  22  23
ENDBRANCH  21  22
ENDBRANCH  20  21
ENDBRANCH  19  20
ENDBRANCH  18  19
ENDBRANCH   1  18
TORSDOF 28
ENDMDL
MODEL 6
REMARK VINA RESULT:     0.248      4.726      7.864
REMARK INTER + INTRA:          -0.748
REMARK INTER:                   0.167
REMARK INTRA:                  -0.915
REMARK UNBOUND:                -1.401
REMARK SMILES CCCCCCCCCCCCCCCCCCCCCCCCCCCCCC(=O)[O-]
REMARK SMILES IDX 16 1 17 2 18 3 19 4 20 5 21 6 22 7 23 8 24 9 25 10 26 11
REMARK SMILES IDX 27 12 28 13 29 14 30 15 31 16 32 17 15 18 14 19 13 20 12 21
REMARK SMILES IDX 11 22 10 23 9 24 8 25 7 26 6 27 5 28 4 29 3 30 2 31 1 32
REMARK H PARENT
REMARK Flexibility Score: inf
ROOT
ATOM      1  C   UNL     1      29.422  -1.367  45.034  1.00  0.00     0.000 C 
ENDROOT
BRANCH   1   2
ATOM      2  C   UNL     1      29.010  -1.148  43.572  1.00  0.00     0.000 C 
BRANCH   2   3
ATOM      3  C   UNL     1      30.183  -0.717  42.678  1.00  0.00     0.000 C 
BRANCH   3   4
ATOM      4  C   UNL     1      31.524  -1.315  43.135  1.00  0.00     0.000 C 
BRANCH   4   5
ATOM      5  C   UNL     1      32.374  -0.331  43.959  1.00  0.00     0.000 C 
BRANCH   5   6
ATOM      6  C   UNL     1      33.189   0.686  43.132  1.00  0.00     0.000 C 
BRANCH   6   7
ATOM      7  C   UNL     1      33.871   0.113  41.875  1.00  0.00     0.000 C 
BRANCH   7   8
ATOM      8  C   UNL     1      34.902  -1.000  42.151  1.00  0.00     0.000 C 
BRANCH   8   9
ATOM      9  C   UNL     1      36.166  -0.544  42.906  1.00  0.00     0.000 C 
BRANCH   9  10
ATOM     10  C   UNL     1      37.473  -1.233  42.473  1.00  0.00     0.000 C 
BRANCH  10  11
ATOM     11  C   UNL     1      38.347  -1.656  43.666  1.00  0.00     0.000 C 
BRANCH  11  12
ATOM     12  C   UNL     1      38.961  -3.054  43.487  1.00  0.00     0.000 C 
BRANCH  12  13
ATOM     13  C   UNL     1      37.924  -4.108  43.071  1.00  0.00     0.006 C 
BRANCH  13  14
ATOM     14  C   UNL     1      36.828  -4.249  44.132  1.00  0.00     0.053 C 
BRANCH  14  15
ATOM     15  C   UNL     1      35.477  -4.270  43.490  1.00  0.00     0.041 C 
ATOM     16  O   UNL     1      34.449  -4.501  44.181  1.00  0.00    -0.550 OA
ATOM     17  O   UNL     1      35.359  -4.079  42.119  1.00  0.00    -0.550 OA
ENDBRANCH  14  15
ENDBRANCH  13  14
ENDBRANCH  12  13
ENDBRANCH  11  12
ENDBRANCH  10  11
ENDBRANCH   9  10
ENDBRANCH   8   9
ENDBRANCH   7   8
ENDBRANCH   6   7
ENDBRANCH   5   6
ENDBRANCH   4   5
ENDBRANCH   3   4
ENDBRANCH   2   3
ENDBRANCH   1   2
BRANCH   1  18
ATOM     18  C   UNL     1      29.971  -2.789  45.240  1.00  0.00     0.000 C 
BRANCH  18  19
ATOM     19  C   UNL     1      28.867  -3.825  45.513  1.00  0.00     0.000 C 
BRANCH  19  20
ATOM     20  C   UNL     1      27.686  -3.316  46.359  1.00  0.00     0.000 C 
BRANCH  20  21
ATOM     21  C   UNL     1      27.209  -4.336  47.408  1.00  0.00     0.000 C 
BRANCH  21  22
ATOM     22  C   UNL     1      26.532  -3.665  48.621  1.00  0.00     0.000 C 
BRANCH  22  23
ATOM     23  C   UNL     1      27.329  -3.789  49.935  1.00  0.00     0.000 C 
BRANCH  23  24
ATOM     24  C   UNL     1      26.598  -3.220  51.170  1.00  0.00    -0.000 C 
BRANCH  24  25
ATOM     25  C   UNL     1      27.546  -2.817  52.319  1.00  0.00    -0.000 C 
BRANCH  25  26
ATOM     26  C   UNL     1      26.873  -2.728  53.706  1.00  0.00    -0.000 C 
BRANCH  26  27
ATOM     27  C   UNL     1      27.040  -1.380  54.438  1.00  0.00    -0.000 C 
BRANCH  27  28
ATOM     28  C   UNL     1      25.759  -0.821  55.091  1.00  0.00    -0.000 C 
BRANCH  28  29
ATOM     29  C   UNL     1      25.577   0.702  54.947  1.00  0.00    -0.000 C 
BRANCH  29  30
ATOM     30  C   UNL     1      26.498   1.300  53.868  1.00  0.00    -0.000 C 
BRANCH  30  31
ATOM     31  C   UNL     1      26.519   2.834  53.902  1.00  0.00    -0.003 C 
ATOM     32  C   UNL     1      27.174   3.434  52.658  1.00  0.00     0.004 C 
ENDBRANCH  30  31
ENDBRANCH  29  30
ENDBRANCH  28  29
ENDBRANCH  27  28
ENDBRANCH  26  27
ENDBRANCH  25  26
ENDBRANCH  24  25
ENDBRANCH  23  24
ENDBRANCH  22  23
ENDBRANCH  21  22
ENDBRANCH  20  21
ENDBRANCH  19  20
ENDBRANCH  18  19
ENDBRANCH   1  18
TORSDOF 28
ENDMDL
MODEL 7
REMARK VINA RESULT:     0.270      4.360     12.653
REMARK INTER + INTRA:          -0.690
REMARK INTER:                   1.641
REMARK INTRA:                  -2.331
REMARK UNBOUND:                -1.401
REMARK SMILES CCCCCCCCCCCCCCCCCCCCCCCCCCCCCC(=O)[O-]
REMARK SMILES IDX 16 1 17 2 18 3 19 4 20 5 21 6 22 7 23 8 24 9 25 10 26 11
REMARK SMILES IDX 27 12 28 13 29 14 30 15 31 16 32 17 15 18 14 19 13 20 12 21
REMARK SMILES IDX 11 22 10 23 9 24 8 25 7 26 6 27 5 28 4 29 3 30 2 31 1 32
REMARK H PARENT
REMARK Flexibility Score: inf
ROOT
ATOM      1  C   UNL     1      31.119  -0.916  42.602  1.00  0.00     0.000 C 
ENDROOT
BRANCH   1   2
ATOM      2  C   UNL     1      29.651  -0.937  42.151  1.00  0.00     0.000 C 
BRANCH   2   3
ATOM      3  C   UNL     1      28.963  -2.286  42.414  1.00  0.00     0.000 C 
BRANCH   3   4
ATOM      4  C   UNL     1      27.490  -2.126  42.824  1.00  0.00     0.000 C 
BRANCH   4   5
ATOM      5  C   UNL     1      26.518  -2.850  41.875  1.00  0.00     0.000 C 
BRANCH   5   6
ATOM      6  C   UNL     1      25.483  -3.764  42.565  1.00  0.00     0.000 C 
BRANCH   6   7
ATOM      7  C   UNL     1      24.063  -3.713  41.970  1.00  0.00     0.000 C 
BRANCH   7   8
ATOM      8  C   UNL     1      23.158  -4.901  42.354  1.00  0.00     0.000 C 
BRANCH   8   9
ATOM      9  C   UNL     1      21.732  -4.517  42.795  1.00  0.00     0.000 C 
BRANCH   9  10
ATOM     10  C   UNL     1      20.598  -5.148  41.967  1.00  0.00     0.000 C 
BRANCH  10  11
ATOM     11  C   UNL     1      20.708  -6.680  41.877  1.00  0.00     0.000 C 
BRANCH  11  12
ATOM     12  C   UNL     1      20.475  -7.373  43.229  1.00  0.00     0.000 C 
BRANCH  12  13
ATOM     13  C   UNL     1      20.163  -8.870  43.082  1.00  0.00     0.006 C 
BRANCH  13  14
ATOM     14  C   UNL     1      21.331  -9.726  43.583  1.00  0.00     0.053 C 
BRANCH  14  15
ATOM     15  C   UNL     1      20.836 -10.811  44.487  1.00  0.00     0.041 C 
ATOM     16  O   UNL     1      20.382 -10.528  45.628  1.00  0.00    -0.550 OA
ATOM     17  O   UNL     1      20.917 -12.137  44.085  1.00  0.00    -0.550 OA
ENDBRANCH  14  15
ENDBRANCH  13  14
ENDBRANCH  12  13
ENDBRANCH  11  12
ENDBRANCH  10  11
ENDBRANCH   9  10
ENDBRANCH   8   9
ENDBRANCH   7   8
ENDBRANCH   6   7
ENDBRANCH   5   6
ENDBRANCH   4   5
ENDBRANCH   3   4
ENDBRANCH   2   3
ENDBRANCH   1   2
BRANCH   1  18
ATOM     18  C   UNL     1      31.617   0.529  42.773  1.00  0.00     0.000 C 
BRANCH  18  19
ATOM     19  C   UNL     1      33.029   0.748  42.203  1.00  0.00     0.000 C 
BRANCH  19  20
ATOM     20  C   UNL     1      33.838  -0.536  41.946  1.00  0.00     0.000 C 
BRANCH  20  21
ATOM     21  C   UNL     1      35.272  -0.469  42.501  1.00  0.00     0.000 C 
BRANCH  21  22
ATOM     22  C   UNL     1      36.025  -1.808  42.359  1.00  0.00     0.000 C 
BRANCH  22  23
ATOM     23  C   UNL     1      35.113  -3.011  42.041  1.00  0.00     0.000 C 
BRANCH  23  24
ATOM     24  C   UNL     1      35.518  -4.315  42.764  1.00  0.00    -0.000 C 
BRANCH  24  25
ATOM     25  C   UNL     1      35.209  -4.305  44.276  1.00  0.00    -0.000 C 
BRANCH  25  26
ATOM     26  C   UNL     1      33.715  -4.476  44.626  1.00  0.00    -0.000 C 
BRANCH  26  27
ATOM     27  C   UNL     1      32.927  -3.165  44.830  1.00  0.00    -0.000 C 
BRANCH  27  28
ATOM     28  C   UNL     1      31.540  -3.325  45.487  1.00  0.00    -0.000 C 
BRANCH  28  29
ATOM     29  C   UNL     1      30.688  -2.041  45.508  1.00  0.00    -0.000 C 
BRANCH  29  30
ATOM     30  C   UNL     1      29.379  -2.222  46.296  1.00  0.00    -0.000 C 
BRANCH  30  31
ATOM     31  C   UNL     1      28.666  -3.537  45.952  1.00  0.00    -0.003 C 
ATOM     32  C   UNL     1      27.534  -3.856  46.927  1.00  0.00     0.004 C 
ENDBRANCH  30  31
ENDBRANCH  29  30
ENDBRANCH  28  29
ENDBRANCH  27  28
ENDBRANCH  26  27
ENDBRANCH  25  26
ENDBRANCH  24  25
ENDBRANCH  23  24
ENDBRANCH  22  23
ENDBRANCH  21  22
ENDBRANCH  20  21
ENDBRANCH  19  20
ENDBRANCH  18  19
ENDBRANCH   1  18
TORSDOF 28
ENDMDL
MODEL 8
REMARK VINA RESULT:     0.494      3.793     13.687
REMARK INTER + INTRA:          -0.099
REMARK INTER:                   0.033
REMARK INTRA:                  -0.133
REMARK UNBOUND:                -1.401
REMARK SMILES CCCCCCCCCCCCCCCCCCCCCCCCCCCCCC(=O)[O-]
REMARK SMILES IDX 16 1 17 2 18 3 19 4 20 5 21 6 22 7 23 8 24 9 25 10 26 11
REMARK SMILES IDX 27 12 28 13 29 14 30 15 31 16 32 17 15 18 14 19 13 20 12 21
REMARK SMILES IDX 11 22 10 23 9 24 8 25 7 26 6 27 5 28 4 29 3 30 2 31 1 32
REMARK H PARENT
REMARK Flexibility Score: inf
ROOT
ATOM      1  C   UNL     1      28.015  -3.928  46.388  1.00  0.00     0.000 C 
ENDROOT
BRANCH   1   2
ATOM      2  C   UNL     1      26.908  -4.003  47.450  1.00  0.00     0.000 C 
BRANCH   2   3
ATOM      3  C   UNL     1      25.694  -3.124  47.112  1.00  0.00     0.000 C 
BRANCH   3   4
ATOM      4  C   UNL     1      24.362  -3.780  47.508  1.00  0.00     0.000 C 
BRANCH   4   5
ATOM      5  C   UNL     1      23.320  -3.763  46.374  1.00  0.00     0.000 C 
BRANCH   5   6
ATOM      6  C   UNL     1      21.857  -3.579  46.828  1.00  0.00     0.000 C 
BRANCH   6   7
ATOM      7  C   UNL     1      20.795  -3.863  45.748  1.00  0.00     0.000 C 
BRANCH   7   8
ATOM      8  C   UNL     1      21.326  -3.851  44.301  1.00  0.00     0.000 C 
BRANCH   8   9
ATOM      9  C   UNL     1      20.247  -3.685  43.213  1.00  0.00     0.000 C 
BRANCH   9  10
ATOM     10  C   UNL     1      19.551  -4.987  42.776  1.00  0.00     0.000 C 
BRANCH  10  11
ATOM     11  C   UNL     1      20.426  -6.233  42.996  1.00  0.00     0.000 C 
BRANCH  11  12
ATOM     12  C   UNL     1      19.769  -7.521  42.474  1.00  0.00     0.000 C 
BRANCH  12  13
ATOM     13  C   UNL     1      19.918  -8.698  43.449  1.00  0.00     0.006 C 
BRANCH  13  14
ATOM     14  C   UNL     1      20.767  -9.816  42.834  1.00  0.00     0.053 C 
BRANCH  14  15
ATOM     15  C   UNL     1      20.963 -10.927  43.818  1.00  0.00     0.041 C 
ATOM     16  O   UNL     1      20.570 -12.093  43.545  1.00  0.00    -0.550 OA
ATOM     17  O   UNL     1      21.538 -10.662  45.054  1.00  0.00    -0.550 OA
ENDBRANCH  14  15
ENDBRANCH  13  14
ENDBRANCH  12  13
ENDBRANCH  11  12
ENDBRANCH  10  11
ENDBRANCH   9  10
ENDBRANCH   8   9
ENDBRANCH   7   8
ENDBRANCH   6   7
ENDBRANCH   5   6
ENDBRANCH   4   5
ENDBRANCH   3   4
ENDBRANCH   2   3
ENDBRANCH   1   2
BRANCH   1  18
ATOM     18  C   UNL     1      28.806  -2.616  46.516  1.00  0.00     0.000 C 
BRANCH  18  19
ATOM     19  C   UNL     1      29.516  -2.214  45.211  1.00  0.00     0.000 C 
BRANCH  19  20
ATOM     20  C   UNL     1      28.640  -1.455  44.197  1.00  0.00     0.000 C 
BRANCH  20  21
ATOM     21  C   UNL     1      28.904  -1.871  42.739  1.00  0.00     0.000 C 
BRANCH  21  22
ATOM     22  C   UNL     1      29.982  -0.999  42.061  1.00  0.00     0.000 C 
BRANCH  22  23
ATOM     23  C   UNL     1      31.181  -0.663  42.971  1.00  0.00     0.000 C 
BRANCH  23  24
ATOM     24  C   UNL     1      32.545  -0.688  42.247  1.00  0.00    -0.000 C 
BRANCH  24  25
ATOM     25  C   UNL     1      33.677   0.003  43.037  1.00  0.00    -0.000 C 
BRANCH  25  26
ATOM     26  C   UNL     1      34.852   0.504  42.170  1.00  0.00    -0.000 C 
BRANCH  26  27
ATOM     27  C   UNL     1      35.950  -0.539  41.875  1.00  0.00    -0.000 C 
BRANCH  27  28
ATOM     28  C   UNL     1      36.615  -1.165  43.119  1.00  0.00    -0.000 C 
BRANCH  28  29
ATOM     29  C   UNL     1      37.949  -1.884  42.841  1.00  0.00    -0.000 C 
BRANCH  29  30
ATOM     30  C   UNL     1      38.067  -3.213  43.607  1.00  0.00    -0.000 C 
BRANCH  30  31
ATOM     31  C   UNL     1      36.983  -4.220  43.199  1.00  0.00    -0.003 C 
ATOM     32  C   UNL     1      35.573  -3.655  43.364  1.00  0.00     0.004 C 
ENDBRANCH  30  31
ENDBRANCH  29  30
ENDBRANCH  28  29
ENDBRANCH  27  28
ENDBRANCH  26  27
ENDBRANCH  25  26
ENDBRANCH  24  25
ENDBRANCH  23  24
ENDBRANCH  22  23
ENDBRANCH  21  22
ENDBRANCH  20  21
ENDBRANCH  19  20
ENDBRANCH  18  19
ENDBRANCH   1  18
TORSDOF 28
ENDMDL
MODEL 9
REMARK VINA RESULT:     0.664      3.977     13.876
REMARK INTER + INTRA:           0.349
REMARK INTER:                   2.344
REMARK INTRA:                  -1.995
REMARK UNBOUND:                -1.401
REMARK SMILES CCCCCCCCCCCCCCCCCCCCCCCCCCCCCC(=O)[O-]
REMARK SMILES IDX 16 1 17 2 18 3 19 4 20 5 21 6 22 7 23 8 24 9 25 10 26 11
REMARK SMILES IDX 27 12 28 13 29 14 30 15 31 16 32 17 15 18 14 19 13 20 12 21
REMARK SMILES IDX 11 22 10 23 9 24 8 25 7 26 6 27 5 28 4 29 3 30 2 31 1 32
REMARK H PARENT
REMARK Flexibility Score: inf
ROOT
ATOM      1  C   UNL     1      29.154  -2.148  45.612  1.00  0.00     0.000 C 
ENDROOT
BRANCH   1   2
ATOM      2  C   UNL     1      27.773  -2.638  46.070  1.00  0.00     0.000 C 
BRANCH   2   3
ATOM      3  C   UNL     1      27.853  -3.697  47.181  1.00  0.00     0.000 C 
BRANCH   3   4
ATOM      4  C   UNL     1      26.506  -3.907  47.893  1.00  0.00     0.000 C 
BRANCH   4   5
ATOM      5  C   UNL     1      25.332  -3.209  47.183  1.00  0.00     0.000 C 
BRANCH   5   6
ATOM      6  C   UNL     1      24.060  -4.066  47.016  1.00  0.00     0.000 C 
BRANCH   6   7
ATOM      7  C   UNL     1      22.906  -3.385  46.255  1.00  0.00     0.000 C 
BRANCH   7   8
ATOM      8  C   UNL     1      21.513  -3.991  46.519  1.00  0.00     0.000 C 
BRANCH   8   9
ATOM      9  C   UNL     1      20.485  -3.777  45.390  1.00  0.00     0.000 C 
BRANCH   9  10
ATOM     10  C   UNL     1      21.087  -3.476  44.005  1.00  0.00     0.000 C 
BRANCH  10  11
ATOM     11  C   UNL     1      20.157  -3.887  42.850  1.00  0.00     0.000 C 
BRANCH  11  12
ATOM     12  C   UNL     1      20.519  -5.257  42.254  1.00  0.00     0.000 C 
BRANCH  12  13
ATOM     13  C   UNL     1      19.776  -6.416  42.936  1.00  0.00     0.006 C 
BRANCH  13  14
ATOM     14  C   UNL     1      20.762  -7.435  43.516  1.00  0.00     0.053 C 
BRANCH  14  15
ATOM     15  C   UNL     1      20.345  -8.828  43.162  1.00  0.00     0.041 C 
ATOM     16  O   UNL     1      20.138  -9.142  41.959  1.00  0.00    -0.550 OA
ATOM     17  O   UNL     1      20.140  -9.765  44.166  1.00  0.00    -0.550 OA
ENDBRANCH  14  15
ENDBRANCH  13  14
ENDBRANCH  12  13
ENDBRANCH  11  12
ENDBRANCH  10  11
ENDBRANCH   9  10
ENDBRANCH   8   9
ENDBRANCH   7   8
ENDBRANCH   6   7
ENDBRANCH   5   6
ENDBRANCH   4   5
ENDBRANCH   3   4
ENDBRANCH   2   3
ENDBRANCH   1   2
BRANCH   1  18
ATOM     18  C   UNL     1      29.022  -1.169  44.433  1.00  0.00     0.000 C 
BRANCH  18  19
ATOM     19  C   UNL     1      29.087  -1.866  43.063  1.00  0.00     0.000 C 
BRANCH  19  20
ATOM     20  C   UNL     1      30.227  -1.394  42.142  1.00  0.00     0.000 C 
BRANCH  20  21
ATOM     21  C   UNL     1      31.223  -0.455  42.844  1.00  0.00     0.000 C 
BRANCH  21  22
ATOM     22  C   UNL     1      32.273   0.126  41.875  1.00  0.00     0.000 C 
BRANCH  22  23
ATOM     23  C   UNL     1      33.556   0.629  42.566  1.00  0.00     0.000 C 
BRANCH  23  24
ATOM     24  C   UNL     1      34.859   0.041  41.979  1.00  0.00    -0.000 C 
BRANCH  24  25
ATOM     25  C   UNL     1      35.533  -1.002  42.895  1.00  0.00    -0.000 C 
BRANCH  25  26
ATOM     26  C   UNL     1      35.222  -2.471  42.534  1.00  0.00    -0.000 C 
BRANCH  26  27
ATOM     27  C   UNL     1      35.262  -3.466  43.712  1.00  0.00    -0.000 C 
BRANCH  27  28
ATOM     28  C   UNL     1      36.436  -4.467  43.689  1.00  0.00    -0.000 C 
BRANCH  28  29
ATOM     29  C   UNL     1      37.456  -4.234  42.557  1.00  0.00    -0.000 C 
BRANCH  29  30
ATOM     30  C   UNL     1      38.868  -3.946  43.095  1.00  0.00    -0.000 C 
BRANCH  30  31
ATOM     31  C   UNL     1      39.061  -2.471  43.474  1.00  0.00    -0.003 C 
ATOM     32  C   UNL     1      38.937  -1.541  42.268  1.00  0.00     0.004 C 
ENDBRANCH  30  31
ENDBRANCH  29  30
ENDBRANCH  28  29
ENDBRANCH  27  28
ENDBRANCH  26  27
ENDBRANCH  25  26
ENDBRANCH  24  25
ENDBRANCH  23  24
ENDBRANCH  22  23
ENDBRANCH  21  22
ENDBRANCH  20  21
ENDBRANCH  19  20
ENDBRANCH  18  19
ENDBRANCH   1  18
TORSDOF 28
ENDMDL
