MODEL 1
REMARK VINA RESULT:    -3.155      0.000      0.000
REMARK INTER + INTRA:          -8.816
REMARK INTER:                  -6.107
REMARK INTRA:                  -2.709
REMARK UNBOUND:                -2.709
REMARK SMILES CCCCCCCCCCCCCCCCCC(=O)[O-]
REMARK SMILES IDX 10 1 11 2 12 3 13 4 14 5 15 6 16 7 17 8 18 9 19 10 20 11
REMARK SMILES IDX 9 12 8 13 7 14 6 15 5 16 4 17 3 18 2 19 1 20
REMARK H PARENT
REMARK Flexibility Score: inf
ROOT
ATOM      1  C   UNL     1       6.355  -8.103   4.643  1.00  0.00     0.000 C 
ENDROOT
BRANCH   1   2
ATOM      2  C   UNL     1       5.372  -9.119   4.041  1.00  0.00     0.000 C 
BRANCH   2   3
ATOM      3  C   UNL     1       4.964 -10.213   5.039  1.00  0.00     0.000 C 
BRANCH   3   4
ATOM      4  C   UNL     1       3.443 -10.438   5.016  1.00  0.00     0.000 C 
BRANCH   4   5
ATOM      5  C   UNL     1       2.826 -10.436   6.424  1.00  0.00     0.000 C 
BRANCH   5   6
ATOM      6  C   UNL     1       3.894 -10.416   7.532  1.00  0.00     0.000 C 
BRANCH   6   7
ATOM      7  C   UNL     1       3.453  -9.612   8.767  1.00  0.00     0.006 C 
BRANCH   7   8
ATOM      8  C   UNL     1       3.415  -8.099   8.509  1.00  0.00     0.053 C 
BRANCH   8   9
ATOM      9  C   UNL     1       2.158  -7.507   9.064  1.00  0.00     0.041 C 
ATOM     10  O   UNL     1       1.181  -8.248   9.355  1.00  0.00    -0.550 OA
ATOM     11  O   UNL     1       2.082  -6.141   9.308  1.00  0.00    -0.550 OA
ENDBRANCH   8   9
ENDBRANCH   7   8
ENDBRANCH   6   7
ENDBRANCH   5   6
ENDBRANCH   4   5
ENDBRANCH   3   4
ENDBRANCH   2   3
ENDBRANCH   1   2
BRANCH   1  12
ATOM     12  C   UNL     1       6.630  -8.361   6.135  1.00  0.00     0.000 C 
BRANCH  12  13
ATOM     13  C   UNL     1       8.078  -8.806   6.404  1.00  0.00    -0.000 C 
BRANCH  13  14
ATOM     14  C   UNL     1       8.428  -9.033   7.889  1.00  0.00    -0.000 C 
BRANCH  14  15
ATOM     15  C   UNL     1       7.263  -9.531   8.767  1.00  0.00    -0.000 C 
BRANCH  15  16
ATOM     16  C   UNL     1       6.818  -8.554   9.870  1.00  0.00    -0.000 C 
BRANCH  16  17
ATOM     17  C   UNL     1       7.585  -7.220   9.829  1.00  0.00    -0.000 C 
BRANCH  17  18
ATOM     18  C   UNL     1       6.753  -6.087   9.193  1.00  0.00    -0.000 C 
BRANCH  18  19
ATOM     19  C   UNL     1       7.552  -5.219   8.205  1.00  0.00    -0.003 C 
ATOM     20  C   UNL     1       9.053  -5.222   8.485  1.00  0.00     0.004 C 
ENDBRANCH  18  19
ENDBRANCH  17  18
ENDBRANCH  16  17
ENDBRANCH  15  16
ENDBRANCH  14  15
ENDBRANCH  13  14
ENDBRANCH  12  13
ENDBRANCH   1  12
TORSDOF 16
ENDMDL
MODEL 2
REMARK VINA RESULT:    -3.091      0.896      1.895
REMARK INTER + INTRA:          -8.692
REMARK INTER:                  -6.053
REMARK INTRA:                  -2.639
REMARK UNBOUND:                -2.709
REMARK SMILES CCCCCCCCCCCCCCCCCC(=O)[O-]
REMARK SMILES IDX 10 1 11 2 12 3 13 4 14 5 15 6 16 7 17 8 18 9 19 10 20 11
REMARK SMILES IDX 9 12 8 13 7 14 6 15 5 16 4 17 3 18 2 19 1 20
REMARK H PARENT
REMARK Flexibility Score: inf
ROOT
ATOM      1  C   UNL     1       6.598  -7.852   5.917  1.00  0.00     0.000 C 
ENDROOT
BRANCH   1   2
ATOM      2  C   UNL     1       6.466  -8.180   4.422  1.00  0.00     0.000 C 
BRANCH   2   3
ATOM      3  C   UNL     1       5.181  -8.957   4.096  1.00  0.00     0.000 C 
BRANCH   3   4
ATOM      4  C   UNL     1       5.023 -10.172   5.024  1.00  0.00     0.000 C 
BRANCH   4   5
ATOM      5  C   UNL     1       3.801 -10.053   5.950  1.00  0.00     0.000 C 
BRANCH   5   6
ATOM      6  C   UNL     1       4.130 -10.433   7.405  1.00  0.00     0.000 C 
BRANCH   6   7
ATOM      7  C   UNL     1       3.962  -9.254   8.378  1.00  0.00     0.006 C 
BRANCH   7   8
ATOM      8  C   UNL     1       2.963  -8.204   7.873  1.00  0.00     0.053 C 
BRANCH   8   9
ATOM      9  C   UNL     1       2.139  -7.682   9.009  1.00  0.00     0.041 C 
ATOM     10  O   UNL     1       1.513  -8.478   9.758  1.00  0.00    -0.550 OA
ATOM     11  O   UNL     1       2.103  -6.318   9.271  1.00  0.00    -0.550 OA
ENDBRANCH   8   9
ENDBRANCH   7   8
ENDBRANCH   6   7
ENDBRANCH   5   6
ENDBRANCH   4   5
ENDBRANCH   3   4
ENDBRANCH   2   3
ENDBRANCH   1   2
BRANCH   1  12
ATOM     12  C   UNL     1       7.810  -8.542   6.567  1.00  0.00     0.000 C 
BRANCH  12  13
ATOM     13  C   UNL     1       7.625  -8.767   8.079  1.00  0.00    -0.000 C 
BRANCH  13  14
ATOM     14  C   UNL     1       8.903  -8.605   8.926  1.00  0.00    -0.000 C 
BRANCH  14  15
ATOM     15  C   UNL     1       9.841  -7.463   8.485  1.00  0.00    -0.000 C 
BRANCH  15  16
ATOM     16  C   UNL     1       9.534  -6.092   9.114  1.00  0.00    -0.000 C 
BRANCH  16  17
ATOM     17  C   UNL     1       8.888  -5.111   8.120  1.00  0.00    -0.000 C 
BRANCH  17  18
ATOM     18  C   UNL     1       7.469  -4.688   8.555  1.00  0.00    -0.000 C 
BRANCH  18  19
ATOM     19  C   UNL     1       7.008  -5.346   9.868  1.00  0.00    -0.003 C 
ATOM     20  C   UNL     1       5.686  -6.098   9.729  1.00  0.00     0.004 C 
ENDBRANCH  18  19
ENDBRANCH  17  18
ENDBRANCH  16  17
ENDBRANCH  15  16
ENDBRANCH  14  15
ENDBRANCH  13  14
ENDBRANCH  12  13
ENDBRANCH   1  12
TORSDOF 16
ENDMDL
MODEL 3
REMARK VINA RESULT:    -3.078      1.896      2.412
REMARK INTER + INTRA:          -8.666
REMARK INTER:                  -6.538
REMARK INTRA:                  -2.127
REMARK UNBOUND:                -2.709
REMARK SMILES CCCCCCCCCCCCCCCCCC(=O)[O-]
REMARK SMILES IDX 10 1 11 2 12 3 13 4 14 5 15 6 16 7 17 8 18 9 19 10 20 11
REMARK SMILES IDX 9 12 8 13 7 14 6 15 5 16 4 17 3 18 2 19 1 20
REMARK H PARENT
REMARK Flexibility Score: inf
ROOT
ATOM      1  C   UNL     1       6.394  -7.973   5.555  1.00  0.00     0.000 C 
ENDROOT
BRANCH   1   2
ATOM      2  C   UNL     1       6.394  -8.329   4.061  1.00  0.00     0.000 C 
BRANCH   2   3
ATOM      3  C   UNL     1       5.082  -8.987   3.607  1.00  0.00     0.000 C 
BRANCH   3   4
ATOM      4  C   UNL     1       4.911 -10.372   4.251  1.00  0.00     0.000 C 
BRANCH   4   5
ATOM      5  C   UNL     1       3.515 -10.571   4.863  1.00  0.00     0.000 C 
BRANCH   5   6
ATOM      6  C   UNL     1       3.373  -9.883   6.233  1.00  0.00     0.000 C 
BRANCH   6   7
ATOM      7  C   UNL     1       2.377 -10.603   7.157  1.00  0.00     0.006 C 
BRANCH   7   8
ATOM      8  C   UNL     1       1.259  -9.680   7.661  1.00  0.00     0.053 C 
BRANCH   8   9
ATOM      9  C   UNL     1      -0.067 -10.136   7.136  1.00  0.00     0.041 C 
ATOM     10  O   UNL     1      -0.181 -10.518   5.942  1.00  0.00    -0.550 OA
ATOM     11  O   UNL     1      -1.168 -10.188   7.983  1.00  0.00    -0.550 OA
ENDBRANCH   8   9
ENDBRANCH   7   8
ENDBRANCH   6   7
ENDBRANCH   5   6
ENDBRANCH   4   5
ENDBRANCH   3   4
ENDBRANCH   2   3
ENDBRANCH   1   2
BRANCH   1  12
ATOM     12  C   UNL     1       7.435  -8.776   6.354  1.00  0.00     0.000 C 
BRANCH  12  13
ATOM     13  C   UNL     1       6.793  -9.781   7.327  1.00  0.00    -0.000 C 
BRANCH  13  14
ATOM     14  C   UNL     1       6.932  -9.425   8.821  1.00  0.00    -0.000 C 
BRANCH  14  15
ATOM     15  C   UNL     1       5.635  -8.943   9.502  1.00  0.00    -0.000 C 
BRANCH  15  16
ATOM     16  C   UNL     1       4.996  -7.693   8.871  1.00  0.00    -0.000 C 
BRANCH  16  17
ATOM     17  C   UNL     1       5.030  -6.471   9.805  1.00  0.00    -0.000 C 
BRANCH  17  18
ATOM     18  C   UNL     1       6.438  -5.846   9.899  1.00  0.00    -0.000 C 
BRANCH  18  19
ATOM     19  C   UNL     1       7.155  -5.741   8.542  1.00  0.00    -0.003 C 
ATOM     20  C   UNL     1       7.799  -4.376   8.309  1.00  0.00     0.004 C 
ENDBRANCH  18  19
ENDBRANCH  17  18
ENDBRANCH  16  17
ENDBRANCH  15  16
ENDBRANCH  14  15
ENDBRANCH  13  14
ENDBRANCH  12  13
ENDBRANCH   1  12
TORSDOF 16
ENDMDL
MODEL 4
REMARK VINA RESULT:    -3.067      2.302      5.184
REMARK INTER + INTRA:          -8.645
REMARK INTER:                  -5.786
REMARK INTRA:                  -2.859
REMARK UNBOUND:                -2.709
REMARK SMILES CCCCCCCCCCCCCCCCCC(=O)[O-]
REMARK SMILES IDX 10 1 11 2 12 3 13 4 14 5 15 6 16 7 17 8 18 9 19 10 20 11
REMARK SMILES IDX 9 12 8 13 7 14 6 15 5 16 4 17 3 18 2 19 1 20
REMARK H PARENT
REMARK Flexibility Score: inf
ROOT
ATOM      1  C   UNL     1       6.391  -8.056   5.738  1.00  0.00     0.000 C 
ENDROOT
BRANCH   1   2
ATOM      2  C   UNL     1       7.699  -8.571   6.359  1.00  0.00     0.000 C 
BRANCH   2   3
ATOM      3  C   UNL     1       7.461  -9.595   7.479  1.00  0.00     0.000 C 
BRANCH   3   4
ATOM      4  C   UNL     1       8.628  -9.595   8.480  1.00  0.00     0.000 C 
BRANCH   4   5
ATOM      5  C   UNL     1       8.233  -9.011   9.847  1.00  0.00     0.000 C 
BRANCH   5   6
ATOM      6  C   UNL     1       6.812  -8.420   9.843  1.00  0.00     0.000 C 
BRANCH   6   7
ATOM      7  C   UNL     1       6.798  -6.909  10.125  1.00  0.00     0.006 C 
BRANCH   7   8
ATOM      8  C   UNL     1       6.494  -6.073   8.874  1.00  0.00     0.053 C 
BRANCH   8   9
ATOM      9  C   UNL     1       7.701  -5.286   8.467  1.00  0.00     0.041 C 
ATOM     10  O   UNL     1       8.811  -5.860   8.310  1.00  0.00    -0.550 OA
ATOM     11  O   UNL     1       7.588  -3.925   8.211  1.00  0.00    -0.550 OA
ENDBRANCH   8   9
ENDBRANCH   7   8
ENDBRANCH   6   7
ENDBRANCH   5   6
ENDBRANCH   4   5
ENDBRANCH   3   4
ENDBRANCH   2   3
ENDBRANCH   1   2
BRANCH   1  12
ATOM     12  C   UNL     1       6.394  -8.142   4.201  1.00  0.00     0.000 C 
BRANCH  12  13
ATOM     13  C   UNL     1       5.301  -9.078   3.656  1.00  0.00    -0.000 C 
BRANCH  13  14
ATOM     14  C   UNL     1       4.904 -10.237   4.593  1.00  0.00    -0.000 C 
BRANCH  14  15
ATOM     15  C   UNL     1       3.386 -10.431   4.788  1.00  0.00    -0.000 C 
BRANCH  15  16
ATOM     16  C   UNL     1       2.973 -10.965   6.171  1.00  0.00    -0.000 C 
BRANCH  16  17
ATOM     17  C   UNL     1       4.116 -10.906   7.199  1.00  0.00    -0.000 C 
BRANCH  17  18
ATOM     18  C   UNL     1       3.804  -9.944   8.365  1.00  0.00    -0.000 C 
BRANCH  18  19
ATOM     19  C   UNL     1       3.561  -8.493   7.915  1.00  0.00    -0.003 C 
ATOM     20  C   UNL     1       2.653  -7.715   8.865  1.00  0.00     0.004 C 
ENDBRANCH  18  19
ENDBRANCH  17  18
ENDBRANCH  16  17
ENDBRANCH  15  16
ENDBRANCH  14  15
ENDBRANCH  13  14
ENDBRANCH  12  13
ENDBRANCH   1  12
TORSDOF 16
ENDMDL
MODEL 5
REMARK VINA RESULT:    -3.022      2.744      3.883
REMARK INTER + INTRA:          -8.559
REMARK INTER:                  -6.109
REMARK INTRA:                  -2.450
REMARK UNBOUND:                -2.709
REMARK SMILES CCCCCCCCCCCCCCCCCC(=O)[O-]
REMARK SMILES IDX 10 1 11 2 12 3 13 4 14 5 15 6 16 7 17 8 18 9 19 10 20 11
REMARK SMILES IDX 9 12 8 13 7 14 6 15 5 16 4 17 3 18 2 19 1 20
REMARK H PARENT
REMARK Flexibility Score: inf
ROOT
ATOM      1  C   UNL     1       6.410  -7.755   6.880  1.00  0.00     0.000 C 
ENDROOT
BRANCH   1   2
ATOM      2  C   UNL     1       5.608  -7.585   8.180  1.00  0.00     0.000 C 
BRANCH   2   3
ATOM      3  C   UNL     1       5.074  -8.918   8.726  1.00  0.00     0.000 C 
BRANCH   3   4
ATOM      4  C   UNL     1       3.538  -8.912   8.783  1.00  0.00     0.000 C 
BRANCH   4   5
ATOM      5  C   UNL     1       2.896  -9.305   7.442  1.00  0.00     0.000 C 
BRANCH   5   6
ATOM      6  C   UNL     1       3.541 -10.562   6.831  1.00  0.00     0.000 C 
BRANCH   6   7
ATOM      7  C   UNL     1       3.299 -10.676   5.317  1.00  0.00     0.006 C 
BRANCH   7   8
ATOM      8  C   UNL     1       4.435 -10.063   4.486  1.00  0.00     0.053 C 
BRANCH   8   9
ATOM      9  C   UNL     1       4.076 -10.064   3.032  1.00  0.00     0.041 C 
ATOM     10  O   UNL     1       4.895  -9.641   2.175  1.00  0.00    -0.550 OA
ATOM     11  O   UNL     1       2.854 -10.582   2.620  1.00  0.00    -0.550 OA
ENDBRANCH   8   9
ENDBRANCH   7   8
ENDBRANCH   6   7
ENDBRANCH   5   6
ENDBRANCH   4   5
ENDBRANCH   3   4
ENDBRANCH   2   3
ENDBRANCH   1   2
BRANCH   1  12
ATOM     12  C   UNL     1       7.057  -9.146   6.764  1.00  0.00     0.000 C 
BRANCH  12  13
ATOM     13  C   UNL     1       8.593  -9.097   6.852  1.00  0.00    -0.000 C 
BRANCH  13  14
ATOM     14  C   UNL     1       9.204  -9.841   8.056  1.00  0.00    -0.000 C 
BRANCH  14  15
ATOM     15  C   UNL     1       9.862  -8.937   9.119  1.00  0.00    -0.000 C 
BRANCH  15  16
ATOM     16  C   UNL     1       8.886  -8.301  10.125  1.00  0.00    -0.000 C 
BRANCH  16  17
ATOM     17  C   UNL     1       8.697  -6.791   9.898  1.00  0.00    -0.000 C 
BRANCH  17  18
ATOM     18  C   UNL     1       9.467  -6.286   8.659  1.00  0.00    -0.000 C 
BRANCH  18  19
ATOM     19  C   UNL     1       9.152  -4.825   8.294  1.00  0.00    -0.003 C 
ATOM     20  C   UNL     1       7.665  -4.489   8.400  1.00  0.00     0.004 C 
ENDBRANCH  18  19
ENDBRANCH  17  18
ENDBRANCH  16  17
ENDBRANCH  15  16
ENDBRANCH  14  15
ENDBRANCH  13  14
ENDBRANCH  12  13
ENDBRANCH   1  12
TORSDOF 16
ENDMDL
MODEL 6
REMARK VINA RESULT:    -3.006      2.004      5.549
REMARK INTER + INTRA:          -8.526
REMARK INTER:                  -6.495
REMARK INTRA:                  -2.031
REMARK UNBOUND:                -2.709
REMARK SMILES CCCCCCCCCCCCCCCCCC(=O)[O-]
REMARK SMILES IDX 10 1 11 2 12 3 13 4 14 5 15 6 16 7 17 8 18 9 19 10 20 11
REMARK SMILES IDX 9 12 8 13 7 14 6 15 5 16 4 17 3 18 2 19 1 20
REMARK H PARENT
REMARK Flexibility Score: inf
ROOT
ATOM      1  C   UNL     1       6.333  -8.117   4.197  1.00  0.00     0.000 C 
ENDROOT
BRANCH   1   2
ATOM      2  C   UNL     1       6.450  -7.958   5.720  1.00  0.00     0.000 C 
BRANCH   2   3
ATOM      3  C   UNL     1       7.803  -8.441   6.266  1.00  0.00     0.000 C 
BRANCH   3   4
ATOM      4  C   UNL     1       7.623  -9.186   7.598  1.00  0.00     0.000 C 
BRANCH   4   5
ATOM      5  C   UNL     1       8.904  -9.190   8.449  1.00  0.00     0.000 C 
BRANCH   5   6
ATOM      6  C   UNL     1       9.745  -7.917   8.248  1.00  0.00     0.000 C 
BRANCH   6   7
ATOM      7  C   UNL     1       9.338  -6.782   9.203  1.00  0.00     0.006 C 
BRANCH   7   8
ATOM      8  C   UNL     1       9.258  -5.417   8.506  1.00  0.00     0.053 C 
BRANCH   8   9
ATOM      9  C   UNL     1       7.839  -4.946   8.447  1.00  0.00     0.041 C 
ATOM     10  O   UNL     1       7.580  -3.738   8.198  1.00  0.00    -0.550 OA
ATOM     11  O   UNL     1       6.798  -5.851   8.616  1.00  0.00    -0.550 OA
ENDBRANCH   8   9
ENDBRANCH   7   8
ENDBRANCH   6   7
ENDBRANCH   5   6
ENDBRANCH   4   5
ENDBRANCH   3   4
ENDBRANCH   2   3
ENDBRANCH   1   2
BRANCH   1  12
ATOM     12  C   UNL     1       5.258  -9.141   3.791  1.00  0.00     0.000 C 
BRANCH  12  13
ATOM     13  C   UNL     1       4.898 -10.109   4.932  1.00  0.00    -0.000 C 
BRANCH  13  14
ATOM     14  C   UNL     1       3.388 -10.348   5.135  1.00  0.00    -0.000 C 
BRANCH  14  15
ATOM     15  C   UNL     1       2.902 -10.257   6.596  1.00  0.00    -0.000 C 
BRANCH  15  16
ATOM     16  C   UNL     1       3.984  -9.861   7.617  1.00  0.00    -0.000 C 
BRANCH  16  17
ATOM     17  C   UNL     1       3.771  -8.451   8.194  1.00  0.00    -0.000 C 
BRANCH  17  18
ATOM     18  C   UNL     1       2.275  -8.083   8.300  1.00  0.00    -0.000 C 
BRANCH  18  19
ATOM     19  C   UNL     1       1.655  -8.425   9.666  1.00  0.00    -0.003 C 
ATOM     20  C   UNL     1       0.279  -9.078   9.552  1.00  0.00     0.004 C 
ENDBRANCH  18  19
ENDBRANCH  17  18
ENDBRANCH  16  17
ENDBRANCH  15  16
ENDBRANCH  14  15
ENDBRANCH  13  14
ENDBRANCH  12  13
ENDBRANCH   1  12
TORSDOF 16
ENDMDL
MODEL 7
REMARK VINA RESULT:    -2.974      1.475      2.171
REMARK INTER + INTRA:          -8.464
REMARK INTER:                  -6.243
REMARK INTRA:                  -2.221
REMARK UNBOUND:                -2.709
REMARK SMILES CCCCCCCCCCCCCCCCCC(=O)[O-]
REMARK SMILES IDX 10 1 11 2 12 3 13 4 14 5 15 6 16 7 17 8 18 9 19 10 20 11
REMARK SMILES IDX 9 12 8 13 7 14 6 15 5 16 4 17 3 18 2 19 1 20
REMARK H PARENT
REMARK Flexibility Score: inf
ROOT
ATOM      1  C   UNL     1       5.255  -9.080   3.737  1.00  0.00     0.000 C 
ENDROOT
BRANCH   1   2
ATOM      2  C   UNL     1       4.871 -10.192   4.726  1.00  0.00     0.000 C 
BRANCH   2   3
ATOM      3  C   UNL     1       3.493 -10.803   4.426  1.00  0.00     0.000 C 
BRANCH   3   4
ATOM      4  C   UNL     1       2.623 -10.841   5.692  1.00  0.00     0.000 C 
BRANCH   4   5
ATOM      5  C   UNL     1       3.374 -10.349   6.940  1.00  0.00     0.000 C 
BRANCH   5   6
ATOM      6  C   UNL     1       2.764  -9.060   7.521  1.00  0.00     0.000 C 
BRANCH   6   7
ATOM      7  C   UNL     1       2.056  -9.294   8.866  1.00  0.00     0.006 C 
BRANCH   7   8
ATOM      8  C   UNL     1       0.806 -10.174   8.736  1.00  0.00     0.053 C 
BRANCH   8   9
ATOM      9  C   UNL     1      -0.406  -9.431   9.205  1.00  0.00     0.041 C 
ATOM     10  O   UNL     1      -0.285  -8.441   9.974  1.00  0.00    -0.550 OA
ATOM     11  O   UNL     1      -1.666  -9.801   8.752  1.00  0.00    -0.550 OA
ENDBRANCH   8   9
ENDBRANCH   7   8
ENDBRANCH   6   7
ENDBRANCH   5   6
ENDBRANCH   4   5
ENDBRANCH   3   4
ENDBRANCH   2   3
ENDBRANCH   1   2
BRANCH   1  12
ATOM     12  C   UNL     1       6.327  -8.132   4.302  1.00  0.00     0.000 C 
BRANCH  12  13
ATOM     13  C   UNL     1       6.411  -8.177   5.838  1.00  0.00    -0.000 C 
BRANCH  13  14
ATOM     14  C   UNL     1       7.784  -8.589   6.407  1.00  0.00    -0.000 C 
BRANCH  14  15
ATOM     15  C   UNL     1       7.733  -9.438   7.693  1.00  0.00    -0.000 C 
BRANCH  15  16
ATOM     16  C   UNL     1       6.386  -9.409   8.436  1.00  0.00    -0.000 C 
BRANCH  16  17
ATOM     17  C   UNL     1       6.370  -8.406   9.602  1.00  0.00    -0.000 C 
BRANCH  17  18
ATOM     18  C   UNL     1       5.460  -7.192   9.315  1.00  0.00    -0.000 C 
BRANCH  18  19
ATOM     19  C   UNL     1       6.154  -5.838   9.541  1.00  0.00    -0.003 C 
ATOM     20  C   UNL     1       7.199  -5.516   8.476  1.00  0.00     0.004 C 
ENDBRANCH  18  19
ENDBRANCH  17  18
ENDBRANCH  16  17
ENDBRANCH  15  16
ENDBRANCH  14  15
ENDBRANCH  13  14
ENDBRANCH  12  13
ENDBRANCH   1  12
TORSDOF 16
ENDMDL
MODEL 8
REMARK VINA RESULT:    -2.950      2.356      5.076
REMARK INTER + INTRA:          -8.419
REMARK INTER:                  -6.173
REMARK INTRA:                  -2.246
REMARK UNBOUND:                -2.709
REMARK SMILES CCCCCCCCCCCCCCCCCC(=O)[O-]
REMARK SMILES IDX 10 1 11 2 12 3 13 4 14 5 15 6 16 7 17 8 18 9 19 10 20 11
REMARK SMILES IDX 9 12 8 13 7 14 6 15 5 16 4 17 3 18 2 19 1 20
REMARK H PARENT
REMARK Flexibility Score: inf
ROOT
ATOM      1  C   UNL     1       6.424  -8.128   4.177  1.00  0.00     0.000 C 
ENDROOT
BRANCH   1   2
ATOM      2  C   UNL     1       6.406  -8.026   5.710  1.00  0.00     0.000 C 
BRANCH   2   3
ATOM      3  C   UNL     1       7.627  -8.692   6.364  1.00  0.00     0.000 C 
BRANCH   3   4
ATOM      4  C   UNL     1       7.192  -9.727   7.413  1.00  0.00     0.000 C 
BRANCH   4   5
ATOM      5  C   UNL     1       6.940  -9.098   8.794  1.00  0.00     0.000 C 
BRANCH   5   6
ATOM      6  C   UNL     1       8.142  -8.272   9.288  1.00  0.00     0.000 C 
BRANCH   6   7
ATOM      7  C   UNL     1       7.734  -6.880   9.798  1.00  0.00     0.006 C 
BRANCH   7   8
ATOM      8  C   UNL     1       7.114  -6.003   8.702  1.00  0.00     0.053 C 
BRANCH   8   9
ATOM      9  C   UNL     1       8.029  -4.867   8.364  1.00  0.00     0.041 C 
ATOM     10  O   UNL     1       7.570  -3.702   8.223  1.00  0.00    -0.550 OA
ATOM     11  O   UNL     1       9.397  -5.085   8.257  1.00  0.00    -0.550 OA
ENDBRANCH   8   9
ENDBRANCH   7   8
ENDBRANCH   6   7
ENDBRANCH   5   6
ENDBRANCH   4   5
ENDBRANCH   3   4
ENDBRANCH   2   3
ENDBRANCH   1   2
BRANCH   1  12
ATOM     12  C   UNL     1       5.232  -8.930   3.625  1.00  0.00     0.000 C 
BRANCH  12  13
ATOM     13  C   UNL     1       4.935 -10.196   4.448  1.00  0.00    -0.000 C 
BRANCH  13  14
ATOM     14  C   UNL     1       3.465 -10.365   4.882  1.00  0.00    -0.000 C 
BRANCH  14  15
ATOM     15  C   UNL     1       3.257 -10.724   6.367  1.00  0.00    -0.000 C 
BRANCH  15  16
ATOM     16  C   UNL     1       3.490  -9.567   7.354  1.00  0.00    -0.000 C 
BRANCH  16  17
ATOM     17  C   UNL     1       2.908  -9.848   8.750  1.00  0.00    -0.000 C 
BRANCH  17  18
ATOM     18  C   UNL     1       3.473  -8.892   9.822  1.00  0.00    -0.000 C 
BRANCH  18  19
ATOM     19  C   UNL     1       3.526  -7.423   9.367  1.00  0.00    -0.003 C 
ATOM     20  C   UNL     1       2.172  -6.721   9.452  1.00  0.00     0.004 C 
ENDBRANCH  18  19
ENDBRANCH  17  18
ENDBRANCH  16  17
ENDBRANCH  15  16
ENDBRANCH  14  15
ENDBRANCH  13  14
ENDBRANCH  12  13
ENDBRANCH   1  12
TORSDOF 16
ENDMDL
MODEL 9
REMARK VINA RESULT:    -2.919      1.949      4.573
REMARK INTER + INTRA:          -8.359
REMARK INTER:                  -5.932
REMARK INTRA:                  -2.427
REMARK UNBOUND:                -2.709
REMARK SMILES CCCCCCCCCCCCCCCCCC(=O)[O-]
REMARK SMILES IDX 10 1 11 2 12 3 13 4 14 5 15 6 16 7 17 8 18 9 19 10 20 11
REMARK SMILES IDX 9 12 8 13 7 14 6 15 5 16 4 17 3 18 2 19 1 20
REMARK H PARENT
REMARK Flexibility Score: inf
ROOT
ATOM      1  C   UNL     1       6.779  -5.901   8.549  1.00  0.00     0.000 C 
ENDROOT
BRANCH   1   2
ATOM      2  C   UNL     1       6.163  -5.837   9.956  1.00  0.00     0.000 C 
BRANCH   2   3
ATOM      3  C   UNL     1       4.853  -6.633  10.067  1.00  0.00     0.000 C 
BRANCH   3   4
ATOM      4  C   UNL     1       4.752  -7.682   8.949  1.00  0.00     0.000 C 
BRANCH   4   5
ATOM      5  C   UNL     1       4.657  -9.117   9.492  1.00  0.00     0.000 C 
BRANCH   5   6
ATOM      6  C   UNL     1       3.788 -10.024   8.602  1.00  0.00     0.000 C 
BRANCH   6   7
ATOM      7  C   UNL     1       2.834  -9.227   7.697  1.00  0.00     0.006 C 
BRANCH   7   8
ATOM      8  C   UNL     1       1.358  -9.426   8.066  1.00  0.00     0.053 C 
BRANCH   8   9
ATOM      9  C   UNL     1       0.635 -10.131   6.961  1.00  0.00     0.041 C 
ATOM     10  O   UNL     1       1.276 -10.617   5.991  1.00  0.00    -0.550 OA
ATOM     11  O   UNL     1      -0.743 -10.297   7.027  1.00  0.00    -0.550 OA
ENDBRANCH   8   9
ENDBRANCH   7   8
ENDBRANCH   6   7
ENDBRANCH   5   6
ENDBRANCH   4   5
ENDBRANCH   3   4
ENDBRANCH   2   3
ENDBRANCH   1   2
BRANCH   1  12
ATOM     12  C   UNL     1       8.242  -6.377   8.566  1.00  0.00     0.000 C 
BRANCH  12  13
ATOM     13  C   UNL     1       8.501  -7.464   9.625  1.00  0.00    -0.000 C 
BRANCH  13  14
ATOM     14  C   UNL     1       8.587  -8.903   9.079  1.00  0.00    -0.000 C 
BRANCH  14  15
ATOM     15  C   UNL     1       8.522  -9.026   7.543  1.00  0.00    -0.000 C 
BRANCH  15  16
ATOM     16  C   UNL     1       7.207  -9.604   6.993  1.00  0.00    -0.000 C 
BRANCH  16  17
ATOM     17  C   UNL     1       6.612  -8.756   5.856  1.00  0.00    -0.000 C 
BRANCH  17  18
ATOM     18  C   UNL     1       5.357  -9.407   5.235  1.00  0.00    -0.000 C 
BRANCH  18  19
ATOM     19  C   UNL     1       5.197  -9.121   3.732  1.00  0.00    -0.003 C 
ATOM     20  C   UNL     1       4.159 -10.017   3.059  1.00  0.00     0.004 C 
ENDBRANCH  18  19
ENDBRANCH  17  18
ENDBRANCH  16  17
ENDBRANCH  15  16
ENDBRANCH  14  15
ENDBRANCH  13  14
ENDBRANCH  12  13
ENDBRANCH   1  12
TORSDOF 16
ENDMDL
