MODEL 1
REMARK VINA RESULT:    -5.993      0.000      0.000
REMARK INTER + INTRA:         -19.815
REMARK INTER:                 -15.102
REMARK INTRA:                  -4.713
REMARK UNBOUND:                -4.713
REMARK SMILES CCCCCCCCCCCCCCCCCCCCCCCCCCCC(=O)[O-]
REMARK SMILES IDX 15 1 16 2 17 3 18 4 19 5 20 6 21 7 22 8 23 9 24 10 25 11
REMARK SMILES IDX 26 12 27 13 28 14 29 15 30 16 14 17 13 18 12 19 11 20 10 21
REMARK SMILES IDX 9 22 8 23 7 24 6 25 5 26 4 27 3 28 2 29 1 30
REMARK H PARENT
REMARK Flexibility Score: inf
ROOT
ATOM      1  C   UNL     1       8.953  74.663  -2.879  1.00  0.00     0.000 C 
ENDROOT
BRANCH   1   2
ATOM      2  C   UNL     1      10.318  74.194  -2.344  1.00  0.00     0.000 C 
BRANCH   2   3
ATOM      3  C   UNL     1      10.263  72.781  -1.741  1.00  0.00     0.000 C 
BRANCH   3   4
ATOM      4  C   UNL     1      11.097  71.770  -2.544  1.00  0.00     0.000 C 
BRANCH   4   5
ATOM      5  C   UNL     1      10.206  70.746  -3.257  1.00  0.00     0.000 C 
BRANCH   5   6
ATOM      6  C   UNL     1       9.758  71.284  -4.623  1.00  0.00     0.000 C 
BRANCH   6   7
ATOM      7  C   UNL     1      10.923  71.765  -5.500  1.00  0.00     0.000 C 
BRANCH   7   8
ATOM      8  C   UNL     1      10.810  73.253  -5.879  1.00  0.00     0.000 C 
BRANCH   8   9
ATOM      9  C   UNL     1      12.177  73.958  -5.928  1.00  0.00     0.000 C 
BRANCH   9  10
ATOM     10  C   UNL     1      13.226  73.297  -5.007  1.00  0.00     0.000 C 
BRANCH  10  11
ATOM     11  C   UNL     1      13.688  74.238  -3.880  1.00  0.00     0.000 C 
BRANCH  11  12
ATOM     12  C   UNL     1      13.768  75.704  -4.339  1.00  0.00     0.006 C 
BRANCH  12  13
ATOM     13  C   UNL     1      13.492  76.685  -3.189  1.00  0.00     0.053 C 
BRANCH  13  14
ATOM     14  C   UNL     1      13.886  78.079  -3.569  1.00  0.00     0.041 C 
ATOM     15  O   UNL     1      13.837  79.005  -2.718  1.00  0.00    -0.550 OA
ATOM     16  O   UNL     1      14.358  78.345  -4.848  1.00  0.00    -0.550 OA
ENDBRANCH  13  14
ENDBRANCH  12  13
ENDBRANCH  11  12
ENDBRANCH  10  11
ENDBRANCH   9  10
ENDBRANCH   8   9
ENDBRANCH   7   8
ENDBRANCH   6   7
ENDBRANCH   5   6
ENDBRANCH   4   5
ENDBRANCH   3   4
ENDBRANCH   2   3
ENDBRANCH   1   2
BRANCH   1  17
ATOM     17  C   UNL     1       8.952  76.143  -3.304  1.00  0.00     0.000 C 
BRANCH  17  18
ATOM     18  C   UNL     1       9.982  77.034  -2.577  1.00  0.00     0.000 C 
BRANCH  18  19
ATOM     19  C   UNL     1       9.456  78.406  -2.109  1.00  0.00     0.000 C 
BRANCH  19  20
ATOM     20  C   UNL     1      10.503  79.312  -1.432  1.00  0.00     0.000 C 
BRANCH  20  21
ATOM     21  C   UNL     1      10.012  79.966  -0.123  1.00  0.00     0.000 C 
BRANCH  21  22
ATOM     22  C   UNL     1      10.466  79.193   1.126  1.00  0.00    -0.000 C 
BRANCH  22  23
ATOM     23  C   UNL     1       9.737  79.646   2.406  1.00  0.00    -0.000 C 
BRANCH  23  24
ATOM     24  C   UNL     1       9.095  78.513   3.231  1.00  0.00    -0.000 C 
BRANCH  24  25
ATOM     25  C   UNL     1       7.566  78.651   3.342  1.00  0.00    -0.000 C 
BRANCH  25  26
ATOM     26  C   UNL     1       6.929  79.269   2.086  1.00  0.00    -0.000 C 
BRANCH  26  27
ATOM     27  C   UNL     1       6.818  78.323   0.873  1.00  0.00    -0.000 C 
BRANCH  27  28
ATOM     28  C   UNL     1       6.450  76.872   1.248  1.00  0.00    -0.000 C 
BRANCH  28  29
ATOM     29  C   UNL     1       7.189  75.839   0.383  1.00  0.00    -0.003 C 
ATOM     30  C   UNL     1       8.699  75.947   0.566  1.00  0.00     0.004 C 
ENDBRANCH  28  29
ENDBRANCH  27  28
ENDBRANCH  26  27
ENDBRANCH  25  26
ENDBRANCH  24  25
ENDBRANCH  23  24
ENDBRANCH  22  23
ENDBRANCH  21  22
ENDBRANCH  20  21
ENDBRANCH  19  20
ENDBRANCH  18  19
ENDBRANCH  17  18
ENDBRANCH   1  17
TORSDOF 26
ENDMDL
MODEL 2
REMARK VINA RESULT:    -5.986      2.782      8.459
REMARK INTER + INTRA:         -19.797
REMARK INTER:                 -15.055
REMARK INTRA:                  -4.742
REMARK UNBOUND:                -4.713
REMARK SMILES CCCCCCCCCCCCCCCCCCCCCCCCCCCC(=O)[O-]
REMARK SMILES IDX 15 1 16 2 17 3 18 4 19 5 20 6 21 7 22 8 23 9 24 10 25 11
REMARK SMILES IDX 26 12 27 13 28 14 29 15 30 16 14 17 13 18 12 19 11 20 10 21
REMARK SMILES IDX 9 22 8 23 7 24 6 25 5 26 4 27 3 28 2 29 1 30
REMARK H PARENT
REMARK Flexibility Score: inf
ROOT
ATOM      1  C   UNL     1       9.714  75.467  -1.415  1.00  0.00     0.000 C 
ENDROOT
BRANCH   1   2
ATOM      2  C   UNL     1       9.540  76.719  -2.293  1.00  0.00     0.000 C 
BRANCH   2   3
ATOM      3  C   UNL     1       9.403  78.008  -1.466  1.00  0.00     0.000 C 
BRANCH   3   4
ATOM      4  C   UNL     1      10.548  78.997  -1.733  1.00  0.00     0.000 C 
BRANCH   4   5
ATOM      5  C   UNL     1      11.218  79.448  -0.429  1.00  0.00     0.000 C 
BRANCH   5   6
ATOM      6  C   UNL     1      10.182  80.062   0.522  1.00  0.00     0.000 C 
BRANCH   6   7
ATOM      7  C   UNL     1      10.416  79.697   1.995  1.00  0.00     0.000 C 
BRANCH   7   8
ATOM      8  C   UNL     1       9.618  78.457   2.437  1.00  0.00     0.000 C 
BRANCH   8   9
ATOM      9  C   UNL     1       8.788  78.708   3.709  1.00  0.00     0.000 C 
BRANCH   9  10
ATOM     10  C   UNL     1       7.269  78.750   3.435  1.00  0.00     0.000 C 
BRANCH  10  11
ATOM     11  C   UNL     1       6.947  78.798   1.930  1.00  0.00     0.000 C 
BRANCH  11  12
ATOM     12  C   UNL     1       6.051  77.630   1.488  1.00  0.00     0.006 C 
BRANCH  12  13
ATOM     13  C   UNL     1       6.823  76.591   0.660  1.00  0.00     0.053 C 
BRANCH  13  14
ATOM     14  C   UNL     1       6.067  75.301   0.581  1.00  0.00     0.041 C 
ATOM     15  O   UNL     1       5.307  74.953   1.522  1.00  0.00    -0.550 OA
ATOM     16  O   UNL     1       6.162  74.507  -0.556  1.00  0.00    -0.550 OA
ENDBRANCH  13  14
ENDBRANCH  12  13
ENDBRANCH  11  12
ENDBRANCH  10  11
ENDBRANCH   9  10
ENDBRANCH   8   9
ENDBRANCH   7   8
ENDBRANCH   6   7
ENDBRANCH   5   6
ENDBRANCH   4   5
ENDBRANCH   3   4
ENDBRANCH   2   3
ENDBRANCH   1   2
BRANCH   1  17
ATOM     17  C   UNL     1      10.272  75.788  -0.017  1.00  0.00     0.000 C 
BRANCH  17  18
ATOM     18  C   UNL     1      11.814  75.787   0.088  1.00  0.00     0.000 C 
BRANCH  18  19
ATOM     19  C   UNL     1      12.561  75.246  -1.147  1.00  0.00     0.000 C 
BRANCH  19  20
ATOM     20  C   UNL     1      13.225  76.318  -2.032  1.00  0.00     0.000 C 
BRANCH  20  21
ATOM     21  C   UNL     1      13.130  76.028  -3.544  1.00  0.00     0.000 C 
BRANCH  21  22
ATOM     22  C   UNL     1      12.356  74.735  -3.848  1.00  0.00    -0.000 C 
BRANCH  22  23
ATOM     23  C   UNL     1      13.056  73.852  -4.899  1.00  0.00    -0.000 C 
BRANCH  23  24
ATOM     24  C   UNL     1      12.124  73.220  -5.951  1.00  0.00    -0.000 C 
BRANCH  24  25
ATOM     25  C   UNL     1      10.737  73.886  -5.994  1.00  0.00    -0.000 C 
BRANCH  25  26
ATOM     26  C   UNL     1       9.594  72.905  -5.686  1.00  0.00    -0.000 C 
BRANCH  26  27
ATOM     27  C   UNL     1      10.014  71.427  -5.555  1.00  0.00    -0.000 C 
BRANCH  27  28
ATOM     28  C   UNL     1       9.967  70.892  -4.108  1.00  0.00    -0.000 C 
BRANCH  28  29
ATOM     29  C   UNL     1      10.061  72.016  -3.066  1.00  0.00    -0.003 C 
ATOM     30  C   UNL     1      11.232  71.788  -2.114  1.00  0.00     0.004 C 
ENDBRANCH  28  29
ENDBRANCH  27  28
ENDBRANCH  26  27
ENDBRANCH  25  26
ENDBRANCH  24  25
ENDBRANCH  23  24
ENDBRANCH  22  23
ENDBRANCH  21  22
ENDBRANCH  20  21
ENDBRANCH  19  20
ENDBRANCH  18  19
ENDBRANCH  17  18
ENDBRANCH   1  17
TORSDOF 26
ENDMDL
MODEL 3
REMARK VINA RESULT:    -5.948      1.644      2.745
REMARK INTER + INTRA:         -19.701
REMARK INTER:                 -15.094
REMARK INTRA:                  -4.606
REMARK UNBOUND:                -4.713
REMARK SMILES CCCCCCCCCCCCCCCCCCCCCCCCCCCC(=O)[O-]
REMARK SMILES IDX 15 1 16 2 17 3 18 4 19 5 20 6 21 7 22 8 23 9 24 10 25 11
REMARK SMILES IDX 26 12 27 13 28 14 29 15 30 16 14 17 13 18 12 19 11 20 10 21
REMARK SMILES IDX 9 22 8 23 7 24 6 25 5 26 4 27 3 28 2 29 1 30
REMARK H PARENT
REMARK Flexibility Score: inf
ROOT
ATOM      1  C   UNL     1       8.704  74.573  -4.449  1.00  0.00     0.000 C 
ENDROOT
BRANCH   1   2
ATOM      2  C   UNL     1       9.512  73.978  -5.615  1.00  0.00     0.000 C 
BRANCH   2   3
ATOM      3  C   UNL     1       9.142  72.515  -5.907  1.00  0.00     0.000 C 
BRANCH   3   4
ATOM      4  C   UNL     1      10.220  71.532  -5.423  1.00  0.00     0.000 C 
BRANCH   4   5
ATOM      5  C   UNL     1       9.924  71.025  -4.007  1.00  0.00     0.000 C 
BRANCH   5   6
ATOM      6  C   UNL     1      11.003  71.507  -3.028  1.00  0.00     0.000 C 
BRANCH   6   7
ATOM      7  C   UNL     1      12.264  72.038  -3.724  1.00  0.00     0.000 C 
BRANCH   7   8
ATOM      8  C   UNL     1      13.032  73.062  -2.869  1.00  0.00     0.000 C 
BRANCH   8   9
ATOM      9  C   UNL     1      13.814  74.078  -3.720  1.00  0.00     0.000 C 
BRANCH   9  10
ATOM     10  C   UNL     1      13.375  75.537  -3.469  1.00  0.00     0.000 C 
BRANCH  10  11
ATOM     11  C   UNL     1      13.024  75.794  -1.992  1.00  0.00     0.000 C 
BRANCH  11  12
ATOM     12  C   UNL     1      13.054  77.290  -1.637  1.00  0.00     0.006 C 
BRANCH  12  13
ATOM     13  C   UNL     1      12.020  78.095  -2.439  1.00  0.00     0.053 C 
BRANCH  13  14
ATOM     14  C   UNL     1      11.701  79.389  -1.756  1.00  0.00     0.041 C 
ATOM     15  O   UNL     1      12.574  79.969  -1.058  1.00  0.00    -0.550 OA
ATOM     16  O   UNL     1      10.457  79.981  -1.932  1.00  0.00    -0.550 OA
ENDBRANCH  13  14
ENDBRANCH  12  13
ENDBRANCH  11  12
ENDBRANCH  10  11
ENDBRANCH   9  10
ENDBRANCH   8   9
ENDBRANCH   7   8
ENDBRANCH   6   7
ENDBRANCH   5   6
ENDBRANCH   4   5
ENDBRANCH   3   4
ENDBRANCH   2   3
ENDBRANCH   1   2
BRANCH   1  17
ATOM     17  C   UNL     1       9.582  74.960  -3.245  1.00  0.00     0.000 C 
BRANCH  17  18
ATOM     18  C   UNL     1       9.134  74.367  -1.891  1.00  0.00     0.000 C 
BRANCH  18  19
ATOM     19  C   UNL     1       9.833  74.955  -0.649  1.00  0.00     0.000 C 
BRANCH  19  20
ATOM     20  C   UNL     1       9.487  76.424  -0.337  1.00  0.00     0.000 C 
BRANCH  20  21
ATOM     21  C   UNL     1      10.046  76.926   1.011  1.00  0.00     0.000 C 
BRANCH  21  22
ATOM     22  C   UNL     1       9.735  78.410   1.262  1.00  0.00    -0.000 C 
BRANCH  22  23
ATOM     23  C   UNL     1       9.581  78.744   2.759  1.00  0.00    -0.000 C 
BRANCH  23  24
ATOM     24  C   UNL     1       8.133  78.731   3.288  1.00  0.00    -0.000 C 
BRANCH  24  25
ATOM     25  C   UNL     1       7.087  78.807   2.161  1.00  0.00    -0.000 C 
BRANCH  25  26
ATOM     26  C   UNL     1       6.114  77.616   2.169  1.00  0.00    -0.000 C 
BRANCH  26  27
ATOM     27  C   UNL     1       6.102  76.769   0.880  1.00  0.00    -0.000 C 
BRANCH  27  28
ATOM     28  C   UNL     1       5.678  75.302   1.104  1.00  0.00    -0.000 C 
BRANCH  28  29
ATOM     29  C   UNL     1       5.974  74.414  -0.114  1.00  0.00    -0.003 C 
ATOM     30  C   UNL     1       4.928  74.613  -1.207  1.00  0.00     0.004 C 
ENDBRANCH  28  29
ENDBRANCH  27  28
ENDBRANCH  26  27
ENDBRANCH  25  26
ENDBRANCH  24  25
ENDBRANCH  23  24
ENDBRANCH  22  23
ENDBRANCH  21  22
ENDBRANCH  20  21
ENDBRANCH  19  20
ENDBRANCH  18  19
ENDBRANCH  17  18
ENDBRANCH   1  17
TORSDOF 26
ENDMDL
MODEL 4
REMARK VINA RESULT:    -5.936      2.784      8.182
REMARK INTER + INTRA:         -19.671
REMARK INTER:                 -15.172
REMARK INTRA:                  -4.499
REMARK UNBOUND:                -4.713
REMARK SMILES CCCCCCCCCCCCCCCCCCCCCCCCCCCC(=O)[O-]
REMARK SMILES IDX 15 1 16 2 17 3 18 4 19 5 20 6 21 7 22 8 23 9 24 10 25 11
REMARK SMILES IDX 26 12 27 13 28 14 29 15 30 16 14 17 13 18 12 19 11 20 10 21
REMARK SMILES IDX 9 22 8 23 7 24 6 25 5 26 4 27 3 28 2 29 1 30
REMARK H PARENT
REMARK Flexibility Score: inf
ROOT
ATOM      1  C   UNL     1       8.751  74.615  -3.805  1.00  0.00     0.000 C 
ENDROOT
BRANCH   1   2
ATOM      2  C   UNL     1       9.307  75.286  -2.538  1.00  0.00     0.000 C 
BRANCH   2   3
ATOM      3  C   UNL     1       9.690  74.271  -1.449  1.00  0.00     0.000 C 
BRANCH   3   4
ATOM      4  C   UNL     1      10.331  74.942  -0.224  1.00  0.00     0.000 C 
BRANCH   4   5
ATOM      5  C   UNL     1      10.383  76.466  -0.381  1.00  0.00     0.000 C 
BRANCH   5   6
ATOM      6  C   UNL     1      10.483  77.144   0.993  1.00  0.00     0.000 C 
BRANCH   6   7
ATOM      7  C   UNL     1      10.753  78.652   0.910  1.00  0.00     0.000 C 
BRANCH   7   8
ATOM      8  C   UNL     1       9.669  79.492   1.611  1.00  0.00     0.000 C 
BRANCH   8   9
ATOM      9  C   UNL     1       9.293  78.938   2.996  1.00  0.00     0.000 C 
BRANCH   9  10
ATOM     10  C   UNL     1       7.783  78.649   3.137  1.00  0.00     0.000 C 
BRANCH  10  11
ATOM     11  C   UNL     1       7.029  78.820   1.805  1.00  0.00     0.000 C 
BRANCH  11  12
ATOM     12  C   UNL     1       6.178  77.588   1.454  1.00  0.00     0.006 C 
BRANCH  12  13
ATOM     13  C   UNL     1       7.002  76.500   0.748  1.00  0.00     0.053 C 
BRANCH  13  14
ATOM     14  C   UNL     1       6.166  75.287   0.480  1.00  0.00     0.041 C 
ATOM     15  O   UNL     1       5.363  74.864   1.352  1.00  0.00    -0.550 OA
ATOM     16  O   UNL     1       6.236  74.653  -0.755  1.00  0.00    -0.550 OA
ENDBRANCH  13  14
ENDBRANCH  12  13
ENDBRANCH  11  12
ENDBRANCH  10  11
ENDBRANCH   9  10
ENDBRANCH   8   9
ENDBRANCH   7   8
ENDBRANCH   6   7
ENDBRANCH   5   6
ENDBRANCH   4   5
ENDBRANCH   3   4
ENDBRANCH   2   3
ENDBRANCH   1   2
BRANCH   1  17
ATOM     17  C   UNL     1       9.799  74.485  -4.925  1.00  0.00     0.000 C 
BRANCH  17  18
ATOM     18  C   UNL     1       9.311  73.756  -6.197  1.00  0.00     0.000 C 
BRANCH  18  19
ATOM     19  C   UNL     1       9.121  72.233  -6.055  1.00  0.00     0.000 C 
BRANCH  19  20
ATOM     20  C   UNL     1      10.290  71.487  -5.384  1.00  0.00     0.000 C 
BRANCH  20  21
ATOM     21  C   UNL     1       9.958  70.937  -3.981  1.00  0.00     0.000 C 
BRANCH  21  22
ATOM     22  C   UNL     1      11.014  71.323  -2.933  1.00  0.00    -0.000 C 
BRANCH  22  23
ATOM     23  C   UNL     1      12.188  72.122  -3.532  1.00  0.00    -0.000 C 
BRANCH  23  24
ATOM     24  C   UNL     1      13.220  72.638  -2.510  1.00  0.00    -0.000 C 
BRANCH  24  25
ATOM     25  C   UNL     1      13.299  74.175  -2.470  1.00  0.00    -0.000 C 
BRANCH  25  26
ATOM     26  C   UNL     1      13.518  74.798  -3.858  1.00  0.00    -0.000 C 
BRANCH  26  27
ATOM     27  C   UNL     1      13.394  76.335  -3.915  1.00  0.00    -0.000 C 
BRANCH  27  28
ATOM     28  C   UNL     1      12.897  76.968  -2.598  1.00  0.00    -0.000 C 
BRANCH  28  29
ATOM     29  C   UNL     1      12.330  78.380  -2.805  1.00  0.00    -0.003 C 
ATOM     30  C   UNL     1      13.442  79.383  -3.096  1.00  0.00     0.004 C 
ENDBRANCH  28  29
ENDBRANCH  27  28
ENDBRANCH  26  27
ENDBRANCH  25  26
ENDBRANCH  24  25
ENDBRANCH  23  24
ENDBRANCH  22  23
ENDBRANCH  21  22
ENDBRANCH  20  21
ENDBRANCH  19  20
ENDBRANCH  18  19
ENDBRANCH  17  18
ENDBRANCH   1  17
TORSDOF 26
ENDMDL
MODEL 5
REMARK VINA RESULT:    -5.917      1.345      3.030
REMARK INTER + INTRA:         -19.623
REMARK INTER:                 -14.835
REMARK INTRA:                  -4.789
REMARK UNBOUND:                -4.713
REMARK SMILES CCCCCCCCCCCCCCCCCCCCCCCCCCCC(=O)[O-]
REMARK SMILES IDX 15 1 16 2 17 3 18 4 19 5 20 6 21 7 22 8 23 9 24 10 25 11
REMARK SMILES IDX 26 12 27 13 28 14 29 15 30 16 14 17 13 18 12 19 11 20 10 21
REMARK SMILES IDX 9 22 8 23 7 24 6 25 5 26 4 27 3 28 2 29 1 30
REMARK H PARENT
REMARK Flexibility Score: inf
ROOT
ATOM      1  C   UNL     1       8.890  74.796  -4.642  1.00  0.00     0.000 C 
ENDROOT
BRANCH   1   2
ATOM      2  C   UNL     1       9.766  73.911  -5.544  1.00  0.00     0.000 C 
BRANCH   2   3
ATOM      3  C   UNL     1       8.972  72.778  -6.214  1.00  0.00     0.000 C 
BRANCH   3   4
ATOM      4  C   UNL     1       9.481  71.387  -5.805  1.00  0.00     0.000 C 
BRANCH   4   5
ATOM      5  C   UNL     1      10.675  71.484  -4.849  1.00  0.00     0.000 C 
BRANCH   5   6
ATOM      6  C   UNL     1      10.252  71.112  -3.421  1.00  0.00     0.000 C 
BRANCH   6   7
ATOM      7  C   UNL     1      11.143  71.738  -2.339  1.00  0.00     0.000 C 
BRANCH   7   8
ATOM      8  C   UNL     1      12.589  71.965  -2.815  1.00  0.00     0.000 C 
BRANCH   8   9
ATOM      9  C   UNL     1      12.984  73.453  -2.825  1.00  0.00     0.000 C 
BRANCH   9  10
ATOM     10  C   UNL     1      13.234  73.998  -4.248  1.00  0.00     0.000 C 
BRANCH  10  11
ATOM     11  C   UNL     1      13.650  75.480  -4.240  1.00  0.00     0.000 C 
BRANCH  11  12
ATOM     12  C   UNL     1      13.291  76.181  -2.919  1.00  0.00     0.006 C 
BRANCH  12  13
ATOM     13  C   UNL     1      12.413  77.422  -3.144  1.00  0.00     0.053 C 
BRANCH  13  14
ATOM     14  C   UNL     1      13.199  78.678  -2.930  1.00  0.00     0.041 C 
ATOM     15  O   UNL     1      14.423  78.717  -3.219  1.00  0.00    -0.550 OA
ATOM     16  O   UNL     1      12.566  79.823  -2.461  1.00  0.00    -0.550 OA
ENDBRANCH  13  14
ENDBRANCH  12  13
ENDBRANCH  11  12
ENDBRANCH  10  11
ENDBRANCH   9  10
ENDBRANCH   8   9
ENDBRANCH   7   8
ENDBRANCH   6   7
ENDBRANCH   5   6
ENDBRANCH   4   5
ENDBRANCH   3   4
ENDBRANCH   2   3
ENDBRANCH   1   2
BRANCH   1  17
ATOM     17  C   UNL     1       9.505  75.031  -3.250  1.00  0.00     0.000 C 
BRANCH  17  18
ATOM     18  C   UNL     1       8.635  74.566  -2.062  1.00  0.00     0.000 C 
BRANCH  18  19
ATOM     19  C   UNL     1       9.239  74.808  -0.665  1.00  0.00     0.000 C 
BRANCH  19  20
ATOM     20  C   UNL     1      10.775  74.928  -0.627  1.00  0.00     0.000 C 
BRANCH  20  21
ATOM     21  C   UNL     1      11.298  75.950   0.403  1.00  0.00     0.000 C 
BRANCH  21  22
ATOM     22  C   UNL     1      10.241  77.000   0.779  1.00  0.00    -0.000 C 
BRANCH  22  23
ATOM     23  C   UNL     1      10.417  78.326   0.014  1.00  0.00    -0.000 C 
BRANCH  23  24
ATOM     24  C   UNL     1       9.476  78.518  -1.192  1.00  0.00    -0.000 C 
BRANCH  24  25
ATOM     25  C   UNL     1       8.455  79.649  -0.975  1.00  0.00    -0.000 C 
BRANCH  25  26
ATOM     26  C   UNL     1       8.105  79.862   0.507  1.00  0.00    -0.000 C 
BRANCH  26  27
ATOM     27  C   UNL     1       6.721  79.334   0.938  1.00  0.00    -0.000 C 
BRANCH  27  28
ATOM     28  C   UNL     1       6.714  78.673   2.333  1.00  0.00    -0.000 C 
BRANCH  28  29
ATOM     29  C   UNL     1       8.099  78.694   2.997  1.00  0.00    -0.003 C 
ATOM     30  C   UNL     1       7.997  79.078   4.470  1.00  0.00     0.004 C 
ENDBRANCH  28  29
ENDBRANCH  27  28
ENDBRANCH  26  27
ENDBRANCH  25  26
ENDBRANCH  24  25
ENDBRANCH  23  24
ENDBRANCH  22  23
ENDBRANCH  21  22
ENDBRANCH  20  21
ENDBRANCH  19  20
ENDBRANCH  18  19
ENDBRANCH  17  18
ENDBRANCH   1  17
TORSDOF 26
ENDMDL
MODEL 6
REMARK VINA RESULT:    -5.906      2.594      7.796
REMARK INTER + INTRA:         -19.597
REMARK INTER:                 -14.774
REMARK INTRA:                  -4.823
REMARK UNBOUND:                -4.713
REMARK SMILES CCCCCCCCCCCCCCCCCCCCCCCCCCCC(=O)[O-]
REMARK SMILES IDX 15 1 16 2 17 3 18 4 19 5 20 6 21 7 22 8 23 9 24 10 25 11
REMARK SMILES IDX 26 12 27 13 28 14 29 15 30 16 14 17 13 18 12 19 11 20 10 21
REMARK SMILES IDX 9 22 8 23 7 24 6 25 5 26 4 27 3 28 2 29 1 30
REMARK H PARENT
REMARK Flexibility Score: inf
ROOT
ATOM      1  C   UNL     1      10.312  76.887   0.971  1.00  0.00     0.000 C 
ENDROOT
BRANCH   1   2
ATOM      2  C   UNL     1      11.158  78.037   0.397  1.00  0.00     0.000 C 
BRANCH   2   3
ATOM      3  C   UNL     1      10.366  78.927  -0.575  1.00  0.00     0.000 C 
BRANCH   3   4
ATOM      4  C   UNL     1       9.534  78.106  -1.573  1.00  0.00     0.000 C 
BRANCH   4   5
ATOM      5  C   UNL     1      10.418  77.464  -2.648  1.00  0.00     0.000 C 
BRANCH   5   6
ATOM      6  C   UNL     1       9.787  76.159  -3.154  1.00  0.00     0.000 C 
BRANCH   6   7
ATOM      7  C   UNL     1       8.342  75.957  -2.676  1.00  0.00     0.000 C 
BRANCH   7   8
ATOM      8  C   UNL     1       8.189  74.750  -1.733  1.00  0.00     0.000 C 
BRANCH   8   9
ATOM      9  C   UNL     1       6.936  74.846  -0.845  1.00  0.00     0.000 C 
BRANCH   9  10
ATOM     10  C   UNL     1       7.210  75.539   0.507  1.00  0.00     0.000 C 
BRANCH  10  11
ATOM     11  C   UNL     1       6.129  76.576   0.862  1.00  0.00     0.000 C 
BRANCH  11  12
ATOM     12  C   UNL     1       6.727  77.956   1.184  1.00  0.00     0.006 C 
BRANCH  12  13
ATOM     13  C   UNL     1       6.512  78.349   2.654  1.00  0.00     0.053 C 
BRANCH  13  14
ATOM     14  C   UNL     1       7.791  78.823   3.273  1.00  0.00     0.041 C 
ATOM     15  O   UNL     1       8.683  79.352   2.560  1.00  0.00    -0.550 OA
ATOM     16  O   UNL     1       7.976  78.728   4.647  1.00  0.00    -0.550 OA
ENDBRANCH  13  14
ENDBRANCH  12  13
ENDBRANCH  11  12
ENDBRANCH  10  11
ENDBRANCH   9  10
ENDBRANCH   8   9
ENDBRANCH   7   8
ENDBRANCH   6   7
ENDBRANCH   5   6
ENDBRANCH   4   5
ENDBRANCH   3   4
ENDBRANCH   2   3
ENDBRANCH   1   2
BRANCH   1  17
ATOM     17  C   UNL     1      10.925  75.500   0.707  1.00  0.00     0.000 C 
BRANCH  17  18
ATOM     18  C   UNL     1      12.252  75.510  -0.083  1.00  0.00     0.000 C 
BRANCH  18  19
ATOM     19  C   UNL     1      12.264  74.658  -1.367  1.00  0.00     0.000 C 
BRANCH  19  20
ATOM     20  C   UNL     1      13.643  74.103  -1.773  1.00  0.00     0.000 C 
BRANCH  20  21
ATOM     21  C   UNL     1      13.603  72.658  -2.312  1.00  0.00     0.000 C 
BRANCH  21  22
ATOM     22  C   UNL     1      13.676  72.599  -3.846  1.00  0.00    -0.000 C 
BRANCH  22  23
ATOM     23  C   UNL     1      13.819  73.992  -4.491  1.00  0.00    -0.000 C 
BRANCH  23  24
ATOM     24  C   UNL     1      12.532  74.556  -5.125  1.00  0.00    -0.000 C 
BRANCH  24  25
ATOM     25  C   UNL     1      11.766  73.506  -5.951  1.00  0.00    -0.000 C 
BRANCH  25  26
ATOM     26  C   UNL     1      10.254  73.512  -5.671  1.00  0.00    -0.000 C 
BRANCH  26  27
ATOM     27  C   UNL     1       9.578  72.126  -5.688  1.00  0.00    -0.000 C 
BRANCH  27  28
ATOM     28  C   UNL     1      10.088  71.171  -4.588  1.00  0.00    -0.000 C 
BRANCH  28  29
ATOM     29  C   UNL     1      10.104  71.831  -3.201  1.00  0.00    -0.003 C 
ATOM     30  C   UNL     1      10.334  70.798  -2.103  1.00  0.00     0.004 C 
ENDBRANCH  28  29
ENDBRANCH  27  28
ENDBRANCH  26  27
ENDBRANCH  25  26
ENDBRANCH  24  25
ENDBRANCH  23  24
ENDBRANCH  22  23
ENDBRANCH  21  22
ENDBRANCH  20  21
ENDBRANCH  19  20
ENDBRANCH  18  19
ENDBRANCH  17  18
ENDBRANCH   1  17
TORSDOF 26
ENDMDL
MODEL 7
REMARK VINA RESULT:    -5.864      2.619      8.549
REMARK INTER + INTRA:         -19.491
REMARK INTER:                 -15.708
REMARK INTRA:                  -3.783
REMARK UNBOUND:                -4.713
REMARK SMILES CCCCCCCCCCCCCCCCCCCCCCCCCCCC(=O)[O-]
REMARK SMILES IDX 15 1 16 2 17 3 18 4 19 5 20 6 21 7 22 8 23 9 24 10 25 11
REMARK SMILES IDX 26 12 27 13 28 14 29 15 30 16 14 17 13 18 12 19 11 20 10 21
REMARK SMILES IDX 9 22 8 23 7 24 6 25 5 26 4 27 3 28 2 29 1 30
REMARK H PARENT
REMARK Flexibility Score: inf
ROOT
ATOM      1  C   UNL     1       9.475  76.469  -3.233  1.00  0.00     0.000 C 
ENDROOT
BRANCH   1   2
ATOM      2  C   UNL     1       9.149  77.729  -2.413  1.00  0.00     0.000 C 
BRANCH   2   3
ATOM      3  C   UNL     1      10.161  77.978  -1.283  1.00  0.00     0.000 C 
BRANCH   3   4
ATOM      4  C   UNL     1      10.234  76.803  -0.295  1.00  0.00     0.000 C 
BRANCH   4   5
ATOM      5  C   UNL     1      10.312  77.292   1.156  1.00  0.00     0.000 C 
BRANCH   5   6
ATOM      6  C   UNL     1      10.621  78.795   1.201  1.00  0.00     0.000 C 
BRANCH   6   7
ATOM      7  C   UNL     1       9.757  79.565   2.209  1.00  0.00     0.000 C 
BRANCH   7   8
ATOM      8  C   UNL     1       9.176  78.659   3.311  1.00  0.00     0.000 C 
BRANCH   8   9
ATOM      9  C   UNL     1       7.639  78.583   3.266  1.00  0.00     0.000 C 
BRANCH   9  10
ATOM     10  C   UNL     1       7.052  79.085   1.929  1.00  0.00     0.000 C 
BRANCH  10  11
ATOM     11  C   UNL     1       6.071  78.075   1.306  1.00  0.00     0.000 C 
BRANCH  11  12
ATOM     12  C   UNL     1       6.751  76.739   0.960  1.00  0.00     0.006 C 
BRANCH  12  13
ATOM     13  C   UNL     1       5.735  75.596   0.813  1.00  0.00     0.053 C 
BRANCH  13  14
ATOM     14  C   UNL     1       5.909  74.890  -0.496  1.00  0.00     0.041 C 
ATOM     15  O   UNL     1       7.062  74.631  -0.928  1.00  0.00    -0.550 OA
ATOM     16  O   UNL     1       4.795  74.471  -1.214  1.00  0.00    -0.550 OA
ENDBRANCH  13  14
ENDBRANCH  12  13
ENDBRANCH  11  12
ENDBRANCH  10  11
ENDBRANCH   9  10
ENDBRANCH   8   9
ENDBRANCH   7   8
ENDBRANCH   6   7
ENDBRANCH   5   6
ENDBRANCH   4   5
ENDBRANCH   3   4
ENDBRANCH   2   3
ENDBRANCH   1   2
BRANCH   1  17
ATOM     17  C   UNL     1       8.248  75.894  -3.964  1.00  0.00     0.000 C 
BRANCH  17  18
ATOM     18  C   UNL     1       8.388  74.426  -4.424  1.00  0.00     0.000 C 
BRANCH  18  19
ATOM     19  C   UNL     1       9.661  74.104  -5.231  1.00  0.00     0.000 C 
BRANCH  19  20
ATOM     20  C   UNL     1       9.655  72.738  -5.945  1.00  0.00     0.000 C 
BRANCH  20  21
ATOM     21  C   UNL     1      10.566  71.683  -5.285  1.00  0.00     0.000 C 
BRANCH  21  22
ATOM     22  C   UNL     1       9.889  70.980  -4.098  1.00  0.00    -0.000 C 
BRANCH  22  23
ATOM     23  C   UNL     1      10.362  71.520  -2.734  1.00  0.00    -0.000 C 
BRANCH  23  24
ATOM     24  C   UNL     1      11.891  71.574  -2.544  1.00  0.00    -0.000 C 
BRANCH  24  25
ATOM     25  C   UNL     1      12.463  72.992  -2.725  1.00  0.00    -0.000 C 
BRANCH  25  26
ATOM     26  C   UNL     1      13.641  73.039  -3.712  1.00  0.00    -0.000 C 
BRANCH  26  27
ATOM     27  C   UNL     1      13.975  74.437  -4.270  1.00  0.00    -0.000 C 
BRANCH  27  28
ATOM     28  C   UNL     1      12.856  75.478  -4.053  1.00  0.00    -0.000 C 
BRANCH  28  29
ATOM     29  C   UNL     1      13.296  76.626  -3.133  1.00  0.00    -0.003 C 
ATOM     30  C   UNL     1      13.700  77.855  -3.942  1.00  0.00     0.004 C 
ENDBRANCH  28  29
ENDBRANCH  27  28
ENDBRANCH  26  27
ENDBRANCH  25  26
ENDBRANCH  24  25
ENDBRANCH  23  24
ENDBRANCH  22  23
ENDBRANCH  21  22
ENDBRANCH  20  21
ENDBRANCH  19  20
ENDBRANCH  18  19
ENDBRANCH  17  18
ENDBRANCH   1  17
TORSDOF 26
ENDMDL
MODEL 8
REMARK VINA RESULT:    -5.851      1.197      2.182
REMARK INTER + INTRA:         -19.458
REMARK INTER:                 -14.919
REMARK INTRA:                  -4.539
REMARK UNBOUND:                -4.713
REMARK SMILES CCCCCCCCCCCCCCCCCCCCCCCCCCCC(=O)[O-]
REMARK SMILES IDX 15 1 16 2 17 3 18 4 19 5 20 6 21 7 22 8 23 9 24 10 25 11
REMARK SMILES IDX 26 12 27 13 28 14 29 15 30 16 14 17 13 18 12 19 11 20 10 21
REMARK SMILES IDX 9 22 8 23 7 24 6 25 5 26 4 27 3 28 2 29 1 30
REMARK H PARENT
REMARK Flexibility Score: inf
ROOT
ATOM      1  C   UNL     1       8.689  74.313  -3.560  1.00  0.00     0.000 C 
ENDROOT
BRANCH   1   2
ATOM      2  C   UNL     1       9.156  74.577  -5.002  1.00  0.00     0.000 C 
BRANCH   2   3
ATOM      3  C   UNL     1       8.982  73.353  -5.915  1.00  0.00     0.000 C 
BRANCH   3   4
ATOM      4  C   UNL     1      10.178  72.391  -5.837  1.00  0.00     0.000 C 
BRANCH   4   5
ATOM      5  C   UNL     1       9.822  71.112  -5.071  1.00  0.00     0.000 C 
BRANCH   5   6
ATOM      6  C   UNL     1      10.387  71.164  -3.644  1.00  0.00     0.000 C 
BRANCH   6   7
ATOM      7  C   UNL     1      11.773  71.818  -3.562  1.00  0.00     0.000 C 
BRANCH   7   8
ATOM      8  C   UNL     1      11.902  72.798  -2.382  1.00  0.00     0.000 C 
BRANCH   8   9
ATOM      9  C   UNL     1      12.938  73.906  -2.642  1.00  0.00     0.000 C 
BRANCH   9  10
ATOM     10  C   UNL     1      13.000  74.335  -4.124  1.00  0.00     0.000 C 
BRANCH  10  11
ATOM     11  C   UNL     1      13.394  75.814  -4.289  1.00  0.00     0.000 C 
BRANCH  11  12
ATOM     12  C   UNL     1      12.997  76.663  -3.070  1.00  0.00     0.006 C 
BRANCH  12  13
ATOM     13  C   UNL     1      14.054  77.728  -2.738  1.00  0.00     0.053 C 
BRANCH  13  14
ATOM     14  C   UNL     1      13.574  78.638  -1.650  1.00  0.00     0.041 C 
ATOM     15  O   UNL     1      13.782  78.347  -0.443  1.00  0.00    -0.550 OA
ATOM     16  O   UNL     1      12.944  79.834  -1.971  1.00  0.00    -0.550 OA
ENDBRANCH  13  14
ENDBRANCH  12  13
ENDBRANCH  11  12
ENDBRANCH  10  11
ENDBRANCH   9  10
ENDBRANCH   8   9
ENDBRANCH   7   8
ENDBRANCH   6   7
ENDBRANCH   5   6
ENDBRANCH   4   5
ENDBRANCH   3   4
ENDBRANCH   2   3
ENDBRANCH   1   2
BRANCH   1  17
ATOM     17  C   UNL     1       9.242  75.336  -2.552  1.00  0.00     0.000 C 
BRANCH  17  18
ATOM     18  C   UNL     1       9.277  76.797  -3.054  1.00  0.00     0.000 C 
BRANCH  18  19
ATOM     19  C   UNL     1       9.916  77.813  -2.088  1.00  0.00     0.000 C 
BRANCH  19  20
ATOM     20  C   UNL     1       9.097  79.097  -1.851  1.00  0.00     0.000 C 
BRANCH  20  21
ATOM     21  C   UNL     1       9.459  79.839  -0.548  1.00  0.00     0.000 C 
BRANCH  21  22
ATOM     22  C   UNL     1      10.426  79.037   0.337  1.00  0.00    -0.000 C 
BRANCH  22  23
ATOM     23  C   UNL     1      11.094  79.899   1.427  1.00  0.00    -0.000 C 
BRANCH  23  24
ATOM     24  C   UNL     1      10.306  80.015   2.746  1.00  0.00    -0.000 C 
BRANCH  24  25
ATOM     25  C   UNL     1       9.500  78.744   3.071  1.00  0.00    -0.000 C 
BRANCH  25  26
ATOM     26  C   UNL     1       8.268  79.027   3.947  1.00  0.00    -0.000 C 
BRANCH  26  27
ATOM     27  C   UNL     1       6.911  78.661   3.309  1.00  0.00    -0.000 C 
BRANCH  27  28
ATOM     28  C   UNL     1       6.942  78.611   1.767  1.00  0.00    -0.000 C 
BRANCH  28  29
ATOM     29  C   UNL     1       6.496  77.249   1.217  1.00  0.00    -0.003 C 
ATOM     30  C   UNL     1       7.662  76.508   0.570  1.00  0.00     0.004 C 
ENDBRANCH  28  29
ENDBRANCH  27  28
ENDBRANCH  26  27
ENDBRANCH  25  26
ENDBRANCH  24  25
ENDBRANCH  23  24
ENDBRANCH  22  23
ENDBRANCH  21  22
ENDBRANCH  20  21
ENDBRANCH  19  20
ENDBRANCH  18  19
ENDBRANCH  17  18
ENDBRANCH   1  17
TORSDOF 26
ENDMDL
MODEL 9
REMARK VINA RESULT:    -5.818      2.747      8.314
REMARK INTER + INTRA:         -19.374
REMARK INTER:                 -14.728
REMARK INTRA:                  -4.646
REMARK UNBOUND:                -4.713
REMARK SMILES CCCCCCCCCCCCCCCCCCCCCCCCCCCC(=O)[O-]
REMARK SMILES IDX 15 1 16 2 17 3 18 4 19 5 20 6 21 7 22 8 23 9 24 10 25 11
REMARK SMILES IDX 26 12 27 13 28 14 29 15 30 16 14 17 13 18 12 19 11 20 10 21
REMARK SMILES IDX 9 22 8 23 7 24 6 25 5 26 4 27 3 28 2 29 1 30
REMARK H PARENT
REMARK Flexibility Score: inf
ROOT
ATOM      1  C   UNL     1       9.258  74.779  -3.564  1.00  0.00     0.000 C 
ENDROOT
BRANCH   1   2
ATOM      2  C   UNL     1       8.699  75.986  -2.790  1.00  0.00     0.000 C 
BRANCH   2   3
ATOM      3  C   UNL     1       9.612  77.220  -2.878  1.00  0.00     0.000 C 
BRANCH   3   4
ATOM      4  C   UNL     1       9.267  78.278  -1.820  1.00  0.00     0.000 C 
BRANCH   4   5
ATOM      5  C   UNL     1      10.470  79.177  -1.510  1.00  0.00     0.000 C 
BRANCH   5   6
ATOM      6  C   UNL     1      10.229  79.972  -0.219  1.00  0.00     0.000 C 
BRANCH   6   7
ATOM      7  C   UNL     1      10.614  79.202   1.051  1.00  0.00     0.000 C 
BRANCH   7   8
ATOM      8  C   UNL     1      10.365  80.010   2.338  1.00  0.00     0.000 C 
BRANCH   8   9
ATOM      9  C   UNL     1       9.344  79.337   3.272  1.00  0.00     0.000 C 
BRANCH   9  10
ATOM     10  C   UNL     1       8.556  78.202   2.582  1.00  0.00     0.000 C 
BRANCH  10  11
ATOM     11  C   UNL     1       7.121  78.625   2.219  1.00  0.00     0.000 C 
BRANCH  11  12
ATOM     12  C   UNL     1       6.568  77.841   1.017  1.00  0.00     0.006 C 
BRANCH  12  13
ATOM     13  C   UNL     1       7.282  76.493   0.829  1.00  0.00     0.053 C 
BRANCH  13  14
ATOM     14  C   UNL     1       6.297  75.402   0.544  1.00  0.00     0.041 C 
ATOM     15  O   UNL     1       6.283  74.839  -0.582  1.00  0.00    -0.550 OA
ATOM     16  O   UNL     1       5.431  74.968   1.540  1.00  0.00    -0.550 OA
ENDBRANCH  13  14
ENDBRANCH  12  13
ENDBRANCH  11  12
ENDBRANCH  10  11
ENDBRANCH   9  10
ENDBRANCH   8   9
ENDBRANCH   7   8
ENDBRANCH   6   7
ENDBRANCH   5   6
ENDBRANCH   4   5
ENDBRANCH   3   4
ENDBRANCH   2   3
ENDBRANCH   1   2
BRANCH   1  17
ATOM     17  C   UNL     1       8.562  74.561  -4.920  1.00  0.00     0.000 C 
BRANCH  17  18
ATOM     18  C   UNL     1       9.387  73.771  -5.960  1.00  0.00     0.000 C 
BRANCH  18  19
ATOM     19  C   UNL     1       9.216  72.240  -5.914  1.00  0.00     0.000 C 
BRANCH  19  20
ATOM     20  C   UNL     1      10.467  71.455  -5.473  1.00  0.00     0.000 C 
BRANCH  20  21
ATOM     21  C   UNL     1      10.672  71.412  -3.944  1.00  0.00     0.000 C 
BRANCH  21  22
ATOM     22  C   UNL     1      11.870  72.259  -3.487  1.00  0.00    -0.000 C 
BRANCH  22  23
ATOM     23  C   UNL     1      12.816  72.631  -4.645  1.00  0.00    -0.000 C 
BRANCH  23  24
ATOM     24  C   UNL     1      12.919  74.139  -4.949  1.00  0.00    -0.000 C 
BRANCH  24  25
ATOM     25  C   UNL     1      13.953  74.855  -4.061  1.00  0.00    -0.000 C 
BRANCH  25  26
ATOM     26  C   UNL     1      13.674  76.361  -3.917  1.00  0.00    -0.000 C 
BRANCH  26  27
ATOM     27  C   UNL     1      13.034  76.784  -2.579  1.00  0.00    -0.000 C 
BRANCH  27  28
ATOM     28  C   UNL     1      12.802  75.612  -1.601  1.00  0.00    -0.000 C 
BRANCH  28  29
ATOM     29  C   UNL     1      12.233  76.079  -0.253  1.00  0.00    -0.003 C 
ATOM     30  C   UNL     1      10.967  75.307   0.107  1.00  0.00     0.004 C 
ENDBRANCH  28  29
ENDBRANCH  27  28
ENDBRANCH  26  27
ENDBRANCH  25  26
ENDBRANCH  24  25
ENDBRANCH  23  24
ENDBRANCH  22  23
ENDBRANCH  21  22
ENDBRANCH  20  21
ENDBRANCH  19  20
ENDBRANCH  18  19
ENDBRANCH  17  18
ENDBRANCH   1  17
TORSDOF 26
ENDMDL
