MODEL 1
REMARK VINA RESULT:    -3.720      0.000      0.000
REMARK INTER + INTRA:          -9.025
REMARK INTER:                  -7.199
REMARK INTRA:                  -1.826
REMARK UNBOUND:                -1.826
REMARK SMILES CCCCCCCCCCCCCCCC(=O)OCC
REMARK SMILES IDX 10 1 9 2 8 3 7 4 6 5 5 6 4 7 3 8 2 9 1 10 11 11 12 12 13 13
REMARK SMILES IDX 14 14 15 15 16 16 17 17 18 18 19 19 20 20
REMARK H PARENT
REMARK Flexibility Score: inf
ROOT
ATOM      1  C   UNL     1     199.212 202.344 215.965  1.00  0.00     0.000 C 
ENDROOT
BRANCH   1   2
ATOM      2  C   UNL     1     198.573 203.624 215.404  1.00  0.00     0.000 C 
BRANCH   2   3
ATOM      3  C   UNL     1     199.466 204.861 215.583  1.00  0.00     0.000 C 
BRANCH   3   4
ATOM      4  C   UNL     1     198.746 205.942 216.401  1.00  0.00    -0.000 C 
BRANCH   4   5
ATOM      5  C   UNL     1     197.343 205.507 216.853  1.00  0.00    -0.000 C 
BRANCH   5   6
ATOM      6  C   UNL     1     197.058 205.862 218.323  1.00  0.00    -0.000 C 
BRANCH   6   7
ATOM      7  C   UNL     1     196.125 204.848 219.003  1.00  0.00    -0.000 C 
BRANCH   7   8
ATOM      8  C   UNL     1     196.042 203.516 218.238  1.00  0.00    -0.000 C 
BRANCH   8   9
ATOM      9  C   UNL     1     195.901 202.307 219.175  1.00  0.00    -0.003 C 
ATOM     10  C   UNL     1     195.240 201.108 218.495  1.00  0.00     0.004 C 
ENDBRANCH   8   9
ENDBRANCH   7   8
ENDBRANCH   6   7
ENDBRANCH   5   6
ENDBRANCH   4   5
ENDBRANCH   3   4
ENDBRANCH   2   3
ENDBRANCH   1   2
BRANCH   1  11
ATOM     11  C   UNL     1     198.176 201.255 216.281  1.00  0.00     0.000 C 
BRANCH  11  12
ATOM     12  C   UNL     1     198.844 200.041 216.946  1.00  0.00     0.000 C 
BRANCH  12  13
ATOM     13  C   UNL     1     199.129 200.259 218.442  1.00  0.00     0.001 C 
BRANCH  13  14
ATOM     14  C   UNL     1     200.559 199.893 218.894  1.00  0.00     0.012 C 
BRANCH  14  15
ATOM     15  C   UNL     1     201.665 200.296 217.905  1.00  0.00     0.123 C 
BRANCH  15  16
ATOM     16  C   UNL     1     202.473 199.116 217.463  1.00  0.00     0.305 C 
ATOM     17  O   UNL     1     201.965 197.961 217.495  1.00  0.00    -0.252 OA
BRANCH  16  18
ATOM     18  O   UNL     1     203.772 199.315 216.983  1.00  0.00    -0.466 OA
BRANCH  18  19
ATOM     19  C   UNL     1     204.820 198.360 217.138  1.00  0.00     0.229 C 
ATOM     20  C   UNL     1     205.916 198.912 218.043  1.00  0.00     0.049 C 
ENDBRANCH  18  19
ENDBRANCH  16  18
ENDBRANCH  15  16
ENDBRANCH  14  15
ENDBRANCH  13  14
ENDBRANCH  12  13
ENDBRANCH  11  12
ENDBRANCH   1  11
TORSDOF 16
ENDMDL
MODEL 2
REMARK VINA RESULT:    -3.678      3.706      7.690
REMARK INTER + INTRA:          -8.944
REMARK INTER:                  -7.209
REMARK INTRA:                  -1.735
REMARK UNBOUND:                -1.826
REMARK SMILES CCCCCCCCCCCCCCCC(=O)OCC
REMARK SMILES IDX 10 1 9 2 8 3 7 4 6 5 5 6 4 7 3 8 2 9 1 10 11 11 12 12 13 13
REMARK SMILES IDX 14 14 15 15 16 16 17 17 18 18 19 19 20 20
REMARK H PARENT
REMARK Flexibility Score: inf
ROOT
ATOM      1  C   UNL     1     196.722 202.177 216.990  1.00  0.00     0.000 C 
ENDROOT
BRANCH   1   2
ATOM      2  C   UNL     1     198.164 201.645 216.993  1.00  0.00     0.000 C 
BRANCH   2   3
ATOM      3  C   UNL     1     198.253 200.175 217.430  1.00  0.00     0.000 C 
BRANCH   3   4
ATOM      4  C   UNL     1     198.776 200.063 218.870  1.00  0.00    -0.000 C 
BRANCH   4   5
ATOM      5  C   UNL     1     200.309 199.975 218.938  1.00  0.00    -0.000 C 
BRANCH   5   6
ATOM      6  C   UNL     1     200.875 198.837 218.071  1.00  0.00    -0.000 C 
BRANCH   6   7
ATOM      7  C   UNL     1     202.257 199.171 217.490  1.00  0.00    -0.000 C 
BRANCH   7   8
ATOM      8  C   UNL     1     202.489 200.686 217.353  1.00  0.00    -0.000 C 
BRANCH   8   9
ATOM      9  C   UNL     1     202.205 201.199 215.933  1.00  0.00    -0.003 C 
ATOM     10  C   UNL     1     201.731 202.653 215.915  1.00  0.00     0.004 C 
ENDBRANCH   8   9
ENDBRANCH   7   8
ENDBRANCH   6   7
ENDBRANCH   5   6
ENDBRANCH   4   5
ENDBRANCH   3   4
ENDBRANCH   2   3
ENDBRANCH   1   2
BRANCH   1  11
ATOM     11  C   UNL     1     196.278 202.691 218.367  1.00  0.00     0.000 C 
BRANCH  11  12
ATOM     12  C   UNL     1     195.535 204.030 218.238  1.00  0.00     0.000 C 
BRANCH  12  13
ATOM     13  C   UNL     1     196.155 205.143 219.099  1.00  0.00     0.001 C 
BRANCH  13  14
ATOM     14  C   UNL     1     196.277 206.516 218.403  1.00  0.00     0.012 C 
BRANCH  14  15
ATOM     15  C   UNL     1     195.346 206.704 217.194  1.00  0.00     0.123 C 
BRANCH  15  16
ATOM     16  C   UNL     1     196.099 207.132 215.973  1.00  0.00     0.305 C 
ATOM     17  O   UNL     1     195.873 208.263 215.462  1.00  0.00    -0.252 OA
BRANCH  16  18
ATOM     18  O   UNL     1     197.072 206.283 215.435  1.00  0.00    -0.466 OA
BRANCH  18  19
ATOM     19  C   UNL     1     198.460 206.606 215.399  1.00  0.00     0.229 C 
ATOM     20  C   UNL     1     199.290 205.462 215.971  1.00  0.00     0.049 C 
ENDBRANCH  18  19
ENDBRANCH  16  18
ENDBRANCH  15  16
ENDBRANCH  14  15
ENDBRANCH  13  14
ENDBRANCH  12  13
ENDBRANCH  11  12
ENDBRANCH   1  11
TORSDOF 16
ENDMDL
MODEL 3
REMARK VINA RESULT:    -3.673      4.492      6.638
REMARK INTER + INTRA:          -8.934
REMARK INTER:                  -6.301
REMARK INTRA:                  -2.633
REMARK UNBOUND:                -1.826
REMARK SMILES CCCCCCCCCCCCCCCC(=O)OCC
REMARK SMILES IDX 10 1 9 2 8 3 7 4 6 5 5 6 4 7 3 8 2 9 1 10 11 11 12 12 13 13
REMARK SMILES IDX 14 14 15 15 16 16 17 17 18 18 19 19 20 20
REMARK H PARENT
REMARK Flexibility Score: inf
ROOT
ATOM      1  C   UNL     1     202.687 197.608 214.375  1.00  0.00     0.000 C 
ENDROOT
BRANCH   1   2
ATOM      2  C   UNL     1     201.547 198.041 215.311  1.00  0.00     0.000 C 
BRANCH   2   3
ATOM      3  C   UNL     1     201.237 196.995 216.392  1.00  0.00     0.000 C 
BRANCH   3   4
ATOM      4  C   UNL     1     200.873 197.673 217.722  1.00  0.00    -0.000 C 
BRANCH   4   5
ATOM      5  C   UNL     1     200.475 199.147 217.545  1.00  0.00    -0.000 C 
BRANCH   5   6
ATOM      6  C   UNL     1     201.275 200.090 218.462  1.00  0.00    -0.000 C 
BRANCH   6   7
ATOM      7  C   UNL     1     202.443 200.770 217.733  1.00  0.00    -0.000 C 
BRANCH   7   8
ATOM      8  C   UNL     1     201.995 201.502 216.456  1.00  0.00    -0.000 C 
BRANCH   8   9
ATOM      9  C   UNL     1     203.073 201.488 215.361  1.00  0.00    -0.003 C 
ATOM     10  C   UNL     1     202.893 202.613 214.342  1.00  0.00     0.004 C 
ENDBRANCH   8   9
ENDBRANCH   7   8
ENDBRANCH   6   7
ENDBRANCH   5   6
ENDBRANCH   4   5
ENDBRANCH   3   4
ENDBRANCH   2   3
ENDBRANCH   1   2
BRANCH   1  11
ATOM     11  C   UNL     1     203.935 197.141 215.139  1.00  0.00     0.000 C 
BRANCH  11  12
ATOM     12  C   UNL     1     204.588 198.313 215.889  1.00  0.00     0.000 C 
BRANCH  12  13
ATOM     13  C   UNL     1     204.824 198.012 217.379  1.00  0.00     0.001 C 
BRANCH  13  14
ATOM     14  C   UNL     1     205.858 198.924 218.073  1.00  0.00     0.012 C 
BRANCH  14  15
ATOM     15  C   UNL     1     206.606 199.878 217.128  1.00  0.00     0.123 C 
BRANCH  15  16
ATOM     16  C   UNL     1     207.869 199.267 216.604  1.00  0.00     0.305 C 
ATOM     17  O   UNL     1     208.299 199.598 215.466  1.00  0.00    -0.252 OA
BRANCH  16  18
ATOM     18  O   UNL     1     208.576 198.362 217.403  1.00  0.00    -0.466 OA
BRANCH  18  19
ATOM     19  C   UNL     1     209.068 197.113 216.925  1.00  0.00     0.229 C 
ATOM     20  C   UNL     1     207.926 196.259 216.385  1.00  0.00     0.049 C 
ENDBRANCH  18  19
ENDBRANCH  16  18
ENDBRANCH  15  16
ENDBRANCH  14  15
ENDBRANCH  13  14
ENDBRANCH  12  13
ENDBRANCH  11  12
ENDBRANCH   1  11
TORSDOF 16
ENDMDL
MODEL 4
REMARK VINA RESULT:    -3.648      5.175      8.337
REMARK INTER + INTRA:          -8.887
REMARK INTER:                  -6.664
REMARK INTRA:                  -2.224
REMARK UNBOUND:                -1.826
REMARK SMILES CCCCCCCCCCCCCCCC(=O)OCC
REMARK SMILES IDX 10 1 9 2 8 3 7 4 6 5 5 6 4 7 3 8 2 9 1 10 11 11 12 12 13 13
REMARK SMILES IDX 14 14 15 15 16 16 17 17 18 18 19 19 20 20
REMARK H PARENT
REMARK Flexibility Score: inf
ROOT
ATOM      1  C   UNL     1     195.872 207.180 216.324  1.00  0.00     0.000 C 
ENDROOT
BRANCH   1   2
ATOM      2  C   UNL     1     194.935 206.655 217.424  1.00  0.00     0.000 C 
BRANCH   2   3
ATOM      3  C   UNL     1     195.614 206.591 218.800  1.00  0.00     0.000 C 
BRANCH   3   4
ATOM      4  C   UNL     1     196.496 205.339 218.917  1.00  0.00    -0.000 C 
BRANCH   4   5
ATOM      5  C   UNL     1     195.796 204.071 218.400  1.00  0.00    -0.000 C 
BRANCH   5   6
ATOM      6  C   UNL     1     196.733 203.175 217.571  1.00  0.00    -0.000 C 
BRANCH   6   7
ATOM      7  C   UNL     1     196.890 203.668 216.124  1.00  0.00    -0.000 C 
BRANCH   7   8
ATOM      8  C   UNL     1     198.362 203.757 215.687  1.00  0.00    -0.000 C 
BRANCH   8   9
ATOM      9  C   UNL     1     198.787 205.192 215.339  1.00  0.00    -0.003 C 
ATOM     10  C   UNL     1     199.297 205.967 216.553  1.00  0.00     0.004 C 
ENDBRANCH   8   9
ENDBRANCH   7   8
ENDBRANCH   6   7
ENDBRANCH   5   6
ENDBRANCH   4   5
ENDBRANCH   3   4
ENDBRANCH   2   3
ENDBRANCH   1   2
BRANCH   1  11
ATOM     11  C   UNL     1     195.165 207.337 214.969  1.00  0.00     0.000 C 
BRANCH  11  12
ATOM     12  C   UNL     1     195.643 208.606 214.247  1.00  0.00     0.000 C 
BRANCH  12  13
ATOM     13  C   UNL     1     196.474 209.533 215.151  1.00  0.00     0.001 C 
BRANCH  13  14
ATOM     14  C   UNL     1     197.936 209.743 214.702  1.00  0.00     0.012 C 
BRANCH  14  15
ATOM     15  C   UNL     1     198.445 208.716 213.678  1.00  0.00     0.123 C 
BRANCH  15  16
ATOM     16  C   UNL     1     199.939 208.621 213.679  1.00  0.00     0.305 C 
ATOM     17  O   UNL     1     200.562 208.572 214.775  1.00  0.00    -0.252 OA
BRANCH  16  18
ATOM     18  O   UNL     1     200.623 208.551 212.461  1.00  0.00    -0.466 OA
BRANCH  18  19
ATOM     19  C   UNL     1     200.198 209.232 211.283  1.00  0.00     0.229 C 
ATOM     20  C   UNL     1     201.378 209.465 210.345  1.00  0.00     0.049 C 
ENDBRANCH  18  19
ENDBRANCH  16  18
ENDBRANCH  15  16
ENDBRANCH  14  15
ENDBRANCH  13  14
ENDBRANCH  12  13
ENDBRANCH  11  12
ENDBRANCH   1  11
TORSDOF 16
ENDMDL
MODEL 5
REMARK VINA RESULT:    -3.646      3.930      6.069
REMARK INTER + INTRA:          -8.882
REMARK INTER:                  -5.794
REMARK INTRA:                  -3.088
REMARK UNBOUND:                -1.826
REMARK SMILES CCCCCCCCCCCCCCCC(=O)OCC
REMARK SMILES IDX 10 1 9 2 8 3 7 4 6 5 5 6 4 7 3 8 2 9 1 10 11 11 12 12 13 13
REMARK SMILES IDX 14 14 15 15 16 16 17 17 18 18 19 19 20 20
REMARK H PARENT
REMARK Flexibility Score: inf
ROOT
ATOM      1  C   UNL     1     200.648 197.071 216.083  1.00  0.00     0.000 C 
ENDROOT
BRANCH   1   2
ATOM      2  C   UNL     1     199.828 198.368 215.987  1.00  0.00     0.000 C 
BRANCH   2   3
ATOM      3  C   UNL     1     199.148 198.740 217.313  1.00  0.00     0.000 C 
BRANCH   3   4
ATOM      4  C   UNL     1     199.590 200.134 217.782  1.00  0.00    -0.000 C 
BRANCH   4   5
ATOM      5  C   UNL     1     200.784 200.082 218.749  1.00  0.00    -0.000 C 
BRANCH   5   6
ATOM      6  C   UNL     1     202.095 200.554 218.095  1.00  0.00    -0.000 C 
BRANCH   6   7
ATOM      7  C   UNL     1     201.853 201.371 216.816  1.00  0.00    -0.000 C 
BRANCH   7   8
ATOM      8  C   UNL     1     202.857 201.032 215.701  1.00  0.00    -0.000 C 
BRANCH   8   9
ATOM      9  C   UNL     1     202.169 200.738 214.358  1.00  0.00    -0.003 C 
ATOM     10  C   UNL     1     203.157 200.323 213.268  1.00  0.00     0.004 C 
ENDBRANCH   8   9
ENDBRANCH   7   8
ENDBRANCH   6   7
ENDBRANCH   5   6
ENDBRANCH   4   5
ENDBRANCH   3   4
ENDBRANCH   2   3
ENDBRANCH   1   2
BRANCH   1  11
ATOM     11  C   UNL     1     202.081 197.313 216.581  1.00  0.00     0.000 C 
BRANCH  11  12
ATOM     12  C   UNL     1     203.075 197.316 215.410  1.00  0.00     0.000 C 
BRANCH  12  13
ATOM     13  C   UNL     1     204.507 197.677 215.841  1.00  0.00     0.001 C 
BRANCH  13  14
ATOM     14  C   UNL     1     204.680 197.972 217.346  1.00  0.00     0.012 C 
BRANCH  14  15
ATOM     15  C   UNL     1     205.530 199.214 217.661  1.00  0.00     0.123 C 
BRANCH  15  16
ATOM     16  C   UNL     1     206.952 199.040 217.227  1.00  0.00     0.305 C 
ATOM     17  O   UNL     1     207.595 198.015 217.585  1.00  0.00    -0.252 OA
BRANCH  16  18
ATOM     18  O   UNL     1     207.539 200.001 216.397  1.00  0.00    -0.466 OA
BRANCH  18  19
ATOM     19  C   UNL     1     207.200 200.162 215.022  1.00  0.00     0.229 C 
ATOM     20  C   UNL     1     206.425 201.458 214.811  1.00  0.00     0.049 C 
ENDBRANCH  18  19
ENDBRANCH  16  18
ENDBRANCH  15  16
ENDBRANCH  14  15
ENDBRANCH  13  14
ENDBRANCH  12  13
ENDBRANCH  11  12
ENDBRANCH   1  11
TORSDOF 16
ENDMDL
MODEL 6
REMARK VINA RESULT:    -3.638      1.662      3.520
REMARK INTER + INTRA:          -8.866
REMARK INTER:                  -7.197
REMARK INTRA:                  -1.669
REMARK UNBOUND:                -1.826
REMARK SMILES CCCCCCCCCCCCCCCC(=O)OCC
REMARK SMILES IDX 10 1 9 2 8 3 7 4 6 5 5 6 4 7 3 8 2 9 1 10 11 11 12 12 13 13
REMARK SMILES IDX 14 14 15 15 16 16 17 17 18 18 19 19 20 20
REMARK H PARENT
REMARK Flexibility Score: inf
ROOT
ATOM      1  C   UNL     1     196.628 203.245 217.543  1.00  0.00     0.000 C 
ENDROOT
BRANCH   1   2
ATOM      2  C   UNL     1     195.661 203.892 218.548  1.00  0.00     0.000 C 
BRANCH   2   3
ATOM      3  C   UNL     1     196.273 205.106 219.262  1.00  0.00     0.000 C 
BRANCH   3   4
ATOM      4  C   UNL     1     196.122 206.376 218.410  1.00  0.00    -0.000 C 
BRANCH   4   5
ATOM      5  C   UNL     1     194.826 206.384 217.584  1.00  0.00    -0.000 C 
BRANCH   5   6
ATOM      6  C   UNL     1     195.023 206.984 216.181  1.00  0.00    -0.000 C 
BRANCH   6   7
ATOM      7  C   UNL     1     196.431 207.564 215.982  1.00  0.00    -0.000 C 
BRANCH   7   8
ATOM      8  C   UNL     1     197.186 206.895 214.819  1.00  0.00    -0.000 C 
BRANCH   8   9
ATOM      9  C   UNL     1     197.945 205.633 215.259  1.00  0.00    -0.003 C 
ATOM     10  C   UNL     1     199.070 205.936 216.248  1.00  0.00     0.004 C 
ENDBRANCH   8   9
ENDBRANCH   7   8
ENDBRANCH   6   7
ENDBRANCH   5   6
ENDBRANCH   4   5
ENDBRANCH   3   4
ENDBRANCH   2   3
ENDBRANCH   1   2
BRANCH   1  11
ATOM     11  C   UNL     1     196.656 201.713 217.651  1.00  0.00     0.000 C 
BRANCH  11  12
ATOM     12  C   UNL     1     196.586 201.266 219.119  1.00  0.00     0.000 C 
BRANCH  12  13
ATOM     13  C   UNL     1     197.746 200.337 219.518  1.00  0.00     0.001 C 
BRANCH  13  14
ATOM     14  C   UNL     1     198.773 200.059 218.400  1.00  0.00     0.012 C 
BRANCH  14  15
ATOM     15  C   UNL     1     200.240 200.077 218.859  1.00  0.00     0.123 C 
BRANCH  15  16
ATOM     16  C   UNL     1     201.172 200.402 217.734  1.00  0.00     0.305 C 
ATOM     17  O   UNL     1     200.705 200.704 216.601  1.00  0.00    -0.252 OA
BRANCH  16  18
ATOM     18  O   UNL     1     202.552 200.403 217.964  1.00  0.00    -0.466 OA
BRANCH  18  19
ATOM     19  C   UNL     1     203.506 199.941 217.011  1.00  0.00     0.229 C 
ATOM     20  C   UNL     1     203.727 198.440 217.161  1.00  0.00     0.049 C 
ENDBRANCH  18  19
ENDBRANCH  16  18
ENDBRANCH  15  16
ENDBRANCH  14  15
ENDBRANCH  13  14
ENDBRANCH  12  13
ENDBRANCH  11  12
ENDBRANCH   1  11
TORSDOF 16
ENDMDL
MODEL 7
REMARK VINA RESULT:    -3.630      3.434      5.995
REMARK INTER + INTRA:          -8.852
REMARK INTER:                  -6.877
REMARK INTRA:                  -1.975
REMARK UNBOUND:                -1.826
REMARK SMILES CCCCCCCCCCCCCCCC(=O)OCC
REMARK SMILES IDX 10 1 9 2 8 3 7 4 6 5 5 6 4 7 3 8 2 9 1 10 11 11 12 12 13 13
REMARK SMILES IDX 14 14 15 15 16 16 17 17 18 18 19 19 20 20
REMARK H PARENT
REMARK Flexibility Score: inf
ROOT
ATOM      1  C   UNL     1     194.540 206.388 217.665  1.00  0.00     0.000 C 
ENDROOT
BRANCH   1   2
ATOM      2  C   UNL     1     194.692 206.730 216.174  1.00  0.00     0.000 C 
BRANCH   2   3
ATOM      3  C   UNL     1     195.801 207.760 215.913  1.00  0.00     0.000 C 
BRANCH   3   4
ATOM      4  C   UNL     1     195.554 208.508 214.594  1.00  0.00    -0.000 C 
BRANCH   4   5
ATOM      5  C   UNL     1     196.191 209.907 214.580  1.00  0.00    -0.000 C 
BRANCH   5   6
ATOM      6  C   UNL     1     197.665 209.890 215.022  1.00  0.00    -0.000 C 
BRANCH   6   7
ATOM      7  C   UNL     1     198.574 209.172 214.013  1.00  0.00    -0.000 C 
BRANCH   7   8
ATOM      8  C   UNL     1     199.676 208.344 214.696  1.00  0.00    -0.000 C 
BRANCH   8   9
ATOM      9  C   UNL     1     199.179 206.962 215.148  1.00  0.00    -0.003 C 
ATOM     10  C   UNL     1     198.602 206.137 213.998  1.00  0.00     0.004 C 
ENDBRANCH   8   9
ENDBRANCH   7   8
ENDBRANCH   6   7
ENDBRANCH   5   6
ENDBRANCH   4   5
ENDBRANCH   3   4
ENDBRANCH   2   3
ENDBRANCH   1   2
BRANCH   1  11
ATOM     11  C   UNL     1     195.744 206.840 218.503  1.00  0.00     0.000 C 
BRANCH  11  12
ATOM     12  C   UNL     1     196.739 205.685 218.699  1.00  0.00     0.000 C 
BRANCH  12  13
ATOM     13  C   UNL     1     196.047 204.325 218.892  1.00  0.00     0.001 C 
BRANCH  13  14
ATOM     14  C   UNL     1     196.366 203.270 217.811  1.00  0.00     0.012 C 
BRANCH  14  15
ATOM     15  C   UNL     1     197.173 203.803 216.616  1.00  0.00     0.123 C 
BRANCH  15  16
ATOM     16  C   UNL     1     198.069 202.754 216.036  1.00  0.00     0.305 C 
ATOM     17  O   UNL     1     197.680 201.554 215.992  1.00  0.00    -0.252 OA
BRANCH  16  18
ATOM     18  O   UNL     1     199.314 203.124 215.516  1.00  0.00    -0.466 OA
BRANCH  18  19
ATOM     19  C   UNL     1     200.391 202.209 215.334  1.00  0.00     0.229 C 
ATOM     20  C   UNL     1     201.717 202.864 215.707  1.00  0.00     0.049 C 
ENDBRANCH  18  19
ENDBRANCH  16  18
ENDBRANCH  15  16
ENDBRANCH  14  15
ENDBRANCH  13  14
ENDBRANCH  12  13
ENDBRANCH  11  12
ENDBRANCH   1  11
TORSDOF 16
ENDMDL
MODEL 8
REMARK VINA RESULT:    -3.609      3.535      8.543
REMARK INTER + INTRA:          -8.810
REMARK INTER:                  -6.538
REMARK INTRA:                  -2.272
REMARK UNBOUND:                -1.826
REMARK SMILES CCCCCCCCCCCCCCCC(=O)OCC
REMARK SMILES IDX 10 1 9 2 8 3 7 4 6 5 5 6 4 7 3 8 2 9 1 10 11 11 12 12 13 13
REMARK SMILES IDX 14 14 15 15 16 16 17 17 18 18 19 19 20 20
REMARK H PARENT
REMARK Flexibility Score: inf
ROOT
ATOM      1  C   UNL     1     203.575 198.000 215.580  1.00  0.00     0.000 C 
ENDROOT
BRANCH   1   2
ATOM      2  C   UNL     1     204.181 199.154 214.765  1.00  0.00     0.000 C 
BRANCH   2   3
ATOM      3  C   UNL     1     205.351 198.704 213.878  1.00  0.00     0.000 C 
BRANCH   3   4
ATOM      4  C   UNL     1     206.563 199.630 214.058  1.00  0.00    -0.000 C 
BRANCH   4   5
ATOM      5  C   UNL     1     206.341 200.690 215.149  1.00  0.00    -0.000 C 
BRANCH   5   6
ATOM      6  C   UNL     1     207.333 200.554 216.318  1.00  0.00    -0.000 C 
BRANCH   6   7
ATOM      7  C   UNL     1     206.845 199.569 217.391  1.00  0.00    -0.000 C 
BRANCH   7   8
ATOM      8  C   UNL     1     207.560 198.209 217.313  1.00  0.00    -0.000 C 
BRANCH   8   9
ATOM      9  C   UNL     1     206.583 197.025 217.385  1.00  0.00    -0.003 C 
ATOM     10  C   UNL     1     206.746 196.054 216.216  1.00  0.00     0.004 C 
ENDBRANCH   8   9
ENDBRANCH   7   8
ENDBRANCH   6   7
ENDBRANCH   5   6
ENDBRANCH   4   5
ENDBRANCH   3   4
ENDBRANCH   2   3
ENDBRANCH   1   2
BRANCH   1  11
ATOM     11  C   UNL     1     203.244 198.405 217.023  1.00  0.00     0.000 C 
BRANCH  11  12
ATOM     12  C   UNL     1     203.287 199.932 217.188  1.00  0.00     0.000 C 
BRANCH  12  13
ATOM     13  C   UNL     1     202.019 200.498 217.852  1.00  0.00     0.001 C 
BRANCH  13  14
ATOM     14  C   UNL     1     200.946 199.448 218.211  1.00  0.00     0.012 C 
BRANCH  14  15
ATOM     15  C   UNL     1     199.702 200.019 218.910  1.00  0.00     0.123 C 
BRANCH  15  16
ATOM     16  C   UNL     1     198.473 199.875 218.066  1.00  0.00     0.305 C 
ATOM     17  O   UNL     1     198.569 199.414 216.895  1.00  0.00    -0.252 OA
BRANCH  16  18
ATOM     18  O   UNL     1     197.228 200.218 218.602  1.00  0.00    -0.466 OA
BRANCH  18  19
ATOM     19  C   UNL     1     196.895 200.055 219.978  1.00  0.00     0.229 C 
ATOM     20  C   UNL     1     196.080 201.244 220.476  1.00  0.00     0.049 C 
ENDBRANCH  18  19
ENDBRANCH  16  18
ENDBRANCH  15  16
ENDBRANCH  14  15
ENDBRANCH  13  14
ENDBRANCH  12  13
ENDBRANCH  11  12
ENDBRANCH   1  11
TORSDOF 16
ENDMDL
MODEL 9
REMARK VINA RESULT:    -3.541      3.217      8.246
REMARK INTER + INTRA:          -8.680
REMARK INTER:                  -6.080
REMARK INTRA:                  -2.599
REMARK UNBOUND:                -1.826
REMARK SMILES CCCCCCCCCCCCCCCC(=O)OCC
REMARK SMILES IDX 10 1 9 2 8 3 7 4 6 5 5 6 4 7 3 8 2 9 1 10 11 11 12 12 13 13
REMARK SMILES IDX 14 14 15 15 16 16 17 17 18 18 19 19 20 20
REMARK H PARENT
REMARK Flexibility Score: inf
ROOT
ATOM      1  C   UNL     1     203.501 198.068 215.531  1.00  0.00     0.000 C 
ENDROOT
BRANCH   1   2
ATOM      2  C   UNL     1     204.126 199.225 214.736  1.00  0.00     0.000 C 
BRANCH   2   3
ATOM      3  C   UNL     1     205.257 198.762 213.805  1.00  0.00     0.000 C 
BRANCH   3   4
ATOM      4  C   UNL     1     206.495 199.658 213.960  1.00  0.00    -0.000 C 
BRANCH   4   5
ATOM      5  C   UNL     1     206.326 200.714 215.065  1.00  0.00    -0.000 C 
BRANCH   5   6
ATOM      6  C   UNL     1     207.398 200.596 216.164  1.00  0.00    -0.000 C 
BRANCH   6   7
ATOM      7  C   UNL     1     206.974 199.652 217.299  1.00  0.00    -0.000 C 
BRANCH   7   8
ATOM      8  C   UNL     1     207.630 198.265 217.188  1.00  0.00    -0.000 C 
BRANCH   8   9
ATOM      9  C   UNL     1     206.628 197.120 217.404  1.00  0.00    -0.003 C 
ATOM     10  C   UNL     1     206.658 196.089 216.276  1.00  0.00     0.004 C 
ENDBRANCH   8   9
ENDBRANCH   7   8
ENDBRANCH   6   7
ENDBRANCH   5   6
ENDBRANCH   4   5
ENDBRANCH   3   4
ENDBRANCH   2   3
ENDBRANCH   1   2
BRANCH   1  11
ATOM     11  C   UNL     1     203.297 198.410 217.014  1.00  0.00     0.000 C 
BRANCH  11  12
ATOM     12  C   UNL     1     203.399 199.926 217.245  1.00  0.00     0.000 C 
BRANCH  12  13
ATOM     13  C   UNL     1     202.157 200.509 217.942  1.00  0.00     0.001 C 
BRANCH  13  14
ATOM     14  C   UNL     1     201.051 199.483 218.270  1.00  0.00     0.012 C 
BRANCH  14  15
ATOM     15  C   UNL     1     199.836 200.068 219.008  1.00  0.00     0.123 C 
BRANCH  15  16
ATOM     16  C   UNL     1     198.709 200.375 218.071  1.00  0.00     0.305 C 
ATOM     17  O   UNL     1     197.583 200.706 218.534  1.00  0.00    -0.252 OA
BRANCH  16  18
ATOM     18  O   UNL     1     198.932 200.327 216.691  1.00  0.00    -0.466 OA
BRANCH  18  19
ATOM     19  C   UNL     1     199.124 201.489 215.888  1.00  0.00     0.229 C 
ATOM     20  C   UNL     1     200.230 201.255 214.865  1.00  0.00     0.049 C 
ENDBRANCH  18  19
ENDBRANCH  16  18
ENDBRANCH  15  16
ENDBRANCH  14  15
ENDBRANCH  13  14
ENDBRANCH  12  13
ENDBRANCH  11  12
ENDBRANCH   1  11
TORSDOF 16
ENDMDL
