MODEL 1
REMARK VINA RESULT:    34.438      0.000      0.000
REMARK INTER + INTRA:          58.274
REMARK INTER:                  56.584
REMARK INTRA:                   1.690
REMARK UNBOUND:                 1.690
REMARK SMILES C[C@H]1O[C@@H](OC[C@@H]2O[C@H](Oc3c(-c4ccc(O)c(O)c4)oc4cc(O)cc(O)c4c3=O)[C@@H](O)[C@H](O)[C@H]2O)[C@@H](O)[C@@H](O)[C@@H]1O
REMARK SMILES IDX 7 1 36 2 34 3 32 4 9 5 8 6 6 7 5 8 4 9 1 10 2 11 42 12 3 13
REMARK SMILES IDX 40 14 38 15 43 16 41 18 39 20 37 22 35 24 10 26 11 27 12 28
REMARK SMILES IDX 30 29 21 30 29 31 31 32 22 33 27 34 23 35 26 36 24 37 13 38
REMARK SMILES IDX 20 39 14 40 18 41 15 42 16 43 19 44 17 46 28 48 25 50 33 52
REMARK H PARENT 43 17 41 19 39 21 37 23 35 25 19 45 17 47 28 49 25 51 33 53
REMARK Flexibility Score: inf
ROOT
ATOM      1  C   UNL     1       3.261   8.704  15.048  1.00  0.00     0.180 C 
ATOM      2  C   UNL     1       2.490   9.777  14.244  1.00  0.00     0.177 C 
ATOM      3  C   UNL     1       3.424  10.545  13.295  1.00  0.00     0.180 C 
ATOM      4  C   UNL     1       4.245   9.535  12.448  1.00  0.00     0.214 C 
ATOM      5  C   UNL     1       4.986   8.510  13.368  1.00  0.00     0.339 C 
ATOM      6  O   UNL     1       4.143   7.862  14.304  1.00  0.00    -0.332 OA
ENDROOT
BRANCH   1   7
ATOM      7  C   UNL     1       3.955   9.265  16.320  1.00  0.00     0.198 C 
BRANCH   7   8
ATOM      8  O   UNL     1       3.661   8.505  17.513  1.00  0.00    -0.347 OA
BRANCH   8   9
ATOM      9  C   UNL     1       2.399   8.817  18.105  1.00  0.00     0.281 C 
ATOM     10  C   UNL     1       2.893  11.931  20.013  1.00  0.00     0.041 C 
ATOM     11  C   UNL     1       2.447  10.458  19.873  1.00  0.00     0.150 C 
ATOM     12  C   UNL     1       3.478   9.502  20.584  1.00  0.00     0.174 C 
ATOM     13  O   UNL     1       2.303  10.185  18.484  1.00  0.00    -0.344 OA
ATOM     14  C   UNL     1       3.134   8.026  20.373  1.00  0.00     0.179 C 
ATOM     15  C   UNL     1       2.103   7.827  19.252  1.00  0.00     0.202 C 
BRANCH  12  16
ATOM     16  O   UNL     1       3.566   9.727  21.967  1.00  0.00    -0.388 OA
ATOM     17  H   UNL     1       2.715   9.420  22.393  1.00  0.00     0.211 HD
ENDBRANCH  12  16
BRANCH  14  18
ATOM     18  O   UNL     1       4.307   7.308  20.034  1.00  0.00    -0.387 OA
ATOM     19  H   UNL     1       4.378   6.572  20.691  1.00  0.00     0.211 HD
ENDBRANCH  14  18
BRANCH  15  20
ATOM     20  O   UNL     1       2.115   6.487  18.800  1.00  0.00    -0.385 OA
ATOM     21  H   UNL     1       1.911   6.539  17.817  1.00  0.00     0.211 HD
ENDBRANCH  15  20
ENDBRANCH   8   9
ENDBRANCH   7   8
ENDBRANCH   1   7
BRANCH   2  22
ATOM     22  O   UNL     1       1.450   9.164  13.504  1.00  0.00    -0.387 OA
ATOM     23  H   UNL     1       1.271   8.307  13.880  1.00  0.00     0.211 HD
ENDBRANCH   2  22
BRANCH   3  24
ATOM     24  O   UNL     1       4.231  11.436  14.025  1.00  0.00    -0.387 OA
ATOM     25  H   UNL     1       4.786  11.881  13.314  1.00  0.00     0.211 HD
ENDBRANCH   3  24
BRANCH   5  26
ATOM     26  O   UNL     1       6.120   9.103  14.006  1.00  0.00    -0.454 OA
BRANCH  26  27
ATOM     27  C   UNL     1       7.277   8.318  14.191  1.00  0.00     0.214 A 
ATOM     28  C   UNL     1       7.722   7.401  13.227  1.00  0.00     0.180 A 
ATOM     29  C   UNL     1       8.138   8.596  15.250  1.00  0.00     0.239 A 
ATOM     30  O   UNL     1       9.034   7.323  12.977  1.00  0.00    -0.452 OA
ATOM     31  C   UNL     1       9.513   8.425  15.031  1.00  0.00     0.111 A 
ATOM     32  O   UNL     1       7.704   8.956  16.364  1.00  0.00    -0.285 OA
ATOM     33  C   UNL     1       9.930   7.888  13.784  1.00  0.00     0.146 A 
ATOM     34  C   UNL     1      10.504   8.771  15.973  1.00  0.00     0.134 A 
ATOM     35  C   UNL     1      11.257   7.883  13.425  1.00  0.00     0.094 A 
ATOM     36  C   UNL     1      11.859   8.712  15.622  1.00  0.00     0.093 A 
ATOM     37  C   UNL     1      12.224   8.316  14.325  1.00  0.00     0.123 A 
BRANCH  28  38
ATOM     38  C   UNL     1       6.830   6.279  12.764  1.00  0.00     0.025 A 
ATOM     39  C   UNL     1       5.953   6.535  11.685  1.00  0.00     0.062 A 
ATOM     40  C   UNL     1       6.429   5.341  13.768  1.00  0.00     0.016 A 
ATOM     41  C   UNL     1       4.602   6.134  11.760  1.00  0.00     0.158 A 
ATOM     42  C   UNL     1       5.095   4.875  13.818  1.00  0.00     0.051 A 
ATOM     43  C   UNL     1       4.172   5.321  12.856  1.00  0.00     0.157 A 
BRANCH  41  44
ATOM     44  O   UNL     1       3.678   6.684  10.878  1.00  0.00    -0.504 OA
ATOM     45  H   UNL     1       3.913   6.802   9.898  1.00  0.00     0.293 HD
ENDBRANCH  41  44
BRANCH  43  46
ATOM     46  O   UNL     1       2.800   5.075  13.045  1.00  0.00    -0.504 OA
ATOM     47  H   UNL     1       2.156   5.401  12.348  1.00  0.00     0.293 HD
ENDBRANCH  43  46
ENDBRANCH  28  38
BRANCH  34  48
ATOM     48  O   UNL     1      10.157   9.107  17.283  1.00  0.00    -0.507 OA
ATOM     49  H   UNL     1       9.260   8.840  17.678  1.00  0.00     0.293 HD
ENDBRANCH  34  48
BRANCH  37  50
ATOM     50  O   UNL     1      13.565   8.373  13.974  1.00  0.00    -0.508 OA
ATOM     51  H   UNL     1      14.043   9.216  13.757  1.00  0.00     0.293 HD
ENDBRANCH  37  50
ENDBRANCH  26  27
ENDBRANCH   5  26
BRANCH   4  52
ATOM     52  O   UNL     1       3.387   8.829  11.592  1.00  0.00    -0.384 OA
ATOM     53  H   UNL     1       3.350   9.301  10.737  1.00  0.00     0.211 HD
ENDBRANCH   4  52
TORSDOF 16
ENDMDL
