MODEL 1
REMARK VINA RESULT:    -5.772      0.000      0.000
REMARK INTER + INTRA:         -11.127
REMARK INTER:                  -9.821
REMARK INTRA:                  -1.306
REMARK UNBOUND:                -1.306
REMARK SMILES CCCCCCCCCCCCCC(=O)[O-]
REMARK SMILES IDX 8 1 9 2 10 3 11 4 12 5 13 6 14 7 15 8 16 9 7 10 6 11 5 12
REMARK SMILES IDX 4 13 3 14 2 15 1 16
REMARK H PARENT
REMARK Flexibility Score: inf
ROOT
ATOM      1  C   UNL     1      15.332   1.650  12.910  1.00  0.00     0.000 C 
ENDROOT
BRANCH   1   2
ATOM      2  C   UNL     1      14.377   0.924  13.871  1.00  0.00     0.000 C 
BRANCH   2   3
ATOM      3  C   UNL     1      14.560   1.366  15.334  1.00  0.00     0.000 C 
BRANCH   3   4
ATOM      4  C   UNL     1      13.225   1.504  16.087  1.00  0.00     0.000 C 
BRANCH   4   5
ATOM      5  C   UNL     1      13.358   1.754  17.601  1.00  0.00     0.006 C 
BRANCH   5   6
ATOM      6  C   UNL     1      13.313   0.461  18.426  1.00  0.00     0.053 C 
BRANCH   6   7
ATOM      7  C   UNL     1      14.555   0.324  19.249  1.00  0.00     0.041 C 
ATOM      8  O   UNL     1      15.683   0.270  18.689  1.00  0.00    -0.550 OA
ATOM      9  O   UNL     1      14.472   0.306  20.635  1.00  0.00    -0.550 OA
ENDBRANCH   6   7
ENDBRANCH   5   6
ENDBRANCH   4   5
ENDBRANCH   3   4
ENDBRANCH   2   3
ENDBRANCH   1   2
BRANCH   1  10
ATOM     10  C   UNL     1      15.481   0.923  11.566  1.00  0.00     0.000 C 
BRANCH  10  11
ATOM     11  C   UNL     1      16.960   0.746  11.198  1.00  0.00    -0.000 C 
BRANCH  11  12
ATOM     12  C   UNL     1      17.386  -0.721  11.322  1.00  0.00    -0.000 C 
BRANCH  12  13
ATOM     13  C   UNL     1      17.964  -1.011  12.713  1.00  0.00    -0.000 C 
BRANCH  13  14
ATOM     14  C   UNL     1      16.919  -1.680  13.614  1.00  0.00    -0.000 C 
BRANCH  14  15
ATOM     15  C   UNL     1      17.186  -1.368  15.091  1.00  0.00    -0.003 C 
ATOM     16  C   UNL     1      16.103  -1.963  15.986  1.00  0.00     0.004 C 
ENDBRANCH  14  15
ENDBRANCH  13  14
ENDBRANCH  12  13
ENDBRANCH  11  12
ENDBRANCH  10  11
ENDBRANCH   1  10
TORSDOF 12
ENDMDL
MODEL 2
REMARK VINA RESULT:    -5.731      1.359      2.944
REMARK INTER + INTRA:         -11.057
REMARK INTER:                  -9.969
REMARK INTRA:                  -1.088
REMARK UNBOUND:                -1.306
REMARK SMILES CCCCCCCCCCCCCC(=O)[O-]
REMARK SMILES IDX 8 1 9 2 10 3 11 4 12 5 13 6 14 7 15 8 16 9 7 10 6 11 5 12
REMARK SMILES IDX 4 13 3 14 2 15 1 16
REMARK H PARENT
REMARK Flexibility Score: inf
ROOT
ATOM      1  C   UNL     1      14.659   1.621  15.675  1.00  0.00     0.000 C 
ENDROOT
BRANCH   1   2
ATOM      2  C   UNL     1      13.194   1.615  16.138  1.00  0.00     0.000 C 
BRANCH   2   3
ATOM      3  C   UNL     1      12.955   2.526  17.356  1.00  0.00     0.000 C 
BRANCH   3   4
ATOM      4  C   UNL     1      13.630   2.001  18.636  1.00  0.00     0.000 C 
BRANCH   4   5
ATOM      5  C   UNL     1      13.588   0.472  18.809  1.00  0.00     0.006 C 
BRANCH   5   6
ATOM      6  C   UNL     1      14.768  -0.069  19.629  1.00  0.00     0.053 C 
BRANCH   6   7
ATOM      7  C   UNL     1      15.741  -0.774  18.739  1.00  0.00     0.041 C 
ATOM      8  O   UNL     1      16.947  -0.411  18.705  1.00  0.00    -0.550 OA
ATOM      9  O   UNL     1      15.329  -1.864  17.983  1.00  0.00    -0.550 OA
ENDBRANCH   6   7
ENDBRANCH   5   6
ENDBRANCH   4   5
ENDBRANCH   3   4
ENDBRANCH   2   3
ENDBRANCH   1   2
BRANCH   1  10
ATOM     10  C   UNL     1      15.099   0.269  15.095  1.00  0.00     0.000 C 
BRANCH  10  11
ATOM     11  C   UNL     1      14.626   0.113  13.644  1.00  0.00    -0.000 C 
BRANCH  11  12
ATOM     12  C   UNL     1      15.103   1.286  12.781  1.00  0.00    -0.000 C 
BRANCH  12  13
ATOM     13  C   UNL     1      15.562   0.802  11.400  1.00  0.00    -0.000 C 
BRANCH  13  14
ATOM     14  C   UNL     1      17.078   0.572  11.373  1.00  0.00    -0.000 C 
BRANCH  14  15
ATOM     15  C   UNL     1      17.409  -0.921  11.473  1.00  0.00    -0.003 C 
ATOM     16  C   UNL     1      17.967  -1.272  12.849  1.00  0.00     0.004 C 
ENDBRANCH  14  15
ENDBRANCH  13  14
ENDBRANCH  12  13
ENDBRANCH  11  12
ENDBRANCH  10  11
ENDBRANCH   1  10
TORSDOF 12
ENDMDL
MODEL 3
REMARK VINA RESULT:    -5.725      3.157      6.523
REMARK INTER + INTRA:         -11.047
REMARK INTER:                  -9.931
REMARK INTRA:                  -1.116
REMARK UNBOUND:                -1.306
REMARK SMILES CCCCCCCCCCCCCC(=O)[O-]
REMARK SMILES IDX 8 1 9 2 10 3 11 4 12 5 13 6 14 7 15 8 16 9 7 10 6 11 5 12
REMARK SMILES IDX 4 13 3 14 2 15 1 16
REMARK H PARENT
REMARK Flexibility Score: inf
ROOT
ATOM      1  C   UNL     1      15.360   1.710  16.763  1.00  0.00     0.000 C 
ENDROOT
BRANCH   1   2
ATOM      2  C   UNL     1      15.436   0.732  15.580  1.00  0.00     0.000 C 
BRANCH   2   3
ATOM      3  C   UNL     1      14.459   1.096  14.447  1.00  0.00     0.000 C 
BRANCH   3   4
ATOM      4  C   UNL     1      15.163   1.717  13.227  1.00  0.00     0.000 C 
BRANCH   4   5
ATOM      5  C   UNL     1      15.271   0.790  12.002  1.00  0.00     0.006 C 
BRANCH   5   6
ATOM      6  C   UNL     1      16.647   0.853  11.325  1.00  0.00     0.053 C 
BRANCH   6   7
ATOM      7  C   UNL     1      17.236  -0.517  11.213  1.00  0.00     0.041 C 
ATOM      8  O   UNL     1      17.338  -1.073  10.087  1.00  0.00    -0.550 OA
ATOM      9  O   UNL     1      17.717  -1.161  12.345  1.00  0.00    -0.550 OA
ENDBRANCH   6   7
ENDBRANCH   5   6
ENDBRANCH   4   5
ENDBRANCH   3   4
ENDBRANCH   2   3
ENDBRANCH   1   2
BRANCH   1  10
ATOM     10  C   UNL     1      13.938   2.239  16.999  1.00  0.00     0.000 C 
BRANCH  10  11
ATOM     11  C   UNL     1      13.496   1.999  18.448  1.00  0.00    -0.000 C 
BRANCH  11  12
ATOM     12  C   UNL     1      13.711   0.537  18.854  1.00  0.00    -0.000 C 
BRANCH  12  13
ATOM     13  C   UNL     1      14.381   0.439  20.230  1.00  0.00    -0.000 C 
BRANCH  13  14
ATOM     14  C   UNL     1      15.233  -0.830  20.339  1.00  0.00    -0.000 C 
BRANCH  14  15
ATOM     15  C   UNL     1      15.733  -1.277  18.960  1.00  0.00    -0.003 C 
ATOM     16  C   UNL     1      17.194  -0.890  18.750  1.00  0.00     0.004 C 
ENDBRANCH  14  15
ENDBRANCH  13  14
ENDBRANCH  12  13
ENDBRANCH  11  12
ENDBRANCH  10  11
ENDBRANCH   1  10
TORSDOF 12
ENDMDL
MODEL 4
REMARK VINA RESULT:    -5.635      3.151      6.497
REMARK INTER + INTRA:         -10.894
REMARK INTER:                  -9.339
REMARK INTRA:                  -1.555
REMARK UNBOUND:                -1.306
REMARK SMILES CCCCCCCCCCCCCC(=O)[O-]
REMARK SMILES IDX 8 1 9 2 10 3 11 4 12 5 13 6 14 7 15 8 16 9 7 10 6 11 5 12
REMARK SMILES IDX 4 13 3 14 2 15 1 16
REMARK H PARENT
REMARK Flexibility Score: inf
ROOT
ATOM      1  C   UNL     1      16.762  -2.817  17.675  1.00  0.00     0.000 C 
ENDROOT
BRANCH   1   2
ATOM      2  C   UNL     1      17.104  -1.637  16.752  1.00  0.00     0.000 C 
BRANCH   2   3
ATOM      3  C   UNL     1      15.893  -1.158  15.931  1.00  0.00     0.000 C 
BRANCH   3   4
ATOM      4  C   UNL     1      15.799   0.376  15.845  1.00  0.00     0.000 C 
BRANCH   4   5
ATOM      5  C   UNL     1      14.704   0.906  14.901  1.00  0.00     0.006 C 
BRANCH   5   6
ATOM      6  C   UNL     1      14.572   0.079  13.616  1.00  0.00     0.053 C 
BRANCH   6   7
ATOM      7  C   UNL     1      15.020   0.878  12.433  1.00  0.00     0.041 C 
ATOM      8  O   UNL     1      15.347   0.299  11.363  1.00  0.00    -0.550 OA
ATOM      9  O   UNL     1      15.029   2.266  12.495  1.00  0.00    -0.550 OA
ENDBRANCH   6   7
ENDBRANCH   5   6
ENDBRANCH   4   5
ENDBRANCH   3   4
ENDBRANCH   2   3
ENDBRANCH   1   2
BRANCH   1  10
ATOM     10  C   UNL     1      15.910  -2.395  18.881  1.00  0.00     0.000 C 
BRANCH  10  11
ATOM     11  C   UNL     1      16.292  -0.988  19.358  1.00  0.00    -0.000 C 
BRANCH  11  12
ATOM     12  C   UNL     1      15.097  -0.284  20.010  1.00  0.00    -0.000 C 
BRANCH  12  13
ATOM     13  C   UNL     1      13.771  -0.828  19.463  1.00  0.00    -0.000 C 
BRANCH  13  14
ATOM     14  C   UNL     1      13.203   0.096  18.380  1.00  0.00    -0.000 C 
BRANCH  14  15
ATOM     15  C   UNL     1      13.558   1.560  18.664  1.00  0.00    -0.003 C 
ATOM     16  C   UNL     1      12.880   2.496  17.667  1.00  0.00     0.004 C 
ENDBRANCH  14  15
ENDBRANCH  13  14
ENDBRANCH  12  13
ENDBRANCH  11  12
ENDBRANCH  10  11
ENDBRANCH   1  10
TORSDOF 12
ENDMDL
MODEL 5
REMARK VINA RESULT:    -5.587      1.621      4.011
REMARK INTER + INTRA:         -10.813
REMARK INTER:                  -9.631
REMARK INTRA:                  -1.182
REMARK UNBOUND:                -1.306
REMARK SMILES CCCCCCCCCCCCCC(=O)[O-]
REMARK SMILES IDX 8 1 9 2 10 3 11 4 12 5 13 6 14 7 15 8 16 9 7 10 6 11 5 12
REMARK SMILES IDX 4 13 3 14 2 15 1 16
REMARK H PARENT
REMARK Flexibility Score: inf
ROOT
ATOM      1  C   UNL     1      13.662   1.891  16.636  1.00  0.00     0.000 C 
ENDROOT
BRANCH   1   2
ATOM      2  C   UNL     1      13.392   1.730  18.140  1.00  0.00     0.000 C 
BRANCH   2   3
ATOM      3  C   UNL     1      13.611   0.287  18.629  1.00  0.00     0.000 C 
BRANCH   3   4
ATOM      4  C   UNL     1      14.406   0.217  19.946  1.00  0.00     0.000 C 
BRANCH   4   5
ATOM      5  C   UNL     1      15.465  -0.898  20.005  1.00  0.00     0.006 C 
BRANCH   5   6
ATOM      6  C   UNL     1      15.612  -1.654  18.677  1.00  0.00     0.053 C 
BRANCH   6   7
ATOM      7  C   UNL     1      16.998  -1.496  18.138  1.00  0.00     0.041 C 
ATOM      8  O   UNL     1      17.631  -2.499  17.712  1.00  0.00    -0.550 OA
ATOM      9  O   UNL     1      17.575  -0.234  18.060  1.00  0.00    -0.550 OA
ENDBRANCH   6   7
ENDBRANCH   5   6
ENDBRANCH   4   5
ENDBRANCH   3   4
ENDBRANCH   2   3
ENDBRANCH   1   2
BRANCH   1  10
ATOM     10  C   UNL     1      15.133   1.641  16.272  1.00  0.00     0.000 C 
BRANCH  10  11
ATOM     11  C   UNL     1      15.256   0.553  15.198  1.00  0.00    -0.000 C 
BRANCH  11  12
ATOM     12  C   UNL     1      14.403   0.893  13.970  1.00  0.00    -0.000 C 
BRANCH  12  13
ATOM     13  C   UNL     1      15.228   1.641  12.916  1.00  0.00    -0.000 C 
BRANCH  13  14
ATOM     14  C   UNL     1      15.497   0.754  11.696  1.00  0.00    -0.000 C 
BRANCH  14  15
ATOM     15  C   UNL     1      17.000   0.636  11.422  1.00  0.00    -0.003 C 
ATOM     16  C   UNL     1      17.579  -0.627  12.054  1.00  0.00     0.004 C 
ENDBRANCH  14  15
ENDBRANCH  13  14
ENDBRANCH  12  13
ENDBRANCH  11  12
ENDBRANCH  10  11
ENDBRANCH   1  10
TORSDOF 12
ENDMDL
MODEL 6
REMARK VINA RESULT:    -5.581      1.951      4.118
REMARK INTER + INTRA:         -10.802
REMARK INTER:                  -9.716
REMARK INTRA:                  -1.087
REMARK UNBOUND:                -1.306
REMARK SMILES CCCCCCCCCCCCCC(=O)[O-]
REMARK SMILES IDX 8 1 9 2 10 3 11 4 12 5 13 6 14 7 15 8 16 9 7 10 6 11 5 12
REMARK SMILES IDX 4 13 3 14 2 15 1 16
REMARK H PARENT
REMARK Flexibility Score: inf
ROOT
ATOM      1  C   UNL     1      12.883   2.370  16.610  1.00  0.00     0.000 C 
ENDROOT
BRANCH   1   2
ATOM      2  C   UNL     1      12.934   2.081  18.118  1.00  0.00     0.000 C 
BRANCH   2   3
ATOM      3  C   UNL     1      13.260   0.609  18.429  1.00  0.00     0.000 C 
BRANCH   3   4
ATOM      4  C   UNL     1      14.515   0.446  19.305  1.00  0.00     0.000 C 
BRANCH   4   5
ATOM      5  C   UNL     1      15.516  -0.615  18.811  1.00  0.00     0.006 C 
BRANCH   5   6
ATOM      6  C   UNL     1      14.911  -1.570  17.774  1.00  0.00     0.053 C 
BRANCH   6   7
ATOM      7  C   UNL     1      15.967  -2.471  17.216  1.00  0.00     0.041 C 
ATOM      8  O   UNL     1      16.188  -2.496  15.976  1.00  0.00    -0.550 OA
ATOM      9  O   UNL     1      16.741  -3.246  18.070  1.00  0.00    -0.550 OA
ENDBRANCH   6   7
ENDBRANCH   5   6
ENDBRANCH   4   5
ENDBRANCH   3   4
ENDBRANCH   2   3
ENDBRANCH   1   2
BRANCH   1  10
ATOM     10  C   UNL     1      13.502   1.241  15.773  1.00  0.00     0.000 C 
BRANCH  10  11
ATOM     11  C   UNL     1      14.989   1.508  15.506  1.00  0.00    -0.000 C 
BRANCH  11  12
ATOM     12  C   UNL     1      15.454   0.803  14.227  1.00  0.00    -0.000 C 
BRANCH  12  13
ATOM     13  C   UNL     1      15.108   1.632  12.984  1.00  0.00    -0.000 C 
BRANCH  13  14
ATOM     14  C   UNL     1      15.483   0.882  11.700  1.00  0.00    -0.000 C 
BRANCH  14  15
ATOM     15  C   UNL     1      16.815   0.142  11.865  1.00  0.00    -0.003 C 
ATOM     16  C   UNL     1      17.234  -0.535  10.563  1.00  0.00     0.004 C 
ENDBRANCH  14  15
ENDBRANCH  13  14
ENDBRANCH  12  13
ENDBRANCH  11  12
ENDBRANCH  10  11
ENDBRANCH   1  10
TORSDOF 12
ENDMDL
MODEL 7
REMARK VINA RESULT:    -5.496      1.530      3.941
REMARK INTER + INTRA:         -10.658
REMARK INTER:                  -9.105
REMARK INTRA:                  -1.554
REMARK UNBOUND:                -1.306
REMARK SMILES CCCCCCCCCCCCCC(=O)[O-]
REMARK SMILES IDX 8 1 9 2 10 3 11 4 12 5 13 6 14 7 15 8 16 9 7 10 6 11 5 12
REMARK SMILES IDX 4 13 3 14 2 15 1 16
REMARK H PARENT
REMARK Flexibility Score: inf
ROOT
ATOM      1  C   UNL     1      16.997  -0.706  15.354  1.00  0.00     0.000 C 
ENDROOT
BRANCH   1   2
ATOM      2  C   UNL     1      17.334  -2.178  15.636  1.00  0.00     0.000 C 
BRANCH   2   3
ATOM      3  C   UNL     1      16.227  -2.897  16.428  1.00  0.00     0.000 C 
BRANCH   3   4
ATOM      4  C   UNL     1      16.638  -3.212  17.878  1.00  0.00     0.000 C 
BRANCH   4   5
ATOM      5  C   UNL     1      15.846  -2.448  18.955  1.00  0.00     0.006 C 
BRANCH   5   6
ATOM      6  C   UNL     1      14.474  -1.971  18.462  1.00  0.00     0.053 C 
BRANCH   6   7
ATOM      7  C   UNL     1      14.346  -0.489  18.629  1.00  0.00     0.041 C 
ATOM      8  O   UNL     1      15.248   0.162  19.219  1.00  0.00    -0.550 OA
ATOM      9  O   UNL     1      13.255   0.179  18.089  1.00  0.00    -0.550 OA
ENDBRANCH   6   7
ENDBRANCH   5   6
ENDBRANCH   4   5
ENDBRANCH   3   4
ENDBRANCH   2   3
ENDBRANCH   1   2
BRANCH   1  10
ATOM     10  C   UNL     1      15.494  -0.475  15.146  1.00  0.00     0.000 C 
BRANCH  10  11
ATOM     11  C   UNL     1      15.168   1.024  15.111  1.00  0.00    -0.000 C 
BRANCH  11  12
ATOM     12  C   UNL     1      15.247   1.571  13.681  1.00  0.00    -0.000 C 
BRANCH  12  13
ATOM     13  C   UNL     1      14.813   0.511  12.661  1.00  0.00    -0.000 C 
BRANCH  13  14
ATOM     14  C   UNL     1      15.579   0.669  11.343  1.00  0.00    -0.000 C 
BRANCH  14  15
ATOM     15  C   UNL     1      17.087   0.493  11.558  1.00  0.00    -0.003 C 
ATOM     16  C   UNL     1      17.462  -0.983  11.655  1.00  0.00     0.004 C 
ENDBRANCH  14  15
ENDBRANCH  13  14
ENDBRANCH  12  13
ENDBRANCH  11  12
ENDBRANCH  10  11
ENDBRANCH   1  10
TORSDOF 12
ENDMDL
MODEL 8
REMARK VINA RESULT:    -5.492      2.861      5.997
REMARK INTER + INTRA:         -10.651
REMARK INTER:                  -8.906
REMARK INTRA:                  -1.745
REMARK UNBOUND:                -1.306
REMARK SMILES CCCCCCCCCCCCCC(=O)[O-]
REMARK SMILES IDX 8 1 9 2 10 3 11 4 12 5 13 6 14 7 15 8 16 9 7 10 6 11 5 12
REMARK SMILES IDX 4 13 3 14 2 15 1 16
REMARK H PARENT
REMARK Flexibility Score: inf
ROOT
ATOM      1  C   UNL     1      13.809   2.256  18.414  1.00  0.00     0.000 C 
ENDROOT
BRANCH   1   2
ATOM      2  C   UNL     1      13.447   2.352  16.923  1.00  0.00     0.000 C 
BRANCH   2   3
ATOM      3  C   UNL     1      13.178   0.974  16.290  1.00  0.00     0.000 C 
BRANCH   3   4
ATOM      4  C   UNL     1      13.613   0.900  14.815  1.00  0.00     0.000 C 
BRANCH   4   5
ATOM      5  C   UNL     1      14.947   1.600  14.498  1.00  0.00     0.006 C 
BRANCH   5   6
ATOM      6  C   UNL     1      15.142   1.864  12.998  1.00  0.00     0.053 C 
BRANCH   6   7
ATOM      7  C   UNL     1      15.669   0.641  12.318  1.00  0.00     0.041 C 
ATOM      8  O   UNL     1      15.489   0.476  11.082  1.00  0.00    -0.550 OA
ATOM      9  O   UNL     1      16.402  -0.294  13.038  1.00  0.00    -0.550 OA
ENDBRANCH   6   7
ENDBRANCH   5   6
ENDBRANCH   4   5
ENDBRANCH   3   4
ENDBRANCH   2   3
ENDBRANCH   1   2
BRANCH   1  10
ATOM     10  C   UNL     1      13.482   0.880  19.013  1.00  0.00     0.000 C 
BRANCH  10  11
ATOM     11  C   UNL     1      14.460   0.525  20.139  1.00  0.00    -0.000 C 
BRANCH  11  12
ATOM     12  C   UNL     1      14.783  -0.973  20.136  1.00  0.00    -0.000 C 
BRANCH  12  13
ATOM     13  C   UNL     1      16.037  -1.265  19.301  1.00  0.00    -0.000 C 
BRANCH  13  14
ATOM     14  C   UNL     1      15.662  -1.721  17.887  1.00  0.00    -0.000 C 
BRANCH  14  15
ATOM     15  C   UNL     1      16.495  -0.983  16.832  1.00  0.00    -0.003 C 
ATOM     16  C   UNL     1      16.984   0.363  17.358  1.00  0.00     0.004 C 
ENDBRANCH  14  15
ENDBRANCH  13  14
ENDBRANCH  12  13
ENDBRANCH  11  12
ENDBRANCH  10  11
ENDBRANCH   1  10
TORSDOF 12
ENDMDL
MODEL 9
REMARK VINA RESULT:    -5.481      3.077      6.315
REMARK INTER + INTRA:         -10.633
REMARK INTER:                  -9.468
REMARK INTRA:                  -1.165
REMARK UNBOUND:                -1.306
REMARK SMILES CCCCCCCCCCCCCC(=O)[O-]
REMARK SMILES IDX 8 1 9 2 10 3 11 4 12 5 13 6 14 7 15 8 16 9 7 10 6 11 5 12
REMARK SMILES IDX 4 13 3 14 2 15 1 16
REMARK H PARENT
REMARK Flexibility Score: inf
ROOT
ATOM      1  C   UNL     1      15.645  -0.559  15.873  1.00  0.00     0.000 C 
ENDROOT
BRANCH   1   2
ATOM      2  C   UNL     1      15.510   0.945  15.589  1.00  0.00     0.000 C 
BRANCH   2   3
ATOM      3  C   UNL     1      14.470   1.251  14.497  1.00  0.00     0.000 C 
BRANCH   3   4
ATOM      4  C   UNL     1      15.107   1.766  13.193  1.00  0.00     0.000 C 
BRANCH   4   5
ATOM      5  C   UNL     1      15.307   0.697  12.103  1.00  0.00     0.006 C 
BRANCH   5   6
ATOM      6  C   UNL     1      16.627   0.864  11.338  1.00  0.00     0.053 C 
BRANCH   6   7
ATOM      7  C   UNL     1      17.326  -0.452  11.212  1.00  0.00     0.041 C 
ATOM      8  O   UNL     1      17.500  -0.972  10.078  1.00  0.00    -0.550 OA
ATOM      9  O   UNL     1      17.831  -1.082  12.343  1.00  0.00    -0.550 OA
ENDBRANCH   6   7
ENDBRANCH   5   6
ENDBRANCH   4   5
ENDBRANCH   3   4
ENDBRANCH   2   3
ENDBRANCH   1   2
BRANCH   1  10
ATOM     10  C   UNL     1      17.098  -0.982  16.132  1.00  0.00     0.000 C 
BRANCH  10  11
ATOM     11  C   UNL     1      17.247  -1.616  17.520  1.00  0.00    -0.000 C 
BRANCH  11  12
ATOM     12  C   UNL     1      16.767  -0.658  18.617  1.00  0.00    -0.000 C 
BRANCH  12  13
ATOM     13  C   UNL     1      15.802  -1.362  19.580  1.00  0.00    -0.000 C 
BRANCH  13  14
ATOM     14  C   UNL     1      14.880  -0.351  20.270  1.00  0.00    -0.000 C 
BRANCH  14  15
ATOM     15  C   UNL     1      14.356   0.688  19.272  1.00  0.00    -0.003 C 
ATOM     16  C   UNL     1      13.201   0.129  18.447  1.00  0.00     0.004 C 
ENDBRANCH  14  15
ENDBRANCH  13  14
ENDBRANCH  12  13
ENDBRANCH  11  12
ENDBRANCH  10  11
ENDBRANCH   1  10
TORSDOF 12
ENDMDL
