MODEL 1
REMARK VINA RESULT:     0.322      0.000      0.000
REMARK INTER + INTRA:          -0.112
REMARK INTER:                   0.605
REMARK INTRA:                  -0.717
REMARK UNBOUND:                -0.717
REMARK SMILES CCCCCCCCC=CCCCCCCCC(=O)[O-]
REMARK SMILES IDX 10 1 9 2 11 3 12 4 13 5 14 6 15 7 16 8 17 9 18 10 19 11
REMARK SMILES IDX 20 12 8 13 7 14 6 15 5 16 4 17 3 18 2 19 1 20
REMARK H PARENT
REMARK Flexibility Score: inf
ROOT
ATOM      1  C   UNL     1     137.387 127.711 131.507  1.00  0.00    -0.031 C 
ATOM      2  C   UNL     1     136.922 127.571 130.256  1.00  0.00    -0.031 C 
ENDROOT
BRANCH   1   3
ATOM      3  C   UNL     1     138.828 128.048 131.775  1.00  0.00     0.027 C 
BRANCH   3   4
ATOM      4  C   UNL     1     139.354 129.075 130.761  1.00  0.00     0.004 C 
BRANCH   4   5
ATOM      5  C   UNL     1     140.467 128.509 129.862  1.00  0.00     0.000 C 
BRANCH   5   6
ATOM      6  C   UNL     1     141.765 128.117 130.599  1.00  0.00     0.000 C 
BRANCH   6   7
ATOM      7  C   UNL     1     143.040 128.126 129.736  1.00  0.00     0.000 C 
BRANCH   7   8
ATOM      8  C   UNL     1     142.822 128.458 128.246  1.00  0.00     0.006 C 
BRANCH   8   9
ATOM      9  C   UNL     1     144.124 128.731 127.470  1.00  0.00     0.053 C 
BRANCH   9  10
ATOM     10  C   UNL     1     143.884 128.991 126.013  1.00  0.00     0.041 C 
ATOM     11  O   UNL     1     143.867 130.170 125.573  1.00  0.00    -0.550 OA
ATOM     12  O   UNL     1     143.715 127.927 125.135  1.00  0.00    -0.550 OA
ENDBRANCH   9  10
ENDBRANCH   8   9
ENDBRANCH   7   8
ENDBRANCH   6   7
ENDBRANCH   5   6
ENDBRANCH   4   5
ENDBRANCH   3   4
ENDBRANCH   1   3
BRANCH   2  13
ATOM     13  C   UNL     1     135.478 127.246 129.983  1.00  0.00     0.027 C 
BRANCH  13  14
ATOM     14  C   UNL     1     134.595 128.501 129.927  1.00  0.00     0.004 C 
BRANCH  14  15
ATOM     15  C   UNL     1     133.951 128.695 128.543  1.00  0.00     0.000 C 
BRANCH  15  16
ATOM     16  C   UNL     1     133.869 130.173 128.129  1.00  0.00     0.000 C 
BRANCH  16  17
ATOM     17  C   UNL     1     133.339 130.357 126.697  1.00  0.00    -0.000 C 
BRANCH  17  18
ATOM     18  C   UNL     1     132.070 129.531 126.417  1.00  0.00    -0.000 C 
BRANCH  18  19
ATOM     19  C   UNL     1     131.140 130.116 125.338  1.00  0.00    -0.003 C 
ATOM     20  C   UNL     1     131.519 131.538 124.927  1.00  0.00     0.004 C 
ENDBRANCH  18  19
ENDBRANCH  17  18
ENDBRANCH  16  17
ENDBRANCH  15  16
ENDBRANCH  14  15
ENDBRANCH  13  14
ENDBRANCH   2  13
TORSDOF 15
ENDMDL
MODEL 2
REMARK VINA RESULT:     0.646      4.273      9.357
REMARK INTER + INTRA:           0.496
REMARK INTER:                   1.167
REMARK INTRA:                  -0.671
REMARK UNBOUND:                -0.717
REMARK SMILES CCCCCCCCC=CCCCCCCCC(=O)[O-]
REMARK SMILES IDX 10 1 9 2 11 3 12 4 13 5 14 6 15 7 16 8 17 9 18 10 19 11
REMARK SMILES IDX 20 12 8 13 7 14 6 15 5 16 4 17 3 18 2 19 1 20
REMARK H PARENT
REMARK Flexibility Score: inf
ROOT
ATOM      1  C   UNL     1     137.162 127.272 131.080  1.00  0.00    -0.031 C 
ATOM      2  C   UNL     1     138.380 127.722 130.742  1.00  0.00    -0.031 C 
ENDROOT
BRANCH   1   3
ATOM      3  C   UNL     1     136.242 126.658 130.062  1.00  0.00     0.027 C 
BRANCH   3   4
ATOM      4  C   UNL     1     135.854 127.678 128.980  1.00  0.00     0.004 C 
BRANCH   4   5
ATOM      5  C   UNL     1     134.810 128.697 129.469  1.00  0.00     0.000 C 
BRANCH   5   6
ATOM      6  C   UNL     1     133.929 129.311 128.361  1.00  0.00     0.000 C 
BRANCH   6   7
ATOM      7  C   UNL     1     132.808 128.397 127.829  1.00  0.00     0.000 C 
BRANCH   7   8
ATOM      8  C   UNL     1     132.204 128.819 126.475  1.00  0.00     0.006 C 
BRANCH   8   9
ATOM      9  C   UNL     1     132.357 130.319 126.163  1.00  0.00     0.053 C 
BRANCH   9  10
ATOM     10  C   UNL     1     131.232 130.852 125.327  1.00  0.00     0.041 C 
ATOM     11  O   UNL     1     131.257 132.040 124.912  1.00  0.00    -0.550 OA
ATOM     12  O   UNL     1     130.174 130.024 124.973  1.00  0.00    -0.550 OA
ENDBRANCH   9  10
ENDBRANCH   8   9
ENDBRANCH   7   8
ENDBRANCH   6   7
ENDBRANCH   5   6
ENDBRANCH   4   5
ENDBRANCH   3   4
ENDBRANCH   1   3
BRANCH   2  13
ATOM     13  C   UNL     1     139.309 128.326 131.761  1.00  0.00     0.027 C 
BRANCH  13  14
ATOM     14  C   UNL     1     140.785 128.193 131.360  1.00  0.00     0.004 C 
BRANCH  14  15
ATOM     15  C   UNL     1     141.006 128.481 129.864  1.00  0.00     0.000 C 
BRANCH  15  16
ATOM     16  C   UNL     1     142.433 128.145 129.401  1.00  0.00     0.000 C 
BRANCH  16  17
ATOM     17  C   UNL     1     142.797 128.824 128.070  1.00  0.00    -0.000 C 
BRANCH  17  18
ATOM     18  C   UNL     1     143.968 128.135 127.347  1.00  0.00    -0.000 C 
BRANCH  18  19
ATOM     19  C   UNL     1     144.125 128.509 125.861  1.00  0.00    -0.003 C 
ATOM     20  C   UNL     1     142.829 128.360 125.066  1.00  0.00     0.004 C 
ENDBRANCH  18  19
ENDBRANCH  17  18
ENDBRANCH  16  17
ENDBRANCH  15  16
ENDBRANCH  14  15
ENDBRANCH  13  14
ENDBRANCH   2  13
TORSDOF 15
ENDMDL
MODEL 3
REMARK VINA RESULT:     0.653      0.757      1.324
REMARK INTER + INTRA:           0.509
REMARK INTER:                   1.165
REMARK INTRA:                  -0.656
REMARK UNBOUND:                -0.717
REMARK SMILES CCCCCCCCC=CCCCCCCCC(=O)[O-]
REMARK SMILES IDX 10 1 9 2 11 3 12 4 13 5 14 6 15 7 16 8 17 9 18 10 19 11
REMARK SMILES IDX 20 12 8 13 7 14 6 15 5 16 4 17 3 18 2 19 1 20
REMARK H PARENT
REMARK Flexibility Score: inf
ROOT
ATOM      1  C   UNL     1     136.684 127.409 131.195  1.00  0.00    -0.031 C 
ATOM      2  C   UNL     1     136.018 128.126 130.276  1.00  0.00    -0.031 C 
ENDROOT
BRANCH   1   3
ATOM      3  C   UNL     1     138.185 127.438 131.277  1.00  0.00     0.027 C 
BRANCH   3   4
ATOM      4  C   UNL     1     138.806 127.779 129.914  1.00  0.00     0.004 C 
BRANCH   4   5
ATOM      5  C   UNL     1     140.045 128.685 130.033  1.00  0.00     0.000 C 
BRANCH   5   6
ATOM      6  C   UNL     1     141.255 128.045 130.744  1.00  0.00     0.000 C 
BRANCH   6   7
ATOM      7  C   UNL     1     142.619 128.290 130.071  1.00  0.00     0.000 C 
BRANCH   7   8
ATOM      8  C   UNL     1     142.568 128.517 128.546  1.00  0.00     0.006 C 
BRANCH   8   9
ATOM      9  C   UNL     1     143.925 128.340 127.843  1.00  0.00     0.053 C 
BRANCH   9  10
ATOM     10  C   UNL     1     143.882 128.734 126.397  1.00  0.00     0.041 C 
ATOM     11  O   UNL     1     143.592 127.883 125.516  1.00  0.00    -0.550 OA
ATOM     12  O   UNL     1     144.125 130.051 126.026  1.00  0.00    -0.550 OA
ENDBRANCH   9  10
ENDBRANCH   8   9
ENDBRANCH   7   8
ENDBRANCH   6   7
ENDBRANCH   5   6
ENDBRANCH   4   5
ENDBRANCH   3   4
ENDBRANCH   1   3
BRANCH   2  13
ATOM     13  C   UNL     1     134.515 128.109 130.199  1.00  0.00     0.027 C 
BRANCH  13  14
ATOM     14  C   UNL     1     133.996 128.485 128.804  1.00  0.00     0.004 C 
BRANCH  14  15
ATOM     15  C   UNL     1     133.933 130.009 128.601  1.00  0.00     0.000 C 
BRANCH  15  16
ATOM     16  C   UNL     1     133.976 130.411 127.118  1.00  0.00     0.000 C 
BRANCH  16  17
ATOM     17  C   UNL     1     132.622 130.219 126.415  1.00  0.00    -0.000 C 
BRANCH  17  18
ATOM     18  C   UNL     1     132.227 131.419 125.536  1.00  0.00    -0.000 C 
BRANCH  18  19
ATOM     19  C   UNL     1     130.838 131.314 124.879  1.00  0.00    -0.003 C 
ATOM     20  C   UNL     1     130.200 129.936 125.044  1.00  0.00     0.004 C 
ENDBRANCH  18  19
ENDBRANCH  17  18
ENDBRANCH  16  17
ENDBRANCH  15  16
ENDBRANCH  14  15
ENDBRANCH  13  14
ENDBRANCH   2  13
TORSDOF 15
ENDMDL
MODEL 4
REMARK VINA RESULT:     0.791      4.160      9.401
REMARK INTER + INTRA:           0.768
REMARK INTER:                   1.494
REMARK INTRA:                  -0.727
REMARK UNBOUND:                -0.717
REMARK SMILES CCCCCCCCC=CCCCCCCCC(=O)[O-]
REMARK SMILES IDX 10 1 9 2 11 3 12 4 13 5 14 6 15 7 16 8 17 9 18 10 19 11
REMARK SMILES IDX 20 12 8 13 7 14 6 15 5 16 4 17 3 18 2 19 1 20
REMARK H PARENT
REMARK Flexibility Score: inf
ROOT
ATOM      1  C   UNL     1     138.042 127.471 130.314  1.00  0.00    -0.031 C 
ATOM      2  C   UNL     1     138.887 128.014 129.423  1.00  0.00    -0.031 C 
ENDROOT
BRANCH   1   3
ATOM      3  C   UNL     1     136.883 126.618 129.878  1.00  0.00     0.027 C 
BRANCH   3   4
ATOM      4  C   UNL     1     135.944 127.396 128.945  1.00  0.00     0.004 C 
BRANCH   4   5
ATOM      5  C   UNL     1     135.027 128.374 129.701  1.00  0.00     0.000 C 
BRANCH   5   6
ATOM      6  C   UNL     1     133.874 128.966 128.865  1.00  0.00     0.000 C 
BRANCH   6   7
ATOM      7  C   UNL     1     133.158 127.970 127.932  1.00  0.00     0.000 C 
BRANCH   7   8
ATOM      8  C   UNL     1     132.118 128.594 126.980  1.00  0.00     0.006 C 
BRANCH   8   9
ATOM      9  C   UNL     1     132.605 129.871 126.272  1.00  0.00     0.053 C 
BRANCH   9  10
ATOM     10  C   UNL     1     131.539 130.508 125.432  1.00  0.00     0.041 C 
ATOM     11  O   UNL     1     130.528 129.846 125.080  1.00  0.00    -0.550 OA
ATOM     12  O   UNL     1     131.645 131.845 125.070  1.00  0.00    -0.550 OA
ENDBRANCH   9  10
ENDBRANCH   8   9
ENDBRANCH   7   8
ENDBRANCH   6   7
ENDBRANCH   5   6
ENDBRANCH   4   5
ENDBRANCH   3   4
ENDBRANCH   1   3
BRANCH   2  13
ATOM     13  C   UNL     1     140.055 128.858 129.857  1.00  0.00     0.027 C 
BRANCH  13  14
ATOM     14  C   UNL     1     141.086 128.059 130.667  1.00  0.00     0.004 C 
BRANCH  14  15
ATOM     15  C   UNL     1     142.488 128.117 130.036  1.00  0.00     0.000 C 
BRANCH  15  16
ATOM     16  C   UNL     1     142.450 128.440 128.534  1.00  0.00     0.000 C 
BRANCH  16  17
ATOM     17  C   UNL     1     143.831 128.318 127.868  1.00  0.00    -0.000 C 
BRANCH  17  18
ATOM     18  C   UNL     1     144.124 129.464 126.882  1.00  0.00    -0.000 C 
BRANCH  18  19
ATOM     19  C   UNL     1     144.076 129.069 125.394  1.00  0.00    -0.003 C 
ATOM     20  C   UNL     1     142.963 128.073 125.074  1.00  0.00     0.004 C 
ENDBRANCH  18  19
ENDBRANCH  17  18
ENDBRANCH  16  17
ENDBRANCH  15  16
ENDBRANCH  14  15
ENDBRANCH  13  14
ENDBRANCH   2  13
TORSDOF 15
ENDMDL
MODEL 5
REMARK VINA RESULT:     2.162      3.915      9.533
REMARK INTER + INTRA:           3.340
REMARK INTER:                   4.110
REMARK INTRA:                  -0.770
REMARK UNBOUND:                -0.717
REMARK SMILES CCCCCCCCC=CCCCCCCCC(=O)[O-]
REMARK SMILES IDX 10 1 9 2 11 3 12 4 13 5 14 6 15 7 16 8 17 9 18 10 19 11
REMARK SMILES IDX 20 12 8 13 7 14 6 15 5 16 4 17 3 18 2 19 1 20
REMARK H PARENT
REMARK Flexibility Score: inf
ROOT
ATOM      1  C   UNL     1     136.035 127.589 129.995  1.00  0.00    -0.031 C 
ATOM      2  C   UNL     1     137.128 127.027 129.456  1.00  0.00    -0.031 C 
ENDROOT
BRANCH   1   3
ATOM      3  C   UNL     1     134.756 127.722 129.216  1.00  0.00     0.027 C 
BRANCH   3   4
ATOM      4  C   UNL     1     134.360 129.197 129.049  1.00  0.00     0.004 C 
BRANCH   4   5
ATOM      5  C   UNL     1     133.385 129.424 127.880  1.00  0.00     0.000 C 
BRANCH   5   6
ATOM      6  C   UNL     1     132.487 128.218 127.536  1.00  0.00     0.000 C 
BRANCH   6   7
ATOM      7  C   UNL     1     131.224 128.551 126.719  1.00  0.00     0.000 C 
BRANCH   7   8
ATOM      8  C   UNL     1     131.484 129.137 125.317  1.00  0.00     0.006 C 
BRANCH   8   9
ATOM      9  C   UNL     1     130.724 130.446 125.036  1.00  0.00     0.053 C 
BRANCH   9  10
ATOM     10  C   UNL     1     131.617 131.649 125.059  1.00  0.00     0.041 C 
ATOM     11  O   UNL     1     131.139 132.799 124.877  1.00  0.00    -0.550 OA
ATOM     12  O   UNL     1     132.974 131.503 125.320  1.00  0.00    -0.550 OA
ENDBRANCH   9  10
ENDBRANCH   8   9
ENDBRANCH   7   8
ENDBRANCH   6   7
ENDBRANCH   5   6
ENDBRANCH   4   5
ENDBRANCH   3   4
ENDBRANCH   1   3
BRANCH   2  13
ATOM     13  C   UNL     1     138.406 126.882 130.238  1.00  0.00     0.027 C 
BRANCH  13  14
ATOM     14  C   UNL     1     138.741 128.140 131.052  1.00  0.00     0.004 C 
BRANCH  14  15
ATOM     15  C   UNL     1     140.100 128.742 130.654  1.00  0.00     0.000 C 
BRANCH  15  16
ATOM     16  C   UNL     1     141.279 127.810 130.976  1.00  0.00     0.000 C 
BRANCH  16  17
ATOM     17  C   UNL     1     142.581 128.243 130.281  1.00  0.00    -0.000 C 
BRANCH  17  18
ATOM     18  C   UNL     1     142.474 128.228 128.746  1.00  0.00    -0.000 C 
BRANCH  18  19
ATOM     19  C   UNL     1     143.770 128.597 128.001  1.00  0.00    -0.003 C 
ATOM     20  C   UNL     1     143.557 128.826 126.505  1.00  0.00     0.004 C 
ENDBRANCH  18  19
ENDBRANCH  17  18
ENDBRANCH  16  17
ENDBRANCH  15  16
ENDBRANCH  14  15
ENDBRANCH  13  14
ENDBRANCH   2  13
TORSDOF 15
ENDMDL
MODEL 6
REMARK VINA RESULT:     2.423      2.007      3.707
REMARK INTER + INTRA:           3.830
REMARK INTER:                   3.718
REMARK INTRA:                   0.112
REMARK UNBOUND:                -0.717
REMARK SMILES CCCCCCCCC=CCCCCCCCC(=O)[O-]
REMARK SMILES IDX 10 1 9 2 11 3 12 4 13 5 14 6 15 7 16 8 17 9 18 10 19 11
REMARK SMILES IDX 20 12 8 13 7 14 6 15 5 16 4 17 3 18 2 19 1 20
REMARK H PARENT
REMARK Flexibility Score: inf
ROOT
ATOM      1  C   UNL     1     135.696 128.164 129.189  1.00  0.00    -0.031 C 
ATOM      2  C   UNL     1     134.529 128.497 128.615  1.00  0.00    -0.031 C 
ENDROOT
BRANCH   1   3
ATOM      3  C   UNL     1     136.358 126.843 128.912  1.00  0.00     0.027 C 
BRANCH   3   4
ATOM      4  C   UNL     1     137.108 126.330 130.150  1.00  0.00     0.004 C 
BRANCH   4   5
ATOM      5  C   UNL     1     137.125 127.350 131.303  1.00  0.00     0.000 C 
BRANCH   5   6
ATOM      6  C   UNL     1     138.503 127.570 131.959  1.00  0.00     0.000 C 
BRANCH   6   7
ATOM      7  C   UNL     1     139.027 129.018 131.920  1.00  0.00     0.000 C 
BRANCH   7   8
ATOM      8  C   UNL     1     139.637 129.460 130.575  1.00  0.00     0.006 C 
BRANCH   8   9
ATOM      9  C   UNL     1     140.266 128.311 129.767  1.00  0.00     0.053 C 
BRANCH   9  10
ATOM     10  C   UNL     1     141.751 128.221 129.951  1.00  0.00     0.041 C 
ATOM     11  O   UNL     1     142.524 128.409 128.975  1.00  0.00    -0.550 OA
ATOM     12  O   UNL     1     142.283 127.968 131.210  1.00  0.00    -0.550 OA
ENDBRANCH   9  10
ENDBRANCH   8   9
ENDBRANCH   7   8
ENDBRANCH   6   7
ENDBRANCH   5   6
ENDBRANCH   4   5
ENDBRANCH   3   4
ENDBRANCH   1   3
BRANCH   2  13
ATOM     13  C   UNL     1     133.869 129.824 128.881  1.00  0.00     0.027 C 
BRANCH  13  14
ATOM     14  C   UNL     1     133.883 130.742 127.650  1.00  0.00     0.004 C 
BRANCH  14  15
ATOM     15  C   UNL     1     132.848 130.312 126.596  1.00  0.00     0.000 C 
BRANCH  15  16
ATOM     16  C   UNL     1     132.842 131.230 125.363  1.00  0.00     0.000 C 
BRANCH  16  17
ATOM     17  C   UNL     1     131.466 131.869 125.109  1.00  0.00    -0.000 C 
BRANCH  17  18
ATOM     18  C   UNL     1     130.356 130.830 124.875  1.00  0.00    -0.000 C 
BRANCH  18  19
ATOM     19  C   UNL     1     130.636 129.435 125.465  1.00  0.00    -0.003 C 
ATOM     20  C   UNL     1     129.862 129.164 126.754  1.00  0.00     0.004 C 
ENDBRANCH  18  19
ENDBRANCH  17  18
ENDBRANCH  16  17
ENDBRANCH  15  16
ENDBRANCH  14  15
ENDBRANCH  13  14
ENDBRANCH   2  13
TORSDOF 15
ENDMDL
MODEL 7
REMARK VINA RESULT:     2.478      3.377      4.482
REMARK INTER + INTRA:           3.934
REMARK INTER:                   5.045
REMARK INTRA:                  -1.111
REMARK UNBOUND:                -0.717
REMARK SMILES CCCCCCCCC=CCCCCCCCC(=O)[O-]
REMARK SMILES IDX 10 1 9 2 11 3 12 4 13 5 14 6 15 7 16 8 17 9 18 10 19 11
REMARK SMILES IDX 20 12 8 13 7 14 6 15 5 16 4 17 3 18 2 19 1 20
REMARK H PARENT
REMARK Flexibility Score: inf
ROOT
ATOM      1  C   UNL     1     134.732 127.911 129.983  1.00  0.00    -0.031 C 
ATOM      2  C   UNL     1     134.787 128.775 128.958  1.00  0.00    -0.031 C 
ENDROOT
BRANCH   1   3
ATOM      3  C   UNL     1     135.964 127.533 130.759  1.00  0.00     0.027 C 
BRANCH   3   4
ATOM      4  C   UNL     1     136.573 126.226 130.228  1.00  0.00     0.004 C 
BRANCH   4   5
ATOM      5  C   UNL     1     137.865 126.453 129.424  1.00  0.00     0.000 C 
BRANCH   5   6
ATOM      6  C   UNL     1     137.961 127.820 128.716  1.00  0.00     0.000 C 
BRANCH   6   7
ATOM      7  C   UNL     1     139.105 128.732 129.198  1.00  0.00     0.000 C 
BRANCH   7   8
ATOM      8  C   UNL     1     140.356 127.997 129.720  1.00  0.00     0.006 C 
BRANCH   8   9
ATOM      9  C   UNL     1     140.702 128.315 131.185  1.00  0.00     0.053 C 
BRANCH   9  10
ATOM     10  C   UNL     1     139.486 128.426 132.055  1.00  0.00     0.041 C 
ATOM     11  O   UNL     1     138.945 127.391 132.526  1.00  0.00    -0.550 OA
ATOM     12  O   UNL     1     138.971 129.676 132.375  1.00  0.00    -0.550 OA
ENDBRANCH   9  10
ENDBRANCH   8   9
ENDBRANCH   7   8
ENDBRANCH   6   7
ENDBRANCH   5   6
ENDBRANCH   4   5
ENDBRANCH   3   4
ENDBRANCH   1   3
BRANCH   2  13
ATOM     13  C   UNL     1     133.554 129.164 128.187  1.00  0.00     0.027 C 
BRANCH  13  14
ATOM     14  C   UNL     1     132.713 127.947 127.775  1.00  0.00     0.004 C 
BRANCH  14  15
ATOM     15  C   UNL     1     131.423 128.356 127.043  1.00  0.00     0.000 C 
BRANCH  15  16
ATOM     16  C   UNL     1     131.698 129.021 125.685  1.00  0.00     0.000 C 
BRANCH  16  17
ATOM     17  C   UNL     1     130.434 129.638 125.062  1.00  0.00    -0.000 C 
BRANCH  17  18
ATOM     18  C   UNL     1     130.534 131.165 124.893  1.00  0.00    -0.000 C 
BRANCH  18  19
ATOM     19  C   UNL     1     131.730 131.821 125.606  1.00  0.00    -0.003 C 
ATOM     20  C   UNL     1     132.259 133.056 124.878  1.00  0.00     0.004 C 
ENDBRANCH  18  19
ENDBRANCH  17  18
ENDBRANCH  16  17
ENDBRANCH  15  16
ENDBRANCH  14  15
ENDBRANCH  13  14
ENDBRANCH   2  13
TORSDOF 15
ENDMDL
MODEL 8
REMARK VINA RESULT:     2.658      2.622      3.147
REMARK INTER + INTRA:           4.272
REMARK INTER:                   5.327
REMARK INTRA:                  -1.055
REMARK UNBOUND:                -0.717
REMARK SMILES CCCCCCCCC=CCCCCCCCC(=O)[O-]
REMARK SMILES IDX 10 1 9 2 11 3 12 4 13 5 14 6 15 7 16 8 17 9 18 10 19 11
REMARK SMILES IDX 20 12 8 13 7 14 6 15 5 16 4 17 3 18 2 19 1 20
REMARK H PARENT
REMARK Flexibility Score: inf
ROOT
ATOM      1  C   UNL     1     136.989 127.774 131.238  1.00  0.00    -0.031 C 
ATOM      2  C   UNL     1     136.661 126.937 130.241  1.00  0.00    -0.031 C 
ENDROOT
BRANCH   1   3
ATOM      3  C   UNL     1     138.158 127.498 132.142  1.00  0.00     0.027 C 
BRANCH   3   4
ATOM      4  C   UNL     1     139.219 128.602 132.026  1.00  0.00     0.004 C 
BRANCH   4   5
ATOM      5  C   UNL     1     140.466 128.153 131.244  1.00  0.00     0.000 C 
BRANCH   5   6
ATOM      6  C   UNL     1     140.347 128.259 129.710  1.00  0.00     0.000 C 
BRANCH   6   7
ATOM      7  C   UNL     1     139.115 129.029 129.197  1.00  0.00     0.000 C 
BRANCH   7   8
ATOM      8  C   UNL     1     138.515 128.504 127.877  1.00  0.00     0.006 C 
BRANCH   8   9
ATOM      9  C   UNL     1     137.510 129.468 127.221  1.00  0.00     0.053 C 
BRANCH   9  10
ATOM     10  C   UNL     1     137.943 129.912 125.856  1.00  0.00     0.041 C 
ATOM     11  O   UNL     1     138.083 131.137 125.602  1.00  0.00    -0.550 OA
ATOM     12  O   UNL     1     138.227 128.970 124.875  1.00  0.00    -0.550 OA
ENDBRANCH   9  10
ENDBRANCH   8   9
ENDBRANCH   7   8
ENDBRANCH   6   7
ENDBRANCH   5   6
ENDBRANCH   4   5
ENDBRANCH   3   4
ENDBRANCH   1   3
BRANCH   2  13
ATOM     13  C   UNL     1     135.498 127.217 129.327  1.00  0.00     0.027 C 
BRANCH  13  14
ATOM     14  C   UNL     1     134.677 128.433 129.780  1.00  0.00     0.004 C 
BRANCH  14  15
ATOM     15  C   UNL     1     134.088 129.209 128.589  1.00  0.00     0.000 C 
BRANCH  15  16
ATOM     16  C   UNL     1     132.781 128.591 128.067  1.00  0.00     0.000 C 
BRANCH  16  17
ATOM     17  C   UNL     1     132.495 128.963 126.602  1.00  0.00    -0.000 C 
BRANCH  17  18
ATOM     18  C   UNL     1     131.025 129.345 126.357  1.00  0.00    -0.000 C 
BRANCH  18  19
ATOM     19  C   UNL     1     130.771 130.163 125.077  1.00  0.00    -0.003 C 
ATOM     20  C   UNL     1     131.568 131.465 125.030  1.00  0.00     0.004 C 
ENDBRANCH  18  19
ENDBRANCH  17  18
ENDBRANCH  16  17
ENDBRANCH  15  16
ENDBRANCH  14  15
ENDBRANCH  13  14
ENDBRANCH   2  13
TORSDOF 15
ENDMDL
