MODEL 1
REMARK VINA RESULT:    -4.044      0.000      0.000
REMARK INTER + INTRA:          -7.426
REMARK INTER:                  -6.409
REMARK INTRA:                  -1.017
REMARK UNBOUND:                -1.017
REMARK SMILES CCCCCCCCCCCC(=O)[O-]
REMARK SMILES IDX 7 1 8 2 9 3 10 4 11 5 12 6 13 7 14 8 6 9 5 10 4 11 3 12 2 13
REMARK SMILES IDX 1 14
REMARK H PARENT
REMARK Flexibility Score: inf
ROOT
ATOM      1  C   UNL     1       3.838  24.794  13.351  1.00  0.00     0.000 C 
ENDROOT
BRANCH   1   2
ATOM      2  C   UNL     1       2.332  24.876  13.073  1.00  0.00     0.000 C 
BRANCH   2   3
ATOM      3  C   UNL     1       2.001  26.085  12.184  1.00  0.00     0.000 C 
BRANCH   3   4
ATOM      4  C   UNL     1       3.241  26.928  11.838  1.00  0.00     0.006 C 
BRANCH   4   5
ATOM      5  C   UNL     1       3.324  28.267  12.586  1.00  0.00     0.053 C 
BRANCH   5   6
ATOM      6  C   UNL     1       4.741  28.681  12.839  1.00  0.00     0.041 C 
ATOM      7  O   UNL     1       5.567  27.857  13.313  1.00  0.00    -0.550 OA
ATOM      8  O   UNL     1       5.157  29.968  12.522  1.00  0.00    -0.550 OA
ENDBRANCH   5   6
ENDBRANCH   4   5
ENDBRANCH   3   4
ENDBRANCH   2   3
ENDBRANCH   1   2
BRANCH   1   9
ATOM      9  C   UNL     1       4.115  24.685  14.858  1.00  0.00     0.000 C 
BRANCH   9  10
ATOM     10  C   UNL     1       3.270  25.661  15.697  1.00  0.00    -0.000 C 
BRANCH  10  11
ATOM     11  C   UNL     1       3.981  26.248  16.931  1.00  0.00    -0.000 C 
BRANCH  11  12
ATOM     12  C   UNL     1       5.231  27.067  16.569  1.00  0.00    -0.000 C 
BRANCH  12  13
ATOM     13  C   UNL     1       6.536  26.337  16.922  1.00  0.00    -0.003 C 
ATOM     14  C   UNL     1       7.474  26.185  15.724  1.00  0.00     0.004 C 
ENDBRANCH  12  13
ENDBRANCH  11  12
ENDBRANCH  10  11
ENDBRANCH   9  10
ENDBRANCH   1   9
TORSDOF 10
ENDMDL
MODEL 2
REMARK VINA RESULT:    -3.917      1.830      3.465
REMARK INTER + INTRA:          -7.224
REMARK INTER:                  -5.815
REMARK INTRA:                  -1.409
REMARK UNBOUND:                -1.017
REMARK SMILES CCCCCCCCCCCC(=O)[O-]
REMARK SMILES IDX 7 1 8 2 9 3 10 4 11 5 12 6 13 7 14 8 6 9 5 10 4 11 3 12 2 13
REMARK SMILES IDX 1 14
REMARK H PARENT
REMARK Flexibility Score: inf
ROOT
ATOM      1  C   UNL     1       7.001  25.884  14.840  1.00  0.00     0.000 C 
ENDROOT
BRANCH   1   2
ATOM      2  C   UNL     1       5.997  26.289  13.754  1.00  0.00     0.000 C 
BRANCH   2   3
ATOM      3  C   UNL     1       5.832  27.815  13.699  1.00  0.00     0.000 C 
BRANCH   3   4
ATOM      4  C   UNL     1       4.497  28.249  13.067  1.00  0.00     0.006 C 
BRANCH   4   5
ATOM      5  C   UNL     1       3.706  27.105  12.413  1.00  0.00     0.053 C 
BRANCH   5   6
ATOM      6  C   UNL     1       2.591  27.615  11.553  1.00  0.00     0.041 C 
ATOM      7  O   UNL     1       2.317  28.844  11.533  1.00  0.00    -0.550 OA
ATOM      8  O   UNL     1       1.875  26.736  10.750  1.00  0.00    -0.550 OA
ENDBRANCH   5   6
ENDBRANCH   4   5
ENDBRANCH   3   4
ENDBRANCH   2   3
ENDBRANCH   1   2
BRANCH   1   9
ATOM      9  C   UNL     1       6.970  26.872  16.015  1.00  0.00     0.000 C 
BRANCH   9  10
ATOM     10  C   UNL     1       5.987  26.457  17.125  1.00  0.00    -0.000 C 
BRANCH  10  11
ATOM     11  C   UNL     1       4.640  27.202  17.118  1.00  0.00    -0.000 C 
BRANCH  11  12
ATOM     12  C   UNL     1       3.430  26.253  17.124  1.00  0.00    -0.000 C 
BRANCH  12  13
ATOM     13  C   UNL     1       2.917  25.944  15.708  1.00  0.00    -0.003 C 
ATOM     14  C   UNL     1       3.200  24.506  15.275  1.00  0.00     0.004 C 
ENDBRANCH  12  13
ENDBRANCH  11  12
ENDBRANCH  10  11
ENDBRANCH   9  10
ENDBRANCH   1   9
TORSDOF 10
ENDMDL
MODEL 3
REMARK VINA RESULT:    -3.824      1.712      4.286
REMARK INTER + INTRA:          -7.076
REMARK INTER:                  -5.750
REMARK INTRA:                  -1.326
REMARK UNBOUND:                -1.017
REMARK SMILES CCCCCCCCCCCC(=O)[O-]
REMARK SMILES IDX 7 1 8 2 9 3 10 4 11 5 12 6 13 7 14 8 6 9 5 10 4 11 3 12 2 13
REMARK SMILES IDX 1 14
REMARK H PARENT
REMARK Flexibility Score: inf
ROOT
ATOM      1  C   UNL     1       2.803  24.880  14.662  1.00  0.00     0.000 C 
ENDROOT
BRANCH   1   2
ATOM      2  C   UNL     1       3.034  25.589  16.002  1.00  0.00     0.000 C 
BRANCH   2   3
ATOM      3  C   UNL     1       3.415  27.061  15.788  1.00  0.00     0.000 C 
BRANCH   3   4
ATOM      4  C   UNL     1       4.685  27.467  16.557  1.00  0.00     0.006 C 
BRANCH   4   5
ATOM      5  C   UNL     1       5.731  26.348  16.685  1.00  0.00     0.053 C 
BRANCH   5   6
ATOM      6  C   UNL     1       6.719  26.373  15.561  1.00  0.00     0.041 C 
ATOM      7  O   UNL     1       7.839  26.930  15.712  1.00  0.00    -0.550 OA
ATOM      8  O   UNL     1       6.416  25.753  14.355  1.00  0.00    -0.550 OA
ENDBRANCH   5   6
ENDBRANCH   4   5
ENDBRANCH   3   4
ENDBRANCH   2   3
ENDBRANCH   1   2
BRANCH   1   9
ATOM      9  C   UNL     1       1.908  25.723  13.741  1.00  0.00     0.000 C 
BRANCH   9  10
ATOM     10  C   UNL     1       2.295  25.608  12.255  1.00  0.00    -0.000 C 
BRANCH  10  11
ATOM     11  C   UNL     1       2.212  26.921  11.453  1.00  0.00    -0.000 C 
BRANCH  11  12
ATOM     12  C   UNL     1       2.996  28.071  12.105  1.00  0.00    -0.000 C 
BRANCH  12  13
ATOM     13  C   UNL     1       4.494  27.756  12.249  1.00  0.00    -0.003 C 
ATOM     14  C   UNL     1       5.258  28.837  13.013  1.00  0.00     0.004 C 
ENDBRANCH  12  13
ENDBRANCH  11  12
ENDBRANCH  10  11
ENDBRANCH   9  10
ENDBRANCH   1   9
TORSDOF 10
ENDMDL
MODEL 4
REMARK VINA RESULT:    -3.518     11.267     13.602
REMARK INTER + INTRA:          -6.592
REMARK INTER:                  -5.605
REMARK INTRA:                  -0.987
REMARK UNBOUND:                -1.017
REMARK SMILES CCCCCCCCCCCC(=O)[O-]
REMARK SMILES IDX 7 1 8 2 9 3 10 4 11 5 12 6 13 7 14 8 6 9 5 10 4 11 3 12 2 13
REMARK SMILES IDX 1 14
REMARK H PARENT
REMARK Flexibility Score: inf
ROOT
ATOM      1  C   UNL     1       3.444  18.942   6.814  1.00  0.00     0.000 C 
ENDROOT
BRANCH   1   2
ATOM      2  C   UNL     1       3.317  18.414   8.249  1.00  0.00     0.000 C 
BRANCH   2   3
ATOM      3  C   UNL     1       2.511  17.107   8.286  1.00  0.00     0.000 C 
BRANCH   3   4
ATOM      4  C   UNL     1       3.279  15.915   7.687  1.00  0.00     0.006 C 
BRANCH   4   5
ATOM      5  C   UNL     1       4.730  15.787   8.177  1.00  0.00     0.053 C 
BRANCH   5   6
ATOM      6  C   UNL     1       5.695  15.653   7.040  1.00  0.00     0.041 C 
ATOM      7  O   UNL     1       6.915  15.918   7.209  1.00  0.00    -0.550 OA
ATOM      8  O   UNL     1       5.254  15.204   5.801  1.00  0.00    -0.550 OA
ENDBRANCH   5   6
ENDBRANCH   4   5
ENDBRANCH   3   4
ENDBRANCH   2   3
ENDBRANCH   1   2
BRANCH   1   9
ATOM      9  C   UNL     1       2.060  19.183   6.192  1.00  0.00     0.000 C 
BRANCH   9  10
ATOM     10  C   UNL     1       1.903  18.534   4.805  1.00  0.00    -0.000 C 
BRANCH  10  11
ATOM     11  C   UNL     1       3.047  17.590   4.390  1.00  0.00    -0.000 C 
BRANCH  11  12
ATOM     12  C   UNL     1       3.195  17.462   2.865  1.00  0.00    -0.000 C 
BRANCH  12  13
ATOM     13  C   UNL     1       2.071  18.184   2.102  1.00  0.00    -0.003 C 
ATOM     14  C   UNL     1       2.590  19.308   1.205  1.00  0.00     0.004 C 
ENDBRANCH  12  13
ENDBRANCH  11  12
ENDBRANCH  10  11
ENDBRANCH   9  10
ENDBRANCH   1   9
TORSDOF 10
ENDMDL
MODEL 5
REMARK VINA RESULT:    -3.453      8.950     10.364
REMARK INTER + INTRA:          -6.489
REMARK INTER:                  -5.420
REMARK INTRA:                  -1.069
REMARK UNBOUND:                -1.017
REMARK SMILES CCCCCCCCCCCC(=O)[O-]
REMARK SMILES IDX 7 1 8 2 9 3 10 4 11 5 12 6 13 7 14 8 6 9 5 10 4 11 3 12 2 13
REMARK SMILES IDX 1 14
REMARK H PARENT
REMARK Flexibility Score: inf
ROOT
ATOM      1  C   UNL     1       4.246  14.614  13.895  1.00  0.00     0.000 C 
ENDROOT
BRANCH   1   2
ATOM      2  C   UNL     1       3.375  14.993  12.691  1.00  0.00     0.000 C 
BRANCH   2   3
ATOM      3  C   UNL     1       4.093  16.009  11.789  1.00  0.00     0.000 C 
BRANCH   3   4
ATOM      4  C   UNL     1       3.138  16.723  10.817  1.00  0.00     0.006 C 
BRANCH   4   5
ATOM      5  C   UNL     1       3.448  16.478   9.332  1.00  0.00     0.053 C 
BRANCH   5   6
ATOM      6  C   UNL     1       4.354  17.527   8.767  1.00  0.00     0.041 C 
ATOM      7  O   UNL     1       5.604  17.396   8.848  1.00  0.00    -0.550 OA
ATOM      8  O   UNL     1       3.819  18.636   8.123  1.00  0.00    -0.550 OA
ENDBRANCH   5   6
ENDBRANCH   4   5
ENDBRANCH   3   4
ENDBRANCH   2   3
ENDBRANCH   1   2
BRANCH   1   9
ATOM      9  C   UNL     1       5.671  15.165  13.739  1.00  0.00     0.000 C 
BRANCH   9  10
ATOM     10  C   UNL     1       6.111  16.041  14.927  1.00  0.00    -0.000 C 
BRANCH  10  11
ATOM     11  C   UNL     1       4.986  16.432  15.904  1.00  0.00    -0.000 C 
BRANCH  11  12
ATOM     12  C   UNL     1       5.060  17.904  16.344  1.00  0.00    -0.000 C 
BRANCH  12  13
ATOM     13  C   UNL     1       4.574  18.870  15.251  1.00  0.00    -0.003 C 
ATOM     14  C   UNL     1       3.300  18.389  14.558  1.00  0.00     0.004 C 
ENDBRANCH  12  13
ENDBRANCH  11  12
ENDBRANCH  10  11
ENDBRANCH   9  10
ENDBRANCH   1   9
TORSDOF 10
ENDMDL
MODEL 6
REMARK VINA RESULT:    -3.408      1.822      4.561
REMARK INTER + INTRA:          -6.417
REMARK INTER:                  -5.361
REMARK INTRA:                  -1.056
REMARK UNBOUND:                -1.017
REMARK SMILES CCCCCCCCCCCC(=O)[O-]
REMARK SMILES IDX 7 1 8 2 9 3 10 4 11 5 12 6 13 7 14 8 6 9 5 10 4 11 3 12 2 13
REMARK SMILES IDX 1 14
REMARK H PARENT
REMARK Flexibility Score: inf
ROOT
ATOM      1  C   UNL     1       4.492  27.219  12.530  1.00  0.00     0.000 C 
ENDROOT
BRANCH   1   2
ATOM      2  C   UNL     1       4.853  28.432  13.398  1.00  0.00     0.000 C 
BRANCH   2   3
ATOM      3  C   UNL     1       4.147  28.363  14.761  1.00  0.00     0.000 C 
BRANCH   3   4
ATOM      4  C   UNL     1       4.266  26.980  15.425  1.00  0.00     0.006 C 
BRANCH   4   5
ATOM      5  C   UNL     1       5.217  26.937  16.631  1.00  0.00     0.053 C 
BRANCH   5   6
ATOM      6  C   UNL     1       6.547  26.348  16.276  1.00  0.00     0.041 C 
ATOM      7  O   UNL     1       7.181  25.658  17.117  1.00  0.00    -0.550 OA
ATOM      8  O   UNL     1       7.073  26.535  15.003  1.00  0.00    -0.550 OA
ENDBRANCH   5   6
ENDBRANCH   4   5
ENDBRANCH   3   4
ENDBRANCH   2   3
ENDBRANCH   1   2
BRANCH   1   9
ATOM      9  C   UNL     1       3.325  27.545  11.586  1.00  0.00     0.000 C 
BRANCH   9  10
ATOM     10  C   UNL     1       2.261  26.434  11.540  1.00  0.00    -0.000 C 
BRANCH  10  11
ATOM     11  C   UNL     1       1.875  25.839  12.908  1.00  0.00    -0.000 C 
BRANCH  11  12
ATOM     12  C   UNL     1       2.150  24.329  13.003  1.00  0.00    -0.000 C 
BRANCH  12  13
ATOM     13  C   UNL     1       2.879  23.945  14.301  1.00  0.00    -0.003 C 
ATOM     14  C   UNL     1       2.009  24.121  15.545  1.00  0.00     0.004 C 
ENDBRANCH  12  13
ENDBRANCH  11  12
ENDBRANCH  10  11
ENDBRANCH   9  10
ENDBRANCH   1   9
TORSDOF 10
ENDMDL
MODEL 7
REMARK VINA RESULT:    -3.398      9.253     10.833
REMARK INTER + INTRA:          -6.402
REMARK INTER:                  -5.074
REMARK INTRA:                  -1.328
REMARK UNBOUND:                -1.017
REMARK SMILES CCCCCCCCCCCC(=O)[O-]
REMARK SMILES IDX 7 1 8 2 9 3 10 4 11 5 12 6 13 7 14 8 6 9 5 10 4 11 3 12 2 13
REMARK SMILES IDX 1 14
REMARK H PARENT
REMARK Flexibility Score: inf
ROOT
ATOM      1  C   UNL     1       5.680  14.960  13.671  1.00  0.00     0.000 C 
ENDROOT
BRANCH   1   2
ATOM      2  C   UNL     1       4.212  14.666  14.003  1.00  0.00     0.000 C 
BRANCH   2   3
ATOM      3  C   UNL     1       3.322  14.836  12.763  1.00  0.00     0.000 C 
BRANCH   3   4
ATOM      4  C   UNL     1       4.133  15.046  11.471  1.00  0.00     0.006 C 
BRANCH   4   5
ATOM      5  C   UNL     1       3.815  16.354  10.730  1.00  0.00     0.053 C 
BRANCH   5   6
ATOM      6  C   UNL     1       4.413  16.380   9.358  1.00  0.00     0.041 C 
ATOM      7  O   UNL     1       4.029  15.559   8.483  1.00  0.00    -0.550 OA
ATOM      8  O   UNL     1       5.371  17.332   9.034  1.00  0.00    -0.550 OA
ENDBRANCH   5   6
ENDBRANCH   4   5
ENDBRANCH   3   4
ENDBRANCH   2   3
ENDBRANCH   1   2
BRANCH   1   9
ATOM      9  C   UNL     1       6.230  16.087  14.558  1.00  0.00     0.000 C 
BRANCH   9  10
ATOM     10  C   UNL     1       5.383  16.326  15.822  1.00  0.00    -0.000 C 
BRANCH  10  11
ATOM     11  C   UNL     1       4.984  17.793  16.075  1.00  0.00    -0.000 C 
BRANCH  11  12
ATOM     12  C   UNL     1       4.257  18.430  14.879  1.00  0.00    -0.000 C 
BRANCH  12  13
ATOM     13  C   UNL     1       2.784  18.001  14.789  1.00  0.00    -0.003 C 
ATOM     14  C   UNL     1       2.155  18.318  13.432  1.00  0.00     0.004 C 
ENDBRANCH  12  13
ENDBRANCH  11  12
ENDBRANCH  10  11
ENDBRANCH   9  10
ENDBRANCH   1   9
TORSDOF 10
ENDMDL
MODEL 8
REMARK VINA RESULT:    -3.342      9.957     12.019
REMARK INTER + INTRA:          -6.312
REMARK INTER:                  -5.437
REMARK INTRA:                  -0.875
REMARK UNBOUND:                -1.017
REMARK SMILES CCCCCCCCCCCC(=O)[O-]
REMARK SMILES IDX 7 1 8 2 9 3 10 4 11 5 12 6 13 7 14 8 6 9 5 10 4 11 3 12 2 13
REMARK SMILES IDX 1 14
REMARK H PARENT
REMARK Flexibility Score: inf
ROOT
ATOM      1  C   UNL     1       4.502  17.591   8.671  1.00  0.00     0.000 C 
ENDROOT
BRANCH   1   2
ATOM      2  C   UNL     1       4.128  16.426   9.595  1.00  0.00     0.000 C 
BRANCH   2   3
ATOM      3  C   UNL     1       3.035  16.843  10.592  1.00  0.00     0.000 C 
BRANCH   3   4
ATOM      4  C   UNL     1       3.422  16.560  12.054  1.00  0.00     0.006 C 
BRANCH   4   5
ATOM      5  C   UNL     1       4.863  16.062  12.243  1.00  0.00     0.053 C 
BRANCH   5   6
ATOM      6  C   UNL     1       5.446  16.513  13.546  1.00  0.00     0.041 C 
ATOM      7  O   UNL     1       5.015  17.555  14.107  1.00  0.00    -0.550 OA
ATOM      8  O   UNL     1       6.444  15.765  14.157  1.00  0.00    -0.550 OA
ENDBRANCH   5   6
ENDBRANCH   4   5
ENDBRANCH   3   4
ENDBRANCH   2   3
ENDBRANCH   1   2
BRANCH   1   9
ATOM      9  C   UNL     1       3.294  18.508   8.424  1.00  0.00     0.000 C 
BRANCH   9  10
ATOM     10  C   UNL     1       3.328  19.189   7.044  1.00  0.00    -0.000 C 
BRANCH  10  11
ATOM     11  C   UNL     1       2.239  18.724   6.058  1.00  0.00    -0.000 C 
BRANCH  11  12
ATOM     12  C   UNL     1       2.586  17.394   5.367  1.00  0.00    -0.000 C 
BRANCH  12  13
ATOM     13  C   UNL     1       4.061  17.319   4.941  1.00  0.00    -0.003 C 
ATOM     14  C   UNL     1       4.724  15.998   5.328  1.00  0.00     0.004 C 
ENDBRANCH  12  13
ENDBRANCH  11  12
ENDBRANCH  10  11
ENDBRANCH   9  10
ENDBRANCH   1   9
TORSDOF 10
ENDMDL
MODEL 9
REMARK VINA RESULT:    -3.332     10.529     12.510
REMARK INTER + INTRA:          -6.296
REMARK INTER:                  -4.992
REMARK INTRA:                  -1.304
REMARK UNBOUND:                -1.017
REMARK SMILES CCCCCCCCCCCC(=O)[O-]
REMARK SMILES IDX 7 1 8 2 9 3 10 4 11 5 12 6 13 7 14 8 6 9 5 10 4 11 3 12 2 13
REMARK SMILES IDX 1 14
REMARK H PARENT
REMARK Flexibility Score: inf
ROOT
ATOM      1  C   UNL     1       3.363  18.741   8.115  1.00  0.00     0.000 C 
ENDROOT
BRANCH   1   2
ATOM      2  C   UNL     1       2.150  17.864   8.447  1.00  0.00     0.000 C 
BRANCH   2   3
ATOM      3  C   UNL     1       2.590  16.507   9.016  1.00  0.00     0.000 C 
BRANCH   3   4
ATOM      4  C   UNL     1       3.806  16.619   9.953  1.00  0.00     0.006 C 
BRANCH   4   5
ATOM      5  C   UNL     1       4.071  15.364  10.799  1.00  0.00     0.053 C 
BRANCH   5   6
ATOM      6  C   UNL     1       4.429  15.706  12.213  1.00  0.00     0.041 C 
ATOM      7  O   UNL     1       3.957  16.741  12.754  1.00  0.00    -0.550 OA
ATOM      8  O   UNL     1       5.259  14.865  12.943  1.00  0.00    -0.550 OA
ENDBRANCH   5   6
ENDBRANCH   4   5
ENDBRANCH   3   4
ENDBRANCH   2   3
ENDBRANCH   1   2
BRANCH   1   9
ATOM      9  C   UNL     1       3.347  19.170   6.640  1.00  0.00     0.000 C 
BRANCH   9  10
ATOM     10  C   UNL     1       2.241  18.476   5.824  1.00  0.00    -0.000 C 
BRANCH  10  11
ATOM     11  C   UNL     1       2.740  17.540   4.708  1.00  0.00    -0.000 C 
BRANCH  11  12
ATOM     12  C   UNL     1       4.211  17.128   4.886  1.00  0.00    -0.000 C 
BRANCH  12  13
ATOM     13  C   UNL     1       4.361  15.775   5.599  1.00  0.00    -0.003 C 
ATOM     14  C   UNL     1       5.436  15.793   6.687  1.00  0.00     0.004 C 
ENDBRANCH  12  13
ENDBRANCH  11  12
ENDBRANCH  10  11
ENDBRANCH   9  10
ENDBRANCH   1   9
TORSDOF 10
ENDMDL
