MODEL 1
REMARK VINA RESULT:    -5.754      0.000      0.000
REMARK INTER + INTRA:         -11.893
REMARK INTER:                 -10.463
REMARK INTRA:                  -1.429
REMARK UNBOUND:                -1.429
REMARK SMILES CCCCCCCCCCCCCCCC(=O)[O-]
REMARK SMILES IDX 9 1 10 2 11 3 12 4 13 5 14 6 15 7 16 8 17 9 18 10 8 11 7 12
REMARK SMILES IDX 6 13 5 14 4 15 3 16 2 17 1 18
REMARK H PARENT
REMARK Flexibility Score: inf
ROOT
ATOM      1  C   UNL     1      61.886 151.926   3.336  1.00  0.00     0.000 C 
ENDROOT
BRANCH   1   2
ATOM      2  C   UNL     1      63.337 151.484   3.101  1.00  0.00     0.000 C 
BRANCH   2   3
ATOM      3  C   UNL     1      64.300 152.241   4.023  1.00  0.00     0.000 C 
BRANCH   3   4
ATOM      4  C   UNL     1      64.737 151.364   5.203  1.00  0.00     0.000 C 
BRANCH   4   5
ATOM      5  C   UNL     1      65.024 149.928   4.744  1.00  0.00     0.000 C 
BRANCH   5   6
ATOM      6  C   UNL     1      64.392 148.868   5.666  1.00  0.00     0.006 C 
BRANCH   6   7
ATOM      7  C   UNL     1      62.987 149.228   6.172  1.00  0.00     0.053 C 
BRANCH   7   8
ATOM      8  C   UNL     1      61.967 148.208   5.770  1.00  0.00     0.041 C 
ATOM      9  O   UNL     1      62.310 147.193   5.108  1.00  0.00    -0.550 OA
ATOM     10  O   UNL     1      60.641 148.361   6.156  1.00  0.00    -0.550 OA
ENDBRANCH   7   8
ENDBRANCH   6   7
ENDBRANCH   5   6
ENDBRANCH   4   5
ENDBRANCH   3   4
ENDBRANCH   2   3
ENDBRANCH   1   2
BRANCH   1  11
ATOM     11  C   UNL     1      61.106 151.976   2.014  1.00  0.00     0.000 C 
BRANCH  11  12
ATOM     12  C   UNL     1      61.234 153.331   1.299  1.00  0.00    -0.000 C 
BRANCH  12  13
ATOM     13  C   UNL     1      59.902 153.807   0.694  1.00  0.00    -0.000 C 
BRANCH  13  14
ATOM     14  C   UNL     1      58.730 153.692   1.682  1.00  0.00    -0.000 C 
BRANCH  14  15
ATOM     15  C   UNL     1      58.125 155.057   2.046  1.00  0.00    -0.000 C 
BRANCH  15  16
ATOM     16  C   UNL     1      58.268 155.337   3.546  1.00  0.00    -0.000 C 
BRANCH  16  17
ATOM     17  C   UNL     1      58.968 154.174   4.259  1.00  0.00    -0.003 C 
ATOM     18  C   UNL     1      59.459 154.590   5.643  1.00  0.00     0.004 C 
ENDBRANCH  16  17
ENDBRANCH  15  16
ENDBRANCH  14  15
ENDBRANCH  13  14
ENDBRANCH  12  13
ENDBRANCH  11  12
ENDBRANCH   1  11
TORSDOF 14
ENDMDL
MODEL 2
REMARK VINA RESULT:    -5.721      1.830      3.350
REMARK INTER + INTRA:         -11.832
REMARK INTER:                 -10.460
REMARK INTRA:                  -1.372
REMARK UNBOUND:                -1.429
REMARK SMILES CCCCCCCCCCCCCCCC(=O)[O-]
REMARK SMILES IDX 9 1 10 2 11 3 12 4 13 5 14 6 15 7 16 8 17 9 18 10 8 11 7 12
REMARK SMILES IDX 6 13 5 14 4 15 3 16 2 17 1 18
REMARK H PARENT
REMARK Flexibility Score: inf
ROOT
ATOM      1  C   UNL     1      65.210 151.376   4.238  1.00  0.00     0.000 C 
ENDROOT
BRANCH   1   2
ATOM      2  C   UNL     1      65.020 149.861   4.091  1.00  0.00     0.000 C 
BRANCH   2   3
ATOM      3  C   UNL     1      64.914 149.182   5.462  1.00  0.00     0.000 C 
BRANCH   3   4
ATOM      4  C   UNL     1      63.487 148.688   5.724  1.00  0.00     0.000 C 
BRANCH   4   5
ATOM      5  C   UNL     1      62.789 149.558   6.779  1.00  0.00     0.000 C 
BRANCH   5   6
ATOM      6  C   UNL     1      61.253 149.498   6.681  1.00  0.00     0.006 C 
BRANCH   6   7
ATOM      7  C   UNL     1      60.681 148.076   6.577  1.00  0.00     0.053 C 
BRANCH   7   8
ATOM      8  C   UNL     1      60.276 147.534   7.914  1.00  0.00     0.041 C 
ATOM      9  O   UNL     1      60.574 148.157   8.967  1.00  0.00    -0.550 OA
ATOM     10  O   UNL     1      59.540 146.359   7.994  1.00  0.00    -0.550 OA
ENDBRANCH   7   8
ENDBRANCH   6   7
ENDBRANCH   5   6
ENDBRANCH   4   5
ENDBRANCH   3   4
ENDBRANCH   2   3
ENDBRANCH   1   2
BRANCH   1  11
ATOM     11  C   UNL     1      63.854 152.095   4.322  1.00  0.00     0.000 C 
BRANCH  11  12
ATOM     12  C   UNL     1      62.936 151.772   3.132  1.00  0.00    -0.000 C 
BRANCH  12  13
ATOM     13  C   UNL     1      61.483 151.508   3.562  1.00  0.00    -0.000 C 
BRANCH  13  14
ATOM     14  C   UNL     1      60.464 152.260   2.691  1.00  0.00    -0.000 C 
BRANCH  14  15
ATOM     15  C   UNL     1      61.116 152.974   1.497  1.00  0.00    -0.000 C 
BRANCH  15  16
ATOM     16  C   UNL     1      60.086 153.814   0.732  1.00  0.00    -0.000 C 
BRANCH  16  17
ATOM     17  C   UNL     1      58.783 153.946   1.529  1.00  0.00    -0.003 C 
ATOM     18  C   UNL     1      58.107 155.289   1.262  1.00  0.00     0.004 C 
ENDBRANCH  16  17
ENDBRANCH  15  16
ENDBRANCH  14  15
ENDBRANCH  13  14
ENDBRANCH  12  13
ENDBRANCH  11  12
ENDBRANCH   1  11
TORSDOF 14
ENDMDL
MODEL 3
REMARK VINA RESULT:    -5.567      3.069      5.794
REMARK INTER + INTRA:         -11.552
REMARK INTER:                  -9.323
REMARK INTRA:                  -2.229
REMARK UNBOUND:                -1.429
REMARK SMILES CCCCCCCCCCCCCCCC(=O)[O-]
REMARK SMILES IDX 9 1 10 2 11 3 12 4 13 5 14 6 15 7 16 8 17 9 18 10 8 11 7 12
REMARK SMILES IDX 6 13 5 14 4 15 3 16 2 17 1 18
REMARK H PARENT
REMARK Flexibility Score: inf
ROOT
ATOM      1  C   UNL     1      64.976 149.873   4.778  1.00  0.00     0.000 C 
ENDROOT
BRANCH   1   2
ATOM      2  C   UNL     1      64.978 151.323   5.278  1.00  0.00     0.000 C 
BRANCH   2   3
ATOM      3  C   UNL     1      64.364 152.266   4.236  1.00  0.00     0.000 C 
BRANCH   3   4
ATOM      4  C   UNL     1      63.516 151.490   3.222  1.00  0.00     0.000 C 
BRANCH   4   5
ATOM      5  C   UNL     1      62.019 151.650   3.521  1.00  0.00     0.000 C 
BRANCH   5   6
ATOM      6  C   UNL     1      61.166 151.791   2.246  1.00  0.00     0.006 C 
BRANCH   6   7
ATOM      7  C   UNL     1      60.126 152.920   2.303  1.00  0.00     0.053 C 
BRANCH   7   8
ATOM      8  C   UNL     1      60.091 153.717   1.035  1.00  0.00     0.041 C 
ATOM      9  O   UNL     1      58.998 154.162   0.595  1.00  0.00    -0.550 OA
ATOM     10  O   UNL     1      61.270 153.997   0.357  1.00  0.00    -0.550 OA
ENDBRANCH   7   8
ENDBRANCH   6   7
ENDBRANCH   5   6
ENDBRANCH   4   5
ENDBRANCH   3   4
ENDBRANCH   2   3
ENDBRANCH   1   2
BRANCH   1  11
ATOM     11  C   UNL     1      64.396 148.926   5.841  1.00  0.00     0.000 C 
BRANCH  11  12
ATOM     12  C   UNL     1      63.063 148.294   5.409  1.00  0.00    -0.000 C 
BRANCH  12  13
ATOM     13  C   UNL     1      61.849 148.962   6.076  1.00  0.00    -0.000 C 
BRANCH  13  14
ATOM     14  C   UNL     1      62.253 149.972   7.162  1.00  0.00    -0.000 C 
BRANCH  14  15
ATOM     15  C   UNL     1      61.178 151.041   7.410  1.00  0.00    -0.000 C 
BRANCH  15  16
ATOM     16  C   UNL     1      61.705 152.438   7.063  1.00  0.00    -0.000 C 
BRANCH  16  17
ATOM     17  C   UNL     1      60.595 153.312   6.468  1.00  0.00    -0.003 C 
ATOM     18  C   UNL     1      59.406 152.466   6.022  1.00  0.00     0.004 C 
ENDBRANCH  16  17
ENDBRANCH  15  16
ENDBRANCH  14  15
ENDBRANCH  13  14
ENDBRANCH  12  13
ENDBRANCH  11  12
ENDBRANCH   1  11
TORSDOF 14
ENDMDL
MODEL 4
REMARK VINA RESULT:    -5.566      2.287      6.818
REMARK INTER + INTRA:         -11.550
REMARK INTER:                 -10.234
REMARK INTRA:                  -1.316
REMARK UNBOUND:                -1.429
REMARK SMILES CCCCCCCCCCCCCCCC(=O)[O-]
REMARK SMILES IDX 9 1 10 2 11 3 12 4 13 5 14 6 15 7 16 8 17 9 18 10 8 11 7 12
REMARK SMILES IDX 6 13 5 14 4 15 3 16 2 17 1 18
REMARK H PARENT
REMARK Flexibility Score: inf
ROOT
ATOM      1  C   UNL     1      61.270 153.019   1.480  1.00  0.00     0.000 C 
ENDROOT
BRANCH   1   2
ATOM      2  C   UNL     1      60.113 153.774   0.812  1.00  0.00     0.000 C 
BRANCH   2   3
ATOM      3  C   UNL     1      58.832 153.674   1.649  1.00  0.00     0.000 C 
BRANCH   3   4
ATOM      4  C   UNL     1      57.987 154.946   1.518  1.00  0.00     0.000 C 
BRANCH   4   5
ATOM      5  C   UNL     1      57.944 155.716   2.845  1.00  0.00     0.000 C 
BRANCH   5   6
ATOM      6  C   UNL     1      58.467 154.888   4.034  1.00  0.00     0.006 C 
BRANCH   6   7
ATOM      7  C   UNL     1      58.703 155.701   5.316  1.00  0.00     0.053 C 
BRANCH   7   8
ATOM      8  C   UNL     1      59.783 155.107   6.167  1.00  0.00     0.041 C 
ATOM      9  O   UNL     1      60.243 153.965   5.903  1.00  0.00    -0.550 OA
ATOM     10  O   UNL     1      60.305 155.830   7.232  1.00  0.00    -0.550 OA
ENDBRANCH   7   8
ENDBRANCH   6   7
ENDBRANCH   5   6
ENDBRANCH   4   5
ENDBRANCH   3   4
ENDBRANCH   2   3
ENDBRANCH   1   2
BRANCH   1  11
ATOM     11  C   UNL     1      60.746 152.032   2.534  1.00  0.00     0.000 C 
BRANCH  11  12
ATOM     12  C   UNL     1      61.749 151.792   3.674  1.00  0.00    -0.000 C 
BRANCH  12  13
ATOM     13  C   UNL     1      63.182 151.569   3.162  1.00  0.00    -0.000 C 
BRANCH  13  14
ATOM     14  C   UNL     1      64.229 152.342   3.981  1.00  0.00    -0.000 C 
BRANCH  14  15
ATOM     15  C   UNL     1      64.984 151.448   4.975  1.00  0.00    -0.000 C 
BRANCH  15  16
ATOM     16  C   UNL     1      65.064 150.005   4.463  1.00  0.00    -0.000 C 
BRANCH  16  17
ATOM     17  C   UNL     1      64.780 149.005   5.590  1.00  0.00    -0.003 C 
ATOM     18  C   UNL     1      63.416 149.262   6.225  1.00  0.00     0.004 C 
ENDBRANCH  16  17
ENDBRANCH  15  16
ENDBRANCH  14  15
ENDBRANCH  13  14
ENDBRANCH  12  13
ENDBRANCH  11  12
ENDBRANCH   1  11
TORSDOF 14
ENDMDL
MODEL 5
REMARK VINA RESULT:    -5.542      2.948      6.640
REMARK INTER + INTRA:         -11.507
REMARK INTER:                 -10.201
REMARK INTRA:                  -1.306
REMARK UNBOUND:                -1.429
REMARK SMILES CCCCCCCCCCCCCCCC(=O)[O-]
REMARK SMILES IDX 9 1 10 2 11 3 12 4 13 5 14 6 15 7 16 8 17 9 18 10 8 11 7 12
REMARK SMILES IDX 6 13 5 14 4 15 3 16 2 17 1 18
REMARK H PARENT
REMARK Flexibility Score: inf
ROOT
ATOM      1  C   UNL     1      64.989 149.725   4.786  1.00  0.00     0.000 C 
ENDROOT
BRANCH   1   2
ATOM      2  C   UNL     1      65.044 151.137   5.383  1.00  0.00     0.000 C 
BRANCH   2   3
ATOM      3  C   UNL     1      64.590 152.186   4.360  1.00  0.00     0.000 C 
BRANCH   3   4
ATOM      4  C   UNL     1      63.677 151.563   3.299  1.00  0.00     0.000 C 
BRANCH   4   5
ATOM      5  C   UNL     1      62.202 151.864   3.597  1.00  0.00     0.000 C 
BRANCH   5   6
ATOM      6  C   UNL     1      61.285 151.620   2.383  1.00  0.00     0.006 C 
BRANCH   6   7
ATOM      7  C   UNL     1      60.955 152.885   1.576  1.00  0.00     0.053 C 
BRANCH   7   8
ATOM      8  C   UNL     1      59.578 153.395   1.868  1.00  0.00     0.041 C 
ATOM      9  O   UNL     1      58.920 152.928   2.834  1.00  0.00    -0.550 OA
ATOM     10  O   UNL     1      59.034 154.411   1.093  1.00  0.00    -0.550 OA
ENDBRANCH   7   8
ENDBRANCH   6   7
ENDBRANCH   5   6
ENDBRANCH   4   5
ENDBRANCH   3   4
ENDBRANCH   2   3
ENDBRANCH   1   2
BRANCH   1  11
ATOM     11  C   UNL     1      63.881 148.892   5.449  1.00  0.00     0.000 C 
BRANCH  11  12
ATOM     12  C   UNL     1      63.237 149.605   6.648  1.00  0.00    -0.000 C 
BRANCH  12  13
ATOM     13  C   UNL     1      61.702 149.647   6.556  1.00  0.00    -0.000 C 
BRANCH  13  14
ATOM     14  C   UNL     1      61.125 148.450   5.783  1.00  0.00    -0.000 C 
BRANCH  14  15
ATOM     15  C   UNL     1      60.782 147.263   6.696  1.00  0.00    -0.000 C 
BRANCH  15  16
ATOM     16  C   UNL     1      59.776 147.676   7.777  1.00  0.00    -0.000 C 
BRANCH  16  17
ATOM     17  C   UNL     1      59.551 146.540   8.781  1.00  0.00    -0.003 C 
ATOM     18  C   UNL     1      59.361 145.203   8.069  1.00  0.00     0.004 C 
ENDBRANCH  16  17
ENDBRANCH  15  16
ENDBRANCH  14  15
ENDBRANCH  13  14
ENDBRANCH  12  13
ENDBRANCH  11  12
ENDBRANCH   1  11
TORSDOF 14
ENDMDL
MODEL 6
REMARK VINA RESULT:    -5.438      1.200      2.574
REMARK INTER + INTRA:         -11.318
REMARK INTER:                  -9.362
REMARK INTRA:                  -1.956
REMARK UNBOUND:                -1.429
REMARK SMILES CCCCCCCCCCCCCCCC(=O)[O-]
REMARK SMILES IDX 9 1 10 2 11 3 12 4 13 5 14 6 15 7 16 8 17 9 18 10 8 11 7 12
REMARK SMILES IDX 6 13 5 14 4 15 3 16 2 17 1 18
REMARK H PARENT
REMARK Flexibility Score: inf
ROOT
ATOM      1  C   UNL     1      62.762 151.582   3.088  1.00  0.00     0.000 C 
ENDROOT
BRANCH   1   2
ATOM      2  C   UNL     1      63.940 151.964   3.993  1.00  0.00     0.000 C 
BRANCH   2   3
ATOM      3  C   UNL     1      64.990 150.846   4.033  1.00  0.00     0.000 C 
BRANCH   3   4
ATOM      4  C   UNL     1      64.943 150.093   5.368  1.00  0.00     0.000 C 
BRANCH   4   5
ATOM      5  C   UNL     1      64.057 148.844   5.264  1.00  0.00     0.000 C 
BRANCH   5   6
ATOM      6  C   UNL     1      62.850 148.887   6.220  1.00  0.00     0.006 C 
BRANCH   6   7
ATOM      7  C   UNL     1      61.572 148.248   5.655  1.00  0.00     0.053 C 
BRANCH   7   8
ATOM      8  C   UNL     1      60.511 148.093   6.701  1.00  0.00     0.041 C 
ATOM      9  O   UNL     1      60.313 146.974   7.243  1.00  0.00    -0.550 OA
ATOM     10  O   UNL     1      59.764 149.194   7.101  1.00  0.00    -0.550 OA
ENDBRANCH   7   8
ENDBRANCH   6   7
ENDBRANCH   5   6
ENDBRANCH   4   5
ENDBRANCH   3   4
ENDBRANCH   2   3
ENDBRANCH   1   2
BRANCH   1  11
ATOM     11  C   UNL     1      61.469 151.430   3.903  1.00  0.00     0.000 C 
BRANCH  11  12
ATOM     12  C   UNL     1      61.521 152.178   5.245  1.00  0.00    -0.000 C 
BRANCH  12  13
ATOM     13  C   UNL     1      60.303 153.093   5.459  1.00  0.00    -0.000 C 
BRANCH  13  14
ATOM     14  C   UNL     1      59.279 152.990   4.317  1.00  0.00    -0.000 C 
BRANCH  14  15
ATOM     15  C   UNL     1      58.731 154.358   3.885  1.00  0.00    -0.000 C 
BRANCH  15  16
ATOM     16  C   UNL     1      58.571 154.428   2.361  1.00  0.00    -0.000 C 
BRANCH  16  17
ATOM     17  C   UNL     1      59.293 153.261   1.678  1.00  0.00    -0.003 C 
ATOM     18  C   UNL     1      60.513 153.746   0.900  1.00  0.00     0.004 C 
ENDBRANCH  16  17
ENDBRANCH  15  16
ENDBRANCH  14  15
ENDBRANCH  13  14
ENDBRANCH  12  13
ENDBRANCH  11  12
ENDBRANCH   1  11
TORSDOF 14
ENDMDL
MODEL 7
REMARK VINA RESULT:    -5.355      2.101      3.687
REMARK INTER + INTRA:         -11.167
REMARK INTER:                  -9.663
REMARK INTRA:                  -1.504
REMARK UNBOUND:                -1.429
REMARK SMILES CCCCCCCCCCCCCCCC(=O)[O-]
REMARK SMILES IDX 9 1 10 2 11 3 12 4 13 5 14 6 15 7 16 8 17 9 18 10 8 11 7 12
REMARK SMILES IDX 6 13 5 14 4 15 3 16 2 17 1 18
REMARK H PARENT
REMARK Flexibility Score: inf
ROOT
ATOM      1  C   UNL     1      65.211 151.199   4.214  1.00  0.00     0.000 C 
ENDROOT
BRANCH   1   2
ATOM      2  C   UNL     1      64.993 149.680   4.203  1.00  0.00     0.000 C 
BRANCH   2   3
ATOM      3  C   UNL     1      64.742 149.148   5.619  1.00  0.00     0.000 C 
BRANCH   3   4
ATOM      4  C   UNL     1      63.336 148.550   5.742  1.00  0.00     0.000 C 
BRANCH   4   5
ATOM      5  C   UNL     1      62.456 149.403   6.667  1.00  0.00     0.000 C 
BRANCH   5   6
ATOM      6  C   UNL     1      60.955 149.288   6.336  1.00  0.00     0.006 C 
BRANCH   6   7
ATOM      7  C   UNL     1      60.037 150.070   7.287  1.00  0.00     0.053 C 
BRANCH   7   8
ATOM      8  C   UNL     1      59.936 151.515   6.909  1.00  0.00     0.041 C 
ATOM      9  O   UNL     1      59.100 151.888   6.043  1.00  0.00    -0.550 OA
ATOM     10  O   UNL     1      60.741 152.457   7.536  1.00  0.00    -0.550 OA
ENDBRANCH   7   8
ENDBRANCH   6   7
ENDBRANCH   5   6
ENDBRANCH   4   5
ENDBRANCH   3   4
ENDBRANCH   2   3
ENDBRANCH   1   2
BRANCH   1  11
ATOM     11  C   UNL     1      63.877 151.944   4.375  1.00  0.00     0.000 C 
BRANCH  11  12
ATOM     12  C   UNL     1      62.978 151.827   3.134  1.00  0.00    -0.000 C 
BRANCH  12  13
ATOM     13  C   UNL     1      61.525 151.469   3.489  1.00  0.00    -0.000 C 
BRANCH  13  14
ATOM     14  C   UNL     1      60.503 152.214   2.615  1.00  0.00    -0.000 C 
BRANCH  14  15
ATOM     15  C   UNL     1      61.161 153.004   1.474  1.00  0.00    -0.000 C 
BRANCH  15  16
ATOM     16  C   UNL     1      60.123 153.841   0.717  1.00  0.00    -0.000 C 
BRANCH  16  17
ATOM     17  C   UNL     1      58.797 153.898   1.484  1.00  0.00    -0.003 C 
ATOM     18  C   UNL     1      58.087 155.231   1.261  1.00  0.00     0.004 C 
ENDBRANCH  16  17
ENDBRANCH  15  16
ENDBRANCH  14  15
ENDBRANCH  13  14
ENDBRANCH  12  13
ENDBRANCH  11  12
ENDBRANCH   1  11
TORSDOF 14
ENDMDL
MODEL 8
REMARK VINA RESULT:    -5.323      3.045      6.605
REMARK INTER + INTRA:         -11.109
REMARK INTER:                  -9.155
REMARK INTRA:                  -1.955
REMARK UNBOUND:                -1.429
REMARK SMILES CCCCCCCCCCCCCCCC(=O)[O-]
REMARK SMILES IDX 9 1 10 2 11 3 12 4 13 5 14 6 15 7 16 8 17 9 18 10 8 11 7 12
REMARK SMILES IDX 6 13 5 14 4 15 3 16 2 17 1 18
REMARK H PARENT
REMARK Flexibility Score: inf
ROOT
ATOM      1  C   UNL     1      63.788 152.322   4.508  1.00  0.00     0.000 C 
ENDROOT
BRANCH   1   2
ATOM      2  C   UNL     1      62.988 151.850   3.287  1.00  0.00     0.000 C 
BRANCH   2   3
ATOM      3  C   UNL     1      61.550 151.487   3.677  1.00  0.00     0.000 C 
BRANCH   3   4
ATOM      4  C   UNL     1      61.170 152.111   5.025  1.00  0.00     0.000 C 
BRANCH   4   5
ATOM      5  C   UNL     1      59.810 152.818   4.939  1.00  0.00     0.000 C 
BRANCH   5   6
ATOM      6  C   UNL     1      59.219 152.805   3.517  1.00  0.00     0.006 C 
BRANCH   6   7
ATOM      7  C   UNL     1      58.704 154.170   3.034  1.00  0.00     0.053 C 
BRANCH   7   8
ATOM      8  C   UNL     1      58.897 154.354   1.560  1.00  0.00     0.041 C 
ATOM      9  O   UNL     1      59.755 153.668   0.942  1.00  0.00    -0.550 OA
ATOM     10  O   UNL     1      58.108 155.259   0.862  1.00  0.00    -0.550 OA
ENDBRANCH   7   8
ENDBRANCH   6   7
ENDBRANCH   5   6
ENDBRANCH   4   5
ENDBRANCH   3   4
ENDBRANCH   2   3
ENDBRANCH   1   2
BRANCH   1  11
ATOM     11  C   UNL     1      65.030 151.443   4.723  1.00  0.00     0.000 C 
BRANCH  11  12
ATOM     12  C   UNL     1      65.027 150.184   3.842  1.00  0.00    -0.000 C 
BRANCH  12  13
ATOM     13  C   UNL     1      65.029 148.886   4.668  1.00  0.00    -0.000 C 
BRANCH  13  14
ATOM     14  C   UNL     1      64.050 148.938   5.852  1.00  0.00    -0.000 C 
BRANCH  14  15
ATOM     15  C   UNL     1      62.671 148.356   5.509  1.00  0.00    -0.000 C 
BRANCH  15  16
ATOM     16  C   UNL     1      61.619 148.798   6.534  1.00  0.00    -0.000 C 
BRANCH  16  17
ATOM     17  C   UNL     1      62.226 149.753   7.567  1.00  0.00    -0.003 C 
ATOM     18  C   UNL     1      61.581 149.565   8.938  1.00  0.00     0.004 C 
ENDBRANCH  16  17
ENDBRANCH  15  16
ENDBRANCH  14  15
ENDBRANCH  13  14
ENDBRANCH  12  13
ENDBRANCH  11  12
ENDBRANCH   1  11
TORSDOF 14
ENDMDL
MODEL 9
REMARK VINA RESULT:    -5.278      2.590      6.695
REMARK INTER + INTRA:         -11.028
REMARK INTER:                  -9.401
REMARK INTRA:                  -1.627
REMARK UNBOUND:                -1.429
REMARK SMILES CCCCCCCCCCCCCCCC(=O)[O-]
REMARK SMILES IDX 9 1 10 2 11 3 12 4 13 5 14 6 15 7 16 8 17 9 18 10 8 11 7 12
REMARK SMILES IDX 6 13 5 14 4 15 3 16 2 17 1 18
REMARK H PARENT
REMARK Flexibility Score: inf
ROOT
ATOM      1  C   UNL     1      61.959 151.453   6.804  1.00  0.00     0.000 C 
ENDROOT
BRANCH   1   2
ATOM      2  C   UNL     1      60.876 151.649   5.735  1.00  0.00     0.000 C 
BRANCH   2   3
ATOM      3  C   UNL     1      59.610 152.270   6.339  1.00  0.00     0.000 C 
BRANCH   3   4
ATOM      4  C   UNL     1      58.656 152.755   5.241  1.00  0.00     0.000 C 
BRANCH   4   5
ATOM      5  C   UNL     1      59.176 154.045   4.593  1.00  0.00     0.000 C 
BRANCH   5   6
ATOM      6  C   UNL     1      58.827 154.143   3.095  1.00  0.00     0.006 C 
BRANCH   6   7
ATOM      7  C   UNL     1      59.136 152.871   2.290  1.00  0.00     0.053 C 
BRANCH   7   8
ATOM      8  C   UNL     1      60.528 152.880   1.737  1.00  0.00     0.041 C 
ATOM      9  O   UNL     1      60.875 153.762   0.907  1.00  0.00    -0.550 OA
ATOM     10  O   UNL     1      61.452 151.936   2.164  1.00  0.00    -0.550 OA
ENDBRANCH   7   8
ENDBRANCH   6   7
ENDBRANCH   5   6
ENDBRANCH   4   5
ENDBRANCH   3   4
ENDBRANCH   2   3
ENDBRANCH   1   2
BRANCH   1  11
ATOM     11  C   UNL     1      62.149 149.964   7.128  1.00  0.00     0.000 C 
BRANCH  11  12
ATOM     12  C   UNL     1      61.859 149.052   5.924  1.00  0.00    -0.000 C 
BRANCH  12  13
ATOM     13  C   UNL     1      63.118 148.330   5.413  1.00  0.00    -0.000 C 
BRANCH  13  14
ATOM     14  C   UNL     1      64.409 149.102   5.728  1.00  0.00    -0.000 C 
BRANCH  14  15
ATOM     15  C   UNL     1      65.060 149.706   4.474  1.00  0.00    -0.000 C 
BRANCH  15  16
ATOM     16  C   UNL     1      64.286 150.941   3.996  1.00  0.00    -0.000 C 
BRANCH  16  17
ATOM     17  C   UNL     1      65.112 152.217   4.194  1.00  0.00    -0.003 C 
ATOM     18  C   UNL     1      65.378 152.478   5.674  1.00  0.00     0.004 C 
ENDBRANCH  16  17
ENDBRANCH  15  16
ENDBRANCH  14  15
ENDBRANCH  13  14
ENDBRANCH  12  13
ENDBRANCH  11  12
ENDBRANCH   1  11
TORSDOF 14
ENDMDL
