MODEL 1
REMARK VINA RESULT:    -4.879      0.000      0.000
REMARK INTER + INTRA:          -8.489
REMARK INTER:                  -7.160
REMARK INTRA:                  -1.329
REMARK UNBOUND:                -1.329
REMARK SMILES O=c1c(O[C@@H]2O[C@@H](CO)[C@H](O)[C@H](O)[C@@H]2O)c(-c2ccc(O)c(O)c2)oc2cc(O)cc(O)c12
REMARK SMILES IDX 4 1 3 2 16 3 25 4 2 5 26 6 1 7 33 8 27 9 31 10 28 11 30 12
REMARK SMILES IDX 17 13 18 14 19 15 20 16 24 17 22 18 21 19 23 21 32 23 29 25
REMARK SMILES IDX 5 27 14 28 6 29 12 30 7 31 10 32 15 33 13 35 8 37 9 38 11 40
REMARK H PARENT 21 20 23 22 32 24 29 26 15 34 13 36 9 39 11 41
REMARK Flexibility Score: inf
ROOT
ATOM      1  O   UNL     1       7.316  10.154  10.076  1.00  0.00    -0.454 OA
ENDROOT
BRANCH   1   2
ATOM      2  C   UNL     1       7.983   9.918   8.865  1.00  0.00     0.214 A 
ATOM      3  C   UNL     1       7.604  10.621   7.705  1.00  0.00     0.180 A 
ATOM      4  O   UNL     1       8.206  10.359   6.551  1.00  0.00    -0.452 OA
ATOM      5  C   UNL     1       9.066   9.029   8.792  1.00  0.00     0.239 A 
ATOM      6  C   UNL     1       9.181   9.469   6.422  1.00  0.00     0.146 A 
ATOM      7  O   UNL     1       9.543   8.569   9.861  1.00  0.00    -0.285 OA
ATOM      8  C   UNL     1       9.650   8.731   7.539  1.00  0.00     0.111 A 
ATOM      9  C   UNL     1       9.757   9.289   5.160  1.00  0.00     0.094 A 
ATOM     10  C   UNL     1      10.691   7.776   7.340  1.00  0.00     0.134 A 
ATOM     11  C   UNL     1      10.812   8.397   4.986  1.00  0.00     0.123 A 
ATOM     12  C   UNL     1      11.274   7.648   6.073  1.00  0.00     0.093 A 
BRANCH   3  13
ATOM     13  C   UNL     1       6.542  11.655   7.720  1.00  0.00     0.025 A 
ATOM     14  C   UNL     1       6.857  13.022   7.722  1.00  0.00     0.016 A 
ATOM     15  C   UNL     1       5.844  13.983   7.754  1.00  0.00     0.051 A 
ATOM     16  C   UNL     1       4.500  13.598   7.778  1.00  0.00     0.157 A 
ATOM     17  C   UNL     1       5.195  11.271   7.672  1.00  0.00     0.062 A 
ATOM     18  C   UNL     1       4.170  12.224   7.723  1.00  0.00     0.158 A 
BRANCH  16  19
ATOM     19  O   UNL     1       3.536  14.605   7.859  1.00  0.00    -0.504 OA
ATOM     20  H   UNL     1       3.563  15.458   7.320  1.00  0.00     0.293 HD
ENDBRANCH  16  19
BRANCH  18  21
ATOM     21  O   UNL     1       2.850  11.764   7.732  1.00  0.00    -0.504 OA
ATOM     22  H   UNL     1       2.315  11.604   8.573  1.00  0.00     0.293 HD
ENDBRANCH  18  21
ENDBRANCH   3  13
BRANCH  10  23
ATOM     23  O   UNL     1      11.164   6.914   8.335  1.00  0.00    -0.507 OA
ATOM     24  H   UNL     1      11.465   5.962   8.183  1.00  0.00     0.293 HD
ENDBRANCH  10  23
BRANCH  11  25
ATOM     25  O   UNL     1      11.389   8.255   3.724  1.00  0.00    -0.508 OA
ATOM     26  H   UNL     1      12.159   7.614   3.564  1.00  0.00     0.293 HD
ENDBRANCH  11  25
ENDBRANCH   1   2
BRANCH   1  27
ATOM     27  C   UNL     1       7.383  11.352  10.864  1.00  0.00     0.339 C 
ATOM     28  C   UNL     1       6.878  11.111  12.307  1.00  0.00     0.214 C 
ATOM     29  O   UNL     1       8.624  12.034  10.710  1.00  0.00    -0.332 OA
ATOM     30  C   UNL     1       7.955  10.572  13.272  1.00  0.00     0.180 C 
ATOM     31  C   UNL     1       9.495  12.073  11.833  1.00  0.00     0.179 C 
ATOM     32  C   UNL     1       9.399  10.873  12.807  1.00  0.00     0.177 C 
BRANCH  28  33
ATOM     33  O   UNL     1       5.758  10.260  12.297  1.00  0.00    -0.384 OA
ATOM     34  H   UNL     1       4.952  10.836  12.220  1.00  0.00     0.211 HD
ENDBRANCH  28  33
BRANCH  30  35
ATOM     35  O   UNL     1       7.799   9.187  13.485  1.00  0.00    -0.387 OA
ATOM     36  H   UNL     1       7.120   8.867  12.835  1.00  0.00     0.211 HD
ENDBRANCH  30  35
BRANCH  31  37
ATOM     37  C   UNL     1       9.463  13.454  12.519  1.00  0.00     0.191 C 
BRANCH  37  38
ATOM     38  O   UNL     1      10.749  13.942  12.758  1.00  0.00    -0.394 OA
ATOM     39  H   UNL     1      10.748  14.294  13.687  1.00  0.00     0.210 HD
ENDBRANCH  37  38
ENDBRANCH  31  37
BRANCH  32  40
ATOM     40  O   UNL     1       9.979   9.744  12.194  1.00  0.00    -0.387 OA
ATOM     41  H   UNL     1       9.973   9.010  12.863  1.00  0.00     0.211 HD
ENDBRANCH  32  40
ENDBRANCH   1  27
TORSDOF 12
ENDMDL
MODEL 2
REMARK VINA RESULT:    -4.686      2.729      7.115
REMARK INTER + INTRA:          -8.206
REMARK INTER:                  -6.803
REMARK INTRA:                  -1.404
REMARK UNBOUND:                -1.329
REMARK SMILES O=c1c(O[C@@H]2O[C@@H](CO)[C@H](O)[C@H](O)[C@@H]2O)c(-c2ccc(O)c(O)c2)oc2cc(O)cc(O)c12
REMARK SMILES IDX 4 1 3 2 16 3 25 4 2 5 26 6 1 7 33 8 27 9 31 10 28 11 30 12
REMARK SMILES IDX 17 13 18 14 19 15 20 16 24 17 22 18 21 19 23 21 32 23 29 25
REMARK SMILES IDX 5 27 14 28 6 29 12 30 7 31 10 32 15 33 13 35 8 37 9 38 11 40
REMARK H PARENT 21 20 23 22 32 24 29 26 15 34 13 36 9 39 11 41
REMARK Flexibility Score: inf
ROOT
ATOM      1  O   UNL     1       5.262  13.837  10.297  1.00  0.00    -0.454 OA
ENDROOT
BRANCH   1   2
ATOM      2  C   UNL     1       4.639  14.316   9.135  1.00  0.00     0.214 A 
ATOM      3  C   UNL     1       5.134  13.949   7.869  1.00  0.00     0.180 A 
ATOM      4  O   UNL     1       4.570  14.444   6.774  1.00  0.00    -0.452 OA
ATOM      5  C   UNL     1       3.488  15.115   9.204  1.00  0.00     0.239 A 
ATOM      6  C   UNL     1       3.530  15.267   6.796  1.00  0.00     0.146 A 
ATOM      7  O   UNL     1       2.920  15.263  10.316  1.00  0.00    -0.285 OA
ATOM      8  C   UNL     1       2.944  15.671   8.022  1.00  0.00     0.111 A 
ATOM      9  C   UNL     1       3.004  15.710   5.578  1.00  0.00     0.094 A 
ATOM     10  C   UNL     1       1.836  16.569   7.988  1.00  0.00     0.134 A 
ATOM     11  C   UNL     1       1.887  16.540   5.552  1.00  0.00     0.123 A 
ATOM     12  C   UNL     1       1.307  16.963   6.752  1.00  0.00     0.093 A 
BRANCH   3  13
ATOM     13  C   UNL     1       6.280  13.022   7.707  1.00  0.00     0.025 A 
ATOM     14  C   UNL     1       6.132  11.641   7.903  1.00  0.00     0.016 A 
ATOM     15  C   UNL     1       7.225  10.784   7.763  1.00  0.00     0.051 A 
ATOM     16  C   UNL     1       8.484  11.288   7.422  1.00  0.00     0.157 A 
ATOM     17  C   UNL     1       7.524  13.518   7.295  1.00  0.00     0.062 A 
ATOM     18  C   UNL     1       8.633  12.671   7.172  1.00  0.00     0.158 A 
BRANCH  16  19
ATOM     19  O   UNL     1       9.547  10.386   7.347  1.00  0.00    -0.504 OA
ATOM     20  H   UNL     1       9.490   9.420   7.635  1.00  0.00     0.293 HD
ENDBRANCH  16  19
BRANCH  18  21
ATOM     21  O   UNL     1       9.857  13.245   6.815  1.00  0.00    -0.504 OA
ATOM     22  H   UNL     1      10.649  12.717   6.478  1.00  0.00     0.293 HD
ENDBRANCH  18  21
ENDBRANCH   3  13
BRANCH  10  23
ATOM     23  O   UNL     1       1.241  17.122   9.127  1.00  0.00    -0.507 OA
ATOM     24  H   UNL     1       1.742  17.543   9.897  1.00  0.00     0.293 HD
ENDBRANCH  10  23
BRANCH  11  25
ATOM     25  O   UNL     1       1.363  16.947   4.324  1.00  0.00    -0.508 OA
ATOM     26  H   UNL     1       0.366  17.081   4.193  1.00  0.00     0.293 HD
ENDBRANCH  11  25
ENDBRANCH   1   2
BRANCH   1  27
ATOM     27  C   UNL     1       6.445  14.374  10.909  1.00  0.00     0.339 C 
ATOM     28  C   UNL     1       6.153  14.913  12.331  1.00  0.00     0.214 C 
ATOM     29  O   UNL     1       7.572  13.518  10.754  1.00  0.00    -0.332 OA
ATOM     30  C   UNL     1       6.222  13.842  13.440  1.00  0.00     0.180 C 
ATOM     31  C   UNL     1       8.088  12.891  11.921  1.00  0.00     0.179 C 
ATOM     32  C   UNL     1       7.062  12.606  13.046  1.00  0.00     0.177 C 
BRANCH  28  33
ATOM     33  O   UNL     1       4.909  15.570  12.357  1.00  0.00    -0.384 OA
ATOM     34  H   UNL     1       4.714  15.791  13.306  1.00  0.00     0.211 HD
ENDBRANCH  28  33
BRANCH  30  35
ATOM     35  O   UNL     1       4.930  13.438  13.835  1.00  0.00    -0.387 OA
ATOM     36  H   UNL     1       4.532  12.943  13.072  1.00  0.00     0.211 HD
ENDBRANCH  30  35
BRANCH  31  37
ATOM     37  C   UNL     1       9.383  13.579  12.400  1.00  0.00     0.191 C 
BRANCH  37  38
ATOM     38  O   UNL     1      10.520  12.872  12.004  1.00  0.00    -0.394 OA
ATOM     39  H   UNL     1      10.254  11.917  11.954  1.00  0.00     0.210 HD
ENDBRANCH  37  38
ENDBRANCH  31  37
BRANCH  32  40
ATOM     40  O   UNL     1       6.235  11.538  12.645  1.00  0.00    -0.387 OA
ATOM     41  H   UNL     1       6.799  10.722  12.618  1.00  0.00     0.211 HD
ENDBRANCH  32  40
ENDBRANCH   1  27
TORSDOF 12
ENDMDL
MODEL 3
REMARK VINA RESULT:    -4.623      8.355     11.753
REMARK INTER + INTRA:          -8.114
REMARK INTER:                  -6.630
REMARK INTRA:                  -1.484
REMARK UNBOUND:                -1.329
REMARK SMILES O=c1c(O[C@@H]2O[C@@H](CO)[C@H](O)[C@H](O)[C@@H]2O)c(-c2ccc(O)c(O)c2)oc2cc(O)cc(O)c12
REMARK SMILES IDX 4 1 3 2 16 3 25 4 2 5 26 6 1 7 33 8 27 9 31 10 28 11 30 12
REMARK SMILES IDX 17 13 18 14 19 15 20 16 24 17 22 18 21 19 23 21 32 23 29 25
REMARK SMILES IDX 5 27 14 28 6 29 12 30 7 31 10 32 15 33 13 35 8 37 9 38 11 40
REMARK H PARENT 21 20 23 22 32 24 29 26 15 34 13 36 9 39 11 41
REMARK Flexibility Score: inf
ROOT
ATOM      1  O   UNL     1      14.035   9.304  -0.587  1.00  0.00    -0.454 OA
ENDROOT
BRANCH   1   2
ATOM      2  C   UNL     1      13.716  10.601  -1.018  1.00  0.00     0.214 A 
ATOM      3  C   UNL     1      12.410  10.895  -1.456  1.00  0.00     0.180 A 
ATOM      4  O   UNL     1      12.127  12.110  -1.908  1.00  0.00    -0.452 OA
ATOM      5  C   UNL     1      14.662  11.636  -0.970  1.00  0.00     0.239 A 
ATOM      6  C   UNL     1      13.013  13.097  -1.955  1.00  0.00     0.146 A 
ATOM      7  O   UNL     1      15.753  11.431  -0.380  1.00  0.00    -0.285 OA
ATOM      8  C   UNL     1      14.345  12.904  -1.510  1.00  0.00     0.111 A 
ATOM      9  C   UNL     1      12.597  14.344  -2.432  1.00  0.00     0.094 A 
ATOM     10  C   UNL     1      15.260  13.996  -1.597  1.00  0.00     0.134 A 
ATOM     11  C   UNL     1      13.480  15.420  -2.459  1.00  0.00     0.123 A 
ATOM     12  C   UNL     1      14.803  15.243  -2.041  1.00  0.00     0.093 A 
BRANCH   3  13
ATOM     13  C   UNL     1      11.324   9.886  -1.436  1.00  0.00     0.025 A 
ATOM     14  C   UNL     1      11.242   8.886  -2.416  1.00  0.00     0.016 A 
ATOM     15  C   UNL     1      10.202   7.954  -2.392  1.00  0.00     0.051 A 
ATOM     16  C   UNL     1       9.230   8.000  -1.389  1.00  0.00     0.157 A 
ATOM     17  C   UNL     1      10.391   9.888  -0.390  1.00  0.00     0.062 A 
ATOM     18  C   UNL     1       9.332   8.971  -0.366  1.00  0.00     0.158 A 
BRANCH  16  19
ATOM     19  O   UNL     1       8.189   7.071  -1.449  1.00  0.00    -0.504 OA
ATOM     20  H   UNL     1       8.283   6.099  -1.191  1.00  0.00     0.293 HD
ENDBRANCH  16  19
BRANCH  18  21
ATOM     21  O   UNL     1       8.406   9.070   0.676  1.00  0.00    -0.504 OA
ATOM     22  H   UNL     1       8.505   9.700   1.459  1.00  0.00     0.293 HD
ENDBRANCH  18  21
ENDBRANCH   3  13
BRANCH  10  23
ATOM     23  O   UNL     1      16.622  13.903  -1.290  1.00  0.00    -0.507 OA
ATOM     24  H   UNL     1      17.133  13.038  -1.178  1.00  0.00     0.293 HD
ENDBRANCH  10  23
BRANCH  11  25
ATOM     25  O   UNL     1      13.036  16.662  -2.914  1.00  0.00    -0.508 OA
ATOM     26  H   UNL     1      13.630  17.483  -2.876  1.00  0.00     0.293 HD
ENDBRANCH  11  25
ENDBRANCH   1   2
BRANCH   1  27
ATOM     27  C   UNL     1      13.632   8.697   0.650  1.00  0.00     0.339 C 
ATOM     28  C   UNL     1      14.383   7.365   0.898  1.00  0.00     0.214 C 
ATOM     29  O   UNL     1      13.585   9.631   1.723  1.00  0.00    -0.332 OA
ATOM     30  C   UNL     1      15.758   7.533   1.579  1.00  0.00     0.180 C 
ATOM     31  C   UNL     1      14.543   9.486   2.764  1.00  0.00     0.179 C 
ATOM     32  C   UNL     1      15.900   8.864   2.353  1.00  0.00     0.177 C 
BRANCH  28  33
ATOM     33  O   UNL     1      14.514   6.647  -0.304  1.00  0.00    -0.384 OA
ATOM     34  H   UNL     1      14.089   7.191  -1.018  1.00  0.00     0.211 HD
ENDBRANCH  28  33
BRANCH  30  35
ATOM     35  O   UNL     1      16.806   7.407   0.644  1.00  0.00    -0.387 OA
ATOM     36  H   UNL     1      17.203   6.506   0.769  1.00  0.00     0.211 HD
ENDBRANCH  30  35
BRANCH  31  37
ATOM     37  C   UNL     1      13.911   8.859   4.024  1.00  0.00     0.191 C 
BRANCH  37  38
ATOM     38  O   UNL     1      12.595   9.286   4.209  1.00  0.00    -0.394 OA
ATOM     39  H   UNL     1      12.276   9.607   3.326  1.00  0.00     0.210 HD
ENDBRANCH  37  38
ENDBRANCH  31  37
BRANCH  32  40
ATOM     40  O   UNL     1      16.624   9.811   1.601  1.00  0.00    -0.387 OA
ATOM     41  H   UNL     1      17.303   9.314   1.076  1.00  0.00     0.211 HD
ENDBRANCH  32  40
ENDBRANCH   1  27
TORSDOF 12
ENDMDL
MODEL 4
REMARK VINA RESULT:    -4.544      2.214      6.471
REMARK INTER + INTRA:          -7.998
REMARK INTER:                  -6.692
REMARK INTRA:                  -1.306
REMARK UNBOUND:                -1.329
REMARK SMILES O=c1c(O[C@@H]2O[C@@H](CO)[C@H](O)[C@H](O)[C@@H]2O)c(-c2ccc(O)c(O)c2)oc2cc(O)cc(O)c12
REMARK SMILES IDX 4 1 3 2 16 3 25 4 2 5 26 6 1 7 33 8 27 9 31 10 28 11 30 12
REMARK SMILES IDX 17 13 18 14 19 15 20 16 24 17 22 18 21 19 23 21 32 23 29 25
REMARK SMILES IDX 5 27 14 28 6 29 12 30 7 31 10 32 15 33 13 35 8 37 9 38 11 40
REMARK H PARENT 21 20 23 22 32 24 29 26 15 34 13 36 9 39 11 41
REMARK Flexibility Score: inf
ROOT
ATOM      1  O   UNL     1       7.881  13.205  10.098  1.00  0.00    -0.454 OA
ENDROOT
BRANCH   1   2
ATOM      2  C   UNL     1       6.831  13.658   9.286  1.00  0.00     0.214 A 
ATOM      3  C   UNL     1       6.461  12.927   8.141  1.00  0.00     0.180 A 
ATOM      4  O   UNL     1       5.499  13.386   7.349  1.00  0.00    -0.452 OA
ATOM      5  C   UNL     1       6.096  14.806   9.620  1.00  0.00     0.239 A 
ATOM      6  C   UNL     1       4.833  14.509   7.586  1.00  0.00     0.146 A 
ATOM      7  O   UNL     1       6.279  15.333  10.747  1.00  0.00    -0.285 OA
ATOM      8  C   UNL     1       5.115  15.299   8.729  1.00  0.00     0.111 A 
ATOM      9  C   UNL     1       3.824  14.886   6.694  1.00  0.00     0.094 A 
ATOM     10  C   UNL     1       4.378  16.504   8.926  1.00  0.00     0.134 A 
ATOM     11  C   UNL     1       3.070  16.033   6.925  1.00  0.00     0.123 A 
ATOM     12  C   UNL     1       3.347  16.834   8.037  1.00  0.00     0.093 A 
BRANCH   3  13
ATOM     13  C   UNL     1       7.115  11.647   7.776  1.00  0.00     0.025 A 
ATOM     14  C   UNL     1       8.492  11.581   7.519  1.00  0.00     0.016 A 
ATOM     15  C   UNL     1       9.088  10.370   7.159  1.00  0.00     0.051 A 
ATOM     16  C   UNL     1       8.324   9.205   7.054  1.00  0.00     0.157 A 
ATOM     17  C   UNL     1       6.362  10.466   7.740  1.00  0.00     0.062 A 
ATOM     18  C   UNL     1       6.944   9.250   7.360  1.00  0.00     0.158 A 
BRANCH  16  19
ATOM     19  O   UNL     1       8.970   8.038   6.642  1.00  0.00    -0.504 OA
ATOM     20  H   UNL     1       9.272   7.307   7.270  1.00  0.00     0.293 HD
ENDBRANCH  16  19
BRANCH  18  21
ATOM     21  O   UNL     1       6.119   8.124   7.289  1.00  0.00    -0.504 OA
ATOM     22  H   UNL     1       6.259   7.288   7.839  1.00  0.00     0.293 HD
ENDBRANCH  18  21
ENDBRANCH   3  13
BRANCH  10  23
ATOM     23  O   UNL     1       4.634  17.420   9.953  1.00  0.00    -0.507 OA
ATOM     24  H   UNL     1       5.456  17.417  10.541  1.00  0.00     0.293 HD
ENDBRANCH  10  23
BRANCH  11  25
ATOM     25  O   UNL     1       2.051  16.375   6.036  1.00  0.00    -0.508 OA
ATOM     26  H   UNL     1       2.254  16.680   5.090  1.00  0.00     0.293 HD
ENDBRANCH  11  25
ENDBRANCH   1   2
BRANCH   1  27
ATOM     27  C   UNL     1       7.787  12.218  11.137  1.00  0.00     0.339 C 
ATOM     28  C   UNL     1       9.143  12.023  11.858  1.00  0.00     0.214 C 
ATOM     29  O   UNL     1       6.632  12.396  11.951  1.00  0.00    -0.332 OA
ATOM     30  C   UNL     1       9.395  13.021  13.008  1.00  0.00     0.180 C 
ATOM     31  C   UNL     1       6.834  12.794  13.301  1.00  0.00     0.179 C 
ATOM     32  C   UNL     1       8.099  13.647  13.572  1.00  0.00     0.177 C 
BRANCH  28  33
ATOM     33  O   UNL     1      10.200  12.064  10.931  1.00  0.00    -0.384 OA
ATOM     34  H   UNL     1      10.224  11.182  10.475  1.00  0.00     0.211 HD
ENDBRANCH  28  33
BRANCH  30  35
ATOM     35  O   UNL     1      10.285  14.039  12.610  1.00  0.00    -0.387 OA
ATOM     36  H   UNL     1      11.199  13.651  12.625  1.00  0.00     0.211 HD
ENDBRANCH  30  35
BRANCH  31  37
ATOM     37  C   UNL     1       6.645  11.609  14.269  1.00  0.00     0.191 C 
BRANCH  37  38
ATOM     38  O   UNL     1       7.200  11.873  15.523  1.00  0.00    -0.394 OA
ATOM     39  H   UNL     1       6.990  12.821  15.730  1.00  0.00     0.210 HD
ENDBRANCH  37  38
ENDBRANCH  31  37
BRANCH  32  40
ATOM     40  O   UNL     1       7.894  14.940  13.053  1.00  0.00    -0.387 OA
ATOM     41  H   UNL     1       8.772  15.404  13.061  1.00  0.00     0.211 HD
ENDBRANCH  32  40
ENDBRANCH   1  27
TORSDOF 12
ENDMDL
MODEL 5
REMARK VINA RESULT:    -4.524      4.207      8.753
REMARK INTER + INTRA:          -7.968
REMARK INTER:                  -6.542
REMARK INTRA:                  -1.426
REMARK UNBOUND:                -1.329
REMARK SMILES O=c1c(O[C@@H]2O[C@@H](CO)[C@H](O)[C@H](O)[C@@H]2O)c(-c2ccc(O)c(O)c2)oc2cc(O)cc(O)c12
REMARK SMILES IDX 4 1 3 2 16 3 25 4 2 5 26 6 1 7 33 8 27 9 31 10 28 11 30 12
REMARK SMILES IDX 17 13 18 14 19 15 20 16 24 17 22 18 21 19 23 21 32 23 29 25
REMARK SMILES IDX 5 27 14 28 6 29 12 30 7 31 10 32 15 33 13 35 8 37 9 38 11 40
REMARK H PARENT 21 20 23 22 32 24 29 26 15 34 13 36 9 39 11 41
REMARK Flexibility Score: inf
ROOT
ATOM      1  O   UNL     1      10.526   6.957   3.101  1.00  0.00    -0.454 OA
ENDROOT
BRANCH   1   2
ATOM      2  C   UNL     1      11.756   7.615   3.250  1.00  0.00     0.214 A 
ATOM      3  C   UNL     1      11.984   8.435   4.372  1.00  0.00     0.180 A 
ATOM      4  O   UNL     1      13.132   9.093   4.482  1.00  0.00    -0.452 OA
ATOM      5  C   UNL     1      12.796   7.429   2.326  1.00  0.00     0.239 A 
ATOM      6  C   UNL     1      14.111   9.008   3.591  1.00  0.00     0.146 A 
ATOM      7  O   UNL     1      12.673   6.535   1.450  1.00  0.00    -0.285 OA
ATOM      8  C   UNL     1      13.984   8.186   2.442  1.00  0.00     0.111 A 
ATOM      9  C   UNL     1      15.286   9.731   3.821  1.00  0.00     0.094 A 
ATOM     10  C   UNL     1      15.062   8.144   1.509  1.00  0.00     0.134 A 
ATOM     11  C   UNL     1      16.356   9.639   2.934  1.00  0.00     0.123 A 
ATOM     12  C   UNL     1      16.242   8.847   1.787  1.00  0.00     0.093 A 
BRANCH   3  13
ATOM     13  C   UNL     1      10.978   8.599   5.448  1.00  0.00     0.025 A 
ATOM     14  C   UNL     1       9.922   9.514   5.324  1.00  0.00     0.016 A 
ATOM     15  C   UNL     1       8.993   9.668   6.355  1.00  0.00     0.051 A 
ATOM     16  C   UNL     1       9.098   8.910   7.525  1.00  0.00     0.157 A 
ATOM     17  C   UNL     1      11.042   7.789   6.590  1.00  0.00     0.062 A 
ATOM     18  C   UNL     1      10.128   7.949   7.640  1.00  0.00     0.158 A 
BRANCH  16  19
ATOM     19  O   UNL     1       8.168   9.147   8.539  1.00  0.00    -0.504 OA
ATOM     20  H   UNL     1       7.276   8.678   8.609  1.00  0.00     0.293 HD
ENDBRANCH  16  19
BRANCH  18  21
ATOM     21  O   UNL     1      10.288   7.146   8.773  1.00  0.00    -0.504 OA
ATOM     22  H   UNL     1       9.592   7.053   9.499  1.00  0.00     0.293 HD
ENDBRANCH  18  21
ENDBRANCH   3  13
BRANCH  10  23
ATOM     23  O   UNL     1      15.018   7.458   0.291  1.00  0.00    -0.507 OA
ATOM     24  H   UNL     1      14.321   6.770   0.038  1.00  0.00     0.293 HD
ENDBRANCH  10  23
BRANCH  11  25
ATOM     25  O   UNL     1      17.528  10.347   3.198  1.00  0.00    -0.508 OA
ATOM     26  H   UNL     1      17.587  11.006   3.967  1.00  0.00     0.293 HD
ENDBRANCH  11  25
ENDBRANCH   1   2
BRANCH   1  27
ATOM     27  C   UNL     1       9.600   7.120   2.016  1.00  0.00     0.339 C 
ATOM     28  C   UNL     1       9.161   5.754   1.435  1.00  0.00     0.214 C 
ATOM     29  O   UNL     1       8.576   8.064   2.312  1.00  0.00    -0.332 OA
ATOM     30  C   UNL     1       7.974   5.104   2.177  1.00  0.00     0.180 C 
ATOM     31  C   UNL     1       7.250   7.572   2.457  1.00  0.00     0.179 C 
ATOM     32  C   UNL     1       7.121   6.118   2.974  1.00  0.00     0.177 C 
BRANCH  28  33
ATOM     33  O   UNL     1      10.254   4.870   1.387  1.00  0.00    -0.384 OA
ATOM     34  H   UNL     1       9.892   3.950   1.484  1.00  0.00     0.211 HD
ENDBRANCH  28  33
BRANCH  30  35
ATOM     35  O   UNL     1       8.414   4.072   3.031  1.00  0.00    -0.387 OA
ATOM     36  H   UNL     1       7.604   3.657   3.429  1.00  0.00     0.211 HD
ENDBRANCH  30  35
BRANCH  31  37
ATOM     37  C   UNL     1       6.398   7.883   1.210  1.00  0.00     0.191 C 
BRANCH  37  38
ATOM     38  O   UNL     1       6.545   9.210   0.801  1.00  0.00    -0.394 OA
ATOM     39  H   UNL     1       6.801   9.726   1.609  1.00  0.00     0.210 HD
ENDBRANCH  37  38
ENDBRANCH  31  37
BRANCH  32  40
ATOM     40  O   UNL     1       7.451   6.092   4.343  1.00  0.00    -0.387 OA
ATOM     41  H   UNL     1       6.599   6.060   4.851  1.00  0.00     0.211 HD
ENDBRANCH  32  40
ENDBRANCH   1  27
TORSDOF 12
ENDMDL
MODEL 6
REMARK VINA RESULT:    -4.493      2.088      7.265
REMARK INTER + INTRA:          -7.924
REMARK INTER:                  -6.648
REMARK INTRA:                  -1.276
REMARK UNBOUND:                -1.329
REMARK SMILES O=c1c(O[C@@H]2O[C@@H](CO)[C@H](O)[C@H](O)[C@@H]2O)c(-c2ccc(O)c(O)c2)oc2cc(O)cc(O)c12
REMARK SMILES IDX 4 1 3 2 16 3 25 4 2 5 26 6 1 7 33 8 27 9 31 10 28 11 30 12
REMARK SMILES IDX 17 13 18 14 19 15 20 16 24 17 22 18 21 19 23 21 32 23 29 25
REMARK SMILES IDX 5 27 14 28 6 29 12 30 7 31 10 32 15 33 13 35 8 37 9 38 11 40
REMARK H PARENT 21 20 23 22 32 24 29 26 15 34 13 36 9 39 11 41
REMARK Flexibility Score: inf
ROOT
ATOM      1  O   UNL     1       6.040  11.810   9.442  1.00  0.00    -0.454 OA
ENDROOT
BRANCH   1   2
ATOM      2  C   UNL     1       7.034  12.325  10.287  1.00  0.00     0.214 A 
ATOM      3  C   UNL     1       8.357  11.852  10.187  1.00  0.00     0.180 A 
ATOM      4  O   UNL     1       9.283  12.307  11.022  1.00  0.00    -0.452 OA
ATOM      5  C   UNL     1       6.752  13.351  11.202  1.00  0.00     0.239 A 
ATOM      6  C   UNL     1       9.041  13.219  11.955  1.00  0.00     0.146 A 
ATOM      7  O   UNL     1       5.633  13.922  11.142  1.00  0.00    -0.285 OA
ATOM      8  C   UNL     1       7.746  13.775  12.114  1.00  0.00     0.111 A 
ATOM      9  C   UNL     1      10.099  13.640  12.765  1.00  0.00     0.094 A 
ATOM     10  C   UNL     1       7.538  14.741  13.143  1.00  0.00     0.134 A 
ATOM     11  C   UNL     1       9.901  14.626  13.729  1.00  0.00     0.123 A 
ATOM     12  C   UNL     1       8.627  15.172  13.912  1.00  0.00     0.093 A 
BRANCH   3  13
ATOM     13  C   UNL     1       8.762  10.848   9.174  1.00  0.00     0.025 A 
ATOM     14  C   UNL     1       8.740   9.475   9.462  1.00  0.00     0.016 A 
ATOM     15  C   UNL     1       9.142   8.544   8.502  1.00  0.00     0.051 A 
ATOM     16  C   UNL     1       9.566   8.964   7.238  1.00  0.00     0.157 A 
ATOM     17  C   UNL     1       9.119  11.264   7.884  1.00  0.00     0.062 A 
ATOM     18  C   UNL     1       9.543  10.341   6.920  1.00  0.00     0.158 A 
BRANCH  16  19
ATOM     19  O   UNL     1      10.002   7.987   6.340  1.00  0.00    -0.504 OA
ATOM     20  H   UNL     1      10.796   8.098   5.726  1.00  0.00     0.293 HD
ENDBRANCH  16  19
BRANCH  18  21
ATOM     21  O   UNL     1       9.940  10.835   5.674  1.00  0.00    -0.504 OA
ATOM     22  H   UNL     1      10.548  10.336   5.039  1.00  0.00     0.293 HD
ENDBRANCH  18  21
ENDBRANCH   3  13
BRANCH  10  23
ATOM     23  O   UNL     1       6.290  15.282  13.469  1.00  0.00    -0.507 OA
ATOM     24  H   UNL     1       6.021  16.246  13.327  1.00  0.00     0.293 HD
ENDBRANCH  10  23
BRANCH  11  25
ATOM     25  O   UNL     1      10.978  15.050  14.508  1.00  0.00    -0.508 OA
ATOM     26  H   UNL     1      11.246  16.027  14.552  1.00  0.00     0.293 HD
ENDBRANCH  11  25
ENDBRANCH   1   2
BRANCH   1  27
ATOM     27  C   UNL     1       5.679  12.316   8.148  1.00  0.00     0.339 C 
ATOM     28  C   UNL     1       4.518  11.503   7.525  1.00  0.00     0.214 C 
ATOM     29  O   UNL     1       5.566  13.735   8.131  1.00  0.00    -0.332 OA
ATOM     30  C   UNL     1       3.114  11.975   7.956  1.00  0.00     0.180 C 
ATOM     31  C   UNL     1       4.271  14.290   7.944  1.00  0.00     0.179 C 
ATOM     32  C   UNL     1       3.088  13.436   8.464  1.00  0.00     0.177 C 
BRANCH  28  33
ATOM     33  O   UNL     1       4.681  10.133   7.796  1.00  0.00    -0.384 OA
ATOM     34  H   UNL     1       5.637   9.914   7.638  1.00  0.00     0.211 HD
ENDBRANCH  28  33
BRANCH  30  35
ATOM     35  O   UNL     1       2.568  11.118   8.934  1.00  0.00    -0.387 OA
ATOM     36  H   UNL     1       1.597  11.037   8.742  1.00  0.00     0.211 HD
ENDBRANCH  30  35
BRANCH  31  37
ATOM     37  C   UNL     1       4.090  14.820   6.508  1.00  0.00     0.191 C 
BRANCH  37  38
ATOM     38  O   UNL     1       3.781  16.182   6.494  1.00  0.00    -0.394 OA
ATOM     39  H   UNL     1       4.643  16.664   6.394  1.00  0.00     0.210 HD
ENDBRANCH  37  38
ENDBRANCH  31  37
BRANCH  32  40
ATOM     40  O   UNL     1       3.079  13.482   9.872  1.00  0.00    -0.387 OA
ATOM     41  H   UNL     1       2.717  12.615  10.193  1.00  0.00     0.211 HD
ENDBRANCH  32  40
ENDBRANCH   1  27
TORSDOF 12
ENDMDL
MODEL 7
REMARK VINA RESULT:    -4.457      2.671      4.847
REMARK INTER + INTRA:          -7.870
REMARK INTER:                  -6.381
REMARK INTRA:                  -1.490
REMARK UNBOUND:                -1.329
REMARK SMILES O=c1c(O[C@@H]2O[C@@H](CO)[C@H](O)[C@H](O)[C@@H]2O)c(-c2ccc(O)c(O)c2)oc2cc(O)cc(O)c12
REMARK SMILES IDX 4 1 3 2 16 3 25 4 2 5 26 6 1 7 33 8 27 9 31 10 28 11 30 12
REMARK SMILES IDX 17 13 18 14 19 15 20 16 24 17 22 18 21 19 23 21 32 23 29 25
REMARK SMILES IDX 5 27 14 28 6 29 12 30 7 31 10 32 15 33 13 35 8 37 9 38 11 40
REMARK H PARENT 21 20 23 22 32 24 29 26 15 34 13 36 9 39 11 41
REMARK Flexibility Score: inf
ROOT
ATOM      1  O   UNL     1       5.345   9.719   8.368  1.00  0.00    -0.454 OA
ENDROOT
BRANCH   1   2
ATOM      2  C   UNL     1       6.594   9.736   7.730  1.00  0.00     0.214 A 
ATOM      3  C   UNL     1       7.338  10.930   7.672  1.00  0.00     0.180 A 
ATOM      4  O   UNL     1       8.497  10.952   7.024  1.00  0.00    -0.452 OA
ATOM      5  C   UNL     1       7.151   8.567   7.190  1.00  0.00     0.239 A 
ATOM      6  C   UNL     1       9.022   9.888   6.430  1.00  0.00     0.146 A 
ATOM      7  O   UNL     1       6.593   7.466   7.430  1.00  0.00    -0.285 OA
ATOM      8  C   UNL     1       8.359   8.634   6.459  1.00  0.00     0.111 A 
ATOM      9  C   UNL     1      10.260  10.023   5.794  1.00  0.00     0.094 A 
ATOM     10  C   UNL     1       8.962   7.527   5.791  1.00  0.00     0.134 A 
ATOM     11  C   UNL     1      10.869   8.923   5.195  1.00  0.00     0.123 A 
ATOM     12  C   UNL     1      10.221   7.683   5.198  1.00  0.00     0.093 A 
BRANCH   3  13
ATOM     13  C   UNL     1       6.871  12.184   8.311  1.00  0.00     0.025 A 
ATOM     14  C   UNL     1       6.028  13.076   7.632  1.00  0.00     0.016 A 
ATOM     15  C   UNL     1       5.612  14.261   8.243  1.00  0.00     0.051 A 
ATOM     16  C   UNL     1       6.024  14.574   9.541  1.00  0.00     0.157 A 
ATOM     17  C   UNL     1       7.226  12.463   9.637  1.00  0.00     0.062 A 
ATOM     18  C   UNL     1       6.832  13.658  10.253  1.00  0.00     0.158 A 
BRANCH  16  19
ATOM     19  O   UNL     1       5.614  15.797  10.077  1.00  0.00    -0.504 OA
ATOM     20  H   UNL     1       6.237  16.571  10.261  1.00  0.00     0.293 HD
ENDBRANCH  16  19
BRANCH  18  21
ATOM     21  O   UNL     1       7.273  13.896  11.558  1.00  0.00    -0.504 OA
ATOM     22  H   UNL     1       6.991  14.694  12.110  1.00  0.00     0.293 HD
ENDBRANCH  18  21
ENDBRANCH   3  13
BRANCH  10  23
ATOM     23  O   UNL     1       8.361   6.271   5.658  1.00  0.00    -0.507 OA
ATOM     24  H   UNL     1       8.619   5.574   4.973  1.00  0.00     0.293 HD
ENDBRANCH  10  23
BRANCH  11  25
ATOM     25  O   UNL     1      12.117   9.075   4.590  1.00  0.00    -0.508 OA
ATOM     26  H   UNL     1      12.820   9.695   4.977  1.00  0.00     0.293 HD
ENDBRANCH  11  25
ENDBRANCH   1   2
BRANCH   1  27
ATOM     27  C   UNL     1       4.069   9.538   7.735  1.00  0.00     0.339 C 
ATOM     28  C   UNL     1       3.212   8.483   8.478  1.00  0.00     0.214 C 
ATOM     29  O   UNL     1       3.445  10.775   7.408  1.00  0.00    -0.332 OA
ATOM     30  C   UNL     1       2.399   9.050   9.661  1.00  0.00     0.180 C 
ATOM     31  C   UNL     1       2.266  11.126   8.122  1.00  0.00     0.179 C 
ATOM     32  C   UNL     1       2.159  10.574   9.565  1.00  0.00     0.177 C 
BRANCH  28  33
ATOM     33  O   UNL     1       4.018   7.412   8.903  1.00  0.00    -0.384 OA
ATOM     34  H   UNL     1       4.841   7.803   9.298  1.00  0.00     0.211 HD
ENDBRANCH  28  33
BRANCH  30  35
ATOM     35  O   UNL     1       3.010   8.737  10.892  1.00  0.00    -0.387 OA
ATOM     36  H   UNL     1       2.332   8.263  11.443  1.00  0.00     0.211 HD
ENDBRANCH  30  35
BRANCH  31  37
ATOM     37  C   UNL     1       1.005  10.906   7.262  1.00  0.00     0.191 C 
BRANCH  37  38
ATOM     38  O   UNL     1       0.922  11.832   6.220  1.00  0.00    -0.394 OA
ATOM     39  H   UNL     1      -0.016  11.805   5.895  1.00  0.00     0.210 HD
ENDBRANCH  37  38
ENDBRANCH  31  37
BRANCH  32  40
ATOM     40  O   UNL     1       3.059  11.280  10.388  1.00  0.00    -0.387 OA
ATOM     41  H   UNL     1       2.589  11.476  11.240  1.00  0.00     0.211 HD
ENDBRANCH  32  40
ENDBRANCH   1  27
TORSDOF 12
ENDMDL
MODEL 8
REMARK VINA RESULT:    -4.448      3.189      9.026
REMARK INTER + INTRA:          -7.857
REMARK INTER:                  -6.417
REMARK INTRA:                  -1.440
REMARK UNBOUND:                -1.329
REMARK SMILES O=c1c(O[C@@H]2O[C@@H](CO)[C@H](O)[C@H](O)[C@@H]2O)c(-c2ccc(O)c(O)c2)oc2cc(O)cc(O)c12
REMARK SMILES IDX 4 1 3 2 16 3 25 4 2 5 26 6 1 7 33 8 27 9 31 10 28 11 30 12
REMARK SMILES IDX 17 13 18 14 19 15 20 16 24 17 22 18 21 19 23 21 32 23 29 25
REMARK SMILES IDX 5 27 14 28 6 29 12 30 7 31 10 32 15 33 13 35 8 37 9 38 11 40
REMARK H PARENT 21 20 23 22 32 24 29 26 15 34 13 36 9 39 11 41
REMARK Flexibility Score: inf
ROOT
ATOM      1  O   UNL     1       9.198   6.636   4.604  1.00  0.00    -0.454 OA
ENDROOT
BRANCH   1   2
ATOM      2  C   UNL     1       9.110   7.592   5.626  1.00  0.00     0.214 A 
ATOM      3  C   UNL     1      10.277   8.221   6.102  1.00  0.00     0.180 A 
ATOM      4  O   UNL     1      10.193   9.089   7.104  1.00  0.00    -0.452 OA
ATOM      5  C   UNL     1       7.870   7.981   6.153  1.00  0.00     0.239 A 
ATOM      6  C   UNL     1       9.049   9.426   7.685  1.00  0.00     0.146 A 
ATOM      7  O   UNL     1       6.821   7.586   5.584  1.00  0.00    -0.285 OA
ATOM      8  C   UNL     1       7.819   8.866   7.255  1.00  0.00     0.111 A 
ATOM      9  C   UNL     1       9.079  10.368   8.718  1.00  0.00     0.094 A 
ATOM     10  C   UNL     1       6.621   9.253   7.925  1.00  0.00     0.134 A 
ATOM     11  C   UNL     1       7.898  10.784   9.328  1.00  0.00     0.123 A 
ATOM     12  C   UNL     1       6.678  10.229   8.929  1.00  0.00     0.093 A 
BRANCH   3  13
ATOM     13  C   UNL     1      11.614   7.946   5.526  1.00  0.00     0.025 A 
ATOM     14  C   UNL     1      12.281   6.738   5.778  1.00  0.00     0.016 A 
ATOM     15  C   UNL     1      13.549   6.502   5.241  1.00  0.00     0.051 A 
ATOM     16  C   UNL     1      14.170   7.464   4.439  1.00  0.00     0.157 A 
ATOM     17  C   UNL     1      12.207   8.879   4.665  1.00  0.00     0.062 A 
ATOM     18  C   UNL     1      13.486   8.663   4.136  1.00  0.00     0.158 A 
BRANCH  16  19
ATOM     19  O   UNL     1      15.458   7.189   3.974  1.00  0.00    -0.504 OA
ATOM     20  H   UNL     1      15.682   7.008   3.005  1.00  0.00     0.293 HD
ENDBRANCH  16  19
BRANCH  18  21
ATOM     21  O   UNL     1      14.038   9.665   3.333  1.00  0.00    -0.504 OA
ATOM     22  H   UNL     1      13.959   9.685   2.326  1.00  0.00     0.293 HD
ENDBRANCH  18  21
ENDBRANCH   3  13
BRANCH  10  23
ATOM     23  O   UNL     1       5.364   8.696   7.667  1.00  0.00    -0.507 OA
ATOM     24  H   UNL     1       5.067   8.323   6.776  1.00  0.00     0.293 HD
ENDBRANCH  10  23
BRANCH  11  25
ATOM     25  O   UNL     1       7.949  11.745  10.338  1.00  0.00    -0.508 OA
ATOM     26  H   UNL     1       8.548  11.630  11.148  1.00  0.00     0.293 HD
ENDBRANCH  11  25
ENDBRANCH   1   2
BRANCH   1  27
ATOM     27  C   UNL     1       9.492   6.893   3.222  1.00  0.00     0.339 C 
ATOM     28  C   UNL     1       9.214   5.650   2.342  1.00  0.00     0.214 C 
ATOM     29  O   UNL     1       8.965   8.139   2.778  1.00  0.00    -0.332 OA
ATOM     30  C   UNL     1       7.750   5.523   1.872  1.00  0.00     0.180 C 
ATOM     31  C   UNL     1       7.906   8.106   1.830  1.00  0.00     0.179 C 
ATOM     32  C   UNL     1       6.981   6.865   1.893  1.00  0.00     0.177 C 
BRANCH  28  33
ATOM     33  O   UNL     1       9.620   4.479   3.009  1.00  0.00    -0.384 OA
ATOM     34  H   UNL     1      10.613   4.468   3.003  1.00  0.00     0.211 HD
ENDBRANCH  28  33
BRANCH  30  35
ATOM     35  O   UNL     1       7.055   4.560   2.631  1.00  0.00    -0.387 OA
ATOM     36  H   UNL     1       6.518   5.052   3.307  1.00  0.00     0.211 HD
ENDBRANCH  30  35
BRANCH  31  37
ATOM     37  C   UNL     1       8.410   8.454   0.415  1.00  0.00     0.191 C 
BRANCH  37  38
ATOM     38  O   UNL     1       9.147   9.639   0.405  1.00  0.00    -0.394 OA
ATOM     39  H   UNL     1      10.103   9.375   0.369  1.00  0.00     0.210 HD
ENDBRANCH  37  38
ENDBRANCH  31  37
BRANCH  32  40
ATOM     40  O   UNL     1       6.167   6.963   3.038  1.00  0.00    -0.387 OA
ATOM     41  H   UNL     1       5.224   6.888   2.737  1.00  0.00     0.211 HD
ENDBRANCH  32  40
ENDBRANCH   1  27
TORSDOF 12
ENDMDL
MODEL 9
REMARK VINA RESULT:    -4.433      2.516      5.487
REMARK INTER + INTRA:          -7.835
REMARK INTER:                  -6.386
REMARK INTRA:                  -1.448
REMARK UNBOUND:                -1.329
REMARK SMILES O=c1c(O[C@@H]2O[C@@H](CO)[C@H](O)[C@H](O)[C@@H]2O)c(-c2ccc(O)c(O)c2)oc2cc(O)cc(O)c12
REMARK SMILES IDX 4 1 3 2 16 3 25 4 2 5 26 6 1 7 33 8 27 9 31 10 28 11 30 12
REMARK SMILES IDX 17 13 18 14 19 15 20 16 24 17 22 18 21 19 23 21 32 23 29 25
REMARK SMILES IDX 5 27 14 28 6 29 12 30 7 31 10 32 15 33 13 35 8 37 9 38 11 40
REMARK H PARENT 21 20 23 22 32 24 29 26 15 34 13 36 9 39 11 41
REMARK Flexibility Score: inf
ROOT
ATOM      1  O   UNL     1       7.043   9.497   8.556  1.00  0.00    -0.454 OA
ENDROOT
BRANCH   1   2
ATOM      2  C   UNL     1       8.155   8.761   8.990  1.00  0.00     0.214 A 
ATOM      3  C   UNL     1       8.760   7.826   8.128  1.00  0.00     0.180 A 
ATOM      4  O   UNL     1       9.782   7.098   8.562  1.00  0.00    -0.452 OA
ATOM      5  C   UNL     1       8.720   8.976  10.257  1.00  0.00     0.239 A 
ATOM      6  C   UNL     1      10.296   7.212   9.779  1.00  0.00     0.146 A 
ATOM      7  O   UNL     1       8.320   9.954  10.938  1.00  0.00    -0.285 OA
ATOM      8  C   UNL     1       9.772   8.147  10.709  1.00  0.00     0.111 A 
ATOM      9  C   UNL     1      11.387   6.407  10.120  1.00  0.00     0.094 A 
ATOM     10  C   UNL     1      10.354   8.217  12.009  1.00  0.00     0.134 A 
ATOM     11  C   UNL     1      11.986   6.523  11.372  1.00  0.00     0.123 A 
ATOM     12  C   UNL     1      11.471   7.426  12.308  1.00  0.00     0.093 A 
BRANCH   3  13
ATOM     13  C   UNL     1       8.293   7.617   6.737  1.00  0.00     0.025 A 
ATOM     14  C   UNL     1       7.111   6.911   6.465  1.00  0.00     0.016 A 
ATOM     15  C   UNL     1       6.694   6.708   5.148  1.00  0.00     0.051 A 
ATOM     16  C   UNL     1       7.445   7.208   4.080  1.00  0.00     0.157 A 
ATOM     17  C   UNL     1       9.007   8.179   5.670  1.00  0.00     0.062 A 
ATOM     18  C   UNL     1       8.610   7.964   4.344  1.00  0.00     0.158 A 
BRANCH  16  19
ATOM     19  O   UNL     1       7.002   6.928   2.786  1.00  0.00    -0.504 OA
ATOM     20  H   UNL     1       6.067   7.120   2.455  1.00  0.00     0.293 HD
ENDBRANCH  16  19
BRANCH  18  21
ATOM     21  O   UNL     1       9.404   8.505   3.329  1.00  0.00    -0.504 OA
ATOM     22  H   UNL     1      10.183   9.128   3.495  1.00  0.00     0.293 HD
ENDBRANCH  18  21
ENDBRANCH   3  13
BRANCH  10  23
ATOM     23  O   UNL     1       9.862   9.018  13.046  1.00  0.00    -0.507 OA
ATOM     24  H   UNL     1       9.655  10.004  12.968  1.00  0.00     0.293 HD
ENDBRANCH  10  23
BRANCH  11  25
ATOM     25  O   UNL     1      13.091   5.729  11.681  1.00  0.00    -0.508 OA
ATOM     26  H   UNL     1      13.366   5.555  12.641  1.00  0.00     0.293 HD
ENDBRANCH  11  25
ENDBRANCH   1   2
BRANCH   1  27
ATOM     27  C   UNL     1       7.058  10.594   7.630  1.00  0.00     0.339 C 
ATOM     28  C   UNL     1       5.687  11.311   7.576  1.00  0.00     0.214 C 
ATOM     29  O   UNL     1       8.217  11.409   7.773  1.00  0.00    -0.332 OA
ATOM     30  C   UNL     1       5.499  12.396   8.658  1.00  0.00     0.180 C 
ATOM     31  C   UNL     1       8.035  12.730   8.266  1.00  0.00     0.179 C 
ATOM     32  C   UNL     1       6.834  12.936   9.222  1.00  0.00     0.177 C 
BRANCH  28  33
ATOM     33  O   UNL     1       4.642  10.371   7.637  1.00  0.00    -0.384 OA
ATOM     34  H   UNL     1       3.884  10.741   7.113  1.00  0.00     0.211 HD
ENDBRANCH  28  33
BRANCH  30  35
ATOM     35  O   UNL     1       4.688  11.928   9.711  1.00  0.00    -0.387 OA
ATOM     36  H   UNL     1       3.870  12.491   9.723  1.00  0.00     0.211 HD
ENDBRANCH  30  35
BRANCH  31  37
ATOM     37  C   UNL     1       8.132  13.770   7.132  1.00  0.00     0.191 C 
BRANCH  37  38
ATOM     38  O   UNL     1       9.453  13.977   6.731  1.00  0.00    -0.394 OA
ATOM     39  H   UNL     1       9.850  14.609   7.385  1.00  0.00     0.210 HD
ENDBRANCH  37  38
ENDBRANCH  31  37
BRANCH  32  40
ATOM     40  O   UNL     1       7.135  12.343  10.464  1.00  0.00    -0.387 OA
ATOM     41  H   UNL     1       7.024  13.042  11.159  1.00  0.00     0.211 HD
ENDBRANCH  32  40
ENDBRANCH   1  27
TORSDOF 12
ENDMDL
