MODEL 1
REMARK VINA RESULT:    -8.421      0.000      0.000
REMARK INTER + INTRA:         -10.398
REMARK INTER:                 -10.390
REMARK INTRA:                  -0.008
REMARK UNBOUND:                -0.008
REMARK SMILES Oc1cc(O)c2cc(O)c(-c3cc(O)c(O)c(O)c3)[o+]c2c1
REMARK SMILES IDX 10 1 20 2 21 3 22 4 2 5 3 6 4 7 6 8 7 9 8 10 11 11 12 12
REMARK SMILES IDX 13 13 19 14 15 15 17 16 14 17 16 19 18 21 9 23 1 25 5 27
REMARK H PARENT 14 18 16 20 18 22 9 24 1 26 5 28
REMARK Flexibility Score: inf
ROOT
ATOM      1  C   UNL     1      17.481  25.492   0.111  1.00  0.00     0.402 A 
ATOM      2  O   UNL     1      16.950  26.575   0.676  1.00  0.00    -0.202 OA
ATOM      3  C   UNL     1      17.556  27.759   0.692  1.00  0.00     0.368 A 
ATOM      4  C   UNL     1      16.930  28.850   1.303  1.00  0.00     0.162 A 
ATOM      5  C   UNL     1      17.556  30.102   1.321  1.00  0.00     0.128 A 
ATOM      6  C   UNL     1      18.813  30.263   0.728  1.00  0.00     0.093 A 
ATOM      7  C   UNL     1      19.454  29.177   0.112  1.00  0.00     0.136 A 
ATOM      8  C   UNL     1      18.824  27.919   0.093  1.00  0.00     0.125 A 
ATOM      9  C   UNL     1      19.420  26.800  -0.500  1.00  0.00     0.078 A 
ATOM     10  C   UNL     1      18.755  25.570  -0.486  1.00  0.00     0.223 A 
ENDROOT
BRANCH   1  11
ATOM     11  C   UNL     1      16.706  24.231   0.150  1.00  0.00     0.091 A 
ATOM     12  C   UNL     1      17.302  23.017   0.531  1.00  0.00     0.068 A 
ATOM     13  C   UNL     1      16.560  21.831   0.540  1.00  0.00     0.162 A 
ATOM     14  C   UNL     1      15.361  24.234  -0.254  1.00  0.00     0.068 A 
ATOM     15  C   UNL     1      15.208  21.844   0.155  1.00  0.00     0.200 A 
ATOM     16  C   UNL     1      14.611  23.051  -0.246  1.00  0.00     0.162 A 
BRANCH  13  17
ATOM     17  O   UNL     1      17.187  20.647   0.930  1.00  0.00    -0.504 OA
ATOM     18  H   UNL     1      16.687  19.903   1.402  1.00  0.00     0.293 HD
ENDBRANCH  13  17
BRANCH  15  19
ATOM     19  O   UNL     1      14.475  20.657   0.173  1.00  0.00    -0.502 OA
ATOM     20  H   UNL     1      13.529  20.602  -0.186  1.00  0.00     0.293 HD
ENDBRANCH  15  19
BRANCH  16  21
ATOM     21  O   UNL     1      13.273  23.071  -0.637  1.00  0.00    -0.504 OA
ATOM     22  H   UNL     1      12.520  23.020   0.040  1.00  0.00     0.293 HD
ENDBRANCH  16  21
ENDBRANCH   1  11
BRANCH  10  23
ATOM     23  O   UNL     1      19.365  24.440  -1.030  1.00  0.00    -0.500 OA
ATOM     24  H   UNL     1      20.208  24.507  -1.588  1.00  0.00     0.294 HD
ENDBRANCH  10  23
BRANCH   5  25
ATOM     25  O   UNL     1      16.939  31.194   1.928  1.00  0.00    -0.507 OA
ATOM     26  H   UNL     1      16.700  31.188   2.912  1.00  0.00     0.293 HD
ENDBRANCH   5  25
BRANCH   7  27
ATOM     27  O   UNL     1      20.708  29.351  -0.476  1.00  0.00    -0.507 OA
ATOM     28  H   UNL     1      21.505  29.677   0.059  1.00  0.00     0.293 HD
ENDBRANCH   7  27
TORSDOF 7
ENDMDL
MODEL 2
REMARK VINA RESULT:    -8.309      0.960      2.034
REMARK INTER + INTRA:         -10.261
REMARK INTER:                  -9.912
REMARK INTRA:                  -0.349
REMARK UNBOUND:                -0.008
REMARK SMILES Oc1cc(O)c2cc(O)c(-c3cc(O)c(O)c(O)c3)[o+]c2c1
REMARK SMILES IDX 10 1 20 2 21 3 22 4 2 5 3 6 4 7 6 8 7 9 8 10 11 11 12 12
REMARK SMILES IDX 13 13 19 14 15 15 17 16 14 17 16 19 18 21 9 23 1 25 5 27
REMARK H PARENT 14 18 16 20 18 22 9 24 1 26 5 28
REMARK Flexibility Score: inf
ROOT
ATOM      1  C   UNL     1      17.642  25.413  -0.148  1.00  0.00     0.402 A 
ATOM      2  O   UNL     1      17.643  26.292   0.852  1.00  0.00    -0.202 OA
ATOM      3  C   UNL     1      18.359  27.413   0.835  1.00  0.00     0.368 A 
ATOM      4  C   UNL     1      18.303  28.287   1.925  1.00  0.00     0.162 A 
ATOM      5  C   UNL     1      19.049  29.472   1.917  1.00  0.00     0.128 A 
ATOM      6  C   UNL     1      19.854  29.782   0.815  1.00  0.00     0.093 A 
ATOM      7  C   UNL     1      19.922  28.914  -0.284  1.00  0.00     0.136 A 
ATOM      8  C   UNL     1      19.172  27.723  -0.276  1.00  0.00     0.125 A 
ATOM      9  C   UNL     1      19.207  26.817  -1.342  1.00  0.00     0.078 A 
ATOM     10  C   UNL     1      18.448  25.644  -1.281  1.00  0.00     0.223 A 
ENDROOT
BRANCH   1  11
ATOM     11  C   UNL     1      16.797  24.205  -0.017  1.00  0.00     0.091 A 
ATOM     12  C   UNL     1      15.412  24.251  -0.251  1.00  0.00     0.068 A 
ATOM     13  C   UNL     1      14.625  23.105  -0.100  1.00  0.00     0.162 A 
ATOM     14  C   UNL     1      17.378  22.998   0.404  1.00  0.00     0.068 A 
ATOM     15  C   UNL     1      15.216  21.894   0.300  1.00  0.00     0.200 A 
ATOM     16  C   UNL     1      16.596  21.844   0.556  1.00  0.00     0.162 A 
BRANCH  13  17
ATOM     17  O   UNL     1      13.254  23.190  -0.347  1.00  0.00    -0.504 OA
ATOM     18  H   UNL     1      12.631  22.404  -0.208  1.00  0.00     0.293 HD
ENDBRANCH  13  17
BRANCH  15  19
ATOM     19  O   UNL     1      14.424  20.754   0.443  1.00  0.00    -0.502 OA
ATOM     20  H   UNL     1      14.797  19.877   0.786  1.00  0.00     0.293 HD
ENDBRANCH  15  19
BRANCH  16  21
ATOM     21  O   UNL     1      17.189  20.649   0.961  1.00  0.00    -0.504 OA
ATOM     22  H   UNL     1      16.871  20.151   1.785  1.00  0.00     0.293 HD
ENDBRANCH  16  21
ENDBRANCH   1  11
BRANCH  10  23
ATOM     23  O   UNL     1      18.517  24.713  -2.317  1.00  0.00    -0.500 OA
ATOM     24  H   UNL     1      18.048  23.817  -2.260  1.00  0.00     0.294 HD
ENDBRANCH  10  23
BRANCH   5  25
ATOM     25  O   UNL     1      18.999  30.350   2.998  1.00  0.00    -0.507 OA
ATOM     26  H   UNL     1      18.122  30.745   3.319  1.00  0.00     0.293 HD
ENDBRANCH   5  25
BRANCH   7  27
ATOM     27  O   UNL     1      20.730  29.235  -1.376  1.00  0.00    -0.507 OA
ATOM     28  H   UNL     1      20.349  29.666  -2.210  1.00  0.00     0.293 HD
ENDBRANCH   7  27
TORSDOF 7
ENDMDL
MODEL 3
REMARK VINA RESULT:    -8.129      1.159      7.429
REMARK INTER + INTRA:         -10.038
REMARK INTER:                  -9.986
REMARK INTRA:                  -0.053
REMARK UNBOUND:                -0.008
REMARK SMILES Oc1cc(O)c2cc(O)c(-c3cc(O)c(O)c(O)c3)[o+]c2c1
REMARK SMILES IDX 10 1 20 2 21 3 22 4 2 5 3 6 4 7 6 8 7 9 8 10 11 11 12 12
REMARK SMILES IDX 13 13 19 14 15 15 17 16 14 17 16 19 18 21 9 23 1 25 5 27
REMARK H PARENT 14 18 16 20 18 22 9 24 1 26 5 28
REMARK Flexibility Score: inf
ROOT
ATOM      1  C   UNL     1      16.678  26.798   0.310  1.00  0.00     0.402 A 
ATOM      2  O   UNL     1      17.226  25.619   0.596  1.00  0.00    -0.202 OA
ATOM      3  C   UNL     1      16.586  24.463   0.446  1.00  0.00     0.368 A 
ATOM      4  C   UNL     1      17.234  23.266   0.766  1.00  0.00     0.162 A 
ATOM      5  C   UNL     1      16.571  22.042   0.607  1.00  0.00     0.128 A 
ATOM      6  C   UNL     1      15.257  22.017   0.128  1.00  0.00     0.093 A 
ATOM      7  C   UNL     1      14.593  23.210  -0.195  1.00  0.00     0.136 A 
ATOM      8  C   UNL     1      15.260  24.440  -0.036  1.00  0.00     0.125 A 
ATOM      9  C   UNL     1      14.645  25.661  -0.336  1.00  0.00     0.078 A 
ATOM     10  C   UNL     1      15.348  26.856  -0.154  1.00  0.00     0.223 A 
ENDROOT
BRANCH   1  11
ATOM     11  C   UNL     1      17.494  28.017   0.511  1.00  0.00     0.091 A 
ATOM     12  C   UNL     1      17.003  29.116   1.234  1.00  0.00     0.068 A 
ATOM     13  C   UNL     1      17.779  30.269   1.394  1.00  0.00     0.162 A 
ATOM     14  C   UNL     1      18.765  28.101  -0.079  1.00  0.00     0.068 A 
ATOM     15  C   UNL     1      19.060  30.339   0.820  1.00  0.00     0.200 A 
ATOM     16  C   UNL     1      19.551  29.251   0.078  1.00  0.00     0.162 A 
BRANCH  13  17
ATOM     17  O   UNL     1      17.257  31.337   2.124  1.00  0.00    -0.504 OA
ATOM     18  H   UNL     1      16.263  31.446   2.285  1.00  0.00     0.293 HD
ENDBRANCH  13  17
BRANCH  15  19
ATOM     19  O   UNL     1      19.830  31.491   0.990  1.00  0.00    -0.502 OA
ATOM     20  H   UNL     1      19.753  32.288   0.370  1.00  0.00     0.293 HD
ENDBRANCH  15  19
BRANCH  16  21
ATOM     21  O   UNL     1      20.817  29.316  -0.501  1.00  0.00    -0.504 OA
ATOM     22  H   UNL     1      21.454  30.080  -0.304  1.00  0.00     0.293 HD
ENDBRANCH  16  21
ENDBRANCH   1  11
BRANCH  10  23
ATOM     23  O   UNL     1      14.725  28.078  -0.403  1.00  0.00    -0.500 OA
ATOM     24  H   UNL     1      13.750  28.133  -0.673  1.00  0.00     0.294 HD
ENDBRANCH  10  23
BRANCH   5  25
ATOM     25  O   UNL     1      17.209  20.844   0.923  1.00  0.00    -0.507 OA
ATOM     26  H   UNL     1      17.619  20.688   1.836  1.00  0.00     0.293 HD
ENDBRANCH   5  25
BRANCH   7  27
ATOM     27  O   UNL     1      13.282  23.171  -0.671  1.00  0.00    -0.507 OA
ATOM     28  H   UNL     1      12.564  23.782  -0.299  1.00  0.00     0.293 HD
ENDBRANCH   7  27
TORSDOF 7
ENDMDL
MODEL 4
REMARK VINA RESULT:    -8.084      1.264      7.326
REMARK INTER + INTRA:          -9.983
REMARK INTER:                  -9.821
REMARK INTRA:                  -0.162
REMARK UNBOUND:                -0.008
REMARK SMILES Oc1cc(O)c2cc(O)c(-c3cc(O)c(O)c(O)c3)[o+]c2c1
REMARK SMILES IDX 10 1 20 2 21 3 22 4 2 5 3 6 4 7 6 8 7 9 8 10 11 11 12 12
REMARK SMILES IDX 13 13 19 14 15 15 17 16 14 17 16 19 18 21 9 23 1 25 5 27
REMARK H PARENT 14 18 16 20 18 22 9 24 1 26 5 28
REMARK Flexibility Score: inf
ROOT
ATOM      1  C   UNL     1      17.136  26.084   0.498  1.00  0.00     0.402 A 
ATOM      2  O   UNL     1      17.739  24.897   0.539  1.00  0.00    -0.202 OA
ATOM      3  C   UNL     1      17.078  23.744   0.526  1.00  0.00     0.368 A 
ATOM      4  C   UNL     1      17.786  22.539   0.568  1.00  0.00     0.162 A 
ATOM      5  C   UNL     1      17.100  21.318   0.549  1.00  0.00     0.128 A 
ATOM      6  C   UNL     1      15.703  21.303   0.491  1.00  0.00     0.093 A 
ATOM      7  C   UNL     1      14.978  22.504   0.450  1.00  0.00     0.136 A 
ATOM      8  C   UNL     1      15.668  23.731   0.467  1.00  0.00     0.125 A 
ATOM      9  C   UNL     1      14.997  24.959   0.437  1.00  0.00     0.078 A 
ATOM     10  C   UNL     1      15.729  26.151   0.463  1.00  0.00     0.223 A 
ENDROOT
BRANCH   1  11
ATOM     11  C   UNL     1      17.981  27.300   0.510  1.00  0.00     0.091 A 
ATOM     12  C   UNL     1      18.942  27.533  -0.489  1.00  0.00     0.068 A 
ATOM     13  C   UNL     1      19.748  28.676  -0.449  1.00  0.00     0.162 A 
ATOM     14  C   UNL     1      17.862  28.213   1.569  1.00  0.00     0.068 A 
ATOM     15  C   UNL     1      19.608  29.598   0.602  1.00  0.00     0.200 A 
ATOM     16  C   UNL     1      18.664  29.361   1.615  1.00  0.00     0.162 A 
BRANCH  13  17
ATOM     17  O   UNL     1      20.686  28.874  -1.462  1.00  0.00    -0.504 OA
ATOM     18  H   UNL     1      20.562  28.496  -2.394  1.00  0.00     0.293 HD
ENDBRANCH  13  17
BRANCH  15  19
ATOM     19  O   UNL     1      20.412  30.738   0.630  1.00  0.00    -0.502 OA
ATOM     20  H   UNL     1      20.120  31.594   1.087  1.00  0.00     0.293 HD
ENDBRANCH  15  19
BRANCH  16  21
ATOM     21  O   UNL     1      18.525  30.268   2.666  1.00  0.00    -0.504 OA
ATOM     22  H   UNL     1      17.672  30.797   2.802  1.00  0.00     0.293 HD
ENDBRANCH  16  21
ENDBRANCH   1  11
BRANCH  10  23
ATOM     23  O   UNL     1      15.065  27.377   0.483  1.00  0.00    -0.500 OA
ATOM     24  H   UNL     1      15.219  28.053   1.221  1.00  0.00     0.294 HD
ENDBRANCH  10  23
BRANCH   5  25
ATOM     25  O   UNL     1      17.798  20.112   0.590  1.00  0.00    -0.507 OA
ATOM     26  H   UNL     1      17.379  19.247   0.271  1.00  0.00     0.293 HD
ENDBRANCH   5  25
BRANCH   7  27
ATOM     27  O   UNL     1      13.584  22.475   0.393  1.00  0.00    -0.507 OA
ATOM     28  H   UNL     1      13.057  21.660   0.686  1.00  0.00     0.293 HD
ENDBRANCH   7  27
TORSDOF 7
ENDMDL
MODEL 5
REMARK VINA RESULT:    -7.681      1.718      3.053
REMARK INTER + INTRA:          -9.486
REMARK INTER:                  -9.667
REMARK INTRA:                   0.181
REMARK UNBOUND:                -0.008
REMARK SMILES Oc1cc(O)c2cc(O)c(-c3cc(O)c(O)c(O)c3)[o+]c2c1
REMARK SMILES IDX 10 1 20 2 21 3 22 4 2 5 3 6 4 7 6 8 7 9 8 10 11 11 12 12
REMARK SMILES IDX 13 13 19 14 15 15 17 16 14 17 16 19 18 21 9 23 1 25 5 27
REMARK H PARENT 14 18 16 20 18 22 9 24 1 26 5 28
REMARK Flexibility Score: inf
ROOT
ATOM      1  C   UNL     1      16.122  26.200   0.582  1.00  0.00     0.402 A 
ATOM      2  O   UNL     1      17.199  26.691   1.192  1.00  0.00    -0.202 OA
ATOM      3  C   UNL     1      17.420  27.993   1.343  1.00  0.00     0.368 A 
ATOM      4  C   UNL     1      18.575  28.429   2.000  1.00  0.00     0.162 A 
ATOM      5  C   UNL     1      18.815  29.799   2.168  1.00  0.00     0.128 A 
ATOM      6  C   UNL     1      17.899  30.734   1.676  1.00  0.00     0.093 A 
ATOM      7  C   UNL     1      16.737  30.312   1.012  1.00  0.00     0.136 A 
ATOM      8  C   UNL     1      16.495  28.935   0.844  1.00  0.00     0.125 A 
ATOM      9  C   UNL     1      15.357  28.458   0.184  1.00  0.00     0.078 A 
ATOM     10  C   UNL     1      15.166  27.080   0.037  1.00  0.00     0.223 A 
ENDROOT
BRANCH   1  11
ATOM     11  C   UNL     1      15.983  24.729   0.483  1.00  0.00     0.091 A 
ATOM     12  C   UNL     1      14.721  24.116   0.417  1.00  0.00     0.068 A 
ATOM     13  C   UNL     1      14.608  22.723   0.348  1.00  0.00     0.162 A 
ATOM     14  C   UNL     1      17.133  23.924   0.512  1.00  0.00     0.068 A 
ATOM     15  C   UNL     1      15.763  21.922   0.355  1.00  0.00     0.200 A 
ATOM     16  C   UNL     1      17.028  22.528   0.441  1.00  0.00     0.162 A 
BRANCH  13  17
ATOM     17  O   UNL     1      13.337  22.153   0.279  1.00  0.00    -0.504 OA
ATOM     18  H   UNL     1      12.709  22.327  -0.498  1.00  0.00     0.293 HD
ENDBRANCH  13  17
BRANCH  15  19
ATOM     19  O   UNL     1      15.641  20.535   0.280  1.00  0.00    -0.502 OA
ATOM     20  H   UNL     1      15.869  19.930   1.060  1.00  0.00     0.293 HD
ENDBRANCH  15  19
BRANCH  16  21
ATOM     21  O   UNL     1      18.179  21.740   0.457  1.00  0.00    -0.504 OA
ATOM     22  H   UNL     1      18.133  20.730   0.388  1.00  0.00     0.293 HD
ENDBRANCH  16  21
ENDBRANCH   1  11
BRANCH  10  23
ATOM     23  O   UNL     1      14.060  26.599  -0.663  1.00  0.00    -0.500 OA
ATOM     24  H   UNL     1      13.312  26.099  -0.198  1.00  0.00     0.294 HD
ENDBRANCH  10  23
BRANCH   5  25
ATOM     25  O   UNL     1      19.963  30.241   2.823  1.00  0.00    -0.507 OA
ATOM     26  H   UNL     1      20.031  31.181   3.194  1.00  0.00     0.293 HD
ENDBRANCH   5  25
BRANCH   7  27
ATOM     27  O   UNL     1      15.831  31.256   0.526  1.00  0.00    -0.507 OA
ATOM     28  H   UNL     1      15.322  31.873   1.147  1.00  0.00     0.293 HD
ENDBRANCH   7  27
TORSDOF 7
ENDMDL
MODEL 6
REMARK VINA RESULT:    -7.101      1.453      2.332
REMARK INTER + INTRA:          -8.770
REMARK INTER:                  -8.591
REMARK INTRA:                  -0.178
REMARK UNBOUND:                -0.008
REMARK SMILES Oc1cc(O)c2cc(O)c(-c3cc(O)c(O)c(O)c3)[o+]c2c1
REMARK SMILES IDX 10 1 20 2 21 3 22 4 2 5 3 6 4 7 6 8 7 9 8 10 11 11 12 12
REMARK SMILES IDX 13 13 19 14 15 15 17 16 14 17 16 19 18 21 9 23 1 25 5 27
REMARK H PARENT 14 18 16 20 18 22 9 24 1 26 5 28
REMARK Flexibility Score: inf
ROOT
ATOM      1  C   UNL     1      16.947  26.786   0.340  1.00  0.00     0.402 A 
ATOM      2  O   UNL     1      16.366  27.957   0.598  1.00  0.00    -0.202 OA
ATOM      3  C   UNL     1      17.051  29.074   0.822  1.00  0.00     0.368 A 
ATOM      4  C   UNL     1      16.367  30.266   1.081  1.00  0.00     0.162 A 
ATOM      5  C   UNL     1      17.078  31.450   1.314  1.00  0.00     0.128 A 
ATOM      6  C   UNL     1      18.476  31.441   1.288  1.00  0.00     0.093 A 
ATOM      7  C   UNL     1      19.177  30.253   1.031  1.00  0.00     0.136 A 
ATOM      8  C   UNL     1      18.462  29.063   0.796  1.00  0.00     0.125 A 
ATOM      9  C   UNL     1      19.108  27.848   0.542  1.00  0.00     0.078 A 
ATOM     10  C   UNL     1      18.353  26.692   0.322  1.00  0.00     0.223 A 
ENDROOT
BRANCH   1  11
ATOM     11  C   UNL     1      16.077  25.612   0.099  1.00  0.00     0.091 A 
ATOM     12  C   UNL     1      15.159  25.587  -0.964  1.00  0.00     0.068 A 
ATOM     13  C   UNL     1      14.329  24.479  -1.163  1.00  0.00     0.162 A 
ATOM     14  C   UNL     1      16.128  24.522   0.982  1.00  0.00     0.068 A 
ATOM     15  C   UNL     1      14.400  23.380  -0.289  1.00  0.00     0.200 A 
ATOM     16  C   UNL     1      15.301  23.407   0.789  1.00  0.00     0.162 A 
BRANCH  13  17
ATOM     17  O   UNL     1      13.434  24.490  -2.234  1.00  0.00    -0.504 OA
ATOM     18  H   UNL     1      12.791  23.727  -2.407  1.00  0.00     0.293 HD
ENDBRANCH  13  17
BRANCH  15  19
ATOM     19  O   UNL     1      13.572  22.277  -0.498  1.00  0.00    -0.502 OA
ATOM     20  H   UNL     1      12.727  22.334  -1.053  1.00  0.00     0.293 HD
ENDBRANCH  15  19
BRANCH  16  21
ATOM     21  O   UNL     1      15.372  22.325   1.665  1.00  0.00    -0.504 OA
ATOM     22  H   UNL     1      16.223  22.104   2.170  1.00  0.00     0.293 HD
ENDBRANCH  16  21
ENDBRANCH   1  11
BRANCH  10  23
ATOM     23  O   UNL     1      18.990  25.469   0.118  1.00  0.00    -0.500 OA
ATOM     24  H   UNL     1      19.425  24.962   0.879  1.00  0.00     0.294 HD
ENDBRANCH  10  23
BRANCH   5  25
ATOM     25  O   UNL     1      16.404  32.642   1.573  1.00  0.00    -0.507 OA
ATOM     26  H   UNL     1      15.555  32.660   2.127  1.00  0.00     0.293 HD
ENDBRANCH   5  25
BRANCH   7  27
ATOM     27  O   UNL     1      20.572  30.258   1.008  1.00  0.00    -0.507 OA
ATOM     28  H   UNL     1      21.098  29.539   0.525  1.00  0.00     0.293 HD
ENDBRANCH   7  27
TORSDOF 7
ENDMDL
MODEL 7
REMARK VINA RESULT:    -6.991      4.559      6.707
REMARK INTER + INTRA:          -8.634
REMARK INTER:                  -8.249
REMARK INTRA:                  -0.385
REMARK UNBOUND:                -0.008
REMARK SMILES Oc1cc(O)c2cc(O)c(-c3cc(O)c(O)c(O)c3)[o+]c2c1
REMARK SMILES IDX 10 1 20 2 21 3 22 4 2 5 3 6 4 7 6 8 7 9 8 10 11 11 12 12
REMARK SMILES IDX 13 13 19 14 15 15 17 16 14 17 16 19 18 21 9 23 1 25 5 27
REMARK H PARENT 14 18 16 20 18 22 9 24 1 26 5 28
REMARK Flexibility Score: inf
ROOT
ATOM      1  C   UNL     1      16.551  26.692  -3.217  1.00  0.00     0.402 A 
ATOM      2  O   UNL     1      17.812  26.714  -3.644  1.00  0.00    -0.202 OA
ATOM      3  C   UNL     1      18.152  26.546  -4.919  1.00  0.00     0.368 A 
ATOM      4  C   UNL     1      19.500  26.587  -5.288  1.00  0.00     0.162 A 
ATOM      5  C   UNL     1      19.870  26.415  -6.628  1.00  0.00     0.128 A 
ATOM      6  C   UNL     1      18.887  26.200  -7.600  1.00  0.00     0.093 A 
ATOM      7  C   UNL     1      17.531  26.154  -7.245  1.00  0.00     0.136 A 
ATOM      8  C   UNL     1      17.160  26.328  -5.898  1.00  0.00     0.125 A 
ATOM      9  C   UNL     1      15.823  26.285  -5.486  1.00  0.00     0.078 A 
ATOM     10  C   UNL     1      15.507  26.457  -4.134  1.00  0.00     0.223 A 
ENDROOT
BRANCH   1  11
ATOM     11  C   UNL     1      16.297  26.901  -1.773  1.00  0.00     0.091 A 
ATOM     12  C   UNL     1      16.089  28.186  -1.245  1.00  0.00     0.068 A 
ATOM     13  C   UNL     1      15.874  28.367   0.125  1.00  0.00     0.162 A 
ATOM     14  C   UNL     1      16.319  25.800  -0.902  1.00  0.00     0.068 A 
ATOM     15  C   UNL     1      15.875  27.259   0.990  1.00  0.00     0.200 A 
ATOM     16  C   UNL     1      16.103  25.973   0.472  1.00  0.00     0.162 A 
BRANCH  13  17
ATOM     17  O   UNL     1      15.666  29.659   0.610  1.00  0.00    -0.504 OA
ATOM     18  H   UNL     1      15.585  30.459  -0.005  1.00  0.00     0.293 HD
ENDBRANCH  13  17
BRANCH  15  19
ATOM     19  O   UNL     1      15.654  27.448   2.354  1.00  0.00    -0.502 OA
ATOM     20  H   UNL     1      14.961  28.099   2.703  1.00  0.00     0.293 HD
ENDBRANCH  15  19
BRANCH  16  21
ATOM     21  O   UNL     1      16.113  24.869   1.324  1.00  0.00    -0.504 OA
ATOM     22  H   UNL     1      16.977  24.409   1.588  1.00  0.00     0.293 HD
ENDBRANCH  16  21
ENDBRANCH   1  11
BRANCH  10  23
ATOM     23  O   UNL     1      14.182  26.365  -3.709  1.00  0.00    -0.500 OA
ATOM     24  H   UNL     1      13.746  25.471  -3.518  1.00  0.00     0.294 HD
ENDBRANCH  10  23
BRANCH   5  25
ATOM     25  O   UNL     1      21.211  26.454  -7.004  1.00  0.00    -0.507 OA
ATOM     26  H   UNL     1      21.713  27.331  -7.081  1.00  0.00     0.293 HD
ENDBRANCH   5  25
BRANCH   7  27
ATOM     27  O   UNL     1      16.561  25.939  -8.225  1.00  0.00    -0.507 OA
ATOM     28  H   UNL     1      16.541  25.087  -8.774  1.00  0.00     0.293 HD
ENDBRANCH   7  27
TORSDOF 7
ENDMDL
MODEL 8
REMARK VINA RESULT:    -6.935      4.421      6.027
REMARK INTER + INTRA:          -8.565
REMARK INTER:                  -8.363
REMARK INTRA:                  -0.202
REMARK UNBOUND:                -0.008
REMARK SMILES Oc1cc(O)c2cc(O)c(-c3cc(O)c(O)c(O)c3)[o+]c2c1
REMARK SMILES IDX 10 1 20 2 21 3 22 4 2 5 3 6 4 7 6 8 7 9 8 10 11 11 12 12
REMARK SMILES IDX 13 13 19 14 15 15 17 16 14 17 16 19 18 21 9 23 1 25 5 27
REMARK H PARENT 14 18 16 20 18 22 9 24 1 26 5 28
REMARK Flexibility Score: inf
ROOT
ATOM      1  C   UNL     1      17.169  26.644  -2.543  1.00  0.00     0.402 A 
ATOM      2  O   UNL     1      16.040  26.787  -3.235  1.00  0.00    -0.202 OA
ATOM      3  C   UNL     1      16.002  26.823  -4.564  1.00  0.00     0.368 A 
ATOM      4  C   UNL     1      14.775  26.972  -5.218  1.00  0.00     0.162 A 
ATOM      5  C   UNL     1      14.721  27.007  -6.617  1.00  0.00     0.128 A 
ATOM      6  C   UNL     1      15.899  26.894  -7.363  1.00  0.00     0.093 A 
ATOM      7  C   UNL     1      17.138  26.746  -6.721  1.00  0.00     0.136 A 
ATOM      8  C   UNL     1      17.191  26.710  -5.315  1.00  0.00     0.125 A 
ATOM      9  C   UNL     1      18.399  26.572  -4.622  1.00  0.00     0.078 A 
ATOM     10  C   UNL     1      18.399  26.549  -3.224  1.00  0.00     0.223 A 
ENDROOT
BRANCH   1  11
ATOM     11  C   UNL     1      17.083  26.610  -1.065  1.00  0.00     0.091 A 
ATOM     12  C   UNL     1      17.698  27.594  -0.273  1.00  0.00     0.068 A 
ATOM     13  C   UNL     1      17.627  27.532   1.123  1.00  0.00     0.162 A 
ATOM     14  C   UNL     1      16.422  25.542  -0.436  1.00  0.00     0.068 A 
ATOM     15  C   UNL     1      16.944  26.473   1.747  1.00  0.00     0.200 A 
ATOM     16  C   UNL     1      16.345  25.475   0.961  1.00  0.00     0.162 A 
BRANCH  13  17
ATOM     17  O   UNL     1      18.246  28.532   1.875  1.00  0.00    -0.504 OA
ATOM     18  H   UNL     1      17.772  29.007   2.634  1.00  0.00     0.293 HD
ENDBRANCH  13  17
BRANCH  15  19
ATOM     19  O   UNL     1      16.873  26.423   3.139  1.00  0.00    -0.502 OA
ATOM     20  H   UNL     1      17.177  25.614   3.666  1.00  0.00     0.293 HD
ENDBRANCH  15  19
BRANCH  16  21
ATOM     21  O   UNL     1      15.673  24.416   1.572  1.00  0.00    -0.504 OA
ATOM     22  H   UNL     1      14.750  24.127   1.270  1.00  0.00     0.293 HD
ENDBRANCH  16  21
ENDBRANCH   1  11
BRANCH  10  23
ATOM     23  O   UNL     1      19.604  26.462  -2.526  1.00  0.00    -0.500 OA
ATOM     24  H   UNL     1      20.037  27.277  -2.109  1.00  0.00     0.294 HD
ENDBRANCH  10  23
BRANCH   5  25
ATOM     25  O   UNL     1      13.503  27.155  -7.276  1.00  0.00    -0.507 OA
ATOM     26  H   UNL     1      12.673  27.473  -6.790  1.00  0.00     0.293 HD
ENDBRANCH   5  25
BRANCH   7  27
ATOM     27  O   UNL     1      18.306  26.635  -7.478  1.00  0.00    -0.507 OA
ATOM     28  H   UNL     1      18.886  27.441  -7.680  1.00  0.00     0.293 HD
ENDBRANCH   7  27
TORSDOF 7
ENDMDL
MODEL 9
REMARK VINA RESULT:    -6.825      5.226      6.270
REMARK INTER + INTRA:          -8.430
REMARK INTER:                  -8.079
REMARK INTRA:                  -0.351
REMARK UNBOUND:                -0.008
REMARK SMILES Oc1cc(O)c2cc(O)c(-c3cc(O)c(O)c(O)c3)[o+]c2c1
REMARK SMILES IDX 10 1 20 2 21 3 22 4 2 5 3 6 4 7 6 8 7 9 8 10 11 11 12 12
REMARK SMILES IDX 13 13 19 14 15 15 17 16 14 17 16 19 18 21 9 23 1 25 5 27
REMARK H PARENT 14 18 16 20 18 22 9 24 1 26 5 28
REMARK Flexibility Score: inf
ROOT
ATOM      1  C   UNL     1      16.580  26.983  -3.842  1.00  0.00     0.402 A 
ATOM      2  O   UNL     1      15.926  27.615  -2.869  1.00  0.00    -0.202 OA
ATOM      3  C   UNL     1      16.299  27.570  -1.594  1.00  0.00     0.368 A 
ATOM      4  C   UNL     1      15.560  28.265  -0.631  1.00  0.00     0.162 A 
ATOM      5  C   UNL     1      15.946  28.229   0.715  1.00  0.00     0.128 A 
ATOM      6  C   UNL     1      17.073  27.495   1.098  1.00  0.00     0.093 A 
ATOM      7  C   UNL     1      17.823  26.791   0.144  1.00  0.00     0.136 A 
ATOM      8  C   UNL     1      17.436  26.828  -1.209  1.00  0.00     0.125 A 
ATOM      9  C   UNL     1      18.142  26.139  -2.202  1.00  0.00     0.078 A 
ATOM     10  C   UNL     1      17.711  26.203  -3.530  1.00  0.00     0.223 A 
ENDROOT
BRANCH   1  11
ATOM     11  C   UNL     1      16.072  27.115  -5.227  1.00  0.00     0.091 A 
ATOM     12  C   UNL     1      16.702  27.955  -6.160  1.00  0.00     0.068 A 
ATOM     13  C   UNL     1      16.195  28.085  -7.457  1.00  0.00     0.162 A 
ATOM     14  C   UNL     1      14.905  26.431  -5.602  1.00  0.00     0.068 A 
ATOM     15  C   UNL     1      15.039  27.380  -7.835  1.00  0.00     0.200 A 
ATOM     16  C   UNL     1      14.392  26.554  -6.900  1.00  0.00     0.162 A 
BRANCH  13  17
ATOM     17  O   UNL     1      16.852  28.925  -8.357  1.00  0.00    -0.504 OA
ATOM     18  H   UNL     1      17.126  29.869  -8.112  1.00  0.00     0.293 HD
ENDBRANCH  13  17
BRANCH  15  19
ATOM     19  O   UNL     1      14.543  27.512  -9.133  1.00  0.00    -0.502 OA
ATOM     20  H   UNL     1      13.561  27.394  -9.350  1.00  0.00     0.293 HD
ENDBRANCH  15  19
BRANCH  16  21
ATOM     21  O   UNL     1      13.240  25.858  -7.264  1.00  0.00    -0.504 OA
ATOM     22  H   UNL     1      12.328  26.111  -6.901  1.00  0.00     0.293 HD
ENDBRANCH  16  21
ENDBRANCH   1  11
BRANCH  10  23
ATOM     23  O   UNL     1      18.380  25.478  -4.517  1.00  0.00    -0.500 OA
ATOM     24  H   UNL     1      19.314  25.729  -4.820  1.00  0.00     0.294 HD
ENDBRANCH  10  23
BRANCH   5  25
ATOM     25  O   UNL     1      15.215  28.919   1.680  1.00  0.00    -0.507 OA
ATOM     26  H   UNL     1      14.211  28.814   1.759  1.00  0.00     0.293 HD
ENDBRANCH   5  25
BRANCH   7  27
ATOM     27  O   UNL     1      18.946  26.062   0.540  1.00  0.00    -0.507 OA
ATOM     28  H   UNL     1      19.273  25.261   0.011  1.00  0.00     0.293 HD
ENDBRANCH   7  27
TORSDOF 7
ENDMDL
