MODEL 1
REMARK VINA RESULT:   110.789      0.000      0.000
REMARK INTER + INTRA:         121.230
REMARK INTER:                 120.504
REMARK INTRA:                   0.726
REMARK UNBOUND:                 0.726
REMARK SMILES C[C@H]1[C@H](C)CC[C@]2(C(=O)[O-])CC[C@]3(C)C(=CC[C@H]4[C@@]5(C)CC[C@H](O)C(C)(C)[C@H]5CC[C@@]43C)[C@H]12
REMARK SMILES IDX 7 1 6 2 11 3 33 4 5 5 12 6 15 7 2 8 3 9 13 10 16 11 1 12
REMARK SMILES IDX 4 13 14 14 31 15 17 16 18 17 30 18 32 19 19 20 29 21 28 22
REMARK SMILES IDX 21 23 20 24 25 25 22 26 23 27 26 28 27 29 8 30 9 31 10 32
REMARK SMILES IDX 24 33
REMARK H PARENT 24 34
REMARK Flexibility Score: inf
ROOT
ATOM      1  C   UNL     1      11.319  11.585  36.284  1.00  0.00     0.017 C 
ATOM      2  C   UNL     1      12.719  11.227  36.669  1.00  0.00     0.014 C 
ATOM      3  C   UNL     1      10.550  10.298  36.213  1.00  0.00     0.014 C 
ATOM      4  C   UNL     1      11.242  12.446  34.932  1.00  0.00     0.030 C 
ATOM      5  C   UNL     1      13.698  12.302  36.655  1.00  0.00     0.004 C 
ATOM      6  C   UNL     1      10.108   9.911  34.802  1.00  0.00     0.013 C 
ATOM      7  C   UNL     1       9.701  12.285  34.605  1.00  0.00    -0.063 C 
ATOM      8  C   UNL     1      12.504  12.389  34.121  1.00  0.00    -0.003 C 
ATOM      9  C   UNL     1      13.797  12.724  35.043  1.00  0.00    -0.011 C 
ATOM     10  C   UNL     1       9.272  10.943  34.076  1.00  0.00    -0.006 C 
ATOM     11  C   UNL     1       8.846  13.125  35.364  1.00  0.00    -0.027 C 
ATOM     12  C   UNL     1      12.508  13.125  32.726  1.00  0.00     0.008 C 
ATOM     13  C   UNL     1      15.124  12.263  34.353  1.00  0.00     0.008 C 
ATOM     14  C   UNL     1       9.652  10.931  32.557  1.00  0.00     0.017 C 
ATOM     15  C   UNL     1       7.663  10.877  34.229  1.00  0.00    -0.020 C 
ATOM     16  C   UNL     1       7.401  12.911  35.732  1.00  0.00     0.032 C 
ATOM     17  C   UNL     1       7.038  11.446  35.582  1.00  0.00     0.006 C 
ATOM     18  C   UNL     1       7.237   9.346  34.175  1.00  0.00     0.008 C 
ATOM     19  C   UNL     1       7.006  11.685  33.096  1.00  0.00     0.012 C 
ATOM     20  C   UNL     1       5.510  11.130  35.908  1.00  0.00    -0.025 C 
ATOM     21  C   UNL     1       5.765   9.217  34.005  1.00  0.00     0.005 C 
ATOM     22  C   UNL     1       4.950   9.772  35.217  1.00  0.00     0.003 C 
ATOM     23  C   UNL     1       4.513  12.345  35.699  1.00  0.00     0.010 C 
ATOM     24  C   UNL     1       5.484  10.909  37.483  1.00  0.00     0.012 C 
ATOM     25  C   UNL     1       3.417   9.744  34.762  1.00  0.00    -0.006 C 
ATOM     26  C   UNL     1       2.972  12.033  35.811  1.00  0.00     0.033 C 
ATOM     27  C   UNL     1       2.567  10.560  35.793  1.00  0.00     0.120 C 
ATOM     28  C   UNL     1       3.184  10.415  33.312  1.00  0.00     0.014 C 
ATOM     29  C   UNL     1       2.920   8.277  34.657  1.00  0.00     0.014 C 
ENDROOT
BRANCH   1  30
ATOM     30  C   UNL     1      10.983  12.314  37.499  1.00  0.00     0.048 C 
ATOM     31  O   UNL     1      11.763  13.108  38.115  1.00  0.00    -0.550 OA
ATOM     32  O   UNL     1       9.815  11.972  38.145  1.00  0.00    -0.550 OA
ENDBRANCH   1  30
BRANCH  27  33
ATOM     33  O   UNL     1       2.617   9.994  37.032  1.00  0.00    -0.393 OA
ATOM     34  H   UNL     1       3.414   9.373  37.119  1.00  0.00     0.210 HD
ENDBRANCH  27  33
TORSDOF 2
ENDMDL
