MODEL 1
REMARK VINA RESULT:    -7.433      0.000      0.000
REMARK INTER + INTRA:          -9.018
REMARK INTER:                  -8.737
REMARK INTRA:                  -0.281
REMARK UNBOUND:                -0.281
REMARK SMILES O=c1cc(-c2ccc(O)c(O)c2)oc2cc(O)cc(O)c12
REMARK SMILES IDX 4 1 3 2 2 3 1 4 21 5 19 6 18 7 16 8 15 9 14 10 13 11 5 12
REMARK SMILES IDX 6 13 7 14 8 15 12 16 10 17 9 18 11 20 20 22 17 24
REMARK H PARENT 9 19 11 21 20 23 17 25
REMARK Flexibility Score: inf
ROOT
ATOM      1  C   UNL     1     128.906 125.079 130.262  1.00  0.00     0.138 A 
ATOM      2  C   UNL     1     128.714 124.766 131.615  1.00  0.00     0.100 A 
ATOM      3  C   UNL     1     128.135 123.546 131.967  1.00  0.00     0.197 A 
ATOM      4  O   UNL     1     128.033 123.268 133.189  1.00  0.00    -0.289 OA
ATOM      5  C   UNL     1     127.718 122.648 130.955  1.00  0.00     0.107 A 
ATOM      6  C   UNL     1     127.080 121.395 131.194  1.00  0.00     0.134 A 
ATOM      7  C   UNL     1     126.816 120.538 130.119  1.00  0.00     0.093 A 
ATOM      8  C   UNL     1     127.113 120.913 128.809  1.00  0.00     0.123 A 
ATOM      9  C   UNL     1     127.689 122.159 128.558  1.00  0.00     0.094 A 
ATOM     10  C   UNL     1     127.995 123.022 129.613  1.00  0.00     0.146 A 
ATOM     11  O   UNL     1     128.556 124.194 129.333  1.00  0.00    -0.456 OA
ENDROOT
BRANCH   1  12
ATOM     12  C   UNL     1     129.517 126.362 129.832  1.00  0.00     0.021 A 
ATOM     13  C   UNL     1     129.097 127.026 128.663  1.00  0.00     0.016 A 
ATOM     14  C   UNL     1     129.697 128.227 128.277  1.00  0.00     0.051 A 
ATOM     15  C   UNL     1     130.729 128.782 129.045  1.00  0.00     0.157 A 
ATOM     16  C   UNL     1     130.564 126.919 130.589  1.00  0.00     0.062 A 
ATOM     17  C   UNL     1     131.164 128.125 130.202  1.00  0.00     0.158 A 
BRANCH  15  18
ATOM     18  O   UNL     1     131.329 129.980 128.662  1.00  0.00    -0.504 OA
ATOM     19  H   UNL     1     132.296 130.018 128.366  1.00  0.00     0.293 HD
ENDBRANCH  15  18
BRANCH  17  20
ATOM     20  O   UNL     1     132.194 128.677 130.962  1.00  0.00    -0.504 OA
ATOM     21  H   UNL     1     132.365 128.382 131.916  1.00  0.00     0.293 HD
ENDBRANCH  17  20
ENDBRANCH   1  12
BRANCH   6  22
ATOM     22  O   UNL     1     126.663 120.958 132.455  1.00  0.00    -0.507 OA
ATOM     23  H   UNL     1     125.747 121.118 132.848  1.00  0.00     0.293 HD
ENDBRANCH   6  22
BRANCH   8  24
ATOM     24  O   UNL     1     126.824 120.041 127.761  1.00  0.00    -0.508 OA
ATOM     25  H   UNL     1     126.138 119.303 127.860  1.00  0.00     0.293 HD
ENDBRANCH   8  24
TORSDOF 5
ENDMDL
MODEL 2
REMARK VINA RESULT:    -7.430      6.808     12.183
REMARK INTER + INTRA:          -9.014
REMARK INTER:                  -8.741
REMARK INTRA:                  -0.273
REMARK UNBOUND:                -0.281
REMARK SMILES O=c1cc(-c2ccc(O)c(O)c2)oc2cc(O)cc(O)c12
REMARK SMILES IDX 4 1 3 2 2 3 1 4 21 5 19 6 18 7 16 8 15 9 14 10 13 11 5 12
REMARK SMILES IDX 6 13 7 14 8 15 12 16 10 17 9 18 11 20 20 22 17 24
REMARK H PARENT 9 19 11 21 20 23 17 25
REMARK Flexibility Score: inf
ROOT
ATOM      1  C   UNL     1     129.904 134.101 130.344  1.00  0.00     0.138 A 
ATOM      2  C   UNL     1     130.081 134.401 131.702  1.00  0.00     0.100 A 
ATOM      3  C   UNL     1     130.652 135.620 132.071  1.00  0.00     0.197 A 
ATOM      4  O   UNL     1     130.741 135.886 133.297  1.00  0.00    -0.289 OA
ATOM      5  C   UNL     1     131.075 136.529 131.073  1.00  0.00     0.107 A 
ATOM      6  C   UNL     1     131.706 137.783 131.330  1.00  0.00     0.134 A 
ATOM      7  C   UNL     1     131.977 138.651 130.265  1.00  0.00     0.093 A 
ATOM      8  C   UNL     1     131.695 138.288 128.949  1.00  0.00     0.123 A 
ATOM      9  C   UNL     1     131.126 137.041 128.681  1.00  0.00     0.094 A 
ATOM     10  C   UNL     1     130.814 136.167 129.724  1.00  0.00     0.146 A 
ATOM     11  O   UNL     1     130.260 134.996 129.427  1.00  0.00    -0.456 OA
ENDROOT
BRANCH   1  12
ATOM     12  C   UNL     1     129.303 132.819 129.896  1.00  0.00     0.021 A 
ATOM     13  C   UNL     1     129.870 132.061 128.853  1.00  0.00     0.016 A 
ATOM     14  C   UNL     1     129.277 130.864 128.445  1.00  0.00     0.051 A 
ATOM     15  C   UNL     1     128.107 130.407 129.063  1.00  0.00     0.157 A 
ATOM     16  C   UNL     1     128.119 132.360 130.501  1.00  0.00     0.062 A 
ATOM     17  C   UNL     1     127.526 131.158 130.091  1.00  0.00     0.158 A 
BRANCH  15  18
ATOM     18  O   UNL     1     127.513 129.213 128.658  1.00  0.00    -0.504 OA
ATOM     19  H   UNL     1     126.547 129.177 128.354  1.00  0.00     0.293 HD
ENDBRANCH  15  18
BRANCH  17  20
ATOM     20  O   UNL     1     126.358 130.704 130.703  1.00  0.00    -0.504 OA
ATOM     21  H   UNL     1     126.385 130.064 131.488  1.00  0.00     0.293 HD
ENDBRANCH  17  20
ENDBRANCH   1  12
BRANCH   6  22
ATOM     22  O   UNL     1     132.109 138.209 132.599  1.00  0.00    -0.507 OA
ATOM     23  H   UNL     1     133.047 138.134 132.963  1.00  0.00     0.293 HD
ENDBRANCH   6  22
BRANCH   8  24
ATOM     24  O   UNL     1     131.991 139.170 127.913  1.00  0.00    -0.508 OA
ATOM     25  H   UNL     1     131.261 139.644 127.395  1.00  0.00     0.293 HD
ENDBRANCH   8  24
TORSDOF 5
ENDMDL
MODEL 3
REMARK VINA RESULT:    -7.229      1.254      2.703
REMARK INTER + INTRA:          -8.778
REMARK INTER:                  -8.504
REMARK INTRA:                  -0.274
REMARK UNBOUND:                -0.281
REMARK SMILES O=c1cc(-c2ccc(O)c(O)c2)oc2cc(O)cc(O)c12
REMARK SMILES IDX 4 1 3 2 2 3 1 4 21 5 19 6 18 7 16 8 15 9 14 10 13 11 5 12
REMARK SMILES IDX 6 13 7 14 8 15 12 16 10 17 9 18 11 20 20 22 17 24
REMARK H PARENT 9 19 11 21 20 23 17 25
REMARK Flexibility Score: inf
ROOT
ATOM      1  C   UNL     1     128.910 125.631 129.667  1.00  0.00     0.138 A 
ATOM      2  C   UNL     1     128.601 125.145 128.388  1.00  0.00     0.100 A 
ATOM      3  C   UNL     1     128.079 123.859 128.246  1.00  0.00     0.197 A 
ATOM      4  O   UNL     1     127.755 123.475 127.093  1.00  0.00    -0.289 OA
ATOM      5  C   UNL     1     127.894 123.044 129.388  1.00  0.00     0.107 A 
ATOM      6  C   UNL     1     127.408 121.704 129.361  1.00  0.00     0.134 A 
ATOM      7  C   UNL     1     127.157 121.035 130.565  1.00  0.00     0.093 A 
ATOM      8  C   UNL     1     127.430 121.635 131.793  1.00  0.00     0.123 A 
ATOM      9  C   UNL     1     127.957 122.927 131.831  1.00  0.00     0.094 A 
ATOM     10  C   UNL     1     128.187 123.633 130.648  1.00  0.00     0.146 A 
ATOM     11  O   UNL     1     128.675 124.866 130.728  1.00  0.00    -0.456 OA
ENDROOT
BRANCH   1  12
ATOM     12  C   UNL     1     129.468 126.991 129.875  1.00  0.00     0.021 A 
ATOM     13  C   UNL     1     128.746 128.149 129.525  1.00  0.00     0.016 A 
ATOM     14  C   UNL     1     129.300 129.416 129.722  1.00  0.00     0.051 A 
ATOM     15  C   UNL     1     130.584 129.549 130.263  1.00  0.00     0.157 A 
ATOM     16  C   UNL     1     130.764 127.135 130.404  1.00  0.00     0.062 A 
ATOM     17  C   UNL     1     131.318 128.407 130.603  1.00  0.00     0.158 A 
BRANCH  15  18
ATOM     18  O   UNL     1     131.140 130.813 130.461  1.00  0.00    -0.504 OA
ATOM     19  H   UNL     1     130.615 131.558 130.903  1.00  0.00     0.293 HD
ENDBRANCH  15  18
BRANCH  17  20
ATOM     20  O   UNL     1     132.599 128.543 131.138  1.00  0.00    -0.504 OA
ATOM     21  H   UNL     1     133.406 128.702 130.547  1.00  0.00     0.293 HD
ENDBRANCH  17  20
ENDBRANCH   1  12
BRANCH   6  22
ATOM     22  O   UNL     1     127.181 120.979 128.186  1.00  0.00    -0.507 OA
ATOM     23  H   UNL     1     127.307 119.983 128.089  1.00  0.00     0.293 HD
ENDBRANCH   6  22
BRANCH   8  24
ATOM     24  O   UNL     1     127.183 120.935 132.971  1.00  0.00    -0.508 OA
ATOM     25  H   UNL     1     126.558 121.296 133.682  1.00  0.00     0.293 HD
ENDBRANCH   8  24
TORSDOF 5
ENDMDL
MODEL 4
REMARK VINA RESULT:    -7.219      6.258     11.909
REMARK INTER + INTRA:          -8.766
REMARK INTER:                  -8.467
REMARK INTRA:                  -0.298
REMARK UNBOUND:                -0.281
REMARK SMILES O=c1cc(-c2ccc(O)c(O)c2)oc2cc(O)cc(O)c12
REMARK SMILES IDX 4 1 3 2 2 3 1 4 21 5 19 6 18 7 16 8 15 9 14 10 13 11 5 12
REMARK SMILES IDX 6 13 7 14 8 15 12 16 10 17 9 18 11 20 20 22 17 24
REMARK H PARENT 9 19 11 21 20 23 17 25
REMARK Flexibility Score: inf
ROOT
ATOM      1  C   UNL     1     129.931 133.510 129.463  1.00  0.00     0.138 A 
ATOM      2  C   UNL     1     130.348 134.134 128.279  1.00  0.00     0.100 A 
ATOM      3  C   UNL     1     130.852 135.434 128.324  1.00  0.00     0.197 A 
ATOM      4  O   UNL     1     131.276 135.944 127.255  1.00  0.00    -0.289 OA
ATOM      5  C   UNL     1     130.910 136.124 129.559  1.00  0.00     0.107 A 
ATOM      6  C   UNL     1     131.366 137.466 129.720  1.00  0.00     0.134 A 
ATOM      7  C   UNL     1     131.487 138.005 131.006  1.00  0.00     0.093 A 
ATOM      8  C   UNL     1     131.112 137.273 132.132  1.00  0.00     0.123 A 
ATOM      9  C   UNL     1     130.613 135.978 131.983  1.00  0.00     0.094 A 
ATOM     10  C   UNL     1     130.513 135.401 130.715  1.00  0.00     0.146 A 
ATOM     11  O   UNL     1     130.046 134.160 130.617  1.00  0.00    -0.456 OA
ENDROOT
BRANCH   1  12
ATOM     12  C   UNL     1     129.386 132.129 129.472  1.00  0.00     0.021 A 
ATOM     13  C   UNL     1     129.909 131.122 128.637  1.00  0.00     0.016 A 
ATOM     14  C   UNL     1     129.370 129.834 128.659  1.00  0.00     0.051 A 
ATOM     15  C   UNL     1     128.297 129.530 129.506  1.00  0.00     0.157 A 
ATOM     16  C   UNL     1     128.299 131.818 130.309  1.00  0.00     0.062 A 
ATOM     17  C   UNL     1     127.760 130.524 130.331  1.00  0.00     0.158 A 
BRANCH  15  18
ATOM     18  O   UNL     1     127.758 128.244 129.529  1.00  0.00    -0.504 OA
ATOM     19  H   UNL     1     127.982 127.563 128.814  1.00  0.00     0.293 HD
ENDBRANCH  15  18
BRANCH  17  20
ATOM     20  O   UNL     1     126.689 130.220 131.171  1.00  0.00    -0.504 OA
ATOM     21  H   UNL     1     126.824 130.043 132.159  1.00  0.00     0.293 HD
ENDBRANCH  17  20
ENDBRANCH   1  12
BRANCH   6  22
ATOM     22  O   UNL     1     131.687 138.315 128.656  1.00  0.00    -0.507 OA
ATOM     23  H   UNL     1     131.242 139.201 128.470  1.00  0.00     0.293 HD
ENDBRANCH   6  22
BRANCH   8  24
ATOM     24  O   UNL     1     131.231 137.847 133.396  1.00  0.00    -0.508 OA
ATOM     25  H   UNL     1     131.667 138.751 133.530  1.00  0.00     0.293 HD
ENDBRANCH   8  24
TORSDOF 5
ENDMDL
MODEL 5
REMARK VINA RESULT:    -7.060      7.363     12.859
REMARK INTER + INTRA:          -8.579
REMARK INTER:                  -8.271
REMARK INTRA:                  -0.309
REMARK UNBOUND:                -0.281
REMARK SMILES O=c1cc(-c2ccc(O)c(O)c2)oc2cc(O)cc(O)c12
REMARK SMILES IDX 4 1 3 2 2 3 1 4 21 5 19 6 18 7 16 8 15 9 14 10 13 11 5 12
REMARK SMILES IDX 6 13 7 14 8 15 12 16 10 17 9 18 11 20 20 22 17 24
REMARK H PARENT 9 19 11 21 20 23 17 25
REMARK Flexibility Score: inf
ROOT
ATOM      1  C   UNL     1     129.717 134.524 130.407  1.00  0.00     0.138 A 
ATOM      2  C   UNL     1     130.298 134.492 129.132  1.00  0.00     0.100 A 
ATOM      3  C   UNL     1     130.933 135.631 128.633  1.00  0.00     0.197 A 
ATOM      4  O   UNL     1     131.498 135.553 127.512  1.00  0.00    -0.289 OA
ATOM      5  C   UNL     1     130.957 136.817 129.405  1.00  0.00     0.107 A 
ATOM      6  C   UNL     1     131.539 138.049 128.983  1.00  0.00     0.134 A 
ATOM      7  C   UNL     1     131.606 139.124 129.879  1.00  0.00     0.093 A 
ATOM      8  C   UNL     1     131.060 139.031 131.158  1.00  0.00     0.123 A 
ATOM      9  C   UNL     1     130.440 137.847 131.563  1.00  0.00     0.094 A 
ATOM     10  C   UNL     1     130.388 136.747 130.705  1.00  0.00     0.146 A 
ATOM     11  O   UNL     1     129.802 135.634 131.134  1.00  0.00    -0.456 OA
ENDROOT
BRANCH   1  12
ATOM     12  C   UNL     1     129.029 133.342 130.985  1.00  0.00     0.021 A 
ATOM     13  C   UNL     1     129.333 132.031 130.566  1.00  0.00     0.016 A 
ATOM     14  C   UNL     1     128.662 130.938 131.120  1.00  0.00     0.051 A 
ATOM     15  C   UNL     1     127.675 131.133 132.093  1.00  0.00     0.157 A 
ATOM     16  C   UNL     1     128.025 133.528 131.953  1.00  0.00     0.062 A 
ATOM     17  C   UNL     1     127.354 132.430 132.508  1.00  0.00     0.158 A 
BRANCH  15  18
ATOM     18  O   UNL     1     127.004 130.043 132.647  1.00  0.00    -0.504 OA
ATOM     19  H   UNL     1     127.491 129.187 132.885  1.00  0.00     0.293 HD
ENDBRANCH  15  18
BRANCH  17  20
ATOM     20  O   UNL     1     126.367 132.621 133.474  1.00  0.00    -0.504 OA
ATOM     21  H   UNL     1     126.601 132.816 134.440  1.00  0.00     0.293 HD
ENDBRANCH  17  20
ENDBRANCH   1  12
BRANCH   6  22
ATOM     22  O   UNL     1     132.039 138.278 127.697  1.00  0.00    -0.507 OA
ATOM     23  H   UNL     1     131.825 139.084 127.130  1.00  0.00     0.293 HD
ENDBRANCH   6  22
BRANCH   8  24
ATOM     24  O   UNL     1     131.131 140.125 132.018  1.00  0.00    -0.508 OA
ATOM     25  H   UNL     1     131.819 140.856 131.889  1.00  0.00     0.293 HD
ENDBRANCH   8  24
TORSDOF 5
ENDMDL
MODEL 6
REMARK VINA RESULT:    -6.877      6.610     10.087
REMARK INTER + INTRA:          -8.364
REMARK INTER:                  -8.074
REMARK INTRA:                  -0.290
REMARK UNBOUND:                -0.281
REMARK SMILES O=c1cc(-c2ccc(O)c(O)c2)oc2cc(O)cc(O)c12
REMARK SMILES IDX 4 1 3 2 2 3 1 4 21 5 19 6 18 7 16 8 15 9 14 10 13 11 5 12
REMARK SMILES IDX 6 13 7 14 8 15 12 16 10 17 9 18 11 20 20 22 17 24
REMARK H PARENT 9 19 11 21 20 23 17 25
REMARK Flexibility Score: inf
ROOT
ATOM      1  C   UNL     1     130.048 134.652 130.113  1.00  0.00     0.138 A 
ATOM      2  C   UNL     1     130.837 133.900 129.232  1.00  0.00     0.100 A 
ATOM      3  C   UNL     1     130.512 132.566 128.982  1.00  0.00     0.197 A 
ATOM      4  O   UNL     1     131.201 131.935 128.140  1.00  0.00    -0.289 OA
ATOM      5  C   UNL     1     129.409 131.975 129.643  1.00  0.00     0.107 A 
ATOM      6  C   UNL     1     129.008 130.613 129.498  1.00  0.00     0.134 A 
ATOM      7  C   UNL     1     127.831 130.170 130.113  1.00  0.00     0.093 A 
ATOM      8  C   UNL     1     127.073 131.022 130.915  1.00  0.00     0.123 A 
ATOM      9  C   UNL     1     127.484 132.342 131.108  1.00  0.00     0.094 A 
ATOM     10  C   UNL     1     128.635 132.822 130.481  1.00  0.00     0.146 A 
ATOM     11  O   UNL     1     128.985 134.089 130.679  1.00  0.00    -0.456 OA
ENDROOT
BRANCH   1  12
ATOM     12  C   UNL     1     130.349 136.075 130.415  1.00  0.00     0.021 A 
ATOM     13  C   UNL     1     129.815 136.720 131.548  1.00  0.00     0.016 A 
ATOM     14  C   UNL     1     130.106 138.062 131.801  1.00  0.00     0.051 A 
ATOM     15  C   UNL     1     130.927 138.785 130.927  1.00  0.00     0.157 A 
ATOM     16  C   UNL     1     131.161 136.813 129.535  1.00  0.00     0.062 A 
ATOM     17  C   UNL     1     131.454 138.160 129.791  1.00  0.00     0.158 A 
BRANCH  15  18
ATOM     18  O   UNL     1     131.220 140.125 131.178  1.00  0.00    -0.504 OA
ATOM     19  H   UNL     1     131.106 140.834 130.465  1.00  0.00     0.293 HD
ENDBRANCH  15  18
BRANCH  17  20
ATOM     20  O   UNL     1     132.268 138.883 128.920  1.00  0.00    -0.504 OA
ATOM     21  H   UNL     1     131.884 139.373 128.120  1.00  0.00     0.293 HD
ENDBRANCH  17  20
ENDBRANCH   1  12
BRANCH   6  22
ATOM     22  O   UNL     1     129.738 129.656 128.787  1.00  0.00    -0.507 OA
ATOM     23  H   UNL     1     129.444 129.232 127.920  1.00  0.00     0.293 HD
ENDBRANCH   6  22
BRANCH   8  24
ATOM     24  O   UNL     1     125.915 130.543 131.524  1.00  0.00    -0.508 OA
ATOM     25  H   UNL     1     125.914 129.685 132.062  1.00  0.00     0.293 HD
ENDBRANCH   8  24
TORSDOF 5
ENDMDL
MODEL 7
REMARK VINA RESULT:    -6.849      6.298      9.587
REMARK INTER + INTRA:          -8.331
REMARK INTER:                  -8.027
REMARK INTRA:                  -0.305
REMARK UNBOUND:                -0.281
REMARK SMILES O=c1cc(-c2ccc(O)c(O)c2)oc2cc(O)cc(O)c12
REMARK SMILES IDX 4 1 3 2 2 3 1 4 21 5 19 6 18 7 16 8 15 9 14 10 13 11 5 12
REMARK SMILES IDX 6 13 7 14 8 15 12 16 10 17 9 18 11 20 20 22 17 24
REMARK H PARENT 9 19 11 21 20 23 17 25
REMARK Flexibility Score: inf
ROOT
ATOM      1  C   UNL     1     129.814 134.365 130.309  1.00  0.00     0.138 A 
ATOM      2  C   UNL     1     128.742 133.894 131.080  1.00  0.00     0.100 A 
ATOM      3  C   UNL     1     128.324 132.570 130.946  1.00  0.00     0.197 A 
ATOM      4  O   UNL     1     127.401 132.159 131.696  1.00  0.00    -0.289 OA
ATOM      5  C   UNL     1     128.964 131.721 130.011  1.00  0.00     0.107 A 
ATOM      6  C   UNL     1     128.598 130.366 129.759  1.00  0.00     0.134 A 
ATOM      7  C   UNL     1     129.378 129.589 128.893  1.00  0.00     0.093 A 
ATOM      8  C   UNL     1     130.474 130.134 128.226  1.00  0.00     0.123 A 
ATOM      9  C   UNL     1     130.810 131.474 128.424  1.00  0.00     0.094 A 
ATOM     10  C   UNL     1     130.072 132.265 129.306  1.00  0.00     0.146 A 
ATOM     11  O   UNL     1     130.433 133.533 129.478  1.00  0.00    -0.456 OA
ENDROOT
BRANCH   1  12
ATOM     12  C   UNL     1     130.298 135.765 130.412  1.00  0.00     0.021 A 
ATOM     13  C   UNL     1     130.194 136.498 131.610  1.00  0.00     0.016 A 
ATOM     14  C   UNL     1     130.649 137.817 131.675  1.00  0.00     0.051 A 
ATOM     15  C   UNL     1     131.206 138.429 130.547  1.00  0.00     0.157 A 
ATOM     16  C   UNL     1     130.847 136.394 129.279  1.00  0.00     0.062 A 
ATOM     17  C   UNL     1     131.303 137.717 129.346  1.00  0.00     0.158 A 
BRANCH  15  18
ATOM     18  O   UNL     1     131.661 139.746 130.609  1.00  0.00    -0.504 OA
ATOM     19  H   UNL     1     131.433 140.348 131.391  1.00  0.00     0.293 HD
ENDBRANCH  15  18
BRANCH  17  20
ATOM     20  O   UNL     1     131.856 138.331 128.222  1.00  0.00    -0.504 OA
ATOM     21  H   UNL     1     131.590 139.269 127.946  1.00  0.00     0.293 HD
ENDBRANCH  17  20
ENDBRANCH   1  12
BRANCH   6  22
ATOM     22  O   UNL     1     127.471 129.746 130.308  1.00  0.00    -0.507 OA
ATOM     23  H   UNL     1     126.530 130.108 130.255  1.00  0.00     0.293 HD
ENDBRANCH   6  22
BRANCH   8  24
ATOM     24  O   UNL     1     131.219 129.336 127.361  1.00  0.00    -0.508 OA
ATOM     25  H   UNL     1     131.013 128.352 127.238  1.00  0.00     0.293 HD
ENDBRANCH   8  24
TORSDOF 5
ENDMDL
MODEL 8
REMARK VINA RESULT:    -6.735      1.830      7.204
REMARK INTER + INTRA:          -8.197
REMARK INTER:                  -7.890
REMARK INTRA:                  -0.307
REMARK UNBOUND:                -0.281
REMARK SMILES O=c1cc(-c2ccc(O)c(O)c2)oc2cc(O)cc(O)c12
REMARK SMILES IDX 4 1 3 2 2 3 1 4 21 5 19 6 18 7 16 8 15 9 14 10 13 11 5 12
REMARK SMILES IDX 6 13 7 14 8 15 12 16 10 17 9 18 11 20 20 22 17 24
REMARK H PARENT 9 19 11 21 20 23 17 25
REMARK Flexibility Score: inf
ROOT
ATOM      1  C   UNL     1     129.134 125.980 129.789  1.00  0.00     0.138 A 
ATOM      2  C   UNL     1     130.191 126.578 130.491  1.00  0.00     0.100 A 
ATOM      3  C   UNL     1     130.464 127.934 130.304  1.00  0.00     0.197 A 
ATOM      4  O   UNL     1     131.378 128.455 130.993  1.00  0.00    -0.289 OA
ATOM      5  C   UNL     1     129.693 128.687 129.387  1.00  0.00     0.107 A 
ATOM      6  C   UNL     1     129.905 130.065 129.085  1.00  0.00     0.134 A 
ATOM      7  C   UNL     1     129.006 130.735 128.246  1.00  0.00     0.093 A 
ATOM      8  C   UNL     1     127.938 130.064 127.652  1.00  0.00     0.123 A 
ATOM      9  C   UNL     1     127.751 128.702 127.897  1.00  0.00     0.094 A 
ATOM     10  C   UNL     1     128.611 128.014 128.756  1.00  0.00     0.146 A 
ATOM     11  O   UNL     1     128.391 126.722 128.975  1.00  0.00    -0.456 OA
ENDROOT
BRANCH   1  12
ATOM     12  C   UNL     1     128.801 124.542 129.950  1.00  0.00     0.021 A 
ATOM     13  C   UNL     1     129.110 123.838 131.130  1.00  0.00     0.016 A 
ATOM     14  C   UNL     1     128.795 122.482 131.249  1.00  0.00     0.051 A 
ATOM     15  C   UNL     1     128.174 121.805 130.193  1.00  0.00     0.157 A 
ATOM     16  C   UNL     1     128.191 123.849 128.888  1.00  0.00     0.062 A 
ATOM     17  C   UNL     1     127.874 122.489 129.009  1.00  0.00     0.158 A 
BRANCH  15  18
ATOM     18  O   UNL     1     127.859 120.452 130.310  1.00  0.00    -0.504 OA
ATOM     19  H   UNL     1     128.466 119.732 129.937  1.00  0.00     0.293 HD
ENDBRANCH  15  18
BRANCH  17  20
ATOM     20  O   UNL     1     127.259 121.811 127.957  1.00  0.00    -0.504 OA
ATOM     21  H   UNL     1     126.465 122.204 127.466  1.00  0.00     0.293 HD
ENDBRANCH  17  20
ENDBRANCH   1  12
BRANCH   6  22
ATOM     22  O   UNL     1     130.990 130.810 129.558  1.00  0.00    -0.507 OA
ATOM     23  H   UNL     1     130.998 131.332 130.421  1.00  0.00     0.293 HD
ENDBRANCH   6  22
BRANCH   8  24
ATOM     24  O   UNL     1     127.072 130.759 126.811  1.00  0.00    -0.508 OA
ATOM     25  H   UNL     1     126.221 131.183 127.159  1.00  0.00     0.293 HD
ENDBRANCH   8  24
TORSDOF 5
ENDMDL
MODEL 9
REMARK VINA RESULT:    -6.713      1.912      7.326
REMARK INTER + INTRA:          -8.171
REMARK INTER:                  -7.895
REMARK INTRA:                  -0.276
REMARK UNBOUND:                -0.281
REMARK SMILES O=c1cc(-c2ccc(O)c(O)c2)oc2cc(O)cc(O)c12
REMARK SMILES IDX 4 1 3 2 2 3 1 4 21 5 19 6 18 7 16 8 15 9 14 10 13 11 5 12
REMARK SMILES IDX 6 13 7 14 8 15 12 16 10 17 9 18 11 20 20 22 17 24
REMARK H PARENT 9 19 11 21 20 23 17 25
REMARK Flexibility Score: inf
ROOT
ATOM      1  C   UNL     1     129.505 124.756 130.665  1.00  0.00     0.138 A 
ATOM      2  C   UNL     1     129.132 125.911 129.963  1.00  0.00     0.100 A 
ATOM      3  C   UNL     1     129.879 127.080 130.111  1.00  0.00     0.197 A 
ATOM      4  O   UNL     1     129.556 128.082 129.422  1.00  0.00    -0.289 OA
ATOM      5  C   UNL     1     130.988 127.100 130.991  1.00  0.00     0.107 A 
ATOM      6  C   UNL     1     131.797 128.245 131.253  1.00  0.00     0.134 A 
ATOM      7  C   UNL     1     132.939 128.116 132.054  1.00  0.00     0.093 A 
ATOM      8  C   UNL     1     133.266 126.899 132.651  1.00  0.00     0.123 A 
ATOM      9  C   UNL     1     132.451 125.784 132.445  1.00  0.00     0.094 A 
ATOM     10  C   UNL     1     131.325 125.873 131.624  1.00  0.00     0.146 A 
ATOM     11  O   UNL     1     130.583 124.786 131.442  1.00  0.00    -0.456 OA
ENDROOT
BRANCH   1  12
ATOM     12  C   UNL     1     128.745 123.486 130.544  1.00  0.00     0.021 A 
ATOM     13  C   UNL     1     128.459 122.686 131.667  1.00  0.00     0.016 A 
ATOM     14  C   UNL     1     127.752 121.489 131.522  1.00  0.00     0.051 A 
ATOM     15  C   UNL     1     127.326 121.068 130.257  1.00  0.00     0.157 A 
ATOM     16  C   UNL     1     128.326 123.047 129.275  1.00  0.00     0.062 A 
ATOM     17  C   UNL     1     127.615 121.848 129.131  1.00  0.00     0.158 A 
BRANCH  15  18
ATOM     18  O   UNL     1     126.619 119.875 130.110  1.00  0.00    -0.504 OA
ATOM     19  H   UNL     1     125.627 119.869 129.909  1.00  0.00     0.293 HD
ENDBRANCH  15  18
BRANCH  17  20
ATOM     20  O   UNL     1     127.193 121.424 127.871  1.00  0.00    -0.504 OA
ATOM     21  H   UNL     1     126.685 122.039 127.248  1.00  0.00     0.293 HD
ENDBRANCH  17  20
ENDBRANCH   1  12
BRANCH   6  22
ATOM     22  O   UNL     1     131.513 129.528 130.775  1.00  0.00    -0.507 OA
ATOM     23  H   UNL     1     132.091 130.044 130.128  1.00  0.00     0.293 HD
ENDBRANCH   6  22
BRANCH   8  24
ATOM     24  O   UNL     1     134.400 126.810 133.454  1.00  0.00    -0.508 OA
ATOM     25  H   UNL     1     134.343 126.516 134.421  1.00  0.00     0.293 HD
ENDBRANCH   8  24
TORSDOF 5
ENDMDL
