MODEL 1
REMARK VINA RESULT:    -3.659      0.000      0.000
REMARK INTER + INTRA:          -8.105
REMARK INTER:                  -6.226
REMARK INTRA:                  -1.879
REMARK UNBOUND:                -1.879
REMARK SMILES CCCCCCCCCCCCCC(=O)[O-]
REMARK SMILES IDX 8 1 9 2 10 3 11 4 12 5 13 6 14 7 15 8 16 9 7 10 6 11 5 12
REMARK SMILES IDX 4 13 3 14 2 15 1 16
REMARK H PARENT
REMARK Flexibility Score: inf
ROOT
ATOM      1  C   UNL     1      30.655  33.237   3.875  1.00  0.00     0.000 C 
ENDROOT
BRANCH   1   2
ATOM      2  C   UNL     1      29.218  32.824   3.533  1.00  0.00     0.000 C 
BRANCH   2   3
ATOM      3  C   UNL     1      28.218  33.905   3.970  1.00  0.00     0.000 C 
BRANCH   3   4
ATOM      4  C   UNL     1      26.778  33.594   3.529  1.00  0.00     0.000 C 
BRANCH   4   5
ATOM      5  C   UNL     1      26.673  33.277   2.028  1.00  0.00     0.006 C 
BRANCH   5   6
ATOM      6  C   UNL     1      25.953  34.387   1.251  1.00  0.00     0.053 C 
BRANCH   6   7
ATOM      7  C   UNL     1      24.577  33.970   0.828  1.00  0.00     0.041 C 
ATOM      8  O   UNL     1      23.701  34.840   0.581  1.00  0.00    -0.550 OA
ATOM      9  O   UNL     1      24.255  32.622   0.735  1.00  0.00    -0.550 OA
ENDBRANCH   6   7
ENDBRANCH   5   6
ENDBRANCH   4   5
ENDBRANCH   3   4
ENDBRANCH   2   3
ENDBRANCH   1   2
BRANCH   1  10
ATOM     10  C   UNL     1      31.578  33.073   2.659  1.00  0.00     0.000 C 
BRANCH  10  11
ATOM     11  C   UNL     1      30.803  32.846   1.348  1.00  0.00    -0.000 C 
BRANCH  11  12
ATOM     12  C   UNL     1      30.777  34.051   0.386  1.00  0.00    -0.000 C 
BRANCH  12  13
ATOM     13  C   UNL     1      29.535  34.954   0.498  1.00  0.00    -0.000 C 
BRANCH  13  14
ATOM     14  C   UNL     1      29.886  36.415   0.826  1.00  0.00    -0.000 C 
BRANCH  14  15
ATOM     15  C   UNL     1      30.255  36.614   2.304  1.00  0.00    -0.003 C 
ATOM     16  C   UNL     1      29.139  37.281   3.109  1.00  0.00     0.004 C 
ENDBRANCH  14  15
ENDBRANCH  13  14
ENDBRANCH  12  13
ENDBRANCH  11  12
ENDBRANCH  10  11
ENDBRANCH   1  10
TORSDOF 12
ENDMDL
MODEL 2
REMARK VINA RESULT:    -3.650      3.669      5.537
REMARK INTER + INTRA:          -8.089
REMARK INTER:                  -6.183
REMARK INTRA:                  -1.906
REMARK UNBOUND:                -1.879
REMARK SMILES CCCCCCCCCCCCCC(=O)[O-]
REMARK SMILES IDX 8 1 9 2 10 3 11 4 12 5 13 6 14 7 15 8 16 9 7 10 6 11 5 12
REMARK SMILES IDX 4 13 3 14 2 15 1 16
REMARK H PARENT
REMARK Flexibility Score: inf
ROOT
ATOM      1  C   UNL     1      28.386  34.257   3.966  1.00  0.00     0.000 C 
ENDROOT
BRANCH   1   2
ATOM      2  C   UNL     1      28.683  35.421   3.012  1.00  0.00     0.000 C 
BRANCH   2   3
ATOM      3  C   UNL     1      30.096  35.300   2.421  1.00  0.00     0.000 C 
BRANCH   3   4
ATOM      4  C   UNL     1      30.132  34.451   1.140  1.00  0.00     0.000 C 
BRANCH   4   5
ATOM      5  C   UNL     1      30.745  33.059   1.370  1.00  0.00     0.006 C 
BRANCH   5   6
ATOM      6  C   UNL     1      31.575  32.999   2.658  1.00  0.00     0.053 C 
BRANCH   6   7
ATOM      7  C   UNL     1      33.046  33.054   2.379  1.00  0.00     0.041 C 
ATOM      8  O   UNL     1      33.498  32.635   1.281  1.00  0.00    -0.550 OA
ATOM      9  O   UNL     1      33.920  33.541   3.343  1.00  0.00    -0.550 OA
ENDBRANCH   6   7
ENDBRANCH   5   6
ENDBRANCH   4   5
ENDBRANCH   3   4
ENDBRANCH   2   3
ENDBRANCH   1   2
BRANCH   1  10
ATOM     10  C   UNL     1      27.044  33.595   3.623  1.00  0.00     0.000 C 
BRANCH  10  11
ATOM     11  C   UNL     1      27.044  32.927   2.236  1.00  0.00    -0.000 C 
BRANCH  11  12
ATOM     12  C   UNL     1      26.003  33.480   1.242  1.00  0.00    -0.000 C 
BRANCH  12  13
ATOM     13  C   UNL     1      26.585  34.268   0.053  1.00  0.00    -0.000 C 
BRANCH  13  14
ATOM     14  C   UNL     1      26.348  35.783   0.167  1.00  0.00    -0.000 C 
BRANCH  14  15
ATOM     15  C   UNL     1      25.382  36.143   1.306  1.00  0.00    -0.003 C 
ATOM     16  C   UNL     1      25.700  37.493   1.950  1.00  0.00     0.004 C 
ENDBRANCH  14  15
ENDBRANCH  13  14
ENDBRANCH  12  13
ENDBRANCH  11  12
ENDBRANCH  10  11
ENDBRANCH   1  10
TORSDOF 12
ENDMDL
MODEL 3
REMARK VINA RESULT:    -3.613      2.832      4.539
REMARK INTER + INTRA:          -8.027
REMARK INTER:                  -6.019
REMARK INTRA:                  -2.008
REMARK UNBOUND:                -1.879
REMARK SMILES CCCCCCCCCCCCCC(=O)[O-]
REMARK SMILES IDX 8 1 9 2 10 3 11 4 12 5 13 6 14 7 15 8 16 9 7 10 6 11 5 12
REMARK SMILES IDX 4 13 3 14 2 15 1 16
REMARK H PARENT
REMARK Flexibility Score: inf
ROOT
ATOM      1  C   UNL     1      27.198  33.405   3.854  1.00  0.00     0.000 C 
ENDROOT
BRANCH   1   2
ATOM      2  C   UNL     1      28.570  34.015   4.171  1.00  0.00     0.000 C 
BRANCH   2   3
ATOM      3  C   UNL     1      29.695  33.005   3.901  1.00  0.00     0.000 C 
BRANCH   3   4
ATOM      4  C   UNL     1      30.792  33.570   2.984  1.00  0.00     0.000 C 
BRANCH   4   5
ATOM      5  C   UNL     1      30.792  32.919   1.590  1.00  0.00     0.006 C 
BRANCH   5   6
ATOM      6  C   UNL     1      31.828  33.555   0.655  1.00  0.00     0.053 C 
BRANCH   6   7
ATOM      7  C   UNL     1      31.535  33.262  -0.786  1.00  0.00     0.041 C 
ATOM      8  O   UNL     1      30.628  33.894  -1.388  1.00  0.00    -0.550 OA
ATOM      9  O   UNL     1      32.245  32.272  -1.453  1.00  0.00    -0.550 OA
ENDBRANCH   6   7
ENDBRANCH   5   6
ENDBRANCH   4   5
ENDBRANCH   3   4
ENDBRANCH   2   3
ENDBRANCH   1   2
BRANCH   1  10
ATOM     10  C   UNL     1      27.106  33.000   2.375  1.00  0.00     0.000 C 
BRANCH  10  11
ATOM     11  C   UNL     1      26.099  33.855   1.583  1.00  0.00    -0.000 C 
BRANCH  11  12
ATOM     12  C   UNL     1      26.631  35.223   1.111  1.00  0.00    -0.000 C 
BRANCH  12  13
ATOM     13  C   UNL     1      28.064  35.211   0.547  1.00  0.00    -0.000 C 
BRANCH  13  14
ATOM     14  C   UNL     1      28.964  36.285   1.181  1.00  0.00    -0.000 C 
BRANCH  14  15
ATOM     15  C   UNL     1      28.236  37.099   2.262  1.00  0.00    -0.003 C 
ATOM     16  C   UNL     1      29.172  37.589   3.367  1.00  0.00     0.004 C 
ENDBRANCH  14  15
ENDBRANCH  13  14
ENDBRANCH  12  13
ENDBRANCH  11  12
ENDBRANCH  10  11
ENDBRANCH   1  10
TORSDOF 12
ENDMDL
MODEL 4
REMARK VINA RESULT:    -3.606      3.190      4.890
REMARK INTER + INTRA:          -8.014
REMARK INTER:                  -6.085
REMARK INTRA:                  -1.929
REMARK UNBOUND:                -1.879
REMARK SMILES CCCCCCCCCCCCCC(=O)[O-]
REMARK SMILES IDX 8 1 9 2 10 3 11 4 12 5 13 6 14 7 15 8 16 9 7 10 6 11 5 12
REMARK SMILES IDX 4 13 3 14 2 15 1 16
REMARK H PARENT
REMARK Flexibility Score: inf
ROOT
ATOM      1  C   UNL     1      26.859  32.989   2.118  1.00  0.00     0.000 C 
ENDROOT
BRANCH   1   2
ATOM      2  C   UNL     1      26.773  33.622   3.513  1.00  0.00     0.000 C 
BRANCH   2   3
ATOM      3  C   UNL     1      28.171  33.957   4.051  1.00  0.00     0.000 C 
BRANCH   3   4
ATOM      4  C   UNL     1      29.245  32.967   3.572  1.00  0.00     0.000 C 
BRANCH   4   5
ATOM      5  C   UNL     1      30.465  33.670   2.953  1.00  0.00     0.006 C 
BRANCH   5   6
ATOM      6  C   UNL     1      30.575  33.414   1.444  1.00  0.00     0.053 C 
BRANCH   6   7
ATOM      7  C   UNL     1      31.946  32.951   1.054  1.00  0.00     0.041 C 
ATOM      8  O   UNL     1      32.294  32.954  -0.156  1.00  0.00    -0.550 OA
ATOM      9  O   UNL     1      32.827  32.489   2.023  1.00  0.00    -0.550 OA
ENDBRANCH   6   7
ENDBRANCH   5   6
ENDBRANCH   4   5
ENDBRANCH   3   4
ENDBRANCH   2   3
ENDBRANCH   1   2
BRANCH   1  10
ATOM     10  C   UNL     1      25.638  33.366   1.267  1.00  0.00     0.000 C 
BRANCH  10  11
ATOM     11  C   UNL     1      26.023  34.016  -0.075  1.00  0.00    -0.000 C 
BRANCH  11  12
ATOM     12  C   UNL     1      26.927  35.261   0.036  1.00  0.00    -0.000 C 
BRANCH  12  13
ATOM     13  C   UNL     1      26.282  36.481   0.720  1.00  0.00    -0.000 C 
BRANCH  13  14
ATOM     14  C   UNL     1      27.063  36.953   1.958  1.00  0.00    -0.000 C 
BRANCH  14  15
ATOM     15  C   UNL     1      28.581  36.774   1.800  1.00  0.00    -0.003 C 
ATOM     16  C   UNL     1      29.370  37.318   2.990  1.00  0.00     0.004 C 
ENDBRANCH  14  15
ENDBRANCH  13  14
ENDBRANCH  12  13
ENDBRANCH  11  12
ENDBRANCH  10  11
ENDBRANCH   1  10
TORSDOF 12
ENDMDL
MODEL 5
REMARK VINA RESULT:    -3.597      1.063      2.388
REMARK INTER + INTRA:          -7.999
REMARK INTER:                  -6.384
REMARK INTRA:                  -1.615
REMARK UNBOUND:                -1.879
REMARK SMILES CCCCCCCCCCCCCC(=O)[O-]
REMARK SMILES IDX 8 1 9 2 10 3 11 4 12 5 13 6 14 7 15 8 16 9 7 10 6 11 5 12
REMARK SMILES IDX 4 13 3 14 2 15 1 16
REMARK H PARENT
REMARK Flexibility Score: inf
ROOT
ATOM      1  C   UNL     1      28.566  33.981   4.205  1.00  0.00     0.000 C 
ENDROOT
BRANCH   1   2
ATOM      2  C   UNL     1      27.187  33.725   3.585  1.00  0.00     0.000 C 
BRANCH   2   3
ATOM      3  C   UNL     1      27.313  32.961   2.259  1.00  0.00     0.000 C 
BRANCH   3   4
ATOM      4  C   UNL     1      26.616  33.678   1.092  1.00  0.00     0.000 C 
BRANCH   4   5
ATOM      5  C   UNL     1      25.125  33.941   1.365  1.00  0.00     0.006 C 
BRANCH   5   6
ATOM      6  C   UNL     1      24.230  32.823   0.813  1.00  0.00     0.053 C 
BRANCH   6   7
ATOM      7  C   UNL     1      23.275  33.330  -0.223  1.00  0.00     0.041 C 
ATOM      8  O   UNL     1      22.585  32.522  -0.899  1.00  0.00    -0.550 OA
ATOM      9  O   UNL     1      23.169  34.694  -0.464  1.00  0.00    -0.550 OA
ENDBRANCH   6   7
ENDBRANCH   5   6
ENDBRANCH   4   5
ENDBRANCH   3   4
ENDBRANCH   2   3
ENDBRANCH   1   2
BRANCH   1  10
ATOM     10  C   UNL     1      29.549  32.858   3.842  1.00  0.00     0.000 C 
BRANCH  10  11
ATOM     11  C   UNL     1      30.985  33.368   3.621  1.00  0.00    -0.000 C 
BRANCH  11  12
ATOM     12  C   UNL     1      31.654  32.898   2.314  1.00  0.00    -0.000 C 
BRANCH  12  13
ATOM     13  C   UNL     1      30.748  32.921   1.068  1.00  0.00    -0.000 C 
BRANCH  13  14
ATOM     14  C   UNL     1      31.032  34.119   0.146  1.00  0.00    -0.000 C 
BRANCH  14  15
ATOM     15  C   UNL     1      29.836  35.078   0.042  1.00  0.00    -0.003 C 
ATOM     16  C   UNL     1      29.652  35.936   1.294  1.00  0.00     0.004 C 
ENDBRANCH  14  15
ENDBRANCH  13  14
ENDBRANCH  12  13
ENDBRANCH  11  12
ENDBRANCH  10  11
ENDBRANCH   1  10
TORSDOF 12
ENDMDL
MODEL 6
REMARK VINA RESULT:    -3.589      1.383      2.631
REMARK INTER + INTRA:          -7.985
REMARK INTER:                  -6.646
REMARK INTRA:                  -1.339
REMARK UNBOUND:                -1.879
REMARK SMILES CCCCCCCCCCCCCC(=O)[O-]
REMARK SMILES IDX 8 1 9 2 10 3 11 4 12 5 13 6 14 7 15 8 16 9 7 10 6 11 5 12
REMARK SMILES IDX 4 13 3 14 2 15 1 16
REMARK H PARENT
REMARK Flexibility Score: inf
ROOT
ATOM      1  C   UNL     1      29.712  33.437   3.423  1.00  0.00     0.000 C 
ENDROOT
BRANCH   1   2
ATOM      2  C   UNL     1      28.446  33.645   4.264  1.00  0.00     0.000 C 
BRANCH   2   3
ATOM      3  C   UNL     1      27.253  34.027   3.376  1.00  0.00     0.000 C 
BRANCH   3   4
ATOM      4  C   UNL     1      26.846  32.900   2.412  1.00  0.00     0.000 C 
BRANCH   4   5
ATOM      5  C   UNL     1      26.186  33.429   1.128  1.00  0.00     0.006 C 
BRANCH   5   6
ATOM      6  C   UNL     1      24.728  33.850   1.358  1.00  0.00     0.053 C 
BRANCH   6   7
ATOM      7  C   UNL     1      23.837  33.416   0.235  1.00  0.00     0.041 C 
ATOM      8  O   UNL     1      23.575  34.209  -0.708  1.00  0.00    -0.550 OA
ATOM      9  O   UNL     1      23.270  32.148   0.246  1.00  0.00    -0.550 OA
ENDBRANCH   6   7
ENDBRANCH   5   6
ENDBRANCH   4   5
ENDBRANCH   3   4
ENDBRANCH   2   3
ENDBRANCH   1   2
BRANCH   1  10
ATOM     10  C   UNL     1      29.932  34.612   2.460  1.00  0.00     0.000 C 
BRANCH  10  11
ATOM     11  C   UNL     1      30.139  34.160   1.003  1.00  0.00    -0.000 C 
BRANCH  11  12
ATOM     12  C   UNL     1      30.930  32.848   0.830  1.00  0.00    -0.000 C 
BRANCH  12  13
ATOM     13  C   UNL     1      32.463  32.999   0.845  1.00  0.00    -0.000 C 
BRANCH  13  14
ATOM     14  C   UNL     1      33.108  32.410   2.112  1.00  0.00    -0.000 C 
BRANCH  14  15
ATOM     15  C   UNL     1      33.493  33.492   3.133  1.00  0.00    -0.003 C 
ATOM     16  C   UNL     1      33.662  34.873   2.499  1.00  0.00     0.004 C 
ENDBRANCH  14  15
ENDBRANCH  13  14
ENDBRANCH  12  13
ENDBRANCH  11  12
ENDBRANCH  10  11
ENDBRANCH   1  10
TORSDOF 12
ENDMDL
MODEL 7
REMARK VINA RESULT:    -3.503      3.752      5.562
REMARK INTER + INTRA:          -7.839
REMARK INTER:                  -5.949
REMARK INTRA:                  -1.890
REMARK UNBOUND:                -1.879
REMARK SMILES CCCCCCCCCCCCCC(=O)[O-]
REMARK SMILES IDX 8 1 9 2 10 3 11 4 12 5 13 6 14 7 15 8 16 9 7 10 6 11 5 12
REMARK SMILES IDX 4 13 3 14 2 15 1 16
REMARK H PARENT
REMARK Flexibility Score: inf
ROOT
ATOM      1  C   UNL     1      27.129  32.890   2.390  1.00  0.00     0.000 C 
ENDROOT
BRANCH   1   2
ATOM      2  C   UNL     1      27.165  33.638   3.729  1.00  0.00     0.000 C 
BRANCH   2   3
ATOM      3  C   UNL     1      28.607  33.786   4.236  1.00  0.00     0.000 C 
BRANCH   3   4
ATOM      4  C   UNL     1      29.606  32.928   3.443  1.00  0.00     0.000 C 
BRANCH   4   5
ATOM      5  C   UNL     1      31.068  33.210   3.832  1.00  0.00     0.006 C 
BRANCH   5   6
ATOM      6  C   UNL     1      32.046  32.843   2.708  1.00  0.00     0.053 C 
BRANCH   6   7
ATOM      7  C   UNL     1      33.364  33.540   2.864  1.00  0.00     0.041 C 
ATOM      8  O   UNL     1      34.051  33.829   1.849  1.00  0.00    -0.550 OA
ATOM      9  O   UNL     1      33.846  33.841   4.131  1.00  0.00    -0.550 OA
ENDBRANCH   6   7
ENDBRANCH   5   6
ENDBRANCH   4   5
ENDBRANCH   3   4
ENDBRANCH   2   3
ENDBRANCH   1   2
BRANCH   1  10
ATOM     10  C   UNL     1      26.404  33.717   1.318  1.00  0.00     0.000 C 
BRANCH  10  11
ATOM     11  C   UNL     1      26.007  35.120   1.813  1.00  0.00    -0.000 C 
BRANCH  11  12
ATOM     12  C   UNL     1      26.816  36.283   1.203  1.00  0.00    -0.000 C 
BRANCH  12  13
ATOM     13  C   UNL     1      28.118  36.637   1.945  1.00  0.00    -0.000 C 
BRANCH  13  14
ATOM     14  C   UNL     1      29.308  36.849   0.994  1.00  0.00    -0.000 C 
BRANCH  14  15
ATOM     15  C   UNL     1      30.283  35.662   0.998  1.00  0.00    -0.003 C 
ATOM     16  C   UNL     1      29.835  34.522   0.084  1.00  0.00     0.004 C 
ENDBRANCH  14  15
ENDBRANCH  13  14
ENDBRANCH  12  13
ENDBRANCH  11  12
ENDBRANCH  10  11
ENDBRANCH   1  10
TORSDOF 12
ENDMDL
MODEL 8
REMARK VINA RESULT:    -3.482      3.868      6.408
REMARK INTER + INTRA:          -7.804
REMARK INTER:                  -6.532
REMARK INTRA:                  -1.272
REMARK UNBOUND:                -1.879
REMARK SMILES CCCCCCCCCCCCCC(=O)[O-]
REMARK SMILES IDX 8 1 9 2 10 3 11 4 12 5 13 6 14 7 15 8 16 9 7 10 6 11 5 12
REMARK SMILES IDX 4 13 3 14 2 15 1 16
REMARK H PARENT
REMARK Flexibility Score: inf
ROOT
ATOM      1  C   UNL     1      28.847  35.475   2.864  1.00  0.00     0.000 C 
ENDROOT
BRANCH   1   2
ATOM      2  C   UNL     1      30.283  35.287   2.357  1.00  0.00     0.000 C 
BRANCH   2   3
ATOM      3  C   UNL     1      30.306  34.444   1.074  1.00  0.00     0.000 C 
BRANCH   3   4
ATOM      4  C   UNL     1      30.774  33.000   1.320  1.00  0.00     0.000 C 
BRANCH   4   5
ATOM      5  C   UNL     1      31.615  32.861   2.600  1.00  0.00     0.006 C 
BRANCH   5   6
ATOM      6  C   UNL     1      33.120  32.816   2.301  1.00  0.00     0.053 C 
BRANCH   6   7
ATOM      7  C   UNL     1      33.823  34.047   2.784  1.00  0.00     0.041 C 
ATOM      8  O   UNL     1      33.933  35.050   2.031  1.00  0.00    -0.550 OA
ATOM      9  O   UNL     1      34.384  34.075   4.055  1.00  0.00    -0.550 OA
ENDBRANCH   6   7
ENDBRANCH   5   6
ENDBRANCH   4   5
ENDBRANCH   3   4
ENDBRANCH   2   3
ENDBRANCH   1   2
BRANCH   1  10
ATOM     10  C   UNL     1      28.493  34.416   3.918  1.00  0.00     0.000 C 
BRANCH  10  11
ATOM     11  C   UNL     1      27.168  33.691   3.616  1.00  0.00    -0.000 C 
BRANCH  11  12
ATOM     12  C   UNL     1      27.139  32.907   2.288  1.00  0.00    -0.000 C 
BRANCH  12  13
ATOM     13  C   UNL     1      26.349  33.577   1.148  1.00  0.00    -0.000 C 
BRANCH  13  14
ATOM     14  C   UNL     1      24.852  33.728   1.468  1.00  0.00    -0.000 C 
BRANCH  14  15
ATOM     15  C   UNL     1      23.970  32.828   0.590  1.00  0.00    -0.003 C 
ATOM     16  C   UNL     1      23.425  33.550  -0.643  1.00  0.00     0.004 C 
ENDBRANCH  14  15
ENDBRANCH  13  14
ENDBRANCH  12  13
ENDBRANCH  11  12
ENDBRANCH  10  11
ENDBRANCH   1  10
TORSDOF 12
ENDMDL
MODEL 9
REMARK VINA RESULT:    -3.463      3.998      6.188
REMARK INTER + INTRA:          -7.771
REMARK INTER:                  -6.067
REMARK INTRA:                  -1.704
REMARK UNBOUND:                -1.879
REMARK SMILES CCCCCCCCCCCCCC(=O)[O-]
REMARK SMILES IDX 8 1 9 2 10 3 11 4 12 5 13 6 14 7 15 8 16 9 7 10 6 11 5 12
REMARK SMILES IDX 4 13 3 14 2 15 1 16
REMARK H PARENT
REMARK Flexibility Score: inf
ROOT
ATOM      1  C   UNL     1      29.820  34.948   2.396  1.00  0.00     0.000 C 
ENDROOT
BRANCH   1   2
ATOM      2  C   UNL     1      30.425  34.603   1.029  1.00  0.00     0.000 C 
BRANCH   2   3
ATOM      3  C   UNL     1      30.925  33.151   1.000  1.00  0.00     0.000 C 
BRANCH   3   4
ATOM      4  C   UNL     1      32.444  33.051   0.787  1.00  0.00     0.000 C 
BRANCH   4   5
ATOM      5  C   UNL     1      33.175  32.467   2.008  1.00  0.00     0.006 C 
BRANCH   5   6
ATOM      6  C   UNL     1      33.386  33.513   3.110  1.00  0.00     0.053 C 
BRANCH   6   7
ATOM      7  C   UNL     1      34.020  34.763   2.581  1.00  0.00     0.041 C 
ATOM      8  O   UNL     1      33.383  35.849   2.592  1.00  0.00    -0.550 OA
ATOM      9  O   UNL     1      35.303  34.722   2.050  1.00  0.00    -0.550 OA
ENDBRANCH   6   7
ENDBRANCH   5   6
ENDBRANCH   4   5
ENDBRANCH   3   4
ENDBRANCH   2   3
ENDBRANCH   1   2
BRANCH   1  10
ATOM     10  C   UNL     1      29.814  33.722   3.320  1.00  0.00     0.000 C 
BRANCH  10  11
ATOM     11  C   UNL     1      28.590  33.681   4.252  1.00  0.00    -0.000 C 
BRANCH  11  12
ATOM     12  C   UNL     1      27.228  33.871   3.553  1.00  0.00    -0.000 C 
BRANCH  12  13
ATOM     13  C   UNL     1      26.912  32.851   2.444  1.00  0.00    -0.000 C 
BRANCH  13  14
ATOM     14  C   UNL     1      25.998  33.424   1.348  1.00  0.00    -0.000 C 
BRANCH  14  15
ATOM     15  C   UNL     1      26.769  34.272   0.324  1.00  0.00    -0.003 C 
ATOM     16  C   UNL     1      26.587  35.774   0.539  1.00  0.00     0.004 C 
ENDBRANCH  14  15
ENDBRANCH  13  14
ENDBRANCH  12  13
ENDBRANCH  11  12
ENDBRANCH  10  11
ENDBRANCH   1  10
TORSDOF 12
ENDMDL
