MODEL 1
REMARK VINA RESULT:    -4.126      0.000      0.000
REMARK INTER + INTRA:          -8.301
REMARK INTER:                  -7.020
REMARK INTRA:                  -1.281
REMARK UNBOUND:                -1.281
REMARK SMILES CCCCCCCCCCCCCC(=O)[O-]
REMARK SMILES IDX 8 1 9 2 10 3 11 4 12 5 13 6 14 7 15 8 16 9 7 10 6 11 5 12
REMARK SMILES IDX 4 13 3 14 2 15 1 16
REMARK H PARENT
REMARK Flexibility Score: inf
ROOT
ATOM      1  C   UNL     1       1.327   7.620   4.594  1.00  0.00     0.000 C 
ENDROOT
BRANCH   1   2
ATOM      2  C   UNL     1       1.677   6.610   3.486  1.00  0.00     0.000 C 
BRANCH   2   3
ATOM      3  C   UNL     1       3.118   6.062   3.533  1.00  0.00     0.000 C 
BRANCH   3   4
ATOM      4  C   UNL     1       3.237   4.564   3.865  1.00  0.00     0.000 C 
BRANCH   4   5
ATOM      5  C   UNL     1       4.512   4.229   4.657  1.00  0.00     0.006 C 
BRANCH   5   6
ATOM      6  C   UNL     1       4.241   4.093   6.161  1.00  0.00     0.053 C 
BRANCH   6   7
ATOM      7  C   UNL     1       5.512   4.026   6.952  1.00  0.00     0.041 C 
ATOM      8  O   UNL     1       6.462   3.294   6.565  1.00  0.00    -0.550 OA
ATOM      9  O   UNL     1       5.658   4.793   8.100  1.00  0.00    -0.550 OA
ENDBRANCH   6   7
ENDBRANCH   5   6
ENDBRANCH   4   5
ENDBRANCH   3   4
ENDBRANCH   2   3
ENDBRANCH   1   2
BRANCH   1  10
ATOM     10  C   UNL     1       1.520   7.048   6.006  1.00  0.00     0.000 C 
BRANCH  10  11
ATOM     11  C   UNL     1       0.637   7.786   7.022  1.00  0.00    -0.000 C 
BRANCH  11  12
ATOM     12  C   UNL     1      -0.095   8.995   6.414  1.00  0.00    -0.000 C 
BRANCH  12  13
ATOM     13  C   UNL     1      -1.633   8.882   6.382  1.00  0.00    -0.000 C 
BRANCH  13  14
ATOM     14  C   UNL     1      -2.204   8.104   5.184  1.00  0.00    -0.000 C 
BRANCH  14  15
ATOM     15  C   UNL     1      -2.577   6.657   5.534  1.00  0.00    -0.003 C 
ATOM     16  C   UNL     1      -1.838   5.667   4.639  1.00  0.00     0.004 C 
ENDBRANCH  14  15
ENDBRANCH  13  14
ENDBRANCH  12  13
ENDBRANCH  11  12
ENDBRANCH  10  11
ENDBRANCH   1  10
TORSDOF 12
ENDMDL
MODEL 2
REMARK VINA RESULT:    -4.030     12.376     14.372
REMARK INTER + INTRA:          -8.139
REMARK INTER:                  -7.292
REMARK INTRA:                  -0.847
REMARK UNBOUND:                -1.281
REMARK SMILES CCCCCCCCCCCCCC(=O)[O-]
REMARK SMILES IDX 8 1 9 2 10 3 11 4 12 5 13 6 14 7 15 8 16 9 7 10 6 11 5 12
REMARK SMILES IDX 4 13 3 14 2 15 1 16
REMARK H PARENT
REMARK Flexibility Score: inf
ROOT
ATOM      1  C   UNL     1      -2.701  -4.368   0.947  1.00  0.00     0.000 C 
ENDROOT
BRANCH   1   2
ATOM      2  C   UNL     1      -2.186  -5.502   1.852  1.00  0.00     0.000 C 
BRANCH   2   3
ATOM      3  C   UNL     1      -2.616  -5.405   3.331  1.00  0.00     0.000 C 
BRANCH   3   4
ATOM      4  C   UNL     1      -3.455  -4.166   3.688  1.00  0.00     0.000 C 
BRANCH   4   5
ATOM      5  C   UNL     1      -4.253  -4.340   4.991  1.00  0.00     0.006 C 
BRANCH   5   6
ATOM      6  C   UNL     1      -5.603  -3.612   4.945  1.00  0.00     0.053 C 
BRANCH   6   7
ATOM      7  C   UNL     1      -5.998  -3.087   6.292  1.00  0.00     0.041 C 
ATOM      8  O   UNL     1      -6.207  -1.857   6.457  1.00  0.00    -0.550 OA
ATOM      9  O   UNL     1      -6.163  -3.963   7.357  1.00  0.00    -0.550 OA
ENDBRANCH   6   7
ENDBRANCH   5   6
ENDBRANCH   4   5
ENDBRANCH   3   4
ENDBRANCH   2   3
ENDBRANCH   1   2
BRANCH   1  10
ATOM     10  C   UNL     1      -3.450  -4.884  -0.288  1.00  0.00     0.000 C 
BRANCH  10  11
ATOM     11  C   UNL     1      -2.472  -5.444  -1.331  1.00  0.00    -0.000 C 
BRANCH  11  12
ATOM     12  C   UNL     1      -3.159  -6.335  -2.380  1.00  0.00    -0.000 C 
BRANCH  12  13
ATOM     13  C   UNL     1      -4.564  -6.838  -1.991  1.00  0.00    -0.000 C 
BRANCH  13  14
ATOM     14  C   UNL     1      -5.710  -6.318  -2.877  1.00  0.00    -0.000 C 
BRANCH  14  15
ATOM     15  C   UNL     1      -5.341  -5.039  -3.640  1.00  0.00    -0.003 C 
ATOM     16  C   UNL     1      -5.913  -3.804  -2.950  1.00  0.00     0.004 C 
ENDBRANCH  14  15
ENDBRANCH  13  14
ENDBRANCH  12  13
ENDBRANCH  11  12
ENDBRANCH  10  11
ENDBRANCH   1  10
TORSDOF 12
ENDMDL
MODEL 3
REMARK VINA RESULT:    -4.020     12.087     14.433
REMARK INTER + INTRA:          -8.122
REMARK INTER:                  -7.151
REMARK INTRA:                  -0.970
REMARK UNBOUND:                -1.281
REMARK SMILES CCCCCCCCCCCCCC(=O)[O-]
REMARK SMILES IDX 8 1 9 2 10 3 11 4 12 5 13 6 14 7 15 8 16 9 7 10 6 11 5 12
REMARK SMILES IDX 4 13 3 14 2 15 1 16
REMARK H PARENT
REMARK Flexibility Score: inf
ROOT
ATOM      1  C   UNL     1      -1.354  -5.776   2.737  1.00  0.00     0.000 C 
ENDROOT
BRANCH   1   2
ATOM      2  C   UNL     1      -2.830  -5.982   3.123  1.00  0.00     0.000 C 
BRANCH   2   3
ATOM      3  C   UNL     1      -3.416  -4.910   4.063  1.00  0.00     0.000 C 
BRANCH   3   4
ATOM      4  C   UNL     1      -2.576  -4.610   5.318  1.00  0.00     0.000 C 
BRANCH   4   5
ATOM      5  C   UNL     1      -3.436  -4.250   6.540  1.00  0.00     0.006 C 
BRANCH   5   6
ATOM      6  C   UNL     1      -4.400  -3.092   6.250  1.00  0.00     0.053 C 
BRANCH   6   7
ATOM      7  C   UNL     1      -5.797  -3.406   6.690  1.00  0.00     0.041 C 
ATOM      8  O   UNL     1      -6.771  -2.764   6.217  1.00  0.00    -0.550 OA
ATOM      9  O   UNL     1      -6.024  -4.428   7.603  1.00  0.00    -0.550 OA
ENDBRANCH   6   7
ENDBRANCH   5   6
ENDBRANCH   4   5
ENDBRANCH   3   4
ENDBRANCH   2   3
ENDBRANCH   1   2
BRANCH   1  10
ATOM     10  C   UNL     1      -0.457  -6.948   3.158  1.00  0.00     0.000 C 
BRANCH  10  11
ATOM     11  C   UNL     1      -1.183  -7.865   4.154  1.00  0.00    -0.000 C 
BRANCH  11  12
ATOM     12  C   UNL     1      -0.728  -7.647   5.608  1.00  0.00    -0.000 C 
BRANCH  12  13
ATOM     13  C   UNL     1       0.017  -8.838   6.246  1.00  0.00    -0.000 C 
BRANCH  13  14
ATOM     14  C   UNL     1       1.323  -8.475   6.974  1.00  0.00    -0.000 C 
BRANCH  14  15
ATOM     15  C   UNL     1       2.556  -8.556   6.065  1.00  0.00    -0.003 C 
ATOM     16  C   UNL     1       3.150  -7.172   5.820  1.00  0.00     0.004 C 
ENDBRANCH  14  15
ENDBRANCH  13  14
ENDBRANCH  12  13
ENDBRANCH  11  12
ENDBRANCH  10  11
ENDBRANCH   1  10
TORSDOF 12
ENDMDL
MODEL 4
REMARK VINA RESULT:    -4.004     14.135     16.203
REMARK INTER + INTRA:          -8.093
REMARK INTER:                  -7.289
REMARK INTRA:                  -0.805
REMARK UNBOUND:                -1.281
REMARK SMILES CCCCCCCCCCCCCC(=O)[O-]
REMARK SMILES IDX 8 1 9 2 10 3 11 4 12 5 13 6 14 7 15 8 16 9 7 10 6 11 5 12
REMARK SMILES IDX 4 13 3 14 2 15 1 16
REMARK H PARENT
REMARK Flexibility Score: inf
ROOT
ATOM      1  C   UNL     1      -2.292  -5.302  -0.996  1.00  0.00     0.000 C 
ENDROOT
BRANCH   1   2
ATOM      2  C   UNL     1      -2.996  -6.036  -2.150  1.00  0.00     0.000 C 
BRANCH   2   3
ATOM      3  C   UNL     1      -4.332  -6.712  -1.777  1.00  0.00     0.000 C 
BRANCH   3   4
ATOM      4  C   UNL     1      -5.542  -6.279  -2.623  1.00  0.00     0.000 C 
BRANCH   4   5
ATOM      5  C   UNL     1      -5.143  -5.460  -3.862  1.00  0.00     0.006 C 
BRANCH   5   6
ATOM      6  C   UNL     1      -6.231  -4.458  -4.270  1.00  0.00     0.053 C 
BRANCH   6   7
ATOM      7  C   UNL     1      -7.578  -5.107  -4.364  1.00  0.00     0.041 C 
ATOM      8  O   UNL     1      -7.856  -5.854  -5.339  1.00  0.00    -0.550 OA
ATOM      9  O   UNL     1      -8.516  -4.909  -3.360  1.00  0.00    -0.550 OA
ENDBRANCH   6   7
ENDBRANCH   5   6
ENDBRANCH   4   5
ENDBRANCH   3   4
ENDBRANCH   2   3
ENDBRANCH   1   2
BRANCH   1  10
ATOM     10  C   UNL     1      -3.249  -4.920   0.142  1.00  0.00     0.000 C 
BRANCH  10  11
ATOM     11  C   UNL     1      -2.512  -4.874   1.488  1.00  0.00    -0.000 C 
BRANCH  11  12
ATOM     12  C   UNL     1      -1.028  -5.262   1.372  1.00  0.00    -0.000 C 
BRANCH  12  13
ATOM     13  C   UNL     1      -0.556  -6.345   2.363  1.00  0.00    -0.000 C 
BRANCH  13  14
ATOM     14  C   UNL     1      -1.601  -6.773   3.409  1.00  0.00    -0.000 C 
BRANCH  14  15
ATOM     15  C   UNL     1      -1.060  -7.807   4.405  1.00  0.00    -0.003 C 
ATOM     16  C   UNL     1       0.454  -7.689   4.552  1.00  0.00     0.004 C 
ENDBRANCH  14  15
ENDBRANCH  13  14
ENDBRANCH  12  13
ENDBRANCH  11  12
ENDBRANCH  10  11
ENDBRANCH   1  10
TORSDOF 12
ENDMDL
MODEL 5
REMARK VINA RESULT:    -3.996      1.257      3.424
REMARK INTER + INTRA:          -8.080
REMARK INTER:                  -6.503
REMARK INTRA:                  -1.578
REMARK UNBOUND:                -1.281
REMARK SMILES CCCCCCCCCCCCCC(=O)[O-]
REMARK SMILES IDX 8 1 9 2 10 3 11 4 12 5 13 6 14 7 15 8 16 9 7 10 6 11 5 12
REMARK SMILES IDX 4 13 3 14 2 15 1 16
REMARK H PARENT
REMARK Flexibility Score: inf
ROOT
ATOM      1  C   UNL     1      -0.164   9.031   6.516  1.00  0.00     0.000 C 
ENDROOT
BRANCH   1   2
ATOM      2  C   UNL     1       0.553   8.200   7.594  1.00  0.00     0.000 C 
BRANCH   2   3
ATOM      3  C   UNL     1       1.578   7.179   7.058  1.00  0.00     0.000 C 
BRANCH   3   4
ATOM      4  C   UNL     1       1.444   5.756   7.629  1.00  0.00     0.000 C 
BRANCH   4   5
ATOM      5  C   UNL     1       2.752   5.233   8.244  1.00  0.00     0.006 C 
BRANCH   5   6
ATOM      6  C   UNL     1       3.787   4.860   7.174  1.00  0.00     0.053 C 
BRANCH   6   7
ATOM      7  C   UNL     1       5.159   4.708   7.756  1.00  0.00     0.041 C 
ATOM      8  O   UNL     1       6.070   4.142   7.095  1.00  0.00    -0.550 OA
ATOM      9  O   UNL     1       5.439   5.216   9.018  1.00  0.00    -0.550 OA
ENDBRANCH   6   7
ENDBRANCH   5   6
ENDBRANCH   4   5
ENDBRANCH   3   4
ENDBRANCH   2   3
ENDBRANCH   1   2
BRANCH   1  10
ATOM     10  C   UNL     1      -1.634   8.628   6.331  1.00  0.00     0.000 C 
BRANCH  10  11
ATOM     11  C   UNL     1      -1.876   8.063   4.924  1.00  0.00    -0.000 C 
BRANCH  11  12
ATOM     12  C   UNL     1      -1.768   6.529   4.869  1.00  0.00    -0.000 C 
BRANCH  12  13
ATOM     13  C   UNL     1      -0.449   5.988   4.280  1.00  0.00    -0.000 C 
BRANCH  13  14
ATOM     14  C   UNL     1       0.259   6.930   3.290  1.00  0.00    -0.000 C 
BRANCH  14  15
ATOM     15  C   UNL     1       1.751   7.108   3.599  1.00  0.00    -0.003 C 
ATOM     16  C   UNL     1       2.457   5.759   3.697  1.00  0.00     0.004 C 
ENDBRANCH  14  15
ENDBRANCH  13  14
ENDBRANCH  12  13
ENDBRANCH  11  12
ENDBRANCH  10  11
ENDBRANCH   1  10
TORSDOF 12
ENDMDL
MODEL 6
REMARK VINA RESULT:    -3.983      5.164      8.108
REMARK INTER + INTRA:          -8.059
REMARK INTER:                  -7.277
REMARK INTRA:                  -0.782
REMARK UNBOUND:                -1.281
REMARK SMILES CCCCCCCCCCCCCC(=O)[O-]
REMARK SMILES IDX 8 1 9 2 10 3 11 4 12 5 13 6 14 7 15 8 16 9 7 10 6 11 5 12
REMARK SMILES IDX 4 13 3 14 2 15 1 16
REMARK H PARENT
REMARK Flexibility Score: inf
ROOT
ATOM      1  C   UNL     1       3.101   4.542  -0.145  1.00  0.00     0.000 C 
ENDROOT
BRANCH   1   2
ATOM      2  C   UNL     1       2.919   4.433   1.379  1.00  0.00     0.000 C 
BRANCH   2   3
ATOM      3  C   UNL     1       2.110   5.577   2.024  1.00  0.00     0.000 C 
BRANCH   3   4
ATOM      4  C   UNL     1       2.775   6.244   3.241  1.00  0.00     0.000 C 
BRANCH   4   5
ATOM      5  C   UNL     1       1.789   6.510   4.390  1.00  0.00     0.006 C 
BRANCH   5   6
ATOM      6  C   UNL     1       1.136   7.895   4.284  1.00  0.00     0.053 C 
BRANCH   6   7
ATOM      7  C   UNL     1      -0.161   7.957   5.032  1.00  0.00     0.041 C 
ATOM      8  O   UNL     1      -0.612   6.932   5.607  1.00  0.00    -0.550 OA
ATOM      9  O   UNL     1      -0.857   9.156   5.116  1.00  0.00    -0.550 OA
ENDBRANCH   6   7
ENDBRANCH   5   6
ENDBRANCH   4   5
ENDBRANCH   3   4
ENDBRANCH   2   3
ENDBRANCH   1   2
BRANCH   1  10
ATOM     10  C   UNL     1       1.936   5.263  -0.836  1.00  0.00     0.000 C 
BRANCH  10  11
ATOM     11  C   UNL     1       2.279   5.586  -2.297  1.00  0.00    -0.000 C 
BRANCH  11  12
ATOM     12  C   UNL     1       3.378   6.653  -2.433  1.00  0.00    -0.000 C 
BRANCH  12  13
ATOM     13  C   UNL     1       4.653   6.190  -3.167  1.00  0.00    -0.000 C 
BRANCH  13  14
ATOM     14  C   UNL     1       5.977   6.608  -2.502  1.00  0.00    -0.000 C 
BRANCH  14  15
ATOM     15  C   UNL     1       6.968   5.445  -2.360  1.00  0.00    -0.003 C 
ATOM     16  C   UNL     1       6.249   4.154  -1.980  1.00  0.00     0.004 C 
ENDBRANCH  14  15
ENDBRANCH  13  14
ENDBRANCH  12  13
ENDBRANCH  11  12
ENDBRANCH  10  11
ENDBRANCH   1  10
TORSDOF 12
ENDMDL
MODEL 7
REMARK VINA RESULT:    -3.982     13.738     15.685
REMARK INTER + INTRA:          -8.056
REMARK INTER:                  -7.345
REMARK INTRA:                  -0.712
REMARK UNBOUND:                -1.281
REMARK SMILES CCCCCCCCCCCCCC(=O)[O-]
REMARK SMILES IDX 8 1 9 2 10 3 11 4 12 5 13 6 14 7 15 8 16 9 7 10 6 11 5 12
REMARK SMILES IDX 4 13 3 14 2 15 1 16
REMARK H PARENT
REMARK Flexibility Score: inf
ROOT
ATOM      1  C   UNL     1      -2.115  -4.139   0.165  1.00  0.00     0.000 C 
ENDROOT
BRANCH   1   2
ATOM      2  C   UNL     1      -1.409  -4.966  -0.924  1.00  0.00     0.000 C 
BRANCH   2   3
ATOM      3  C   UNL     1      -2.193  -5.116  -2.244  1.00  0.00     0.000 C 
BRANCH   3   4
ATOM      4  C   UNL     1      -2.867  -6.484  -2.452  1.00  0.00     0.000 C 
BRANCH   4   5
ATOM      5  C   UNL     1      -4.238  -6.585  -1.764  1.00  0.00     0.006 C 
BRANCH   5   6
ATOM      6  C   UNL     1      -5.217  -5.513  -2.261  1.00  0.00     0.053 C 
BRANCH   6   7
ATOM      7  C   UNL     1      -6.487  -6.115  -2.779  1.00  0.00     0.041 C 
ATOM      8  O   UNL     1      -6.650  -7.364  -2.761  1.00  0.00    -0.550 OA
ATOM      9  O   UNL     1      -7.501  -5.295  -3.255  1.00  0.00    -0.550 OA
ENDBRANCH   6   7
ENDBRANCH   5   6
ENDBRANCH   4   5
ENDBRANCH   3   4
ENDBRANCH   2   3
ENDBRANCH   1   2
BRANCH   1  10
ATOM     10  C   UNL     1      -2.761  -5.009   1.251  1.00  0.00     0.000 C 
BRANCH  10  11
ATOM     11  C   UNL     1      -1.693  -5.631   2.163  1.00  0.00    -0.000 C 
BRANCH  11  12
ATOM     12  C   UNL     1      -2.294  -6.364   3.375  1.00  0.00    -0.000 C 
BRANCH  12  13
ATOM     13  C   UNL     1      -1.489  -7.584   3.867  1.00  0.00    -0.000 C 
BRANCH  13  14
ATOM     14  C   UNL     1      -0.765  -7.389   5.211  1.00  0.00    -0.000 C 
BRANCH  14  15
ATOM     15  C   UNL     1       0.006  -8.638   5.661  1.00  0.00    -0.003 C 
ATOM     16  C   UNL     1       1.128  -8.272   6.627  1.00  0.00     0.004 C 
ENDBRANCH  14  15
ENDBRANCH  13  14
ENDBRANCH  12  13
ENDBRANCH  11  12
ENDBRANCH  10  11
ENDBRANCH   1  10
TORSDOF 12
ENDMDL
MODEL 8
REMARK VINA RESULT:    -3.964     12.334     13.951
REMARK INTER + INTRA:          -8.026
REMARK INTER:                  -6.789
REMARK INTRA:                  -1.236
REMARK UNBOUND:                -1.281
REMARK SMILES CCCCCCCCCCCCCC(=O)[O-]
REMARK SMILES IDX 8 1 9 2 10 3 11 4 12 5 13 6 14 7 15 8 16 9 7 10 6 11 5 12
REMARK SMILES IDX 4 13 3 14 2 15 1 16
REMARK H PARENT
REMARK Flexibility Score: inf
ROOT
ATOM      1  C   UNL     1      -2.865  -3.716   0.588  1.00  0.00     0.000 C 
ENDROOT
BRANCH   1   2
ATOM      2  C   UNL     1      -2.887  -5.161   1.118  1.00  0.00     0.000 C 
BRANCH   2   3
ATOM      3  C   UNL     1      -2.013  -5.414   2.363  1.00  0.00     0.000 C 
BRANCH   3   4
ATOM      4  C   UNL     1      -2.583  -6.431   3.367  1.00  0.00     0.000 C 
BRANCH   4   5
ATOM      5  C   UNL     1      -1.488  -7.211   4.114  1.00  0.00     0.006 C 
BRANCH   5   6
ATOM      6  C   UNL     1      -0.086  -6.904   3.571  1.00  0.00     0.053 C 
BRANCH   6   7
ATOM      7  C   UNL     1       0.987  -7.415   4.483  1.00  0.00     0.041 C 
ATOM      8  O   UNL     1       0.981  -8.617   4.859  1.00  0.00    -0.550 OA
ATOM      9  O   UNL     1       2.010  -6.570   4.894  1.00  0.00    -0.550 OA
ENDBRANCH   6   7
ENDBRANCH   5   6
ENDBRANCH   4   5
ENDBRANCH   3   4
ENDBRANCH   2   3
ENDBRANCH   1   2
BRANCH   1  10
ATOM     10  C   UNL     1      -2.166  -3.590  -0.773  1.00  0.00     0.000 C 
BRANCH  10  11
ATOM     11  C   UNL     1      -1.613  -4.946  -1.234  1.00  0.00    -0.000 C 
BRANCH  11  12
ATOM     12  C   UNL     1      -2.197  -5.404  -2.582  1.00  0.00    -0.000 C 
BRANCH  12  13
ATOM     13  C   UNL     1      -3.054  -6.686  -2.523  1.00  0.00    -0.000 C 
BRANCH  13  14
ATOM     14  C   UNL     1      -4.452  -6.507  -1.905  1.00  0.00    -0.000 C 
BRANCH  14  15
ATOM     15  C   UNL     1      -5.331  -5.527  -2.692  1.00  0.00    -0.003 C 
ATOM     16  C   UNL     1      -5.739  -4.337  -1.827  1.00  0.00     0.004 C 
ENDBRANCH  14  15
ENDBRANCH  13  14
ENDBRANCH  12  13
ENDBRANCH  11  12
ENDBRANCH  10  11
ENDBRANCH   1  10
TORSDOF 12
ENDMDL
MODEL 9
REMARK VINA RESULT:    -3.952      5.339      6.984
REMARK INTER + INTRA:          -8.006
REMARK INTER:                  -6.858
REMARK INTRA:                  -1.149
REMARK UNBOUND:                -1.281
REMARK SMILES CCCCCCCCCCCCCC(=O)[O-]
REMARK SMILES IDX 8 1 9 2 10 3 11 4 12 5 13 6 14 7 15 8 16 9 7 10 6 11 5 12
REMARK SMILES IDX 4 13 3 14 2 15 1 16
REMARK H PARENT
REMARK Flexibility Score: inf
ROOT
ATOM      1  C   UNL     1       2.361   4.035  -0.180  1.00  0.00     0.000 C 
ENDROOT
BRANCH   1   2
ATOM      2  C   UNL     1       1.631   4.873  -1.244  1.00  0.00     0.000 C 
BRANCH   2   3
ATOM      3  C   UNL     1       2.479   5.249  -2.476  1.00  0.00     0.000 C 
BRANCH   3   4
ATOM      4  C   UNL     1       3.036   6.684  -2.475  1.00  0.00     0.000 C 
BRANCH   4   5
ATOM      5  C   UNL     1       4.403   6.793  -1.779  1.00  0.00     0.006 C 
BRANCH   5   6
ATOM      6  C   UNL     1       5.295   5.577  -2.062  1.00  0.00     0.053 C 
BRANCH   6   7
ATOM      7  C   UNL     1       6.553   5.965  -2.778  1.00  0.00     0.041 C 
ATOM      8  O   UNL     1       6.710   7.144  -3.192  1.00  0.00    -0.550 OA
ATOM      9  O   UNL     1       7.563   5.030  -2.963  1.00  0.00    -0.550 OA
ENDBRANCH   6   7
ENDBRANCH   5   6
ENDBRANCH   4   5
ENDBRANCH   3   4
ENDBRANCH   2   3
ENDBRANCH   1   2
BRANCH   1  10
ATOM     10  C   UNL     1       2.922   4.885   0.969  1.00  0.00     0.000 C 
BRANCH  10  11
ATOM     11  C   UNL     1       3.076   4.048   2.247  1.00  0.00    -0.000 C 
BRANCH  11  12
ATOM     12  C   UNL     1       2.924   4.882   3.531  1.00  0.00    -0.000 C 
BRANCH  12  13
ATOM     13  C   UNL     1       2.929   6.411   3.322  1.00  0.00    -0.000 C 
BRANCH  13  14
ATOM     14  C   UNL     1       1.650   7.135   3.777  1.00  0.00    -0.000 C 
BRANCH  14  15
ATOM     15  C   UNL     1       0.441   6.831   2.881  1.00  0.00    -0.003 C 
ATOM     16  C   UNL     1      -0.679   6.168   3.677  1.00  0.00     0.004 C 
ENDBRANCH  14  15
ENDBRANCH  13  14
ENDBRANCH  12  13
ENDBRANCH  11  12
ENDBRANCH  10  11
ENDBRANCH   1  10
TORSDOF 12
ENDMDL
