MODEL 1
REMARK VINA RESULT:    11.597      0.000      0.000
REMARK INTER + INTRA:          20.564
REMARK INTER:                  21.767
REMARK INTRA:                  -1.203
REMARK UNBOUND:                -1.203
REMARK SMILES CCCCCCCCC=CCCCCCCCC(=O)[O-]
REMARK SMILES IDX 10 1 9 2 11 3 12 4 13 5 14 6 15 7 16 8 17 9 18 10 19 11
REMARK SMILES IDX 20 12 8 13 7 14 6 15 5 16 4 17 3 18 2 19 1 20
REMARK H PARENT
REMARK Flexibility Score: inf
ROOT
ATOM      1  C   UNL     1     -23.717  27.207  -7.123  1.00  0.00    -0.031 C 
ATOM      2  C   UNL     1     -22.619  26.578  -6.675  1.00  0.00    -0.031 C 
ENDROOT
BRANCH   1   3
ATOM      3  C   UNL     1     -24.985  26.457  -7.428  1.00  0.00     0.027 C 
BRANCH   3   4
ATOM      4  C   UNL     1     -26.043  27.386  -8.041  1.00  0.00     0.004 C 
BRANCH   4   5
ATOM      5  C   UNL     1     -27.137  27.778  -7.036  1.00  0.00     0.000 C 
BRANCH   5   6
ATOM      6  C   UNL     1     -27.062  29.258  -6.623  1.00  0.00     0.000 C 
BRANCH   6   7
ATOM      7  C   UNL     1     -27.353  30.207  -7.804  1.00  0.00     0.000 C 
BRANCH   7   8
ATOM      8  C   UNL     1     -26.610  31.551  -7.713  1.00  0.00     0.006 C 
BRANCH   8   9
ATOM      9  C   UNL     1     -25.729  31.829  -8.936  1.00  0.00     0.053 C 
BRANCH   9  10
ATOM     10  C   UNL     1     -24.322  31.391  -8.678  1.00  0.00     0.041 C 
ATOM     11  O   UNL     1     -24.094  30.274  -8.143  1.00  0.00    -0.550 OA
ATOM     12  O   UNL     1     -23.260  32.195  -9.073  1.00  0.00    -0.550 OA
ENDBRANCH   9  10
ENDBRANCH   8   9
ENDBRANCH   7   8
ENDBRANCH   6   7
ENDBRANCH   5   6
ENDBRANCH   4   5
ENDBRANCH   3   4
ENDBRANCH   1   3
BRANCH   2  13
ATOM     13  C   UNL     1     -21.365  27.332  -6.323  1.00  0.00     0.027 C 
BRANCH  13  14
ATOM     14  C   UNL     1     -20.133  26.725  -7.008  1.00  0.00     0.004 C 
BRANCH  14  15
ATOM     15  C   UNL     1     -18.938  26.600  -6.047  1.00  0.00     0.000 C 
BRANCH  15  16
ATOM     16  C   UNL     1     -19.196  25.600  -4.909  1.00  0.00     0.000 C 
BRANCH  16  17
ATOM     17  C   UNL     1     -18.888  24.151  -5.313  1.00  0.00    -0.000 C 
BRANCH  17  18
ATOM     18  C   UNL     1     -20.177  23.396  -5.667  1.00  0.00    -0.000 C 
BRANCH  18  19
ATOM     19  C   UNL     1     -20.090  22.681  -7.025  1.00  0.00    -0.003 C 
ATOM     20  C   UNL     1     -18.875  23.115  -7.846  1.00  0.00     0.004 C 
ENDBRANCH  18  19
ENDBRANCH  17  18
ENDBRANCH  16  17
ENDBRANCH  15  16
ENDBRANCH  14  15
ENDBRANCH  13  14
ENDBRANCH   2  13
TORSDOF 15
ENDMDL
MODEL 2
REMARK VINA RESULT:    11.736      1.876      2.987
REMARK INTER + INTRA:          20.823
REMARK INTER:                  20.042
REMARK INTRA:                   0.781
REMARK UNBOUND:                -1.203
REMARK SMILES CCCCCCCCC=CCCCCCCCC(=O)[O-]
REMARK SMILES IDX 10 1 9 2 11 3 12 4 13 5 14 6 15 7 16 8 17 9 18 10 19 11
REMARK SMILES IDX 20 12 8 13 7 14 6 15 5 16 4 17 3 18 2 19 1 20
REMARK H PARENT
REMARK Flexibility Score: inf
ROOT
ATOM      1  C   UNL     1     -22.634  27.739  -6.799  1.00  0.00    -0.031 C 
ATOM      2  C   UNL     1     -21.405  27.403  -6.379  1.00  0.00    -0.031 C 
ENDROOT
BRANCH   1   3
ATOM      3  C   UNL     1     -22.844  28.551  -8.048  1.00  0.00     0.027 C 
BRANCH   3   4
ATOM      4  C   UNL     1     -23.634  29.834  -7.749  1.00  0.00     0.004 C 
BRANCH   4   5
ATOM      5  C   UNL     1     -24.151  30.520  -9.022  1.00  0.00     0.000 C 
BRANCH   5   6
ATOM      6  C   UNL     1     -24.800  31.885  -8.739  1.00  0.00     0.000 C 
BRANCH   6   7
ATOM      7  C   UNL     1     -26.208  31.744  -8.124  1.00  0.00     0.000 C 
BRANCH   7   8
ATOM      8  C   UNL     1     -26.830  30.350  -8.322  1.00  0.00     0.006 C 
BRANCH   8   9
ATOM      9  C   UNL     1     -27.519  29.820  -7.060  1.00  0.00     0.053 C 
BRANCH   9  10
ATOM     10  C   UNL     1     -27.458  28.327  -7.019  1.00  0.00     0.041 C 
ATOM     11  O   UNL     1     -28.397  27.668  -6.498  1.00  0.00    -0.550 OA
ATOM     12  O   UNL     1     -26.388  27.658  -7.599  1.00  0.00    -0.550 OA
ENDBRANCH   9  10
ENDBRANCH   8   9
ENDBRANCH   7   8
ENDBRANCH   6   7
ENDBRANCH   5   6
ENDBRANCH   4   5
ENDBRANCH   3   4
ENDBRANCH   1   3
BRANCH   2  13
ATOM     13  C   UNL     1     -21.192  26.551  -5.157  1.00  0.00     0.027 C 
BRANCH  13  14
ATOM     14  C   UNL     1     -19.704  26.250  -4.932  1.00  0.00     0.004 C 
BRANCH  14  15
ATOM     15  C   UNL     1     -18.953  26.026  -6.256  1.00  0.00     0.000 C 
BRANCH  15  16
ATOM     16  C   UNL     1     -18.895  24.544  -6.660  1.00  0.00     0.000 C 
BRANCH  16  17
ATOM     17  C   UNL     1     -20.070  23.730  -6.099  1.00  0.00    -0.000 C 
BRANCH  17  18
ATOM     18  C   UNL     1     -19.703  22.243  -5.987  1.00  0.00    -0.000 C 
BRANCH  18  19
ATOM     19  C   UNL     1     -19.165  21.666  -7.306  1.00  0.00    -0.003 C 
ATOM     20  C   UNL     1     -18.895  22.743  -8.357  1.00  0.00     0.004 C 
ENDBRANCH  18  19
ENDBRANCH  17  18
ENDBRANCH  16  17
ENDBRANCH  15  16
ENDBRANCH  14  15
ENDBRANCH  13  14
ENDBRANCH   2  13
TORSDOF 15
ENDMDL
MODEL 3
REMARK VINA RESULT:    11.957      7.202      9.683
REMARK INTER + INTRA:          21.238
REMARK INTER:                  21.546
REMARK INTRA:                  -0.308
REMARK UNBOUND:                -1.203
REMARK SMILES CCCCCCCCC=CCCCCCCCC(=O)[O-]
REMARK SMILES IDX 10 1 9 2 11 3 12 4 13 5 14 6 15 7 16 8 17 9 18 10 19 11
REMARK SMILES IDX 20 12 8 13 7 14 6 15 5 16 4 17 3 18 2 19 1 20
REMARK H PARENT
REMARK Flexibility Score: inf
ROOT
ATOM      1  C   UNL     1     -28.126  32.722  -3.509  1.00  0.00    -0.031 C 
ATOM      2  C   UNL     1     -27.614  31.483  -3.567  1.00  0.00    -0.031 C 
ENDROOT
BRANCH   1   3
ATOM      3  C   UNL     1     -29.552  32.965  -3.093  1.00  0.00     0.027 C 
BRANCH   3   4
ATOM      4  C   UNL     1     -30.086  31.804  -2.243  1.00  0.00     0.004 C 
BRANCH   4   5
ATOM      5  C   UNL     1     -31.429  31.264  -2.759  1.00  0.00     0.000 C 
BRANCH   5   6
ATOM      6  C   UNL     1     -32.092  30.282  -1.776  1.00  0.00     0.000 C 
BRANCH   6   7
ATOM      7  C   UNL     1     -33.399  29.689  -2.341  1.00  0.00     0.000 C 
BRANCH   7   8
ATOM      8  C   UNL     1     -33.596  29.950  -3.845  1.00  0.00     0.006 C 
BRANCH   8   9
ATOM      9  C   UNL     1     -35.004  30.452  -4.183  1.00  0.00     0.053 C 
BRANCH   9  10
ATOM     10  C   UNL     1     -35.920  30.268  -3.015  1.00  0.00     0.041 C 
ATOM     11  O   UNL     1     -36.867  29.440  -3.076  1.00  0.00    -0.550 OA
ATOM     12  O   UNL     1     -35.698  30.974  -1.840  1.00  0.00    -0.550 OA
ENDBRANCH   9  10
ENDBRANCH   8   9
ENDBRANCH   7   8
ENDBRANCH   6   7
ENDBRANCH   5   6
ENDBRANCH   4   5
ENDBRANCH   3   4
ENDBRANCH   1   3
BRANCH   2  13
ATOM     13  C   UNL     1     -26.175  31.239  -3.936  1.00  0.00     0.027 C 
BRANCH  13  14
ATOM     14  C   UNL     1     -25.954  31.358  -5.450  1.00  0.00     0.004 C 
BRANCH  14  15
ATOM     15  C   UNL     1     -26.972  30.529  -6.251  1.00  0.00     0.000 C 
BRANCH  15  16
ATOM     16  C   UNL     1     -27.035  30.937  -7.731  1.00  0.00     0.000 C 
BRANCH  16  17
ATOM     17  C   UNL     1     -25.782  30.519  -8.515  1.00  0.00    -0.000 C 
BRANCH  17  18
ATOM     18  C   UNL     1     -25.047  31.749  -9.068  1.00  0.00    -0.000 C 
BRANCH  18  19
ATOM     19  C   UNL     1     -23.522  31.652  -8.899  1.00  0.00    -0.003 C 
ATOM     20  C   UNL     1     -22.829  33.012  -8.990  1.00  0.00     0.004 C 
ENDBRANCH  18  19
ENDBRANCH  17  18
ENDBRANCH  16  17
ENDBRANCH  15  16
ENDBRANCH  14  15
ENDBRANCH  13  14
ENDBRANCH   2  13
TORSDOF 15
ENDMDL
MODEL 4
REMARK VINA RESULT:    11.976     16.737     18.584
REMARK INTER + INTRA:          21.273
REMARK INTER:                  21.374
REMARK INTRA:                  -0.100
REMARK UNBOUND:                -1.203
REMARK SMILES CCCCCCCCC=CCCCCCCCC(=O)[O-]
REMARK SMILES IDX 10 1 9 2 11 3 12 4 13 5 14 6 15 7 16 8 17 9 18 10 19 11
REMARK SMILES IDX 20 12 8 13 7 14 6 15 5 16 4 17 3 18 2 19 1 20
REMARK H PARENT
REMARK Flexibility Score: inf
ROOT
ATOM      1  C   UNL     1     -34.205  24.164   6.878  1.00  0.00    -0.031 C 
ATOM      2  C   UNL     1     -33.589  25.348   7.021  1.00  0.00    -0.031 C 
ENDROOT
BRANCH   1   3
ATOM      3  C   UNL     1     -35.238  23.690   7.864  1.00  0.00     0.027 C 
BRANCH   3   4
ATOM      4  C   UNL     1     -35.900  22.388   7.388  1.00  0.00     0.004 C 
BRANCH   4   5
ATOM      5  C   UNL     1     -37.285  22.168   8.015  1.00  0.00     0.000 C 
BRANCH   5   6
ATOM      6  C   UNL     1     -37.955  20.869   7.535  1.00  0.00     0.000 C 
BRANCH   6   7
ATOM      7  C   UNL     1     -39.124  21.141   6.566  1.00  0.00     0.000 C 
BRANCH   7   8
ATOM      8  C   UNL     1     -38.675  21.404   5.117  1.00  0.00     0.006 C 
BRANCH   8   9
ATOM      9  C   UNL     1     -37.789  22.647   4.985  1.00  0.00     0.053 C 
BRANCH   9  10
ATOM     10  C   UNL     1     -38.628  23.879   4.869  1.00  0.00     0.041 C 
ATOM     11  O   UNL     1     -38.925  24.340   3.736  1.00  0.00    -0.550 OA
ATOM     12  O   UNL     1     -39.125  24.491   6.013  1.00  0.00    -0.550 OA
ENDBRANCH   9  10
ENDBRANCH   8   9
ENDBRANCH   7   8
ENDBRANCH   6   7
ENDBRANCH   5   6
ENDBRANCH   4   5
ENDBRANCH   3   4
ENDBRANCH   1   3
BRANCH   2  13
ATOM     13  C   UNL     1     -32.591  25.847   6.012  1.00  0.00     0.027 C 
BRANCH  13  14
ATOM     14  C   UNL     1     -31.243  25.127   6.149  1.00  0.00     0.004 C 
BRANCH  14  15
ATOM     15  C   UNL     1     -31.136  24.345   7.469  1.00  0.00     0.000 C 
BRANCH  15  16
ATOM     16  C   UNL     1     -29.688  23.970   7.820  1.00  0.00     0.000 C 
BRANCH  16  17
ATOM     17  C   UNL     1     -28.699  24.309   6.695  1.00  0.00    -0.000 C 
BRANCH  17  18
ATOM     18  C   UNL     1     -27.586  25.236   7.206  1.00  0.00    -0.000 C 
BRANCH  18  19
ATOM     19  C   UNL     1     -27.126  26.249   6.145  1.00  0.00    -0.003 C 
ATOM     20  C   UNL     1     -28.204  27.278   5.803  1.00  0.00     0.004 C 
ENDBRANCH  18  19
ENDBRANCH  17  18
ENDBRANCH  16  17
ENDBRANCH  15  16
ENDBRANCH  14  15
ENDBRANCH  13  14
ENDBRANCH   2  13
TORSDOF 15
ENDMDL
MODEL 5
REMARK VINA RESULT:    12.036      3.122      8.321
REMARK INTER + INTRA:          21.387
REMARK INTER:                  22.565
REMARK INTRA:                  -1.177
REMARK UNBOUND:                -1.203
REMARK SMILES CCCCCCCCC=CCCCCCCCC(=O)[O-]
REMARK SMILES IDX 10 1 9 2 11 3 12 4 13 5 14 6 15 7 16 8 17 9 18 10 19 11
REMARK SMILES IDX 20 12 8 13 7 14 6 15 5 16 4 17 3 18 2 19 1 20
REMARK H PARENT
REMARK Flexibility Score: inf
ROOT
ATOM      1  C   UNL     1     -24.635  27.144  -7.222  1.00  0.00    -0.031 C 
ATOM      2  C   UNL     1     -25.712  27.602  -7.879  1.00  0.00    -0.031 C 
ENDROOT
BRANCH   1   3
ATOM      3  C   UNL     1     -23.239  27.492  -7.658  1.00  0.00     0.027 C 
BRANCH   3   4
ATOM      4  C   UNL     1     -22.197  26.660  -6.896  1.00  0.00     0.004 C 
BRANCH   4   5
ATOM      5  C   UNL     1     -21.619  27.405  -5.683  1.00  0.00     0.000 C 
BRANCH   5   6
ATOM      6  C   UNL     1     -20.908  26.467  -4.693  1.00  0.00     0.000 C 
BRANCH   6   7
ATOM      7  C   UNL     1     -19.447  26.188  -5.103  1.00  0.00     0.000 C 
BRANCH   7   8
ATOM      8  C   UNL     1     -19.122  24.690  -5.247  1.00  0.00     0.006 C 
BRANCH   8   9
ATOM      9  C   UNL     1     -18.907  24.264  -6.703  1.00  0.00     0.053 C 
BRANCH   9  10
ATOM     10  C   UNL     1     -19.691  23.028  -7.008  1.00  0.00     0.041 C 
ATOM     11  O   UNL     1     -20.651  22.687  -6.268  1.00  0.00    -0.550 OA
ATOM     12  O   UNL     1     -19.393  22.277  -8.138  1.00  0.00    -0.550 OA
ENDBRANCH   9  10
ENDBRANCH   8   9
ENDBRANCH   7   8
ENDBRANCH   6   7
ENDBRANCH   5   6
ENDBRANCH   4   5
ENDBRANCH   3   4
ENDBRANCH   1   3
BRANCH   2  13
ATOM     13  C   UNL     1     -27.111  27.295  -7.417  1.00  0.00     0.027 C 
BRANCH  13  14
ATOM     14  C   UNL     1     -27.821  28.552  -6.898  1.00  0.00     0.004 C 
BRANCH  14  15
ATOM     15  C   UNL     1     -27.624  29.757  -7.834  1.00  0.00     0.000 C 
BRANCH  15  16
ATOM     16  C   UNL     1     -26.930  30.940  -7.140  1.00  0.00     0.000 C 
BRANCH  16  17
ATOM     17  C   UNL     1     -25.402  30.900  -7.286  1.00  0.00    -0.000 C 
BRANCH  17  18
ATOM     18  C   UNL     1     -24.992  30.966  -8.765  1.00  0.00    -0.000 C 
BRANCH  18  19
ATOM     19  C   UNL     1     -24.489  32.359  -9.177  1.00  0.00    -0.003 C 
ATOM     20  C   UNL     1     -22.963  32.457  -9.193  1.00  0.00     0.004 C 
ENDBRANCH  18  19
ENDBRANCH  17  18
ENDBRANCH  16  17
ENDBRANCH  15  16
ENDBRANCH  14  15
ENDBRANCH  13  14
ENDBRANCH   2  13
TORSDOF 15
ENDMDL
MODEL 6
REMARK VINA RESULT:    12.212      5.804     10.224
REMARK INTER + INTRA:          21.717
REMARK INTER:                  22.233
REMARK INTRA:                  -0.517
REMARK UNBOUND:                -1.203
REMARK SMILES CCCCCCCCC=CCCCCCCCC(=O)[O-]
REMARK SMILES IDX 10 1 9 2 11 3 12 4 13 5 14 6 15 7 16 8 17 9 18 10 19 11
REMARK SMILES IDX 20 12 8 13 7 14 6 15 5 16 4 17 3 18 2 19 1 20
REMARK H PARENT
REMARK Flexibility Score: inf
ROOT
ATOM      1  C   UNL     1     -27.410  31.640  -3.023  1.00  0.00    -0.031 C 
ATOM      2  C   UNL     1     -28.612  32.171  -3.296  1.00  0.00    -0.031 C 
ENDROOT
BRANCH   1   3
ATOM      3  C   UNL     1     -26.270  31.729  -4.000  1.00  0.00     0.027 C 
BRANCH   3   4
ATOM      4  C   UNL     1     -26.478  30.771  -5.183  1.00  0.00     0.004 C 
BRANCH   4   5
ATOM      5  C   UNL     1     -26.683  31.512  -6.513  1.00  0.00     0.000 C 
BRANCH   5   6
ATOM      6  C   UNL     1     -27.260  30.605  -7.614  1.00  0.00     0.000 C 
BRANCH   6   7
ATOM      7  C   UNL     1     -26.309  30.483  -8.824  1.00  0.00     0.000 C 
BRANCH   7   8
ATOM      8  C   UNL     1     -24.870  30.936  -8.524  1.00  0.00     0.006 C 
BRANCH   8   9
ATOM      9  C   UNL     1     -24.546  32.317  -9.105  1.00  0.00     0.053 C 
BRANCH   9  10
ATOM     10  C   UNL     1     -23.070  32.556  -9.095  1.00  0.00     0.041 C 
ATOM     11  O   UNL     1     -22.270  31.590  -9.212  1.00  0.00    -0.550 OA
ATOM     12  O   UNL     1     -22.577  33.851  -9.007  1.00  0.00    -0.550 OA
ENDBRANCH   9  10
ENDBRANCH   8   9
ENDBRANCH   7   8
ENDBRANCH   6   7
ENDBRANCH   5   6
ENDBRANCH   4   5
ENDBRANCH   3   4
ENDBRANCH   1   3
BRANCH   2  13
ATOM     13  C   UNL     1     -29.741  32.126  -2.302  1.00  0.00     0.027 C 
BRANCH  13  14
ATOM     14  C   UNL     1     -30.849  31.164  -2.751  1.00  0.00     0.004 C 
BRANCH  14  15
ATOM     15  C   UNL     1     -31.644  30.601  -1.560  1.00  0.00     0.000 C 
BRANCH  15  16
ATOM     16  C   UNL     1     -33.037  30.093  -1.965  1.00  0.00     0.000 C 
BRANCH  16  17
ATOM     17  C   UNL     1     -33.234  30.055  -3.488  1.00  0.00    -0.000 C 
BRANCH  17  18
ATOM     18  C   UNL     1     -34.695  30.348  -3.859  1.00  0.00    -0.000 C 
BRANCH  18  19
ATOM     19  C   UNL     1     -35.637  30.288  -2.646  1.00  0.00    -0.003 C 
ATOM     20  C   UNL     1     -36.013  28.858  -2.258  1.00  0.00     0.004 C 
ENDBRANCH  18  19
ENDBRANCH  17  18
ENDBRANCH  16  17
ENDBRANCH  15  16
ENDBRANCH  14  15
ENDBRANCH  13  14
ENDBRANCH   2  13
TORSDOF 15
ENDMDL
MODEL 7
REMARK VINA RESULT:    12.496      7.174      9.448
REMARK INTER + INTRA:          22.251
REMARK INTER:                  22.951
REMARK INTRA:                  -0.700
REMARK UNBOUND:                -1.203
REMARK SMILES CCCCCCCCC=CCCCCCCCC(=O)[O-]
REMARK SMILES IDX 10 1 9 2 11 3 12 4 13 5 14 6 15 7 16 8 17 9 18 10 19 11
REMARK SMILES IDX 20 12 8 13 7 14 6 15 5 16 4 17 3 18 2 19 1 20
REMARK H PARENT
REMARK Flexibility Score: inf
ROOT
ATOM      1  C   UNL     1     -26.381  31.313  -4.046  1.00  0.00    -0.031 C 
ATOM      2  C   UNL     1     -26.805  31.326  -5.319  1.00  0.00    -0.031 C 
ENDROOT
BRANCH   1   3
ATOM      3  C   UNL     1     -27.221  31.872  -2.931  1.00  0.00     0.027 C 
BRANCH   3   4
ATOM      4  C   UNL     1     -28.672  32.087  -3.384  1.00  0.00     0.004 C 
BRANCH   4   5
ATOM      5  C   UNL     1     -29.675  31.974  -2.226  1.00  0.00     0.000 C 
BRANCH   5   6
ATOM      6  C   UNL     1     -31.087  31.585  -2.698  1.00  0.00     0.000 C 
BRANCH   6   7
ATOM      7  C   UNL     1     -31.757  30.567  -1.752  1.00  0.00     0.000 C 
BRANCH   7   8
ATOM      8  C   UNL     1     -32.648  29.543  -2.477  1.00  0.00     0.006 C 
BRANCH   8   9
ATOM      9  C   UNL     1     -33.776  30.199  -3.282  1.00  0.00     0.053 C 
BRANCH   9  10
ATOM     10  C   UNL     1     -35.098  29.950  -2.628  1.00  0.00     0.041 C 
ATOM     11  O   UNL     1     -36.008  30.818  -2.688  1.00  0.00    -0.550 OA
ATOM     12  O   UNL     1     -35.342  28.738  -1.994  1.00  0.00    -0.550 OA
ENDBRANCH   9  10
ENDBRANCH   8   9
ENDBRANCH   7   8
ENDBRANCH   6   7
ENDBRANCH   5   6
ENDBRANCH   4   5
ENDBRANCH   3   4
ENDBRANCH   1   3
BRANCH   2  13
ATOM     13  C   UNL     1     -25.989  30.725  -6.431  1.00  0.00     0.027 C 
BRANCH  13  14
ATOM     14  C   UNL     1     -26.782  30.666  -7.744  1.00  0.00     0.004 C 
BRANCH  14  15
ATOM     15  C   UNL     1     -25.862  30.680  -8.977  1.00  0.00     0.000 C 
BRANCH  15  16
ATOM     16  C   UNL     1     -25.002  31.951  -9.061  1.00  0.00     0.000 C 
BRANCH  16  17
ATOM     17  C   UNL     1     -23.508  31.672  -8.841  1.00  0.00    -0.000 C 
BRANCH  17  18
ATOM     18  C   UNL     1     -22.646  32.767  -9.486  1.00  0.00    -0.000 C 
BRANCH  18  19
ATOM     19  C   UNL     1     -22.577  34.045  -8.635  1.00  0.00    -0.003 C 
ATOM     20  C   UNL     1     -23.007  35.293  -9.405  1.00  0.00     0.004 C 
ENDBRANCH  18  19
ENDBRANCH  17  18
ENDBRANCH  16  17
ENDBRANCH  15  16
ENDBRANCH  14  15
ENDBRANCH  13  14
ENDBRANCH   2  13
TORSDOF 15
ENDMDL
MODEL 8
REMARK VINA RESULT:    13.630      2.119      3.221
REMARK INTER + INTRA:          24.380
REMARK INTER:                  24.792
REMARK INTRA:                  -0.413
REMARK UNBOUND:                -1.203
REMARK SMILES CCCCCCCCC=CCCCCCCCC(=O)[O-]
REMARK SMILES IDX 10 1 9 2 11 3 12 4 13 5 14 6 15 7 16 8 17 9 18 10 19 11
REMARK SMILES IDX 20 12 8 13 7 14 6 15 5 16 4 17 3 18 2 19 1 20
REMARK H PARENT
REMARK Flexibility Score: inf
ROOT
ATOM      1  C   UNL     1     -22.785  29.297  -7.518  1.00  0.00    -0.031 C 
ATOM      2  C   UNL     1     -22.327  28.049  -7.696  1.00  0.00    -0.031 C 
ENDROOT
BRANCH   1   3
ATOM      3  C   UNL     1     -23.939  29.835  -8.319  1.00  0.00     0.027 C 
BRANCH   3   4
ATOM      4  C   UNL     1     -23.579  31.175  -8.978  1.00  0.00     0.004 C 
BRANCH   4   5
ATOM      5  C   UNL     1     -24.739  32.181  -8.943  1.00  0.00     0.000 C 
BRANCH   5   6
ATOM      6  C   UNL     1     -26.117  31.502  -9.031  1.00  0.00     0.000 C 
BRANCH   6   7
ATOM      7  C   UNL     1     -26.958  31.726  -7.757  1.00  0.00     0.000 C 
BRANCH   7   8
ATOM      8  C   UNL     1     -27.424  30.421  -7.088  1.00  0.00     0.006 C 
BRANCH   8   9
ATOM      9  C   UNL     1     -26.695  29.184  -7.625  1.00  0.00     0.053 C 
BRANCH   9  10
ATOM     10  C   UNL     1     -27.353  27.934  -7.133  1.00  0.00     0.041 C 
ATOM     11  O   UNL     1     -28.540  27.965  -6.713  1.00  0.00    -0.550 OA
ATOM     12  O   UNL     1     -26.673  26.724  -7.184  1.00  0.00    -0.550 OA
ENDBRANCH   9  10
ENDBRANCH   8   9
ENDBRANCH   7   8
ENDBRANCH   6   7
ENDBRANCH   5   6
ENDBRANCH   4   5
ENDBRANCH   3   4
ENDBRANCH   1   3
BRANCH   2  13
ATOM     13  C   UNL     1     -21.205  27.491  -6.863  1.00  0.00     0.027 C 
BRANCH  13  14
ATOM     14  C   UNL     1     -21.711  26.438  -5.869  1.00  0.00     0.004 C 
BRANCH  14  15
ATOM     15  C   UNL     1     -20.709  26.190  -4.728  1.00  0.00     0.000 C 
BRANCH  15  16
ATOM     16  C   UNL     1     -19.263  26.047  -5.230  1.00  0.00     0.000 C 
BRANCH  16  17
ATOM     17  C   UNL     1     -19.107  24.934  -6.277  1.00  0.00    -0.000 C 
BRANCH  17  18
ATOM     18  C   UNL     1     -19.330  23.552  -5.644  1.00  0.00    -0.000 C 
BRANCH  18  19
ATOM     19  C   UNL     1     -19.023  22.400  -6.614  1.00  0.00    -0.003 C 
ATOM     20  C   UNL     1     -18.875  22.869  -8.062  1.00  0.00     0.004 C 
ENDBRANCH  18  19
ENDBRANCH  17  18
ENDBRANCH  16  17
ENDBRANCH  15  16
ENDBRANCH  14  15
ENDBRANCH  13  14
ENDBRANCH   2  13
TORSDOF 15
ENDMDL
