MODEL 1
REMARK VINA RESULT:    -5.939      0.000      0.000
REMARK INTER + INTRA:         -20.594
REMARK INTER:                 -15.661
REMARK INTRA:                  -4.933
REMARK UNBOUND:                -4.933
REMARK SMILES CCCCCCCCCCCCCCCCCCCCCCCCCCCCCC(=O)[O-]
REMARK SMILES IDX 16 1 17 2 18 3 19 4 20 5 21 6 22 7 23 8 24 9 25 10 26 11
REMARK SMILES IDX 27 12 28 13 29 14 30 15 31 16 32 17 15 18 14 19 13 20 12 21
REMARK SMILES IDX 11 22 10 23 9 24 8 25 7 26 6 27 5 28 4 29 3 30 2 31 1 32
REMARK H PARENT
REMARK Flexibility Score: inf
ROOT
ATOM      1  C   UNL     1     221.603  -9.659  23.904  1.00  0.00     0.000 C 
ENDROOT
BRANCH   1   2
ATOM      2  C   UNL     1     221.413 -10.324  25.277  1.00  0.00     0.000 C 
BRANCH   2   3
ATOM      3  C   UNL     1     222.361  -9.715  26.319  1.00  0.00     0.000 C 
BRANCH   3   4
ATOM      4  C   UNL     1     222.525 -10.607  27.560  1.00  0.00     0.000 C 
BRANCH   4   5
ATOM      5  C   UNL     1     221.576 -10.216  28.703  1.00  0.00     0.000 C 
BRANCH   5   6
ATOM      6  C   UNL     1     222.279 -10.142  30.070  1.00  0.00     0.000 C 
BRANCH   6   7
ATOM      7  C   UNL     1     222.710  -8.716  30.472  1.00  0.00     0.000 C 
BRANCH   7   8
ATOM      8  C   UNL     1     222.062  -7.639  29.584  1.00  0.00     0.000 C 
BRANCH   8   9
ATOM      9  C   UNL     1     223.088  -6.888  28.717  1.00  0.00     0.000 C 
BRANCH   9  10
ATOM     10  C   UNL     1     224.456  -6.668  29.390  1.00  0.00     0.000 C 
BRANCH  10  11
ATOM     11  C   UNL     1     225.055  -5.288  29.076  1.00  0.00     0.000 C 
BRANCH  11  12
ATOM     12  C   UNL     1     226.198  -4.942  30.044  1.00  0.00     0.000 C 
BRANCH  12  13
ATOM     13  C   UNL     1     227.000  -3.713  29.585  1.00  0.00     0.006 C 
BRANCH  13  14
ATOM     14  C   UNL     1     226.156  -2.736  28.757  1.00  0.00     0.053 C 
BRANCH  14  15
ATOM     15  C   UNL     1     226.874  -2.356  27.498  1.00  0.00     0.041 C 
ATOM     16  O   UNL     1     227.110  -1.146  27.241  1.00  0.00    -0.550 OA
ATOM     17  O   UNL     1     227.246  -3.337  26.588  1.00  0.00    -0.550 OA
ENDBRANCH  14  15
ENDBRANCH  13  14
ENDBRANCH  12  13
ENDBRANCH  11  12
ENDBRANCH  10  11
ENDBRANCH   9  10
ENDBRANCH   8   9
ENDBRANCH   7   8
ENDBRANCH   6   7
ENDBRANCH   5   6
ENDBRANCH   4   5
ENDBRANCH   3   4
ENDBRANCH   2   3
ENDBRANCH   1   2
BRANCH   1  18
ATOM     18  C   UNL     1     221.602  -8.124  23.986  1.00  0.00     0.000 C 
BRANCH  18  19
ATOM     19  C   UNL     1     220.865  -7.469  22.805  1.00  0.00     0.000 C 
BRANCH  19  20
ATOM     20  C   UNL     1     220.804  -8.373  21.561  1.00  0.00     0.000 C 
BRANCH  20  21
ATOM     21  C   UNL     1     219.388  -8.619  21.003  1.00  0.00     0.000 C 
BRANCH  21  22
ATOM     22  C   UNL     1     218.641  -9.817  21.614  1.00  0.00     0.000 C 
BRANCH  22  23
ATOM     23  C   UNL     1     217.647  -9.412  22.713  1.00  0.00     0.000 C 
BRANCH  23  24
ATOM     24  C   UNL     1     217.932 -10.183  24.011  1.00  0.00    -0.000 C 
BRANCH  24  25
ATOM     25  C   UNL     1     217.983  -9.270  25.246  1.00  0.00    -0.000 C 
BRANCH  25  26
ATOM     26  C   UNL     1     217.733  -7.792  24.900  1.00  0.00    -0.000 C 
BRANCH  26  27
ATOM     27  C   UNL     1     218.590  -6.833  25.741  1.00  0.00    -0.000 C 
BRANCH  27  28
ATOM     28  C   UNL     1     219.341  -7.547  26.875  1.00  0.00    -0.000 C 
BRANCH  28  29
ATOM     29  C   UNL     1     218.669  -7.284  28.229  1.00  0.00    -0.000 C 
BRANCH  29  30
ATOM     30  C   UNL     1     218.194  -8.591  28.874  1.00  0.00    -0.000 C 
BRANCH  30  31
ATOM     31  C   UNL     1     218.288  -8.520  30.402  1.00  0.00    -0.003 C 
ATOM     32  C   UNL     1     218.799  -9.834  30.985  1.00  0.00     0.004 C 
ENDBRANCH  30  31
ENDBRANCH  29  30
ENDBRANCH  28  29
ENDBRANCH  27  28
ENDBRANCH  26  27
ENDBRANCH  25  26
ENDBRANCH  24  25
ENDBRANCH  23  24
ENDBRANCH  22  23
ENDBRANCH  21  22
ENDBRANCH  20  21
ENDBRANCH  19  20
ENDBRANCH  18  19
ENDBRANCH   1  18
TORSDOF 28
ENDMDL
MODEL 2
REMARK VINA RESULT:    -5.892      3.558      6.140
REMARK INTER + INTRA:         -20.470
REMARK INTER:                 -14.981
REMARK INTRA:                  -5.489
REMARK UNBOUND:                -4.933
REMARK SMILES CCCCCCCCCCCCCCCCCCCCCCCCCCCCCC(=O)[O-]
REMARK SMILES IDX 16 1 17 2 18 3 19 4 20 5 21 6 22 7 23 8 24 9 25 10 26 11
REMARK SMILES IDX 27 12 28 13 29 14 30 15 31 16 32 17 15 18 14 19 13 20 12 21
REMARK SMILES IDX 11 22 10 23 9 24 8 25 7 26 6 27 5 28 4 29 3 30 2 31 1 32
REMARK H PARENT
REMARK Flexibility Score: inf
ROOT
ATOM      1  C   UNL     1     220.243 -10.250  31.258  1.00  0.00     0.000 C 
ENDROOT
BRANCH   1   2
ATOM      2  C   UNL     1     221.701 -10.286  30.777  1.00  0.00     0.000 C 
BRANCH   2   3
ATOM      3  C   UNL     1     221.896 -11.351  29.689  1.00  0.00     0.000 C 
BRANCH   3   4
ATOM      4  C   UNL     1     222.920 -10.926  28.624  1.00  0.00     0.000 C 
BRANCH   4   5
ATOM      5  C   UNL     1     222.292 -10.749  27.233  1.00  0.00     0.000 C 
BRANCH   5   6
ATOM      6  C   UNL     1     221.449  -9.467  27.113  1.00  0.00     0.000 C 
BRANCH   6   7
ATOM      7  C   UNL     1     222.279  -8.167  27.186  1.00  0.00     0.000 C 
BRANCH   7   8
ATOM      8  C   UNL     1     221.970  -7.348  28.451  1.00  0.00     0.000 C 
BRANCH   8   9
ATOM      9  C   UNL     1     223.239  -6.951  29.226  1.00  0.00     0.000 C 
BRANCH   9  10
ATOM     10  C   UNL     1     224.547  -7.526  28.652  1.00  0.00     0.000 C 
BRANCH  10  11
ATOM     11  C   UNL     1     225.261  -8.467  29.635  1.00  0.00     0.000 C 
BRANCH  11  12
ATOM     12  C   UNL     1     224.751  -8.264  31.071  1.00  0.00     0.000 C 
BRANCH  12  13
ATOM     13  C   UNL     1     224.950  -9.514  31.943  1.00  0.00     0.006 C 
BRANCH  13  14
ATOM     14  C   UNL     1     224.803  -9.218  33.441  1.00  0.00     0.053 C 
BRANCH  14  15
ATOM     15  C   UNL     1     223.893 -10.215  34.089  1.00  0.00     0.041 C 
ATOM     16  O   UNL     1     222.702  -9.907  34.361  1.00  0.00    -0.550 OA
ATOM     17  O   UNL     1     224.371 -11.474  34.429  1.00  0.00    -0.550 OA
ENDBRANCH  14  15
ENDBRANCH  13  14
ENDBRANCH  12  13
ENDBRANCH  11  12
ENDBRANCH  10  11
ENDBRANCH   9  10
ENDBRANCH   8   9
ENDBRANCH   7   8
ENDBRANCH   6   7
ENDBRANCH   5   6
ENDBRANCH   4   5
ENDBRANCH   3   4
ENDBRANCH   2   3
ENDBRANCH   1   2
BRANCH   1  18
ATOM     18  C   UNL     1     219.256  -9.918  30.128  1.00  0.00     0.000 C 
BRANCH  18  19
ATOM     19  C   UNL     1     218.912  -8.420  30.064  1.00  0.00     0.000 C 
BRANCH  19  20
ATOM     20  C   UNL     1     218.002  -8.064  28.875  1.00  0.00     0.000 C 
BRANCH  20  21
ATOM     21  C   UNL     1     217.633  -9.246  27.958  1.00  0.00     0.000 C 
BRANCH  21  22
ATOM     22  C   UNL     1     217.779  -8.978  26.450  1.00  0.00     0.000 C 
BRANCH  22  23
ATOM     23  C   UNL     1     217.522  -7.512  26.070  1.00  0.00     0.000 C 
BRANCH  23  24
ATOM     24  C   UNL     1     218.313  -7.133  24.809  1.00  0.00    -0.000 C 
BRANCH  24  25
ATOM     25  C   UNL     1     219.732  -6.635  25.124  1.00  0.00    -0.000 C 
BRANCH  25  26
ATOM     26  C   UNL     1     220.625  -6.563  23.873  1.00  0.00    -0.000 C 
BRANCH  26  27
ATOM     27  C   UNL     1     221.535  -7.792  23.723  1.00  0.00    -0.000 C 
BRANCH  27  28
ATOM     28  C   UNL     1     221.382  -8.482  22.359  1.00  0.00    -0.000 C 
BRANCH  28  29
ATOM     29  C   UNL     1     219.976  -8.258  21.786  1.00  0.00    -0.000 C 
BRANCH  29  30
ATOM     30  C   UNL     1     219.209  -9.580  21.670  1.00  0.00    -0.000 C 
BRANCH  30  31
ATOM     31  C   UNL     1     218.976 -10.206  23.050  1.00  0.00    -0.003 C 
ATOM     32  C   UNL     1     217.575 -10.802  23.156  1.00  0.00     0.004 C 
ENDBRANCH  30  31
ENDBRANCH  29  30
ENDBRANCH  28  29
ENDBRANCH  27  28
ENDBRANCH  26  27
ENDBRANCH  25  26
ENDBRANCH  24  25
ENDBRANCH  23  24
ENDBRANCH  22  23
ENDBRANCH  21  22
ENDBRANCH  20  21
ENDBRANCH  19  20
ENDBRANCH  18  19
ENDBRANCH   1  18
TORSDOF 28
ENDMDL
MODEL 3
REMARK VINA RESULT:    -5.770      1.084      1.581
REMARK INTER + INTRA:         -20.148
REMARK INTER:                 -15.591
REMARK INTRA:                  -4.557
REMARK UNBOUND:                -4.933
REMARK SMILES CCCCCCCCCCCCCCCCCCCCCCCCCCCCCC(=O)[O-]
REMARK SMILES IDX 16 1 17 2 18 3 19 4 20 5 21 6 22 7 23 8 24 9 25 10 26 11
REMARK SMILES IDX 27 12 28 13 29 14 30 15 31 16 32 17 15 18 14 19 13 20 12 21
REMARK SMILES IDX 11 22 10 23 9 24 8 25 7 26 6 27 5 28 4 29 3 30 2 31 1 32
REMARK H PARENT
REMARK Flexibility Score: inf
ROOT
ATOM      1  C   UNL     1     221.585  -8.059  24.506  1.00  0.00     0.000 C 
ENDROOT
BRANCH   1   2
ATOM      2  C   UNL     1     221.842  -9.574  24.493  1.00  0.00     0.000 C 
BRANCH   2   3
ATOM      3  C   UNL     1     221.284 -10.237  25.760  1.00  0.00     0.000 C 
BRANCH   3   4
ATOM      4  C   UNL     1     222.384 -10.868  26.628  1.00  0.00     0.000 C 
BRANCH   4   5
ATOM      5  C   UNL     1     223.013  -9.868  27.611  1.00  0.00     0.000 C 
BRANCH   5   6
ATOM      6  C   UNL     1     221.987  -8.894  28.216  1.00  0.00     0.000 C 
BRANCH   6   7
ATOM      7  C   UNL     1     222.459  -7.425  28.235  1.00  0.00     0.000 C 
BRANCH   7   8
ATOM      8  C   UNL     1     223.970  -7.301  28.503  1.00  0.00     0.000 C 
BRANCH   8   9
ATOM      9  C   UNL     1     224.284  -6.905  29.957  1.00  0.00     0.000 C 
BRANCH   9  10
ATOM     10  C   UNL     1     225.760  -7.073  30.362  1.00  0.00     0.000 C 
BRANCH  10  11
ATOM     11  C   UNL     1     226.589  -5.802  30.118  1.00  0.00     0.000 C 
BRANCH  11  12
ATOM     12  C   UNL     1     225.757  -4.535  30.380  1.00  0.00     0.000 C 
BRANCH  12  13
ATOM     13  C   UNL     1     225.709  -3.606  29.157  1.00  0.00     0.006 C 
BRANCH  13  14
ATOM     14  C   UNL     1     226.425  -4.200  27.937  1.00  0.00     0.053 C 
BRANCH  14  15
ATOM     15  C   UNL     1     227.194  -3.140  27.210  1.00  0.00     0.041 C 
ATOM     16  O   UNL     1     226.817  -1.940  27.251  1.00  0.00    -0.550 OA
ATOM     17  O   UNL     1     228.306  -3.486  26.452  1.00  0.00    -0.550 OA
ENDBRANCH  14  15
ENDBRANCH  13  14
ENDBRANCH  12  13
ENDBRANCH  11  12
ENDBRANCH  10  11
ENDBRANCH   9  10
ENDBRANCH   8   9
ENDBRANCH   7   8
ENDBRANCH   6   7
ENDBRANCH   5   6
ENDBRANCH   4   5
ENDBRANCH   3   4
ENDBRANCH   2   3
ENDBRANCH   1   2
BRANCH   1  18
ATOM     18  C   UNL     1     221.218  -7.511  23.118  1.00  0.00     0.000 C 
BRANCH  18  19
ATOM     19  C   UNL     1     221.765  -8.383  21.974  1.00  0.00     0.000 C 
BRANCH  19  20
ATOM     20  C   UNL     1     220.677  -8.813  20.975  1.00  0.00     0.000 C 
BRANCH  20  21
ATOM     21  C   UNL     1     219.230  -8.685  21.491  1.00  0.00     0.000 C 
BRANCH  21  22
ATOM     22  C   UNL     1     218.722  -9.875  22.324  1.00  0.00     0.000 C 
BRANCH  22  23
ATOM     23  C   UNL     1     218.016  -9.447  23.620  1.00  0.00     0.000 C 
BRANCH  23  24
ATOM     24  C   UNL     1     217.535  -7.992  23.519  1.00  0.00    -0.000 C 
BRANCH  24  25
ATOM     25  C   UNL     1     217.833  -7.177  24.787  1.00  0.00    -0.000 C 
BRANCH  25  26
ATOM     26  C   UNL     1     218.207  -8.066  25.986  1.00  0.00    -0.000 C 
BRANCH  26  27
ATOM     27  C   UNL     1     218.989  -7.304  27.068  1.00  0.00    -0.000 C 
BRANCH  27  28
ATOM     28  C   UNL     1     218.199  -7.152  28.376  1.00  0.00    -0.000 C 
BRANCH  28  29
ATOM     29  C   UNL     1     218.034  -8.507  29.078  1.00  0.00    -0.000 C 
BRANCH  29  30
ATOM     30  C   UNL     1     219.091  -8.694  30.173  1.00  0.00    -0.000 C 
BRANCH  30  31
ATOM     31  C   UNL     1     219.376 -10.181  30.417  1.00  0.00    -0.003 C 
ATOM     32  C   UNL     1     220.499 -10.368  31.433  1.00  0.00     0.004 C 
ENDBRANCH  30  31
ENDBRANCH  29  30
ENDBRANCH  28  29
ENDBRANCH  27  28
ENDBRANCH  26  27
ENDBRANCH  25  26
ENDBRANCH  24  25
ENDBRANCH  23  24
ENDBRANCH  22  23
ENDBRANCH  21  22
ENDBRANCH  20  21
ENDBRANCH  19  20
ENDBRANCH  18  19
ENDBRANCH   1  18
TORSDOF 28
ENDMDL
MODEL 4
REMARK VINA RESULT:    -5.705      3.458      4.516
REMARK INTER + INTRA:         -19.976
REMARK INTER:                 -14.915
REMARK INTRA:                  -5.061
REMARK UNBOUND:                -4.933
REMARK SMILES CCCCCCCCCCCCCCCCCCCCCCCCCCCCCC(=O)[O-]
REMARK SMILES IDX 16 1 17 2 18 3 19 4 20 5 21 6 22 7 23 8 24 9 25 10 26 11
REMARK SMILES IDX 27 12 28 13 29 14 30 15 31 16 32 17 15 18 14 19 13 20 12 21
REMARK SMILES IDX 11 22 10 23 9 24 8 25 7 26 6 27 5 28 4 29 3 30 2 31 1 32
REMARK H PARENT
REMARK Flexibility Score: inf
ROOT
ATOM      1  C   UNL     1     221.587  -9.768  24.234  1.00  0.00     0.000 C 
ENDROOT
BRANCH   1   2
ATOM      2  C   UNL     1     221.272 -10.098  25.701  1.00  0.00     0.000 C 
BRANCH   2   3
ATOM      3  C   UNL     1     222.365 -10.985  26.313  1.00  0.00     0.000 C 
BRANCH   3   4
ATOM      4  C   UNL     1     222.980 -10.371  27.581  1.00  0.00     0.000 C 
BRANCH   4   5
ATOM      5  C   UNL     1     221.934 -10.077  28.667  1.00  0.00     0.000 C 
BRANCH   5   6
ATOM      6  C   UNL     1     222.077  -8.669  29.272  1.00  0.00     0.000 C 
BRANCH   6   7
ATOM      7  C   UNL     1     222.429  -7.579  28.238  1.00  0.00     0.000 C 
BRANCH   7   8
ATOM      8  C   UNL     1     223.871  -7.067  28.398  1.00  0.00     0.000 C 
BRANCH   8   9
ATOM      9  C   UNL     1     224.296  -6.942  29.873  1.00  0.00     0.000 C 
BRANCH   9  10
ATOM     10  C   UNL     1     225.717  -7.453  30.176  1.00  0.00     0.000 C 
BRANCH  10  11
ATOM     11  C   UNL     1     225.866  -8.963  29.936  1.00  0.00     0.000 C 
BRANCH  11  12
ATOM     12  C   UNL     1     225.609  -9.761  31.225  1.00  0.00     0.000 C 
BRANCH  12  13
ATOM     13  C   UNL     1     224.421 -10.727  31.085  1.00  0.00     0.006 C 
BRANCH  13  14
ATOM     14  C   UNL     1     223.655 -10.914  32.402  1.00  0.00     0.053 C 
BRANCH  14  15
ATOM     15  C   UNL     1     222.315 -11.532  32.148  1.00  0.00     0.041 C 
ATOM     16  O   UNL     1     222.229 -12.671  31.618  1.00  0.00    -0.550 OA
ATOM     17  O   UNL     1     221.157 -10.831  32.461  1.00  0.00    -0.550 OA
ENDBRANCH  14  15
ENDBRANCH  13  14
ENDBRANCH  12  13
ENDBRANCH  11  12
ENDBRANCH  10  11
ENDBRANCH   9  10
ENDBRANCH   8   9
ENDBRANCH   7   8
ENDBRANCH   6   7
ENDBRANCH   5   6
ENDBRANCH   4   5
ENDBRANCH   3   4
ENDBRANCH   2   3
ENDBRANCH   1   2
BRANCH   1  18
ATOM     18  C   UNL     1     221.947  -8.288  24.026  1.00  0.00     0.000 C 
BRANCH  18  19
ATOM     19  C   UNL     1     221.287  -7.689  22.773  1.00  0.00     0.000 C 
BRANCH  19  20
ATOM     20  C   UNL     1     221.006  -8.738  21.683  1.00  0.00     0.000 C 
BRANCH  20  21
ATOM     21  C   UNL     1     219.561  -8.752  21.147  1.00  0.00     0.000 C 
BRANCH  21  22
ATOM     22  C   UNL     1     218.637  -9.809  21.778  1.00  0.00     0.000 C 
BRANCH  22  23
ATOM     23  C   UNL     1     217.502  -9.198  22.613  1.00  0.00     0.000 C 
BRANCH  23  24
ATOM     24  C   UNL     1     217.978  -8.912  24.045  1.00  0.00    -0.000 C 
BRANCH  24  25
ATOM     25  C   UNL     1     217.494  -7.553  24.573  1.00  0.00    -0.000 C 
BRANCH  25  26
ATOM     26  C   UNL     1     218.640  -6.540  24.736  1.00  0.00    -0.000 C 
BRANCH  26  27
ATOM     27  C   UNL     1     219.466  -6.779  26.011  1.00  0.00    -0.000 C 
BRANCH  27  28
ATOM     28  C   UNL     1     218.600  -7.199  27.209  1.00  0.00    -0.000 C 
BRANCH  28  29
ATOM     29  C   UNL     1     218.755  -8.698  27.498  1.00  0.00    -0.000 C 
BRANCH  29  30
ATOM     30  C   UNL     1     217.826  -9.140  28.635  1.00  0.00    -0.000 C 
BRANCH  30  31
ATOM     31  C   UNL     1     218.618  -9.799  29.770  1.00  0.00    -0.003 C 
ATOM     32  C   UNL     1     218.268  -9.180  31.120  1.00  0.00     0.004 C 
ENDBRANCH  30  31
ENDBRANCH  29  30
ENDBRANCH  28  29
ENDBRANCH  27  28
ENDBRANCH  26  27
ENDBRANCH  25  26
ENDBRANCH  24  25
ENDBRANCH  23  24
ENDBRANCH  22  23
ENDBRANCH  21  22
ENDBRANCH  20  21
ENDBRANCH  19  20
ENDBRANCH  18  19
ENDBRANCH   1  18
TORSDOF 28
ENDMDL
MODEL 5
REMARK VINA RESULT:    -5.676      2.792      4.458
REMARK INTER + INTRA:         -19.899
REMARK INTER:                 -14.849
REMARK INTRA:                  -5.051
REMARK UNBOUND:                -4.933
REMARK SMILES CCCCCCCCCCCCCCCCCCCCCCCCCCCCCC(=O)[O-]
REMARK SMILES IDX 16 1 17 2 18 3 19 4 20 5 21 6 22 7 23 8 24 9 25 10 26 11
REMARK SMILES IDX 27 12 28 13 29 14 30 15 31 16 32 17 15 18 14 19 13 20 12 21
REMARK SMILES IDX 11 22 10 23 9 24 8 25 7 26 6 27 5 28 4 29 3 30 2 31 1 32
REMARK H PARENT
REMARK Flexibility Score: inf
ROOT
ATOM      1  C   UNL     1     220.891  -8.794  22.071  1.00  0.00     0.000 C 
ENDROOT
BRANCH   1   2
ATOM      2  C   UNL     1     221.253  -7.631  23.007  1.00  0.00     0.000 C 
BRANCH   2   3
ATOM      3  C   UNL     1     221.586  -8.141  24.416  1.00  0.00     0.000 C 
BRANCH   3   4
ATOM      4  C   UNL     1     221.061  -9.563  24.667  1.00  0.00     0.000 C 
BRANCH   4   5
ATOM      5  C   UNL     1     221.069  -9.946  26.156  1.00  0.00     0.000 C 
BRANCH   5   6
ATOM      6  C   UNL     1     222.469 -10.322  26.672  1.00  0.00     0.000 C 
BRANCH   6   7
ATOM      7  C   UNL     1     223.001  -9.378  27.771  1.00  0.00     0.000 C 
BRANCH   7   8
ATOM      8  C   UNL     1     222.236  -8.044  27.815  1.00  0.00     0.000 C 
BRANCH   8   9
ATOM      9  C   UNL     1     222.808  -7.065  28.856  1.00  0.00     0.000 C 
BRANCH   9  10
ATOM     10  C   UNL     1     222.886  -7.626  30.288  1.00  0.00     0.000 C 
BRANCH  10  11
ATOM     11  C   UNL     1     224.233  -7.330  30.967  1.00  0.00     0.000 C 
BRANCH  11  12
ATOM     12  C   UNL     1     225.261  -6.794  29.956  1.00  0.00     0.000 C 
BRANCH  12  13
ATOM     13  C   UNL     1     226.275  -7.869  29.531  1.00  0.00     0.006 C 
BRANCH  13  14
ATOM     14  C   UNL     1     226.264  -9.089  30.460  1.00  0.00     0.053 C 
BRANCH  14  15
ATOM     15  C   UNL     1     227.237 -10.123  29.983  1.00  0.00     0.041 C 
ATOM     16  O   UNL     1     228.329 -10.296  30.587  1.00  0.00    -0.550 OA
ATOM     17  O   UNL     1     226.956 -10.869  28.846  1.00  0.00    -0.550 OA
ENDBRANCH  14  15
ENDBRANCH  13  14
ENDBRANCH  12  13
ENDBRANCH  11  12
ENDBRANCH  10  11
ENDBRANCH   9  10
ENDBRANCH   8   9
ENDBRANCH   7   8
ENDBRANCH   6   7
ENDBRANCH   5   6
ENDBRANCH   4   5
ENDBRANCH   3   4
ENDBRANCH   2   3
ENDBRANCH   1   2
BRANCH   1  18
ATOM     18  C   UNL     1     219.584  -8.549  21.302  1.00  0.00     0.000 C 
BRANCH  18  19
ATOM     19  C   UNL     1     218.475  -9.544  21.686  1.00  0.00     0.000 C 
BRANCH  19  20
ATOM     20  C   UNL     1     217.811  -9.210  23.033  1.00  0.00     0.000 C 
BRANCH  20  21
ATOM     21  C   UNL     1     217.547  -7.711  23.278  1.00  0.00     0.000 C 
BRANCH  21  22
ATOM     22  C   UNL     1     217.928  -7.197  24.678  1.00  0.00     0.000 C 
BRANCH  22  23
ATOM     23  C   UNL     1     217.590  -8.192  25.798  1.00  0.00     0.000 C 
BRANCH  23  24
ATOM     24  C   UNL     1     218.183  -7.723  27.135  1.00  0.00    -0.000 C 
BRANCH  24  25
ATOM     25  C   UNL     1     217.842  -8.664  28.301  1.00  0.00    -0.000 C 
BRANCH  25  26
ATOM     26  C   UNL     1     219.078  -9.043  29.135  1.00  0.00    -0.000 C 
BRANCH  26  27
ATOM     27  C   UNL     1     218.741  -9.297  30.613  1.00  0.00    -0.000 C 
BRANCH  27  28
ATOM     28  C   UNL     1     219.740 -10.244  31.296  1.00  0.00    -0.000 C 
BRANCH  28  29
ATOM     29  C   UNL     1     220.788 -10.749  30.296  1.00  0.00    -0.000 C 
BRANCH  29  30
ATOM     30  C   UNL     1     222.087 -11.143  31.009  1.00  0.00    -0.000 C 
BRANCH  30  31
ATOM     31  C   UNL     1     221.914 -11.105  32.532  1.00  0.00    -0.003 C 
ATOM     32  C   UNL     1     222.851 -10.083  33.168  1.00  0.00     0.004 C 
ENDBRANCH  30  31
ENDBRANCH  29  30
ENDBRANCH  28  29
ENDBRANCH  27  28
ENDBRANCH  26  27
ENDBRANCH  25  26
ENDBRANCH  24  25
ENDBRANCH  23  24
ENDBRANCH  22  23
ENDBRANCH  21  22
ENDBRANCH  20  21
ENDBRANCH  19  20
ENDBRANCH  18  19
ENDBRANCH   1  18
TORSDOF 28
ENDMDL
MODEL 6
REMARK VINA RESULT:    -5.656      3.122      5.029
REMARK INTER + INTRA:         -19.847
REMARK INTER:                 -14.354
REMARK INTRA:                  -5.493
REMARK UNBOUND:                -4.933
REMARK SMILES CCCCCCCCCCCCCCCCCCCCCCCCCCCCCC(=O)[O-]
REMARK SMILES IDX 16 1 17 2 18 3 19 4 20 5 21 6 22 7 23 8 24 9 25 10 26 11
REMARK SMILES IDX 27 12 28 13 29 14 30 15 31 16 32 17 15 18 14 19 13 20 12 21
REMARK SMILES IDX 11 22 10 23 9 24 8 25 7 26 6 27 5 28 4 29 3 30 2 31 1 32
REMARK H PARENT
REMARK Flexibility Score: inf
ROOT
ATOM      1  C   UNL     1     221.622  -8.206  27.015  1.00  0.00     0.000 C 
ENDROOT
BRANCH   1   2
ATOM      2  C   UNL     1     223.026  -7.872  27.541  1.00  0.00     0.000 C 
BRANCH   2   3
ATOM      3  C   UNL     1     222.948  -7.050  28.836  1.00  0.00     0.000 C 
BRANCH   3   4
ATOM      4  C   UNL     1     224.332  -6.782  29.448  1.00  0.00     0.000 C 
BRANCH   4   5
ATOM      5  C   UNL     1     225.384  -6.398  28.395  1.00  0.00     0.000 C 
BRANCH   5   6
ATOM      6  C   UNL     1     226.821  -6.728  28.834  1.00  0.00     0.000 C 
BRANCH   6   7
ATOM      7  C   UNL     1     226.905  -7.460  30.191  1.00  0.00     0.000 C 
BRANCH   7   8
ATOM      8  C   UNL     1     227.087  -8.978  30.024  1.00  0.00     0.000 C 
BRANCH   8   9
ATOM      9  C   UNL     1     226.631  -9.771  31.262  1.00  0.00     0.000 C 
BRANCH   9  10
ATOM     10  C   UNL     1     225.506 -10.787  30.994  1.00  0.00     0.000 C 
BRANCH  10  11
ATOM     11  C   UNL     1     224.629 -10.396  29.793  1.00  0.00     0.000 C 
BRANCH  11  12
ATOM     12  C   UNL     1     223.136 -10.433  30.157  1.00  0.00     0.000 C 
BRANCH  12  13
ATOM     13  C   UNL     1     222.904 -10.371  31.675  1.00  0.00     0.006 C 
BRANCH  13  14
ATOM     14  C   UNL     1     222.706  -8.937  32.183  1.00  0.00     0.053 C 
BRANCH  14  15
ATOM     15  C   UNL     1     223.118  -8.824  33.618  1.00  0.00     0.041 C 
ATOM     16  O   UNL     1     223.830  -7.859  34.002  1.00  0.00    -0.550 OA
ATOM     17  O   UNL     1     222.749  -9.809  34.526  1.00  0.00    -0.550 OA
ENDBRANCH  14  15
ENDBRANCH  13  14
ENDBRANCH  12  13
ENDBRANCH  11  12
ENDBRANCH  10  11
ENDBRANCH   9  10
ENDBRANCH   8   9
ENDBRANCH   7   8
ENDBRANCH   6   7
ENDBRANCH   5   6
ENDBRANCH   4   5
ENDBRANCH   3   4
ENDBRANCH   2   3
ENDBRANCH   1   2
BRANCH   1  18
ATOM     18  C   UNL     1     221.311  -9.710  27.073  1.00  0.00     0.000 C 
BRANCH  18  19
ATOM     19  C   UNL     1     221.431 -10.392  25.699  1.00  0.00     0.000 C 
BRANCH  19  20
ATOM     20  C   UNL     1     221.460  -9.389  24.532  1.00  0.00     0.000 C 
BRANCH  20  21
ATOM     21  C   UNL     1     220.466  -9.686  23.392  1.00  0.00     0.000 C 
BRANCH  21  22
ATOM     22  C   UNL     1     219.128 -10.306  23.832  1.00  0.00     0.000 C 
BRANCH  22  23
ATOM     23  C   UNL     1     217.909  -9.641  23.176  1.00  0.00     0.000 C 
BRANCH  23  24
ATOM     24  C   UNL     1     218.120  -8.124  23.056  1.00  0.00    -0.000 C 
BRANCH  24  25
ATOM     25  C   UNL     1     217.520  -7.345  24.236  1.00  0.00    -0.000 C 
BRANCH  25  26
ATOM     26  C   UNL     1     218.592  -6.847  25.221  1.00  0.00    -0.000 C 
BRANCH  26  27
ATOM     27  C   UNL     1     218.276  -7.217  26.679  1.00  0.00    -0.000 C 
BRANCH  27  28
ATOM     28  C   UNL     1     217.664  -8.619  26.816  1.00  0.00    -0.000 C 
BRANCH  28  29
ATOM     29  C   UNL     1     217.758  -9.120  28.263  1.00  0.00    -0.000 C 
BRANCH  29  30
ATOM     30  C   UNL     1     218.238  -8.008  29.203  1.00  0.00    -0.000 C 
BRANCH  30  31
ATOM     31  C   UNL     1     219.456  -8.460  30.016  1.00  0.00    -0.003 C 
ATOM     32  C   UNL     1     219.306  -9.907  30.476  1.00  0.00     0.004 C 
ENDBRANCH  30  31
ENDBRANCH  29  30
ENDBRANCH  28  29
ENDBRANCH  27  28
ENDBRANCH  26  27
ENDBRANCH  25  26
ENDBRANCH  24  25
ENDBRANCH  23  24
ENDBRANCH  22  23
ENDBRANCH  21  22
ENDBRANCH  20  21
ENDBRANCH  19  20
ENDBRANCH  18  19
ENDBRANCH   1  18
TORSDOF 28
ENDMDL
MODEL 7
REMARK VINA RESULT:    -5.644      1.048      2.165
REMARK INTER + INTRA:         -19.816
REMARK INTER:                 -15.137
REMARK INTRA:                  -4.679
REMARK UNBOUND:                -4.933
REMARK SMILES CCCCCCCCCCCCCCCCCCCCCCCCCCCCCC(=O)[O-]
REMARK SMILES IDX 16 1 17 2 18 3 19 4 20 5 21 6 22 7 23 8 24 9 25 10 26 11
REMARK SMILES IDX 27 12 28 13 29 14 30 15 31 16 32 17 15 18 14 19 13 20 12 21
REMARK SMILES IDX 11 22 10 23 9 24 8 25 7 26 6 27 5 28 4 29 3 30 2 31 1 32
REMARK H PARENT
REMARK Flexibility Score: inf
ROOT
ATOM      1  C   UNL     1     222.375 -11.075  26.295  1.00  0.00     0.000 C 
ENDROOT
BRANCH   1   2
ATOM      2  C   UNL     1     222.828 -10.247  27.507  1.00  0.00     0.000 C 
BRANCH   2   3
ATOM      3  C   UNL     1     221.623  -9.656  28.252  1.00  0.00     0.000 C 
BRANCH   3   4
ATOM      4  C   UNL     1     221.690  -8.124  28.359  1.00  0.00     0.000 C 
BRANCH   4   5
ATOM      5  C   UNL     1     221.571  -7.624  29.808  1.00  0.00     0.000 C 
BRANCH   5   6
ATOM      6  C   UNL     1     222.671  -8.183  30.728  1.00  0.00     0.000 C 
BRANCH   6   7
ATOM      7  C   UNL     1     223.907  -7.267  30.848  1.00  0.00     0.000 C 
BRANCH   7   8
ATOM      8  C   UNL     1     225.070  -7.737  29.956  1.00  0.00     0.000 C 
BRANCH   8   9
ATOM      9  C   UNL     1     225.034  -7.105  28.552  1.00  0.00     0.000 C 
BRANCH   9  10
ATOM     10  C   UNL     1     226.057  -5.976  28.331  1.00  0.00     0.000 C 
BRANCH  10  11
ATOM     11  C   UNL     1     225.521  -4.600  28.759  1.00  0.00     0.000 C 
BRANCH  11  12
ATOM     12  C   UNL     1     226.527  -3.865  29.659  1.00  0.00     0.000 C 
BRANCH  12  13
ATOM     13  C   UNL     1     226.496  -2.343  29.445  1.00  0.00     0.006 C 
BRANCH  13  14
ATOM     14  C   UNL     1     227.890  -1.756  29.185  1.00  0.00     0.053 C 
BRANCH  14  15
ATOM     15  C   UNL     1     228.124  -1.588  27.715  1.00  0.00     0.041 C 
ATOM     16  O   UNL     1     229.223  -1.141  27.293  1.00  0.00    -0.550 OA
ATOM     17  O   UNL     1     227.112  -1.887  26.812  1.00  0.00    -0.550 OA
ENDBRANCH  14  15
ENDBRANCH  13  14
ENDBRANCH  12  13
ENDBRANCH  11  12
ENDBRANCH  10  11
ENDBRANCH   9  10
ENDBRANCH   8   9
ENDBRANCH   7   8
ENDBRANCH   6   7
ENDBRANCH   5   6
ENDBRANCH   4   5
ENDBRANCH   3   4
ENDBRANCH   2   3
ENDBRANCH   1   2
BRANCH   1  18
ATOM     18  C   UNL     1     221.259 -10.386  25.493  1.00  0.00     0.000 C 
BRANCH  18  19
ATOM     19  C   UNL     1     221.807  -9.431  24.419  1.00  0.00     0.000 C 
BRANCH  19  20
ATOM     20  C   UNL     1     221.458  -7.958  24.692  1.00  0.00     0.000 C 
BRANCH  20  21
ATOM     21  C   UNL     1     220.847  -7.199  23.497  1.00  0.00     0.000 C 
BRANCH  21  22
ATOM     22  C   UNL     1     220.671  -8.029  22.213  1.00  0.00     0.000 C 
BRANCH  22  23
ATOM     23  C   UNL     1     219.204  -8.375  21.914  1.00  0.00     0.000 C 
BRANCH  23  24
ATOM     24  C   UNL     1     218.986  -9.894  21.959  1.00  0.00    -0.000 C 
BRANCH  24  25
ATOM     25  C   UNL     1     218.317 -10.362  23.261  1.00  0.00    -0.000 C 
BRANCH  25  26
ATOM     26  C   UNL     1     217.535  -9.236  23.960  1.00  0.00    -0.000 C 
BRANCH  26  27
ATOM     27  C   UNL     1     217.964  -9.035  25.422  1.00  0.00    -0.000 C 
BRANCH  27  28
ATOM     28  C   UNL     1     217.887  -7.567  25.867  1.00  0.00    -0.000 C 
BRANCH  28  29
ATOM     29  C   UNL     1     218.304  -7.417  27.336  1.00  0.00    -0.000 C 
BRANCH  29  30
ATOM     30  C   UNL     1     217.943  -8.668  28.145  1.00  0.00    -0.000 C 
BRANCH  30  31
ATOM     31  C   UNL     1     217.964  -8.378  29.650  1.00  0.00    -0.003 C 
ATOM     32  C   UNL     1     218.613  -9.522  30.423  1.00  0.00     0.004 C 
ENDBRANCH  30  31
ENDBRANCH  29  30
ENDBRANCH  28  29
ENDBRANCH  27  28
ENDBRANCH  26  27
ENDBRANCH  25  26
ENDBRANCH  24  25
ENDBRANCH  23  24
ENDBRANCH  22  23
ENDBRANCH  21  22
ENDBRANCH  20  21
ENDBRANCH  19  20
ENDBRANCH  18  19
ENDBRANCH   1  18
TORSDOF 28
ENDMDL
MODEL 8
REMARK VINA RESULT:    -5.640      3.305      6.492
REMARK INTER + INTRA:         -19.805
REMARK INTER:                 -14.564
REMARK INTRA:                  -5.241
REMARK UNBOUND:                -4.933
REMARK SMILES CCCCCCCCCCCCCCCCCCCCCCCCCCCCCC(=O)[O-]
REMARK SMILES IDX 16 1 17 2 18 3 19 4 20 5 21 6 22 7 23 8 24 9 25 10 26 11
REMARK SMILES IDX 27 12 28 13 29 14 30 15 31 16 32 17 15 18 14 19 13 20 12 21
REMARK SMILES IDX 11 22 10 23 9 24 8 25 7 26 6 27 5 28 4 29 3 30 2 31 1 32
REMARK H PARENT
REMARK Flexibility Score: inf
ROOT
ATOM      1  C   UNL     1     219.635  -6.475  25.142  1.00  0.00     0.000 C 
ENDROOT
BRANCH   1   2
ATOM      2  C   UNL     1     218.332  -6.859  24.425  1.00  0.00     0.000 C 
BRANCH   2   3
ATOM      3  C   UNL     1     217.471  -7.777  25.303  1.00  0.00     0.000 C 
BRANCH   3   4
ATOM      4  C   UNL     1     217.881  -7.732  26.783  1.00  0.00     0.000 C 
BRANCH   4   5
ATOM      5  C   UNL     1     217.761  -9.098  27.476  1.00  0.00     0.000 C 
BRANCH   5   6
ATOM      6  C   UNL     1     217.794  -8.999  29.011  1.00  0.00     0.000 C 
BRANCH   6   7
ATOM      7  C   UNL     1     218.731  -7.893  29.543  1.00  0.00     0.000 C 
BRANCH   7   8
ATOM      8  C   UNL     1     219.685  -8.412  30.633  1.00  0.00     0.000 C 
BRANCH   8   9
ATOM      9  C   UNL     1     219.859  -9.941  30.592  1.00  0.00     0.000 C 
BRANCH   9  10
ATOM     10  C   UNL     1     221.260 -10.415  30.161  1.00  0.00     0.000 C 
BRANCH  10  11
ATOM     11  C   UNL     1     221.620 -11.794  30.736  1.00  0.00     0.000 C 
BRANCH  11  12
ATOM     12  C   UNL     1     222.145 -11.677  32.176  1.00  0.00     0.000 C 
BRANCH  12  13
ATOM     13  C   UNL     1     222.864 -10.342  32.429  1.00  0.00     0.006 C 
BRANCH  13  14
ATOM     14  C   UNL     1     223.168 -10.108  33.914  1.00  0.00     0.053 C 
BRANCH  14  15
ATOM     15  C   UNL     1     224.408 -10.845  34.320  1.00  0.00     0.041 C 
ATOM     16  O   UNL     1     224.405 -11.578  35.344  1.00  0.00    -0.550 OA
ATOM     17  O   UNL     1     225.579 -10.690  33.589  1.00  0.00    -0.550 OA
ENDBRANCH  14  15
ENDBRANCH  13  14
ENDBRANCH  12  13
ENDBRANCH  11  12
ENDBRANCH  10  11
ENDBRANCH   9  10
ENDBRANCH   8   9
ENDBRANCH   7   8
ENDBRANCH   6   7
ENDBRANCH   5   6
ENDBRANCH   4   5
ENDBRANCH   3   4
ENDBRANCH   2   3
ENDBRANCH   1   2
BRANCH   1  18
ATOM     18  C   UNL     1     220.864  -6.566  24.223  1.00  0.00     0.000 C 
BRANCH  18  19
ATOM     19  C   UNL     1     220.569  -7.318  22.914  1.00  0.00     0.000 C 
BRANCH  19  20
ATOM     20  C   UNL     1     221.241  -8.701  22.852  1.00  0.00     0.000 C 
BRANCH  20  21
ATOM     21  C   UNL     1     220.309  -9.893  23.145  1.00  0.00     0.000 C 
BRANCH  21  22
ATOM     22  C   UNL     1     220.125 -10.232  24.634  1.00  0.00     0.000 C 
BRANCH  22  23
ATOM     23  C   UNL     1     221.450 -10.274  25.412  1.00  0.00     0.000 C 
BRANCH  23  24
ATOM     24  C   UNL     1     221.318  -9.521  26.745  1.00  0.00    -0.000 C 
BRANCH  24  25
ATOM     25  C   UNL     1     222.371  -8.414  26.910  1.00  0.00    -0.000 C 
BRANCH  25  26
ATOM     26  C   UNL     1     221.939  -7.335  27.918  1.00  0.00    -0.000 C 
BRANCH  26  27
ATOM     27  C   UNL     1     222.838  -7.294  29.165  1.00  0.00    -0.000 C 
BRANCH  27  28
ATOM     28  C   UNL     1     223.983  -8.316  29.105  1.00  0.00    -0.000 C 
BRANCH  28  29
ATOM     29  C   UNL     1     225.346  -7.611  29.065  1.00  0.00    -0.000 C 
BRANCH  29  30
ATOM     30  C   UNL     1     225.217  -6.135  29.460  1.00  0.00    -0.000 C 
BRANCH  30  31
ATOM     31  C   UNL     1     225.702  -5.218  28.331  1.00  0.00    -0.003 C 
ATOM     32  C   UNL     1     227.209  -4.995  28.411  1.00  0.00     0.004 C 
ENDBRANCH  30  31
ENDBRANCH  29  30
ENDBRANCH  28  29
ENDBRANCH  27  28
ENDBRANCH  26  27
ENDBRANCH  25  26
ENDBRANCH  24  25
ENDBRANCH  23  24
ENDBRANCH  22  23
ENDBRANCH  21  22
ENDBRANCH  20  21
ENDBRANCH  19  20
ENDBRANCH  18  19
ENDBRANCH   1  18
TORSDOF 28
ENDMDL
MODEL 9
REMARK VINA RESULT:    -5.638      2.908      8.025
REMARK INTER + INTRA:         -19.799
REMARK INTER:                 -14.292
REMARK INTRA:                  -5.507
REMARK UNBOUND:                -4.933
REMARK SMILES CCCCCCCCCCCCCCCCCCCCCCCCCCCCCC(=O)[O-]
REMARK SMILES IDX 16 1 17 2 18 3 19 4 20 5 21 6 22 7 23 8 24 9 25 10 26 11
REMARK SMILES IDX 27 12 28 13 29 14 30 15 31 16 32 17 15 18 14 19 13 20 12 21
REMARK SMILES IDX 11 22 10 23 9 24 8 25 7 26 6 27 5 28 4 29 3 30 2 31 1 32
REMARK H PARENT
REMARK Flexibility Score: inf
ROOT
ATOM      1  C   UNL     1     221.294 -10.389  25.165  1.00  0.00     0.000 C 
ENDROOT
BRANCH   1   2
ATOM      2  C   UNL     1     221.973  -9.335  24.276  1.00  0.00     0.000 C 
BRANCH   2   3
ATOM      3  C   UNL     1     221.317  -7.959  24.455  1.00  0.00     0.000 C 
BRANCH   3   4
ATOM      4  C   UNL     1     220.846  -7.354  23.123  1.00  0.00     0.000 C 
BRANCH   4   5
ATOM      5  C   UNL     1     221.278  -8.186  21.905  1.00  0.00     0.000 C 
BRANCH   5   6
ATOM      6  C   UNL     1     220.094  -8.622  21.024  1.00  0.00     0.000 C 
BRANCH   6   7
ATOM      7  C   UNL     1     218.768  -8.780  21.798  1.00  0.00     0.000 C 
BRANCH   7   8
ATOM      8  C   UNL     1     218.562 -10.215  22.314  1.00  0.00     0.000 C 
BRANCH   8   9
ATOM      9  C   UNL     1     218.018 -10.256  23.754  1.00  0.00     0.000 C 
BRANCH   9  10
ATOM     10  C   UNL     1     217.787  -8.873  24.391  1.00  0.00     0.000 C 
BRANCH  10  11
ATOM     11  C   UNL     1     217.923  -8.897  25.921  1.00  0.00     0.000 C 
BRANCH  11  12
ATOM     12  C   UNL     1     217.928  -7.474  26.503  1.00  0.00     0.000 C 
BRANCH  12  13
ATOM     13  C   UNL     1     219.121  -7.232  27.442  1.00  0.00     0.006 C 
BRANCH  13  14
ATOM     14  C   UNL     1     218.712  -7.214  28.921  1.00  0.00     0.053 C 
BRANCH  14  15
ATOM     15  C   UNL     1     219.576  -8.143  29.718  1.00  0.00     0.041 C 
ATOM     16  O   UNL     1     219.492  -9.388  29.553  1.00  0.00    -0.550 OA
ATOM     17  O   UNL     1     220.447  -7.634  30.673  1.00  0.00    -0.550 OA
ENDBRANCH  14  15
ENDBRANCH  13  14
ENDBRANCH  12  13
ENDBRANCH  11  12
ENDBRANCH  10  11
ENDBRANCH   9  10
ENDBRANCH   8   9
ENDBRANCH   7   8
ENDBRANCH   6   7
ENDBRANCH   5   6
ENDBRANCH   4   5
ENDBRANCH   3   4
ENDBRANCH   2   3
ENDBRANCH   1   2
BRANCH   1  18
ATOM     18  C   UNL     1     221.385 -10.048  26.661  1.00  0.00     0.000 C 
BRANCH  18  19
ATOM     19  C   UNL     1     222.695 -10.541  27.300  1.00  0.00     0.000 C 
BRANCH  19  20
ATOM     20  C   UNL     1     223.268  -9.552  28.330  1.00  0.00     0.000 C 
BRANCH  20  21
ATOM     21  C   UNL     1     223.075  -8.062  27.984  1.00  0.00     0.000 C 
BRANCH  21  22
ATOM     22  C   UNL     1     223.486  -7.073  29.088  1.00  0.00     0.000 C 
BRANCH  22  23
ATOM     23  C   UNL     1     224.829  -6.381  28.809  1.00  0.00     0.000 C 
BRANCH  23  24
ATOM     24  C   UNL     1     225.809  -6.614  29.969  1.00  0.00    -0.000 C 
BRANCH  24  25
ATOM     25  C   UNL     1     227.013  -7.479  29.568  1.00  0.00    -0.000 C 
BRANCH  25  26
ATOM     26  C   UNL     1     226.669  -8.978  29.506  1.00  0.00    -0.000 C 
BRANCH  26  27
ATOM     27  C   UNL     1     226.809  -9.676  30.868  1.00  0.00    -0.000 C 
BRANCH  27  28
ATOM     28  C   UNL     1     225.586 -10.534  31.224  1.00  0.00    -0.000 C 
BRANCH  28  29
ATOM     29  C   UNL     1     224.426  -9.659  31.717  1.00  0.00    -0.000 C 
BRANCH  29  30
ATOM     30  C   UNL     1     223.379 -10.496  32.461  1.00  0.00    -0.000 C 
BRANCH  30  31
ATOM     31  C   UNL     1     222.061 -10.552  31.680  1.00  0.00    -0.003 C 
ATOM     32  C   UNL     1     221.935 -11.860  30.904  1.00  0.00     0.004 C 
ENDBRANCH  30  31
ENDBRANCH  29  30
ENDBRANCH  28  29
ENDBRANCH  27  28
ENDBRANCH  26  27
ENDBRANCH  25  26
ENDBRANCH  24  25
ENDBRANCH  23  24
ENDBRANCH  22  23
ENDBRANCH  21  22
ENDBRANCH  20  21
ENDBRANCH  19  20
ENDBRANCH  18  19
ENDBRANCH   1  18
TORSDOF 28
ENDMDL
