MODEL 1
REMARK VINA RESULT:    -4.572      0.000      0.000
REMARK INTER + INTRA:          -5.842
REMARK INTER:                  -5.507
REMARK INTRA:                  -0.334
REMARK UNBOUND:                -0.334
REMARK SMILES O=c1c(O)c(-c2ccc(O)c(O)c2)oc2cc(O)cc(O)c12
REMARK SMILES IDX 5 1 3 2 2 3 1 4 22 5 20 6 19 7 17 8 16 9 15 10 14 11 6 12
REMARK SMILES IDX 7 13 8 14 9 15 13 16 11 17 10 18 12 20 4 22 21 24 18 26
REMARK H PARENT 10 19 12 21 4 23 21 25 18 27
REMARK Flexibility Score: inf
ROOT
ATOM      1  C   UNL     1      23.505  13.073  86.555  1.00  0.00     0.180 A 
ATOM      2  C   UNL     1      24.069  14.097  87.337  1.00  0.00     0.208 A 
ATOM      3  C   UNL     1      25.464  14.260  87.342  1.00  0.00     0.238 A 
ATOM      4  O   UNL     1      25.967  15.142  88.084  1.00  0.00    -0.285 OA
ATOM      5  C   UNL     1      26.275  13.409  86.553  1.00  0.00     0.111 A 
ATOM      6  C   UNL     1      27.696  13.509  86.450  1.00  0.00     0.134 A 
ATOM      7  C   UNL     1      28.408  12.533  85.743  1.00  0.00     0.093 A 
ATOM      8  C   UNL     1      27.749  11.497  85.082  1.00  0.00     0.123 A 
ATOM      9  C   UNL     1      26.355  11.423  85.126  1.00  0.00     0.094 A 
ATOM     10  C   UNL     1      25.620  12.362  85.853  1.00  0.00     0.146 A 
ATOM     11  O   UNL     1      24.297  12.251  85.879  1.00  0.00    -0.452 OA
ENDROOT
BRANCH   1  12
ATOM     12  C   UNL     1      22.042  12.855  86.480  1.00  0.00     0.025 A 
ATOM     13  C   UNL     1      21.251  13.526  85.532  1.00  0.00     0.016 A 
ATOM     14  C   UNL     1      19.876  13.286  85.462  1.00  0.00     0.051 A 
ATOM     15  C   UNL     1      19.274  12.366  86.327  1.00  0.00     0.157 A 
ATOM     16  C   UNL     1      21.438  11.917  87.332  1.00  0.00     0.062 A 
ATOM     17  C   UNL     1      20.059  11.675  87.265  1.00  0.00     0.158 A 
BRANCH  15  18
ATOM     18  O   UNL     1      17.899  12.149  86.235  1.00  0.00    -0.504 OA
ATOM     19  H   UNL     1      17.254  12.487  86.939  1.00  0.00     0.293 HD
ENDBRANCH  15  18
BRANCH  17  20
ATOM     20  O   UNL     1      19.466  10.750  88.124  1.00  0.00    -0.504 OA
ATOM     21  H   UNL     1      18.461  10.713  88.253  1.00  0.00     0.293 HD
ENDBRANCH  17  20
ENDBRANCH   1  12
BRANCH   2  22
ATOM     22  O   UNL     1      23.252  14.911  88.125  1.00  0.00    -0.502 OA
ATOM     23  H   UNL     1      23.203  15.915  88.001  1.00  0.00     0.293 HD
ENDBRANCH   2  22
BRANCH   6  24
ATOM     24  O   UNL     1      28.445  14.555  86.996  1.00  0.00    -0.507 OA
ATOM     25  H   UNL     1      29.134  14.450  87.726  1.00  0.00     0.293 HD
ENDBRANCH   6  24
BRANCH   8  26
ATOM     26  O   UNL     1      28.488  10.552  84.376  1.00  0.00    -0.508 OA
ATOM     27  H   UNL     1      28.600   9.604  84.717  1.00  0.00     0.293 HD
ENDBRANCH   8  26
TORSDOF 6
ENDMDL
MODEL 2
REMARK VINA RESULT:    -4.371      3.692      6.031
REMARK INTER + INTRA:          -5.600
REMARK INTER:                  -5.278
REMARK INTRA:                  -0.323
REMARK UNBOUND:                -0.334
REMARK SMILES O=c1c(O)c(-c2ccc(O)c(O)c2)oc2cc(O)cc(O)c12
REMARK SMILES IDX 5 1 3 2 2 3 1 4 22 5 20 6 19 7 17 8 16 9 15 10 14 11 6 12
REMARK SMILES IDX 7 13 8 14 9 15 13 16 11 17 10 18 12 20 4 22 21 24 18 26
REMARK H PARENT 10 19 12 21 4 23 21 25 18 27
REMARK Flexibility Score: inf
ROOT
ATOM      1  C   UNL     1      21.220  12.730  85.526  1.00  0.00     0.180 A 
ATOM      2  C   UNL     1      20.796  12.007  86.654  1.00  0.00     0.208 A 
ATOM      3  C   UNL     1      20.677  10.611  86.563  1.00  0.00     0.238 A 
ATOM      4  O   UNL     1      20.245   9.974  87.558  1.00  0.00    -0.285 OA
ATOM      5  C   UNL     1      21.000   9.954  85.351  1.00  0.00     0.111 A 
ATOM      6  C   UNL     1      20.956   8.540  85.158  1.00  0.00     0.134 A 
ATOM      7  C   UNL     1      21.170   8.011  83.880  1.00  0.00     0.093 A 
ATOM      8  C   UNL     1      21.491   8.835  82.802  1.00  0.00     0.123 A 
ATOM      9  C   UNL     1      21.596  10.214  82.992  1.00  0.00     0.094 A 
ATOM     10  C   UNL     1      21.353  10.775  84.248  1.00  0.00     0.146 A 
ATOM     11  O   UNL     1      21.452  12.093  84.385  1.00  0.00    -0.452 OA
ENDROOT
BRANCH   1  12
ATOM     12  C   UNL     1      21.392  14.201  85.552  1.00  0.00     0.025 A 
ATOM     13  C   UNL     1      20.337  15.066  85.217  1.00  0.00     0.016 A 
ATOM     14  C   UNL     1      20.514  16.452  85.272  1.00  0.00     0.051 A 
ATOM     15  C   UNL     1      21.739  16.992  85.676  1.00  0.00     0.157 A 
ATOM     16  C   UNL     1      22.614  14.747  85.977  1.00  0.00     0.062 A 
ATOM     17  C   UNL     1      22.794  16.137  86.033  1.00  0.00     0.158 A 
BRANCH  15  18
ATOM     18  O   UNL     1      21.886  18.379  85.720  1.00  0.00    -0.504 OA
ATOM     19  H   UNL     1      21.647  18.969  84.933  1.00  0.00     0.293 HD
ENDBRANCH  15  18
BRANCH  17  20
ATOM     20  O   UNL     1      24.016  16.669  86.443  1.00  0.00    -0.504 OA
ATOM     21  H   UNL     1      24.191  16.911  87.412  1.00  0.00     0.293 HD
ENDBRANCH  17  20
ENDBRANCH   1  12
BRANCH   2  22
ATOM     22  O   UNL     1      20.461  12.677  87.833  1.00  0.00    -0.502 OA
ATOM     23  H   UNL     1      19.640  13.266  87.911  1.00  0.00     0.293 HD
ENDBRANCH   2  22
BRANCH   6  24
ATOM     24  O   UNL     1      20.734   7.620  86.186  1.00  0.00    -0.507 OA
ATOM     25  H   UNL     1      19.935   7.626  86.802  1.00  0.00     0.293 HD
ENDBRANCH   6  24
BRANCH   8  26
ATOM     26  O   UNL     1      21.713   8.273  81.548  1.00  0.00    -0.508 OA
ATOM     27  H   UNL     1      22.002   8.837  80.757  1.00  0.00     0.293 HD
ENDBRANCH   8  26
TORSDOF 6
ENDMDL
MODEL 3
REMARK VINA RESULT:    -4.363      3.344      5.658
REMARK INTER + INTRA:          -5.591
REMARK INTER:                  -5.349
REMARK INTRA:                  -0.241
REMARK UNBOUND:                -0.334
REMARK SMILES O=c1c(O)c(-c2ccc(O)c(O)c2)oc2cc(O)cc(O)c12
REMARK SMILES IDX 5 1 3 2 2 3 1 4 22 5 20 6 19 7 17 8 16 9 15 10 14 11 6 12
REMARK SMILES IDX 7 13 8 14 9 15 13 16 11 17 10 18 12 20 4 22 21 24 18 26
REMARK H PARENT 10 19 12 21 4 23 21 25 18 27
REMARK Flexibility Score: inf
ROOT
ATOM      1  C   UNL     1      18.841  12.344  86.079  1.00  0.00     0.180 A 
ATOM      2  C   UNL     1      19.851  11.699  86.813  1.00  0.00     0.208 A 
ATOM      3  C   UNL     1      21.133  12.270  86.855  1.00  0.00     0.238 A 
ATOM      4  O   UNL     1      22.047  11.661  87.469  1.00  0.00    -0.285 OA
ATOM      5  C   UNL     1      21.384  13.488  86.177  1.00  0.00     0.111 A 
ATOM      6  C   UNL     1      22.634  14.177  86.186  1.00  0.00     0.134 A 
ATOM      7  C   UNL     1      22.806  15.305  85.373  1.00  0.00     0.093 A 
ATOM      8  C   UNL     1      21.757  15.806  84.604  1.00  0.00     0.123 A 
ATOM      9  C   UNL     1      20.512  15.174  84.634  1.00  0.00     0.094 A 
ATOM     10  C   UNL     1      20.320  14.027  85.407  1.00  0.00     0.146 A 
ATOM     11  O   UNL     1      19.125  13.448  85.400  1.00  0.00    -0.452 OA
ENDROOT
BRANCH   1  12
ATOM     12  C   UNL     1      17.459  11.815  86.007  1.00  0.00     0.025 A 
ATOM     13  C   UNL     1      16.607  11.845  87.124  1.00  0.00     0.016 A 
ATOM     14  C   UNL     1      15.298  11.363  87.027  1.00  0.00     0.051 A 
ATOM     15  C   UNL     1      14.818  10.859  85.814  1.00  0.00     0.157 A 
ATOM     16  C   UNL     1      16.967  11.328  84.785  1.00  0.00     0.062 A 
ATOM     17  C   UNL     1      15.655  10.844  84.686  1.00  0.00     0.158 A 
BRANCH  15  18
ATOM     18  O   UNL     1      13.508  10.383  85.748  1.00  0.00    -0.504 OA
ATOM     19  H   UNL     1      13.108  10.029  84.889  1.00  0.00     0.293 HD
ENDBRANCH  15  18
BRANCH  17  20
ATOM     20  O   UNL     1      15.181  10.350  83.471  1.00  0.00    -0.504 OA
ATOM     21  H   UNL     1      14.706  10.948  82.804  1.00  0.00     0.293 HD
ENDBRANCH  17  20
ENDBRANCH   1  12
BRANCH   2  22
ATOM     22  O   UNL     1      19.588  10.487  87.457  1.00  0.00    -0.502 OA
ATOM     23  H   UNL     1      19.031   9.755  87.032  1.00  0.00     0.293 HD
ENDBRANCH   2  22
BRANCH   6  24
ATOM     24  O   UNL     1      23.719  13.815  86.988  1.00  0.00    -0.507 OA
ATOM     25  H   UNL     1      23.797  12.944  87.492  1.00  0.00     0.293 HD
ENDBRANCH   6  24
BRANCH   8  26
ATOM     26  O   UNL     1      21.959  16.938  83.819  1.00  0.00    -0.508 OA
ATOM     27  H   UNL     1      22.335  16.872  82.880  1.00  0.00     0.293 HD
ENDBRANCH   8  26
TORSDOF 6
ENDMDL
MODEL 4
REMARK VINA RESULT:    -4.287      1.465      3.293
REMARK INTER + INTRA:          -5.499
REMARK INTER:                  -5.176
REMARK INTRA:                  -0.323
REMARK UNBOUND:                -0.334
REMARK SMILES O=c1c(O)c(-c2ccc(O)c(O)c2)oc2cc(O)cc(O)c12
REMARK SMILES IDX 5 1 3 2 2 3 1 4 22 5 20 6 19 7 17 8 16 9 15 10 14 11 6 12
REMARK SMILES IDX 7 13 8 14 9 15 13 16 11 17 10 18 12 20 4 22 21 24 18 26
REMARK H PARENT 10 19 12 21 4 23 21 25 18 27
REMARK Flexibility Score: inf
ROOT
ATOM      1  C   UNL     1      22.846  12.385  86.337  1.00  0.00     0.180 A 
ATOM      2  C   UNL     1      23.614  11.598  85.461  1.00  0.00     0.208 A 
ATOM      3  C   UNL     1      24.981  11.883  85.313  1.00  0.00     0.238 A 
ATOM      4  O   UNL     1      25.653  11.211  84.488  1.00  0.00    -0.285 OA
ATOM      5  C   UNL     1      25.566  12.937  86.054  1.00  0.00     0.111 A 
ATOM      6  C   UNL     1      26.950  13.287  86.013  1.00  0.00     0.134 A 
ATOM      7  C   UNL     1      27.393  14.431  86.688  1.00  0.00     0.093 A 
ATOM      8  C   UNL     1      26.518  15.200  87.455  1.00  0.00     0.123 A 
ATOM      9  C   UNL     1      25.174  14.833  87.550  1.00  0.00     0.094 A 
ATOM     10  C   UNL     1      24.696  13.718  86.859  1.00  0.00     0.146 A 
ATOM     11  O   UNL     1      23.409  13.408  86.967  1.00  0.00    -0.452 OA
ENDROOT
BRANCH   1  12
ATOM     12  C   UNL     1      21.405  12.131  86.564  1.00  0.00     0.025 A 
ATOM     13  C   UNL     1      20.962  11.333  87.633  1.00  0.00     0.016 A 
ATOM     14  C   UNL     1      19.596  11.127  87.843  1.00  0.00     0.051 A 
ATOM     15  C   UNL     1      18.653  11.725  87.000  1.00  0.00     0.157 A 
ATOM     16  C   UNL     1      20.454  12.746  85.733  1.00  0.00     0.062 A 
ATOM     17  C   UNL     1      19.083  12.541  85.941  1.00  0.00     0.158 A 
BRANCH  15  18
ATOM     18  O   UNL     1      17.296  11.500  87.233  1.00  0.00    -0.504 OA
ATOM     19  H   UNL     1      16.927  11.366  88.167  1.00  0.00     0.293 HD
ENDBRANCH  15  18
BRANCH  17  20
ATOM     20  O   UNL     1      18.148  13.146  85.101  1.00  0.00    -0.504 OA
ATOM     21  H   UNL     1      18.414  13.878  84.452  1.00  0.00     0.293 HD
ENDBRANCH  17  20
ENDBRANCH   1  12
BRANCH   2  22
ATOM     22  O   UNL     1      23.013  10.576  84.722  1.00  0.00    -0.502 OA
ATOM     23  H   UNL     1      22.760   9.685  85.132  1.00  0.00     0.293 HD
ENDBRANCH   2  22
BRANCH   6  24
ATOM     24  O   UNL     1      27.925  12.535  85.353  1.00  0.00    -0.507 OA
ATOM     25  H   UNL     1      28.141  11.570  85.553  1.00  0.00     0.293 HD
ENDBRANCH   6  24
BRANCH   8  26
ATOM     26  O   UNL     1      26.996  16.323  88.125  1.00  0.00    -0.508 OA
ATOM     27  H   UNL     1      26.487  16.736  88.898  1.00  0.00     0.293 HD
ENDBRANCH   8  26
TORSDOF 6
ENDMDL
MODEL 5
REMARK VINA RESULT:    -4.228      2.956      5.870
REMARK INTER + INTRA:          -5.427
REMARK INTER:                  -5.107
REMARK INTRA:                  -0.320
REMARK UNBOUND:                -0.334
REMARK SMILES O=c1c(O)c(-c2ccc(O)c(O)c2)oc2cc(O)cc(O)c12
REMARK SMILES IDX 5 1 3 2 2 3 1 4 22 5 20 6 19 7 17 8 16 9 15 10 14 11 6 12
REMARK SMILES IDX 7 13 8 14 9 15 13 16 11 17 10 18 12 20 4 22 21 24 18 26
REMARK H PARENT 10 19 12 21 4 23 21 25 18 27
REMARK Flexibility Score: inf
ROOT
ATOM      1  C   UNL     1      23.148  12.247  85.838  1.00  0.00     0.180 A 
ATOM      2  C   UNL     1      21.970  11.949  86.545  1.00  0.00     0.208 A 
ATOM      3  C   UNL     1      21.418  10.662  86.436  1.00  0.00     0.238 A 
ATOM      4  O   UNL     1      20.335  10.417  87.027  1.00  0.00    -0.285 OA
ATOM      5  C   UNL     1      22.060   9.686  85.637  1.00  0.00     0.111 A 
ATOM      6  C   UNL     1      21.611   8.339  85.487  1.00  0.00     0.134 A 
ATOM      7  C   UNL     1      22.250   7.497  84.568  1.00  0.00     0.093 A 
ATOM      8  C   UNL     1      23.358   7.930  83.842  1.00  0.00     0.123 A 
ATOM      9  C   UNL     1      23.842   9.227  84.025  1.00  0.00     0.094 A 
ATOM     10  C   UNL     1      23.205  10.102  84.908  1.00  0.00     0.146 A 
ATOM     11  O   UNL     1      23.689  11.331  85.045  1.00  0.00    -0.452 OA
ENDROOT
BRANCH   1  12
ATOM     12  C   UNL     1      23.802  13.573  85.922  1.00  0.00     0.025 A 
ATOM     13  C   UNL     1      23.502  14.595  85.005  1.00  0.00     0.016 A 
ATOM     14  C   UNL     1      24.113  15.847  85.117  1.00  0.00     0.051 A 
ATOM     15  C   UNL     1      25.019  16.101  86.152  1.00  0.00     0.157 A 
ATOM     16  C   UNL     1      24.696  13.839  86.971  1.00  0.00     0.062 A 
ATOM     17  C   UNL     1      25.311  15.094  87.086  1.00  0.00     0.158 A 
BRANCH  15  18
ATOM     18  O   UNL     1      25.614  17.360  86.238  1.00  0.00    -0.504 OA
ATOM     19  H   UNL     1      26.521  17.498  86.667  1.00  0.00     0.293 HD
ENDBRANCH  15  18
BRANCH  17  20
ATOM     20  O   UNL     1      26.208  15.343  88.125  1.00  0.00    -0.504 OA
ATOM     21  H   UNL     1      27.202  15.177  88.018  1.00  0.00     0.293 HD
ENDBRANCH  17  20
ENDBRANCH   1  12
BRANCH   2  22
ATOM     22  O   UNL     1      21.341  12.934  87.311  1.00  0.00    -0.502 OA
ATOM     23  H   UNL     1      21.265  13.896  87.004  1.00  0.00     0.293 HD
ENDBRANCH   2  22
BRANCH   6  24
ATOM     24  O   UNL     1      20.570   7.776  86.230  1.00  0.00    -0.507 OA
ATOM     25  H   UNL     1      20.103   6.911  86.002  1.00  0.00     0.293 HD
ENDBRANCH   6  24
BRANCH   8  26
ATOM     26  O   UNL     1      23.978   7.061  82.948  1.00  0.00    -0.508 OA
ATOM     27  H   UNL     1      24.266   6.130  83.227  1.00  0.00     0.293 HD
ENDBRANCH   8  26
TORSDOF 6
ENDMDL
MODEL 6
REMARK VINA RESULT:    -4.099      3.196      8.623
REMARK INTER + INTRA:          -5.272
REMARK INTER:                  -5.000
REMARK INTRA:                  -0.272
REMARK UNBOUND:                -0.334
REMARK SMILES O=c1c(O)c(-c2ccc(O)c(O)c2)oc2cc(O)cc(O)c12
REMARK SMILES IDX 5 1 3 2 2 3 1 4 22 5 20 6 19 7 17 8 16 9 15 10 14 11 6 12
REMARK SMILES IDX 7 13 8 14 9 15 13 16 11 17 10 18 12 20 4 22 21 24 18 26
REMARK H PARENT 10 19 12 21 4 23 21 25 18 27
REMARK Flexibility Score: inf
ROOT
ATOM      1  C   UNL     1      19.621  12.635  85.445  1.00  0.00     0.180 A 
ATOM      2  C   UNL     1      19.499  12.094  84.154  1.00  0.00     0.208 A 
ATOM      3  C   UNL     1      18.287  11.489  83.781  1.00  0.00     0.238 A 
ATOM      4  O   UNL     1      18.201  10.958  82.643  1.00  0.00    -0.285 OA
ATOM      5  C   UNL     1      17.209  11.449  84.697  1.00  0.00     0.111 A 
ATOM      6  C   UNL     1      15.923  10.898  84.412  1.00  0.00     0.134 A 
ATOM      7  C   UNL     1      14.974  10.793  85.436  1.00  0.00     0.093 A 
ATOM      8  C   UNL     1      15.238  11.278  86.716  1.00  0.00     0.123 A 
ATOM      9  C   UNL     1      16.471  11.874  86.991  1.00  0.00     0.094 A 
ATOM     10  C   UNL     1      17.451  11.959  85.999  1.00  0.00     0.146 A 
ATOM     11  O   UNL     1      18.615  12.523  86.303  1.00  0.00    -0.452 OA
ENDROOT
BRANCH   1  12
ATOM     12  C   UNL     1      20.858  13.309  85.903  1.00  0.00     0.025 A 
ATOM     13  C   UNL     1      21.780  12.656  86.739  1.00  0.00     0.016 A 
ATOM     14  C   UNL     1      22.953  13.303  87.138  1.00  0.00     0.051 A 
ATOM     15  C   UNL     1      23.229  14.601  86.698  1.00  0.00     0.157 A 
ATOM     16  C   UNL     1      21.149  14.605  85.447  1.00  0.00     0.062 A 
ATOM     17  C   UNL     1      22.325  15.256  85.846  1.00  0.00     0.158 A 
BRANCH  15  18
ATOM     18  O   UNL     1      24.407  15.222  87.115  1.00  0.00    -0.504 OA
ATOM     19  H   UNL     1      25.184  15.378  86.485  1.00  0.00     0.293 HD
ENDBRANCH  15  18
BRANCH  17  20
ATOM     20  O   UNL     1      22.597  16.548  85.399  1.00  0.00    -0.504 OA
ATOM     21  H   UNL     1      21.951  17.050  84.800  1.00  0.00     0.293 HD
ENDBRANCH  17  20
ENDBRANCH   1  12
BRANCH   2  22
ATOM     22  O   UNL     1      20.583  12.125  83.273  1.00  0.00    -0.502 OA
ATOM     23  H   UNL     1      20.722  11.422  82.557  1.00  0.00     0.293 HD
ENDBRANCH   2  22
BRANCH   6  24
ATOM     24  O   UNL     1      15.523  10.468  83.144  1.00  0.00    -0.507 OA
ATOM     25  H   UNL     1      14.820   9.765  82.970  1.00  0.00     0.293 HD
ENDBRANCH   6  24
BRANCH   8  26
ATOM     26  O   UNL     1      14.266  11.172  87.707  1.00  0.00    -0.508 OA
ATOM     27  H   UNL     1      14.441  11.479  88.657  1.00  0.00     0.293 HD
ENDBRANCH   8  26
TORSDOF 6
ENDMDL
MODEL 7
REMARK VINA RESULT:    -4.075      3.123      5.317
REMARK INTER + INTRA:          -5.243
REMARK INTER:                  -4.999
REMARK INTRA:                  -0.245
REMARK UNBOUND:                -0.334
REMARK SMILES O=c1c(O)c(-c2ccc(O)c(O)c2)oc2cc(O)cc(O)c12
REMARK SMILES IDX 5 1 3 2 2 3 1 4 22 5 20 6 19 7 17 8 16 9 15 10 14 11 6 12
REMARK SMILES IDX 7 13 8 14 9 15 13 16 11 17 10 18 12 20 4 22 21 24 18 26
REMARK H PARENT 10 19 12 21 4 23 21 25 18 27
REMARK Flexibility Score: inf
ROOT
ATOM      1  C   UNL     1      22.110  13.752  85.863  1.00  0.00     0.180 A 
ATOM      2  C   UNL     1      23.422  14.172  86.143  1.00  0.00     0.208 A 
ATOM      3  C   UNL     1      23.717  15.544  86.120  1.00  0.00     0.238 A 
ATOM      4  O   UNL     1      24.904  15.912  86.319  1.00  0.00    -0.285 OA
ATOM      5  C   UNL     1      22.694  16.480  85.835  1.00  0.00     0.111 A 
ATOM      6  C   UNL     1      22.870  17.897  85.825  1.00  0.00     0.134 A 
ATOM      7  C   UNL     1      21.820  18.720  85.401  1.00  0.00     0.093 A 
ATOM      8  C   UNL     1      20.581  18.186  85.049  1.00  0.00     0.123 A 
ATOM      9  C   UNL     1      20.379  16.806  85.113  1.00  0.00     0.094 A 
ATOM     10  C   UNL     1      21.418  15.956  85.497  1.00  0.00     0.146 A 
ATOM     11  O   UNL     1      21.189  14.648  85.534  1.00  0.00    -0.452 OA
ENDROOT
BRANCH   1  12
ATOM     12  C   UNL     1      21.718  12.324  85.892  1.00  0.00     0.025 A 
ATOM     13  C   UNL     1      22.116  11.436  84.877  1.00  0.00     0.016 A 
ATOM     14  C   UNL     1      21.755  10.087  84.937  1.00  0.00     0.051 A 
ATOM     15  C   UNL     1      21.006   9.603  86.015  1.00  0.00     0.157 A 
ATOM     16  C   UNL     1      20.984  11.830  86.982  1.00  0.00     0.062 A 
ATOM     17  C   UNL     1      20.620  10.477  87.044  1.00  0.00     0.158 A 
BRANCH  15  18
ATOM     18  O   UNL     1      20.659   8.252  86.046  1.00  0.00    -0.504 OA
ATOM     19  H   UNL     1      20.941   7.608  85.317  1.00  0.00     0.293 HD
ENDBRANCH  15  18
BRANCH  17  20
ATOM     20  O   UNL     1      19.879   9.999  88.125  1.00  0.00    -0.504 OA
ATOM     21  H   UNL     1      20.092  10.274  89.077  1.00  0.00     0.293 HD
ENDBRANCH  17  20
ENDBRANCH   1  12
BRANCH   2  22
ATOM     22  O   UNL     1      24.422  13.231  86.401  1.00  0.00    -0.502 OA
ATOM     23  H   UNL     1      24.506  12.755  87.291  1.00  0.00     0.293 HD
ENDBRANCH   2  22
BRANCH   6  24
ATOM     24  O   UNL     1      24.037  18.540  86.245  1.00  0.00    -0.507 OA
ATOM     25  H   UNL     1      24.856  18.071  86.602  1.00  0.00     0.293 HD
ENDBRANCH   6  24
BRANCH   8  26
ATOM     26  O   UNL     1      19.555  19.036  84.647  1.00  0.00    -0.508 OA
ATOM     27  H   UNL     1      19.643  19.621  83.824  1.00  0.00     0.293 HD
ENDBRANCH   8  26
TORSDOF 6
ENDMDL
