MODEL 1
REMARK VINA RESULT:    -6.398      0.000      0.000
REMARK INTER + INTRA:          -6.640
REMARK INTER:                  -6.960
REMARK INTRA:                   0.320
REMARK UNBOUND:                 0.320
REMARK SMILES CC1(C)CC[C@@]2(C(=O)[O-])CC[C@@]3(C)C(=CC[C@H]4[C@]5(C)CC[C@H](O)C(C)(C)[C@@H]5CC[C@]43C)[C@H]2C1
REMARK SMILES IDX 6 1 5 2 10 3 32 4 4 5 11 6 14 7 33 8 2 9 12 10 15 11 1 12
REMARK SMILES IDX 3 13 13 14 30 15 16 16 17 17 29 18 31 19 18 20 28 21 27 22
REMARK SMILES IDX 20 23 19 24 24 25 21 26 22 27 25 28 26 29 7 30 8 31 9 32
REMARK SMILES IDX 23 33
REMARK H PARENT 23 34
REMARK Flexibility Score: inf
ROOT
ATOM      1  C   UNL     1       8.253  13.947 -19.531  1.00  0.00     0.017 C 
ATOM      2  C   UNL     1       7.732  15.060 -20.484  1.00  0.00     0.014 C 
ATOM      3  C   UNL     1       9.675  13.497 -19.949  1.00  0.00     0.014 C 
ATOM      4  C   UNL     1       8.302  14.440 -18.049  1.00  0.00     0.028 C 
ATOM      5  C   UNL     1       8.409  16.422 -20.293  1.00  0.00     0.007 C 
ATOM      6  C   UNL     1      10.134  12.282 -19.128  1.00  0.00     0.013 C 
ATOM      7  C   UNL     1       9.026  13.459 -17.112  1.00  0.00    -0.064 C 
ATOM      8  C   UNL     1       8.926  15.856 -17.891  1.00  0.00     0.015 C 
ATOM      9  C   UNL     1       8.330  16.927 -18.835  1.00  0.00    -0.035 C 
ATOM     10  C   UNL     1      10.161  12.509 -17.565  1.00  0.00    -0.006 C 
ATOM     11  C   UNL     1       8.778  13.587 -15.794  1.00  0.00    -0.027 C 
ATOM     12  C   UNL     1       6.875  17.273 -18.437  1.00  0.00     0.011 C 
ATOM     13  C   UNL     1       9.172  18.217 -18.718  1.00  0.00     0.011 C 
ATOM     14  C   UNL     1      11.499  13.289 -17.312  1.00  0.00     0.017 C 
ATOM     15  C   UNL     1      10.097  11.097 -16.719  1.00  0.00    -0.020 C 
ATOM     16  C   UNL     1       9.448  12.721 -14.779  1.00  0.00     0.032 C 
ATOM     17  C   UNL     1       9.478  11.247 -15.239  1.00  0.00     0.006 C 
ATOM     18  C   UNL     1       9.299   9.997 -17.501  1.00  0.00     0.008 C 
ATOM     19  C   UNL     1      11.548  10.534 -16.566  1.00  0.00     0.012 C 
ATOM     20  C   UNL     1       8.111  10.481 -14.922  1.00  0.00    -0.025 C 
ATOM     21  C   UNL     1       8.982   8.735 -16.705  1.00  0.00     0.005 C 
ATOM     22  C   UNL     1       8.174   8.964 -15.400  1.00  0.00     0.003 C 
ATOM     23  C   UNL     1       7.819  10.533 -13.377  1.00  0.00     0.010 C 
ATOM     24  C   UNL     1       6.896  11.193 -15.604  1.00  0.00     0.012 C 
ATOM     25  C   UNL     1       8.510   7.896 -14.272  1.00  0.00    -0.006 C 
ATOM     26  C   UNL     1       6.875   9.426 -12.915  1.00  0.00     0.033 C 
ATOM     27  C   UNL     1       7.480   8.022 -13.083  1.00  0.00     0.120 C 
ATOM     28  C   UNL     1       8.356   6.464 -14.855  1.00  0.00     0.014 C 
ATOM     29  C   UNL     1       9.974   8.014 -13.749  1.00  0.00     0.014 C 
ENDROOT
BRANCH   1  30
ATOM     30  C   UNL     1       7.270  12.788 -19.694  1.00  0.00     0.048 C 
ATOM     31  O   UNL     1       6.883  12.416 -20.835  1.00  0.00    -0.550 OA
ATOM     32  O   UNL     1       6.875  12.050 -18.582  1.00  0.00    -0.550 OA
ENDBRANCH   1  30
BRANCH  27  33
ATOM     33  O   UNL     1       8.054   7.626 -11.861  1.00  0.00    -0.393 OA
ATOM     34  H   UNL     1       9.000   7.927 -11.869  1.00  0.00     0.210 HD
ENDBRANCH  27  33
TORSDOF 2
ENDMDL
