MODEL 1
REMARK VINA RESULT:    -5.616      0.000      0.000
REMARK INTER + INTRA:         -11.693
REMARK INTER:                 -10.868
REMARK INTRA:                  -0.825
REMARK UNBOUND:                -0.825
REMARK SMILES CCCCCCCCCCCCCCCCCC(=O)[O-]
REMARK SMILES IDX 10 1 11 2 12 3 13 4 14 5 15 6 16 7 17 8 18 9 19 10 20 11
REMARK SMILES IDX 9 12 8 13 7 14 6 15 5 16 4 17 3 18 2 19 1 20
REMARK H PARENT
REMARK Flexibility Score: inf
ROOT
ATOM      1  C   UNL     1      29.345  -0.506  31.557  1.00  0.00     0.000 C 
ENDROOT
BRANCH   1   2
ATOM      2  C   UNL     1      29.816  -1.198  30.266  1.00  0.00     0.000 C 
BRANCH   2   3
ATOM      3  C   UNL     1      29.158  -2.572  30.046  1.00  0.00     0.000 C 
BRANCH   3   4
ATOM      4  C   UNL     1      27.826  -2.787  30.788  1.00  0.00     0.000 C 
BRANCH   4   5
ATOM      5  C   UNL     1      27.207  -4.168  30.521  1.00  0.00     0.000 C 
BRANCH   5   6
ATOM      6  C   UNL     1      28.205  -5.321  30.732  1.00  0.00     0.000 C 
BRANCH   6   7
ATOM      7  C   UNL     1      27.943  -6.574  29.871  1.00  0.00     0.006 C 
BRANCH   7   8
ATOM      8  C   UNL     1      29.090  -7.598  29.866  1.00  0.00     0.053 C 
BRANCH   8   9
ATOM      9  C   UNL     1      28.865  -8.687  28.862  1.00  0.00     0.041 C 
ATOM     10  O   UNL     1      29.463  -8.659  27.754  1.00  0.00    -0.550 OA
ATOM     11  O   UNL     1      27.972  -9.714  29.137  1.00  0.00    -0.550 OA
ENDBRANCH   8   9
ENDBRANCH   7   8
ENDBRANCH   6   7
ENDBRANCH   5   6
ENDBRANCH   4   5
ENDBRANCH   3   4
ENDBRANCH   2   3
ENDBRANCH   1   2
BRANCH   1  12
ATOM     12  C   UNL     1      29.352   1.032  31.452  1.00  0.00     0.000 C 
BRANCH  12  13
ATOM     13  C   UNL     1      28.002   1.675  31.082  1.00  0.00    -0.000 C 
BRANCH  13  14
ATOM     14  C   UNL     1      27.872   1.973  29.578  1.00  0.00    -0.000 C 
BRANCH  14  15
ATOM     15  C   UNL     1      27.707   3.474  29.287  1.00  0.00    -0.000 C 
BRANCH  15  16
ATOM     16  C   UNL     1      27.930   4.349  30.533  1.00  0.00    -0.000 C 
BRANCH  16  17
ATOM     17  C   UNL     1      27.282   5.738  30.409  1.00  0.00    -0.000 C 
BRANCH  17  18
ATOM     18  C   UNL     1      28.302   6.881  30.223  1.00  0.00    -0.000 C 
BRANCH  18  19
ATOM     19  C   UNL     1      27.621   8.243  30.027  1.00  0.00    -0.003 C 
ATOM     20  C   UNL     1      26.506   8.454  31.049  1.00  0.00     0.004 C 
ENDBRANCH  18  19
ENDBRANCH  17  18
ENDBRANCH  16  17
ENDBRANCH  15  16
ENDBRANCH  14  15
ENDBRANCH  13  14
ENDBRANCH  12  13
ENDBRANCH   1  12
TORSDOF 16
ENDMDL
MODEL 2
REMARK VINA RESULT:    -5.563      5.818     10.933
REMARK INTER + INTRA:         -11.592
REMARK INTER:                 -10.345
REMARK INTRA:                  -1.247
REMARK UNBOUND:                -0.825
REMARK SMILES CCCCCCCCCCCCCCCCCC(=O)[O-]
REMARK SMILES IDX 10 1 11 2 12 3 13 4 14 5 15 6 16 7 17 8 18 9 19 10 20 11
REMARK SMILES IDX 9 12 8 13 7 14 6 15 5 16 4 17 3 18 2 19 1 20
REMARK H PARENT
REMARK Flexibility Score: inf
ROOT
ATOM      1  C   UNL     1      29.426   0.334  29.352  1.00  0.00     0.000 C 
ENDROOT
BRANCH   1   2
ATOM      2  C   UNL     1      29.937   0.240  30.800  1.00  0.00     0.000 C 
BRANCH   2   3
ATOM      3  C   UNL     1      29.307   1.292  31.730  1.00  0.00     0.000 C 
BRANCH   3   4
ATOM      4  C   UNL     1      28.149   2.100  31.116  1.00  0.00     0.000 C 
BRANCH   4   5
ATOM      5  C   UNL     1      28.268   3.611  31.375  1.00  0.00     0.000 C 
BRANCH   5   6
ATOM      6  C   UNL     1      27.915   4.459  30.140  1.00  0.00     0.000 C 
BRANCH   6   7
ATOM      7  C   UNL     1      28.405   5.920  30.193  1.00  0.00     0.006 C 
BRANCH   7   8
ATOM      8  C   UNL     1      27.305   6.953  30.489  1.00  0.00     0.053 C 
BRANCH   8   9
ATOM      9  C   UNL     1      27.807   8.359  30.361  1.00  0.00     0.041 C 
ATOM     10  O   UNL     1      27.352   9.264  31.109  1.00  0.00    -0.550 OA
ATOM     11  O   UNL     1      28.751   8.676  29.393  1.00  0.00    -0.550 OA
ENDBRANCH   8   9
ENDBRANCH   7   8
ENDBRANCH   6   7
ENDBRANCH   5   6
ENDBRANCH   4   5
ENDBRANCH   3   4
ENDBRANCH   2   3
ENDBRANCH   1   2
BRANCH   1  12
ATOM     12  C   UNL     1      28.725  -0.953  28.876  1.00  0.00     0.000 C 
BRANCH  12  13
ATOM     13  C   UNL     1      27.186  -0.921  28.915  1.00  0.00    -0.000 C 
BRANCH  13  14
ATOM     14  C   UNL     1      26.602  -1.618  30.156  1.00  0.00    -0.000 C 
BRANCH  14  15
ATOM     15  C   UNL     1      27.485  -2.777  30.651  1.00  0.00    -0.000 C 
BRANCH  15  16
ATOM     16  C   UNL     1      26.729  -4.114  30.716  1.00  0.00    -0.000 C 
BRANCH  16  17
ATOM     17  C   UNL     1      27.525  -5.279  30.104  1.00  0.00    -0.000 C 
BRANCH  17  18
ATOM     18  C   UNL     1      28.387  -6.045  31.130  1.00  0.00    -0.000 C 
BRANCH  18  19
ATOM     19  C   UNL     1      29.870  -6.083  30.732  1.00  0.00    -0.003 C 
ATOM     20  C   UNL     1      30.352  -4.711  30.267  1.00  0.00     0.004 C 
ENDBRANCH  18  19
ENDBRANCH  17  18
ENDBRANCH  16  17
ENDBRANCH  15  16
ENDBRANCH  14  15
ENDBRANCH  13  14
ENDBRANCH  12  13
ENDBRANCH   1  12
TORSDOF 16
ENDMDL
MODEL 3
REMARK VINA RESULT:    -5.496      1.072      1.853
REMARK INTER + INTRA:         -11.461
REMARK INTER:                 -10.633
REMARK INTRA:                  -0.829
REMARK UNBOUND:                -0.825
REMARK SMILES CCCCCCCCCCCCCCCCCC(=O)[O-]
REMARK SMILES IDX 10 1 11 2 12 3 13 4 14 5 15 6 16 7 17 8 18 9 19 10 20 11
REMARK SMILES IDX 9 12 8 13 7 14 6 15 5 16 4 17 3 18 2 19 1 20
REMARK H PARENT
REMARK Flexibility Score: inf
ROOT
ATOM      1  C   UNL     1      28.233   0.309  29.300  1.00  0.00     0.000 C 
ENDROOT
BRANCH   1   2
ATOM      2  C   UNL     1      26.938  -0.519  29.250  1.00  0.00     0.000 C 
BRANCH   2   3
ATOM      3  C   UNL     1      26.873  -1.601  30.343  1.00  0.00     0.000 C 
BRANCH   3   4
ATOM      4  C   UNL     1      28.235  -2.169  30.784  1.00  0.00     0.000 C 
BRANCH   4   5
ATOM      5  C   UNL     1      28.448  -3.626  30.341  1.00  0.00     0.000 C 
BRANCH   5   6
ATOM      6  C   UNL     1      27.208  -4.508  30.571  1.00  0.00     0.000 C 
BRANCH   6   7
ATOM      7  C   UNL     1      27.271  -5.902  29.914  1.00  0.00     0.006 C 
BRANCH   7   8
ATOM      8  C   UNL     1      28.582  -6.665  30.158  1.00  0.00     0.053 C 
BRANCH   8   9
ATOM      9  C   UNL     1      28.614  -7.974  29.429  1.00  0.00     0.041 C 
ATOM     10  O   UNL     1      28.115  -9.004  29.954  1.00  0.00    -0.550 OA
ATOM     11  O   UNL     1      29.226  -8.063  28.185  1.00  0.00    -0.550 OA
ENDBRANCH   8   9
ENDBRANCH   7   8
ENDBRANCH   6   7
ENDBRANCH   5   6
ENDBRANCH   4   5
ENDBRANCH   3   4
ENDBRANCH   2   3
ENDBRANCH   1   2
BRANCH   1  12
ATOM     12  C   UNL     1      27.987   1.793  29.632  1.00  0.00     0.000 C 
BRANCH  12  13
ATOM     13  C   UNL     1      28.245   2.195  31.097  1.00  0.00    -0.000 C 
BRANCH  13  14
ATOM     14  C   UNL     1      28.211   3.717  31.317  1.00  0.00    -0.000 C 
BRANCH  14  15
ATOM     15  C   UNL     1      27.630   4.474  30.110  1.00  0.00    -0.000 C 
BRANCH  15  16
ATOM     16  C   UNL     1      27.255   5.927  30.445  1.00  0.00    -0.000 C 
BRANCH  16  17
ATOM     17  C   UNL     1      28.366   6.928  30.082  1.00  0.00    -0.000 C 
BRANCH  17  18
ATOM     18  C   UNL     1      27.985   8.398  30.355  1.00  0.00    -0.000 C 
BRANCH  18  19
ATOM     19  C   UNL     1      26.608   8.530  31.021  1.00  0.00    -0.003 C 
ATOM     20  C   UNL     1      26.445   9.892  31.688  1.00  0.00     0.004 C 
ENDBRANCH  18  19
ENDBRANCH  17  18
ENDBRANCH  16  17
ENDBRANCH  15  16
ENDBRANCH  14  15
ENDBRANCH  13  14
ENDBRANCH  12  13
ENDBRANCH   1  12
TORSDOF 16
ENDMDL
MODEL 4
REMARK VINA RESULT:    -5.494      1.087      1.771
REMARK INTER + INTRA:         -11.457
REMARK INTER:                 -10.652
REMARK INTRA:                  -0.805
REMARK UNBOUND:                -0.825
REMARK SMILES CCCCCCCCCCCCCCCCCC(=O)[O-]
REMARK SMILES IDX 10 1 11 2 12 3 13 4 14 5 15 6 16 7 17 8 18 9 19 10 20 11
REMARK SMILES IDX 9 12 8 13 7 14 6 15 5 16 4 17 3 18 2 19 1 20
REMARK H PARENT
REMARK Flexibility Score: inf
ROOT
ATOM      1  C   UNL     1      26.997  -0.617  30.836  1.00  0.00     0.000 C 
ENDROOT
BRANCH   1   2
ATOM      2  C   UNL     1      27.551  -2.033  30.601  1.00  0.00     0.000 C 
BRANCH   2   3
ATOM      3  C   UNL     1      28.903  -2.035  29.863  1.00  0.00     0.000 C 
BRANCH   3   4
ATOM      4  C   UNL     1      29.705  -3.345  29.973  1.00  0.00     0.000 C 
BRANCH   4   5
ATOM      5  C   UNL     1      28.821  -4.567  30.268  1.00  0.00     0.000 C 
BRANCH   5   6
ATOM      6  C   UNL     1      29.637  -5.830  30.597  1.00  0.00     0.000 C 
BRANCH   6   7
ATOM      7  C   UNL     1      28.799  -7.054  31.019  1.00  0.00     0.006 C 
BRANCH   7   8
ATOM      8  C   UNL     1      29.391  -8.410  30.602  1.00  0.00     0.053 C 
BRANCH   8   9
ATOM      9  C   UNL     1      28.867  -8.868  29.275  1.00  0.00     0.041 C 
ATOM     10  O   UNL     1      28.101  -9.865  29.206  1.00  0.00    -0.550 OA
ATOM     11  O   UNL     1      29.252  -8.214  28.111  1.00  0.00    -0.550 OA
ENDBRANCH   8   9
ENDBRANCH   7   8
ENDBRANCH   6   7
ENDBRANCH   5   6
ENDBRANCH   4   5
ENDBRANCH   3   4
ENDBRANCH   2   3
ENDBRANCH   1   2
BRANCH   1  12
ATOM     12  C   UNL     1      26.865   0.201  29.537  1.00  0.00     0.000 C 
BRANCH  12  13
ATOM     13  C   UNL     1      27.771   1.443  29.442  1.00  0.00    -0.000 C 
BRANCH  13  14
ATOM     14  C   UNL     1      28.397   1.833  30.792  1.00  0.00    -0.000 C 
BRANCH  14  15
ATOM     15  C   UNL     1      28.113   3.296  31.173  1.00  0.00    -0.000 C 
BRANCH  15  16
ATOM     16  C   UNL     1      27.680   4.149  29.970  1.00  0.00    -0.000 C 
BRANCH  16  17
ATOM     17  C   UNL     1      27.202   5.554  30.376  1.00  0.00    -0.000 C 
BRANCH  17  18
ATOM     18  C   UNL     1      28.319   6.618  30.347  1.00  0.00    -0.000 C 
BRANCH  18  19
ATOM     19  C   UNL     1      27.759   8.048  30.292  1.00  0.00    -0.003 C 
ATOM     20  C   UNL     1      28.862   9.060  29.993  1.00  0.00     0.004 C 
ENDBRANCH  18  19
ENDBRANCH  17  18
ENDBRANCH  16  17
ENDBRANCH  15  16
ENDBRANCH  14  15
ENDBRANCH  13  14
ENDBRANCH  12  13
ENDBRANCH   1  12
TORSDOF 16
ENDMDL
MODEL 5
REMARK VINA RESULT:    -5.481      5.902     11.552
REMARK INTER + INTRA:         -11.432
REMARK INTER:                 -10.437
REMARK INTRA:                  -0.995
REMARK UNBOUND:                -0.825
REMARK SMILES CCCCCCCCCCCCCCCCCC(=O)[O-]
REMARK SMILES IDX 10 1 11 2 12 3 13 4 14 5 15 6 16 7 17 8 18 9 19 10 20 11
REMARK SMILES IDX 9 12 8 13 7 14 6 15 5 16 4 17 3 18 2 19 1 20
REMARK H PARENT
REMARK Flexibility Score: inf
ROOT
ATOM      1  C   UNL     1      29.502   0.780  31.142  1.00  0.00     0.000 C 
ENDROOT
BRANCH   1   2
ATOM      2  C   UNL     1      28.252   1.663  30.985  1.00  0.00     0.000 C 
BRANCH   2   3
ATOM      3  C   UNL     1      28.063   2.189  29.551  1.00  0.00     0.000 C 
BRANCH   3   4
ATOM      4  C   UNL     1      27.650   3.669  29.446  1.00  0.00     0.000 C 
BRANCH   4   5
ATOM      5  C   UNL     1      27.689   4.399  30.798  1.00  0.00     0.000 C 
BRANCH   5   6
ATOM      6  C   UNL     1      27.259   5.874  30.693  1.00  0.00     0.000 C 
BRANCH   6   7
ATOM      7  C   UNL     1      28.245   6.787  29.937  1.00  0.00     0.006 C 
BRANCH   7   8
ATOM      8  C   UNL     1      28.280   8.241  30.433  1.00  0.00     0.053 C 
BRANCH   8   9
ATOM      9  C   UNL     1      26.905   8.816  30.587  1.00  0.00     0.041 C 
ATOM     10  O   UNL     1      26.197   9.044  29.572  1.00  0.00    -0.550 OA
ATOM     11  O   UNL     1      26.419   9.130  31.850  1.00  0.00    -0.550 OA
ENDBRANCH   8   9
ENDBRANCH   7   8
ENDBRANCH   6   7
ENDBRANCH   5   6
ENDBRANCH   4   5
ENDBRANCH   3   4
ENDBRANCH   2   3
ENDBRANCH   1   2
BRANCH   1  12
ATOM     12  C   UNL     1      29.191  -0.602  31.746  1.00  0.00     0.000 C 
BRANCH  12  13
ATOM     13  C   UNL     1      27.824  -1.199  31.363  1.00  0.00    -0.000 C 
BRANCH  13  14
ATOM     14  C   UNL     1      27.929  -2.626  30.798  1.00  0.00    -0.000 C 
BRANCH  14  15
ATOM     15  C   UNL     1      29.001  -2.749  29.702  1.00  0.00    -0.000 C 
BRANCH  15  16
ATOM     16  C   UNL     1      30.052  -3.825  30.018  1.00  0.00    -0.000 C 
BRANCH  16  17
ATOM     17  C   UNL     1      29.426  -5.155  30.470  1.00  0.00    -0.000 C 
BRANCH  17  18
ATOM     18  C   UNL     1      28.918  -6.028  29.303  1.00  0.00    -0.000 C 
BRANCH  18  19
ATOM     19  C   UNL     1      28.273  -7.334  29.790  1.00  0.00    -0.003 C 
ATOM     20  C   UNL     1      28.967  -7.858  31.044  1.00  0.00     0.004 C 
ENDBRANCH  18  19
ENDBRANCH  17  18
ENDBRANCH  16  17
ENDBRANCH  15  16
ENDBRANCH  14  15
ENDBRANCH  13  14
ENDBRANCH  12  13
ENDBRANCH   1  12
TORSDOF 16
ENDMDL
MODEL 6
REMARK VINA RESULT:    -5.474      4.648     10.870
REMARK INTER + INTRA:         -11.420
REMARK INTER:                 -10.066
REMARK INTRA:                  -1.354
REMARK UNBOUND:                -0.825
REMARK SMILES CCCCCCCCCCCCCCCCCC(=O)[O-]
REMARK SMILES IDX 10 1 11 2 12 3 13 4 14 5 15 6 16 7 17 8 18 9 19 10 20 11
REMARK SMILES IDX 9 12 8 13 7 14 6 15 5 16 4 17 3 18 2 19 1 20
REMARK H PARENT
REMARK Flexibility Score: inf
ROOT
ATOM      1  C   UNL     1      26.603  -1.915  30.068  1.00  0.00     0.000 C 
ENDROOT
BRANCH   1   2
ATOM      2  C   UNL     1      27.187  -1.039  28.945  1.00  0.00     0.000 C 
BRANCH   2   3
ATOM      3  C   UNL     1      28.721  -1.120  28.855  1.00  0.00     0.000 C 
BRANCH   3   4
ATOM      4  C   UNL     1      29.462   0.211  29.088  1.00  0.00     0.000 C 
BRANCH   4   5
ATOM      5  C   UNL     1      30.194   0.260  30.438  1.00  0.00     0.000 C 
BRANCH   5   6
ATOM      6  C   UNL     1      29.382   0.976  31.533  1.00  0.00     0.000 C 
BRANCH   6   7
ATOM      7  C   UNL     1      28.320   1.965  31.012  1.00  0.00     0.006 C 
BRANCH   7   8
ATOM      8  C   UNL     1      28.360   3.353  31.672  1.00  0.00     0.053 C 
BRANCH   8   9
ATOM      9  C   UNL     1      28.132   4.453  30.681  1.00  0.00     0.041 C 
ATOM     10  O   UNL     1      28.741   5.549  30.799  1.00  0.00    -0.550 OA
ATOM     11  O   UNL     1      27.221   4.280  29.646  1.00  0.00    -0.550 OA
ENDBRANCH   8   9
ENDBRANCH   7   8
ENDBRANCH   6   7
ENDBRANCH   5   6
ENDBRANCH   4   5
ENDBRANCH   3   4
ENDBRANCH   2   3
ENDBRANCH   1   2
BRANCH   1  12
ATOM     12  C   UNL     1      27.687  -2.619  30.906  1.00  0.00     0.000 C 
BRANCH  12  13
ATOM     13  C   UNL     1      27.821  -4.136  30.674  1.00  0.00    -0.000 C 
BRANCH  13  14
ATOM     14  C   UNL     1      29.221  -4.546  30.184  1.00  0.00    -0.000 C 
BRANCH  14  15
ATOM     15  C   UNL     1      29.481  -6.054  30.339  1.00  0.00    -0.000 C 
BRANCH  15  16
ATOM     16  C   UNL     1      28.565  -6.909  29.446  1.00  0.00    -0.000 C 
BRANCH  16  17
ATOM     17  C   UNL     1      29.064  -8.355  29.292  1.00  0.00    -0.000 C 
BRANCH  17  18
ATOM     18  C   UNL     1      28.025  -9.416  29.713  1.00  0.00    -0.000 C 
BRANCH  18  19
ATOM     19  C   UNL     1      28.382 -10.081  31.051  1.00  0.00    -0.003 C 
ATOM     20  C   UNL     1      29.849  -9.855  31.406  1.00  0.00     0.004 C 
ENDBRANCH  18  19
ENDBRANCH  17  18
ENDBRANCH  16  17
ENDBRANCH  15  16
ENDBRANCH  14  15
ENDBRANCH  13  14
ENDBRANCH  12  13
ENDBRANCH   1  12
TORSDOF 16
ENDMDL
MODEL 7
REMARK VINA RESULT:    -5.461      5.309     11.303
REMARK INTER + INTRA:         -11.394
REMARK INTER:                 -10.379
REMARK INTRA:                  -1.015
REMARK UNBOUND:                -0.825
REMARK SMILES CCCCCCCCCCCCCCCCCC(=O)[O-]
REMARK SMILES IDX 10 1 11 2 12 3 13 4 14 5 15 6 16 7 17 8 18 9 19 10 20 11
REMARK SMILES IDX 9 12 8 13 7 14 6 15 5 16 4 17 3 18 2 19 1 20
REMARK H PARENT
REMARK Flexibility Score: inf
ROOT
ATOM      1  C   UNL     1      29.868  -1.477  30.353  1.00  0.00     0.000 C 
ENDROOT
BRANCH   1   2
ATOM      2  C   UNL     1      29.924   0.050  30.171  1.00  0.00     0.000 C 
BRANCH   2   3
ATOM      3  C   UNL     1      29.377   0.821  31.386  1.00  0.00     0.000 C 
BRANCH   3   4
ATOM      4  C   UNL     1      28.298   1.872  31.063  1.00  0.00     0.000 C 
BRANCH   4   5
ATOM      5  C   UNL     1      27.902   1.886  29.578  1.00  0.00     0.000 C 
BRANCH   5   6
ATOM      6  C   UNL     1      27.658   3.307  29.038  1.00  0.00     0.000 C 
BRANCH   6   7
ATOM      7  C   UNL     1      27.659   4.418  30.107  1.00  0.00     0.006 C 
BRANCH   7   8
ATOM      8  C   UNL     1      28.591   5.601  29.800  1.00  0.00     0.053 C 
BRANCH   8   9
ATOM      9  C   UNL     1      28.009   6.906  30.250  1.00  0.00     0.041 C 
ATOM     10  O   UNL     1      28.601   7.987  29.989  1.00  0.00    -0.550 OA
ATOM     11  O   UNL     1      26.831   6.927  30.984  1.00  0.00    -0.550 OA
ENDBRANCH   8   9
ENDBRANCH   7   8
ENDBRANCH   6   7
ENDBRANCH   5   6
ENDBRANCH   4   5
ENDBRANCH   3   4
ENDBRANCH   2   3
ENDBRANCH   1   2
BRANCH   1  12
ATOM     12  C   UNL     1      28.706  -2.132  29.582  1.00  0.00     0.000 C 
BRANCH  12  13
ATOM     13  C   UNL     1      27.438  -2.413  30.410  1.00  0.00    -0.000 C 
BRANCH  13  14
ATOM     14  C   UNL     1      27.258  -3.904  30.745  1.00  0.00    -0.000 C 
BRANCH  14  15
ATOM     15  C   UNL     1      28.277  -4.798  30.018  1.00  0.00    -0.000 C 
BRANCH  15  16
ATOM     16  C   UNL     1      27.871  -6.281  30.016  1.00  0.00    -0.000 C 
BRANCH  16  17
ATOM     17  C   UNL     1      29.040  -7.219  29.670  1.00  0.00    -0.000 C 
BRANCH  17  18
ATOM     18  C   UNL     1      28.702  -8.716  29.840  1.00  0.00    -0.000 C 
BRANCH  18  19
ATOM     19  C   UNL     1      29.443  -9.348  31.028  1.00  0.00    -0.003 C 
ATOM     20  C   UNL     1      28.691  -9.113  32.335  1.00  0.00     0.004 C 
ENDBRANCH  18  19
ENDBRANCH  17  18
ENDBRANCH  16  17
ENDBRANCH  15  16
ENDBRANCH  14  15
ENDBRANCH  13  14
ENDBRANCH  12  13
ENDBRANCH   1  12
TORSDOF 16
ENDMDL
MODEL 8
REMARK VINA RESULT:    -5.408      1.666      2.729
REMARK INTER + INTRA:         -11.291
REMARK INTER:                  -9.993
REMARK INTRA:                  -1.299
REMARK UNBOUND:                -0.825
REMARK SMILES CCCCCCCCCCCCCCCCCC(=O)[O-]
REMARK SMILES IDX 10 1 11 2 12 3 13 4 14 5 15 6 16 7 17 8 18 9 19 10 20 11
REMARK SMILES IDX 9 12 8 13 7 14 6 15 5 16 4 17 3 18 2 19 1 20
REMARK H PARENT
REMARK Flexibility Score: inf
ROOT
ATOM      1  C   UNL     1      29.511   1.040  31.522  1.00  0.00     0.000 C 
ENDROOT
BRANCH   1   2
ATOM      2  C   UNL     1      30.019   0.086  30.427  1.00  0.00     0.000 C 
BRANCH   2   3
ATOM      3  C   UNL     1      29.241   0.218  29.105  1.00  0.00     0.000 C 
BRANCH   3   4
ATOM      4  C   UNL     1      28.448  -1.033  28.684  1.00  0.00     0.000 C 
BRANCH   4   5
ATOM      5  C   UNL     1      27.001  -1.027  29.203  1.00  0.00     0.000 C 
BRANCH   5   6
ATOM      6  C   UNL     1      26.796  -1.954  30.415  1.00  0.00     0.000 C 
BRANCH   6   7
ATOM      7  C   UNL     1      27.834  -3.087  30.550  1.00  0.00     0.006 C 
BRANCH   7   8
ATOM      8  C   UNL     1      27.232  -4.499  30.635  1.00  0.00     0.053 C 
BRANCH   8   9
ATOM      9  C   UNL     1      28.274  -5.564  30.477  1.00  0.00     0.041 C 
ATOM     10  O   UNL     1      27.936  -6.774  30.401  1.00  0.00    -0.550 OA
ATOM     11  O   UNL     1      29.620  -5.222  30.447  1.00  0.00    -0.550 OA
ENDBRANCH   8   9
ENDBRANCH   7   8
ENDBRANCH   6   7
ENDBRANCH   5   6
ENDBRANCH   4   5
ENDBRANCH   3   4
ENDBRANCH   2   3
ENDBRANCH   1   2
BRANCH   1  12
ATOM     12  C   UNL     1      28.151   1.677  31.181  1.00  0.00     0.000 C 
BRANCH  12  13
ATOM     13  C   UNL     1      28.119   3.217  31.200  1.00  0.00    -0.000 C 
BRANCH  13  14
ATOM     14  C   UNL     1      27.629   3.824  29.873  1.00  0.00    -0.000 C 
BRANCH  14  15
ATOM     15  C   UNL     1      27.227   5.302  30.014  1.00  0.00    -0.000 C 
BRANCH  15  16
ATOM     16  C   UNL     1      28.399   6.197  30.450  1.00  0.00    -0.000 C 
BRANCH  16  17
ATOM     17  C   UNL     1      28.577   7.427  29.544  1.00  0.00    -0.000 C 
BRANCH  17  18
ATOM     18  C   UNL     1      28.368   8.769  30.278  1.00  0.00    -0.000 C 
BRANCH  18  19
ATOM     19  C   UNL     1      26.909   9.243  30.221  1.00  0.00    -0.003 C 
ATOM     20  C   UNL     1      26.201   9.010  31.554  1.00  0.00     0.004 C 
ENDBRANCH  18  19
ENDBRANCH  17  18
ENDBRANCH  16  17
ENDBRANCH  15  16
ENDBRANCH  14  15
ENDBRANCH  13  14
ENDBRANCH  12  13
ENDBRANCH   1  12
TORSDOF 16
ENDMDL
MODEL 9
REMARK VINA RESULT:    -5.401      5.729     11.747
REMARK INTER + INTRA:         -11.278
REMARK INTER:                 -10.353
REMARK INTRA:                  -0.925
REMARK UNBOUND:                -0.825
REMARK SMILES CCCCCCCCCCCCCCCCCC(=O)[O-]
REMARK SMILES IDX 10 1 11 2 12 3 13 4 14 5 15 6 16 7 17 8 18 9 19 10 20 11
REMARK SMILES IDX 9 12 8 13 7 14 6 15 5 16 4 17 3 18 2 19 1 20
REMARK H PARENT
REMARK Flexibility Score: inf
ROOT
ATOM      1  C   UNL     1      29.557  -0.401  30.132  1.00  0.00     0.000 C 
ENDROOT
BRANCH   1   2
ATOM      2  C   UNL     1      28.716   0.198  31.272  1.00  0.00     0.000 C 
BRANCH   2   3
ATOM      3  C   UNL     1      28.336   1.670  31.029  1.00  0.00     0.000 C 
BRANCH   3   4
ATOM      4  C   UNL     1      28.059   2.042  29.561  1.00  0.00     0.000 C 
BRANCH   4   5
ATOM      5  C   UNL     1      27.637   3.509  29.383  1.00  0.00     0.000 C 
BRANCH   5   6
ATOM      6  C   UNL     1      28.010   4.389  30.590  1.00  0.00     0.000 C 
BRANCH   6   7
ATOM      7  C   UNL     1      28.334   5.857  30.249  1.00  0.00     0.006 C 
BRANCH   7   8
ATOM      8  C   UNL     1      27.144   6.822  30.376  1.00  0.00     0.053 C 
BRANCH   8   9
ATOM      9  C   UNL     1      27.584   8.253  30.428  1.00  0.00     0.041 C 
ATOM     10  O   UNL     1      28.770   8.562  30.137  1.00  0.00    -0.550 OA
ATOM     11  O   UNL     1      26.695   9.241  30.829  1.00  0.00    -0.550 OA
ENDBRANCH   8   9
ENDBRANCH   7   8
ENDBRANCH   6   7
ENDBRANCH   5   6
ENDBRANCH   4   5
ENDBRANCH   3   4
ENDBRANCH   2   3
ENDBRANCH   1   2
BRANCH   1  12
ATOM     12  C   UNL     1      28.989  -1.731  29.600  1.00  0.00     0.000 C 
BRANCH  12  13
ATOM     13  C   UNL     1      27.838  -2.336  30.426  1.00  0.00    -0.000 C 
BRANCH  13  14
ATOM     14  C   UNL     1      27.979  -3.854  30.631  1.00  0.00    -0.000 C 
BRANCH  14  15
ATOM     15  C   UNL     1      29.238  -4.425  29.956  1.00  0.00    -0.000 C 
BRANCH  15  16
ATOM     16  C   UNL     1      29.804  -5.650  30.694  1.00  0.00    -0.000 C 
BRANCH  16  17
ATOM     17  C   UNL     1      28.708  -6.624  31.160  1.00  0.00    -0.000 C 
BRANCH  17  18
ATOM     18  C   UNL     1      29.016  -8.101  30.836  1.00  0.00    -0.000 C 
BRANCH  18  19
ATOM     19  C   UNL     1      28.433  -8.534  29.483  1.00  0.00    -0.003 C 
ATOM     20  C   UNL     1      29.381  -9.481  28.752  1.00  0.00     0.004 C 
ENDBRANCH  18  19
ENDBRANCH  17  18
ENDBRANCH  16  17
ENDBRANCH  15  16
ENDBRANCH  14  15
ENDBRANCH  13  14
ENDBRANCH  12  13
ENDBRANCH   1  12
TORSDOF 16
ENDMDL
