MODEL 1
REMARK VINA RESULT:    36.235      0.000      0.000
REMARK INTER + INTRA:          42.323
REMARK INTER:                  42.590
REMARK INTRA:                  -0.267
REMARK UNBOUND:                -0.267
REMARK SMILES O=c1cc(-c2ccc(O)c(O)c2)oc2cc(O)cc(O)c12
REMARK SMILES IDX 4 1 3 2 2 3 1 4 21 5 19 6 18 7 16 8 15 9 14 10 13 11 5 12
REMARK SMILES IDX 6 13 7 14 8 15 12 16 10 17 9 18 11 20 20 22 17 24
REMARK H PARENT 9 19 11 21 20 23 17 25
REMARK Flexibility Score: inf
ROOT
ATOM      1  C   UNL     1      10.864   1.701  18.972  1.00  0.00     0.138 A 
ATOM      2  C   UNL     1      10.009   0.624  19.245  1.00  0.00     0.100 A 
ATOM      3  C   UNL     1       9.590  -0.206  18.203  1.00  0.00     0.197 A 
ATOM      4  O   UNL     1       8.774  -1.126  18.468  1.00  0.00    -0.289 OA
ATOM      5  C   UNL     1      10.058   0.027  16.888  1.00  0.00     0.107 A 
ATOM      6  C   UNL     1       9.731  -0.778  15.755  1.00  0.00     0.134 A 
ATOM      7  C   UNL     1      10.159  -0.382  14.481  1.00  0.00     0.093 A 
ATOM      8  C   UNL     1      10.952   0.755  14.308  1.00  0.00     0.123 A 
ATOM      9  C   UNL     1      11.321   1.517  15.414  1.00  0.00     0.094 A 
ATOM     10  C   UNL     1      10.881   1.168  16.693  1.00  0.00     0.146 A 
ATOM     11  O   UNL     1      11.244   1.930  17.720  1.00  0.00    -0.456 OA
ENDROOT
BRANCH   1  12
ATOM     12  C   UNL     1      11.340   2.614  20.042  1.00  0.00     0.021 A 
ATOM     13  C   UNL     1      12.339   2.178  20.929  1.00  0.00     0.016 A 
ATOM     14  C   UNL     1      12.799   3.014  21.949  1.00  0.00     0.051 A 
ATOM     15  C   UNL     1      12.260   4.298  22.107  1.00  0.00     0.157 A 
ATOM     16  C   UNL     1      10.794   3.901  20.215  1.00  0.00     0.062 A 
ATOM     17  C   UNL     1      11.251   4.740  21.237  1.00  0.00     0.158 A 
BRANCH  15  18
ATOM     18  O   UNL     1      12.723   5.130  23.125  1.00  0.00    -0.504 OA
ATOM     19  H   UNL     1      12.142   5.861  23.519  1.00  0.00     0.293 HD
ENDBRANCH  15  18
BRANCH  17  20
ATOM     20  O   UNL     1      10.687   6.009  21.376  1.00  0.00    -0.504 OA
ATOM     21  H   UNL     1      10.911   6.615  22.156  1.00  0.00     0.293 HD
ENDBRANCH  17  20
ENDBRANCH   1  12
BRANCH   6  22
ATOM     22  O   UNL     1       9.017  -1.977  15.829  1.00  0.00    -0.507 OA
ATOM     23  H   UNL     1       8.103  -2.130  15.431  1.00  0.00     0.293 HD
ENDBRANCH   6  22
BRANCH   8  24
ATOM     24  O   UNL     1      11.385   1.132  13.039  1.00  0.00    -0.508 OA
ATOM     25  H   UNL     1      11.043   1.973  12.589  1.00  0.00     0.293 HD
ENDBRANCH   8  24
TORSDOF 5
ENDMDL
MODEL 2
REMARK VINA RESULT:    36.350      0.696      1.500
REMARK INTER + INTRA:          42.458
REMARK INTER:                  42.724
REMARK INTRA:                  -0.266
REMARK UNBOUND:                -0.267
REMARK SMILES O=c1cc(-c2ccc(O)c(O)c2)oc2cc(O)cc(O)c12
REMARK SMILES IDX 4 1 3 2 2 3 1 4 21 5 19 6 18 7 16 8 15 9 14 10 13 11 5 12
REMARK SMILES IDX 6 13 7 14 8 15 12 16 10 17 9 18 11 20 20 22 17 24
REMARK H PARENT 9 19 11 21 20 23 17 25
REMARK Flexibility Score: inf
ROOT
ATOM      1  C   UNL     1      10.839   1.801  18.800  1.00  0.00     0.138 A 
ATOM      2  C   UNL     1      10.010   0.683  18.967  1.00  0.00     0.100 A 
ATOM      3  C   UNL     1       9.682  -0.104  17.862  1.00  0.00     0.197 A 
ATOM      4  O   UNL     1       8.886  -1.064  18.031  1.00  0.00    -0.289 OA
ATOM      5  C   UNL     1      10.215   0.213  16.590  1.00  0.00     0.107 A 
ATOM      6  C   UNL     1       9.982  -0.542  15.401  1.00  0.00     0.134 A 
ATOM      7  C   UNL     1      10.467  -0.066  14.176  1.00  0.00     0.093 A 
ATOM      8  C   UNL     1      11.228   1.105  14.107  1.00  0.00     0.123 A 
ATOM      9  C   UNL     1      11.505   1.820  15.270  1.00  0.00     0.094 A 
ATOM     10  C   UNL     1      11.006   1.390  16.502  1.00  0.00     0.146 A 
ATOM     11  O   UNL     1      11.282   2.108  17.585  1.00  0.00    -0.456 OA
ENDROOT
BRANCH   1  12
ATOM     12  C   UNL     1      11.220   2.671  19.941  1.00  0.00     0.021 A 
ATOM     13  C   UNL     1      10.827   4.021  19.942  1.00  0.00     0.016 A 
ATOM     14  C   UNL     1      11.179   4.862  21.000  1.00  0.00     0.051 A 
ATOM     15  C   UNL     1      11.939   4.374  22.070  1.00  0.00     0.157 A 
ATOM     16  C   UNL     1      11.995   2.190  21.014  1.00  0.00     0.062 A 
ATOM     17  C   UNL     1      12.350   3.031  22.074  1.00  0.00     0.158 A 
BRANCH  15  18
ATOM     18  O   UNL     1      12.286   5.216  23.125  1.00  0.00    -0.504 OA
ATOM     19  H   UNL     1      11.736   5.258  23.975  1.00  0.00     0.293 HD
ENDBRANCH  15  18
BRANCH  17  20
ATOM     20  O   UNL     1      13.117   2.516  23.120  1.00  0.00    -0.504 OA
ATOM     21  H   UNL     1      13.415   3.089  23.901  1.00  0.00     0.293 HD
ENDBRANCH  17  20
ENDBRANCH   1  12
BRANCH   6  22
ATOM     22  O   UNL     1       9.310  -1.767  15.372  1.00  0.00    -0.507 OA
ATOM     23  H   UNL     1       9.740  -2.664  15.532  1.00  0.00     0.293 HD
ENDBRANCH   6  22
BRANCH   8  24
ATOM     24  O   UNL     1      11.718   1.562  12.886  1.00  0.00    -0.508 OA
ATOM     25  H   UNL     1      12.217   0.949  12.251  1.00  0.00     0.293 HD
ENDBRANCH   8  24
TORSDOF 5
ENDMDL
