MODEL 1
REMARK VINA RESULT:    -3.866      0.000      0.000
REMARK INTER + INTRA:         -12.304
REMARK INTER:                  -9.741
REMARK INTRA:                  -2.562
REMARK UNBOUND:                -2.562
REMARK SMILES CCCCCCCCCCCCCCCCCCCCCCCCCCCC(=O)[O-]
REMARK SMILES IDX 15 1 16 2 17 3 18 4 19 5 20 6 21 7 22 8 23 9 24 10 25 11
REMARK SMILES IDX 26 12 27 13 28 14 29 15 30 16 14 17 13 18 12 19 11 20 10 21
REMARK SMILES IDX 9 22 8 23 7 24 6 25 5 26 4 27 3 28 2 29 1 30
REMARK H PARENT
REMARK Flexibility Score: inf
ROOT
ATOM      1  C   UNL     1      22.414   0.878  -4.608  1.00  0.00     0.000 C 
ENDROOT
BRANCH   1   2
ATOM      2  C   UNL     1      23.887   1.124  -4.968  1.00  0.00     0.000 C 
BRANCH   2   3
ATOM      3  C   UNL     1      24.776  -0.120  -4.773  1.00  0.00     0.000 C 
BRANCH   3   4
ATOM      4  C   UNL     1      26.273   0.108  -5.062  1.00  0.00     0.000 C 
BRANCH   4   5
ATOM      5  C   UNL     1      27.007   0.932  -3.980  1.00  0.00     0.000 C 
BRANCH   5   6
ATOM      6  C   UNL     1      28.493   0.564  -3.811  1.00  0.00     0.000 C 
BRANCH   6   7
ATOM      7  C   UNL     1      28.726  -0.806  -3.138  1.00  0.00     0.000 C 
BRANCH   7   8
ATOM      8  C   UNL     1      29.514  -1.797  -4.013  1.00  0.00     0.000 C 
BRANCH   8   9
ATOM      9  C   UNL     1      28.870  -3.195  -4.031  1.00  0.00     0.000 C 
BRANCH   9  10
ATOM     10  C   UNL     1      27.741  -3.313  -5.068  1.00  0.00     0.000 C 
BRANCH  10  11
ATOM     11  C   UNL     1      26.773  -4.466  -4.760  1.00  0.00     0.000 C 
BRANCH  11  12
ATOM     12  C   UNL     1      26.493  -5.296  -6.022  1.00  0.00     0.006 C 
BRANCH  12  13
ATOM     13  C   UNL     1      26.669  -6.800  -5.779  1.00  0.00     0.053 C 
BRANCH  13  14
ATOM     14  C   UNL     1      28.107  -7.213  -5.851  1.00  0.00     0.041 C 
ATOM     15  O   UNL     1      28.936  -6.771  -5.011  1.00  0.00    -0.550 OA
ATOM     16  O   UNL     1      28.525  -8.119  -6.818  1.00  0.00    -0.550 OA
ENDBRANCH  13  14
ENDBRANCH  12  13
ENDBRANCH  11  12
ENDBRANCH  10  11
ENDBRANCH   9  10
ENDBRANCH   8   9
ENDBRANCH   7   8
ENDBRANCH   6   7
ENDBRANCH   5   6
ENDBRANCH   4   5
ENDBRANCH   3   4
ENDBRANCH   2   3
ENDBRANCH   1   2
BRANCH   1  17
ATOM     17  C   UNL     1      21.723   0.029  -5.686  1.00  0.00     0.000 C 
BRANCH  17  18
ATOM     18  C   UNL     1      21.862   0.628  -7.095  1.00  0.00     0.000 C 
BRANCH  18  19
ATOM     19  C   UNL     1      20.514   0.777  -7.815  1.00  0.00     0.000 C 
BRANCH  19  20
ATOM     20  C   UNL     1      19.368   0.902  -6.800  1.00  0.00     0.000 C 
BRANCH  20  21
ATOM     21  C   UNL     1      17.977   0.868  -7.458  1.00  0.00     0.000 C 
BRANCH  21  22
ATOM     22  C   UNL     1      16.916   0.054  -6.692  1.00  0.00    -0.000 C 
BRANCH  22  23
ATOM     23  C   UNL     1      16.157   0.827  -5.593  1.00  0.00    -0.000 C 
BRANCH  23  24
ATOM     24  C   UNL     1      15.355  -0.045  -4.610  1.00  0.00    -0.000 C 
BRANCH  24  25
ATOM     25  C   UNL     1      16.222  -1.092  -3.892  1.00  0.00    -0.000 C 
BRANCH  25  26
ATOM     26  C   UNL     1      17.618  -0.557  -3.524  1.00  0.00    -0.000 C 
BRANCH  26  27
ATOM     27  C   UNL     1      18.656  -1.634  -3.144  1.00  0.00    -0.000 C 
BRANCH  27  28
ATOM     28  C   UNL     1      19.570  -2.095  -4.294  1.00  0.00    -0.000 C 
BRANCH  28  29
ATOM     29  C   UNL     1      18.821  -2.902  -5.363  1.00  0.00    -0.003 C 
ATOM     30  C   UNL     1      19.415  -2.670  -6.749  1.00  0.00     0.004 C 
ENDBRANCH  28  29
ENDBRANCH  27  28
ENDBRANCH  26  27
ENDBRANCH  25  26
ENDBRANCH  24  25
ENDBRANCH  23  24
ENDBRANCH  22  23
ENDBRANCH  21  22
ENDBRANCH  20  21
ENDBRANCH  19  20
ENDBRANCH  18  19
ENDBRANCH  17  18
ENDBRANCH   1  17
TORSDOF 26
ENDMDL
MODEL 2
REMARK VINA RESULT:    -3.855      3.820     10.214
REMARK INTER + INTRA:         -12.276
REMARK INTER:                  -9.980
REMARK INTRA:                  -2.296
REMARK UNBOUND:                -2.562
REMARK SMILES CCCCCCCCCCCCCCCCCCCCCCCCCCCC(=O)[O-]
REMARK SMILES IDX 15 1 16 2 17 3 18 4 19 5 20 6 21 7 22 8 23 9 24 10 25 11
REMARK SMILES IDX 26 12 27 13 28 14 29 15 30 16 14 17 13 18 12 19 11 20 10 21
REMARK SMILES IDX 9 22 8 23 7 24 6 25 5 26 4 27 3 28 2 29 1 30
REMARK H PARENT
REMARK Flexibility Score: inf
ROOT
ATOM      1  C   UNL     1      23.381   1.125  -4.418  1.00  0.00     0.000 C 
ENDROOT
BRANCH   1   2
ATOM      2  C   UNL     1      22.194   0.416  -5.088  1.00  0.00     0.000 C 
BRANCH   2   3
ATOM      3  C   UNL     1      20.842   1.106  -4.816  1.00  0.00     0.000 C 
BRANCH   3   4
ATOM      4  C   UNL     1      19.662   0.556  -5.641  1.00  0.00     0.000 C 
BRANCH   4   5
ATOM      5  C   UNL     1      20.060  -0.537  -6.660  1.00  0.00     0.000 C 
BRANCH   5   6
ATOM      6  C   UNL     1      19.536  -1.943  -6.307  1.00  0.00     0.000 C 
BRANCH   6   7
ATOM      7  C   UNL     1      20.190  -2.558  -5.051  1.00  0.00     0.000 C 
BRANCH   7   8
ATOM      8  C   UNL     1      19.309  -2.468  -3.792  1.00  0.00     0.000 C 
BRANCH   8   9
ATOM      9  C   UNL     1      17.812  -2.615  -4.119  1.00  0.00     0.000 C 
BRANCH   9  10
ATOM     10  C   UNL     1      16.925  -1.702  -3.257  1.00  0.00     0.000 C 
BRANCH  10  11
ATOM     11  C   UNL     1      16.897  -0.252  -3.765  1.00  0.00     0.000 C 
BRANCH  11  12
ATOM     12  C   UNL     1      15.680  -0.014  -4.671  1.00  0.00     0.006 C 
BRANCH  12  13
ATOM     13  C   UNL     1      15.986   0.968  -5.809  1.00  0.00     0.053 C 
BRANCH  13  14
ATOM     14  C   UNL     1      16.516   0.267  -7.023  1.00  0.00     0.041 C 
ATOM     15  O   UNL     1      16.459  -0.989  -7.104  1.00  0.00    -0.550 OA
ATOM     16  O   UNL     1      17.033   1.002  -8.082  1.00  0.00    -0.550 OA
ENDBRANCH  13  14
ENDBRANCH  12  13
ENDBRANCH  11  12
ENDBRANCH  10  11
ENDBRANCH   9  10
ENDBRANCH   8   9
ENDBRANCH   7   8
ENDBRANCH   6   7
ENDBRANCH   5   6
ENDBRANCH   4   5
ENDBRANCH   3   4
ENDBRANCH   2   3
ENDBRANCH   1   2
BRANCH   1  17
ATOM     17  C   UNL     1      24.612   1.115  -5.337  1.00  0.00     0.000 C 
BRANCH  17  18
ATOM     18  C   UNL     1      25.937   1.074  -4.557  1.00  0.00     0.000 C 
BRANCH  18  19
ATOM     19  C   UNL     1      26.716  -0.230  -4.774  1.00  0.00     0.000 C 
BRANCH  19  20
ATOM     20  C   UNL     1      28.221   0.049  -4.894  1.00  0.00     0.000 C 
BRANCH  20  21
ATOM     21  C   UNL     1      28.865   0.459  -3.557  1.00  0.00     0.000 C 
BRANCH  21  22
ATOM     22  C   UNL     1      29.641  -0.662  -2.839  1.00  0.00    -0.000 C 
BRANCH  22  23
ATOM     23  C   UNL     1      28.814  -1.508  -1.848  1.00  0.00    -0.000 C 
BRANCH  23  24
ATOM     24  C   UNL     1      28.622  -2.983  -2.244  1.00  0.00    -0.000 C 
BRANCH  24  25
ATOM     25  C   UNL     1      27.780  -3.158  -3.519  1.00  0.00    -0.000 C 
BRANCH  25  26
ATOM     26  C   UNL     1      27.658  -4.630  -3.953  1.00  0.00    -0.000 C 
BRANCH  26  27
ATOM     27  C   UNL     1      27.560  -4.861  -5.475  1.00  0.00    -0.000 C 
BRANCH  27  28
ATOM     28  C   UNL     1      26.487  -5.874  -5.913  1.00  0.00    -0.000 C 
BRANCH  28  29
ATOM     29  C   UNL     1      26.950  -6.768  -7.073  1.00  0.00    -0.003 C 
ATOM     30  C   UNL     1      28.023  -7.752  -6.618  1.00  0.00     0.004 C 
ENDBRANCH  28  29
ENDBRANCH  27  28
ENDBRANCH  26  27
ENDBRANCH  25  26
ENDBRANCH  24  25
ENDBRANCH  23  24
ENDBRANCH  22  23
ENDBRANCH  21  22
ENDBRANCH  20  21
ENDBRANCH  19  20
ENDBRANCH  18  19
ENDBRANCH  17  18
ENDBRANCH   1  17
TORSDOF 26
ENDMDL
MODEL 3
REMARK VINA RESULT:    -3.834      4.110     10.163
REMARK INTER + INTRA:         -12.223
REMARK INTER:                 -10.015
REMARK INTRA:                  -2.208
REMARK UNBOUND:                -2.562
REMARK SMILES CCCCCCCCCCCCCCCCCCCCCCCCCCCC(=O)[O-]
REMARK SMILES IDX 15 1 16 2 17 3 18 4 19 5 20 6 21 7 22 8 23 9 24 10 25 11
REMARK SMILES IDX 26 12 27 13 28 14 29 15 30 16 14 17 13 18 12 19 11 20 10 21
REMARK SMILES IDX 9 22 8 23 7 24 6 25 5 26 4 27 3 28 2 29 1 30
REMARK H PARENT
REMARK Flexibility Score: inf
ROOT
ATOM      1  C   UNL     1      23.040   0.328  -5.361  1.00  0.00     0.000 C 
ENDROOT
BRANCH   1   2
ATOM      2  C   UNL     1      21.853   0.935  -6.126  1.00  0.00     0.000 C 
BRANCH   2   3
ATOM      3  C   UNL     1      20.596   1.114  -5.252  1.00  0.00     0.000 C 
BRANCH   3   4
ATOM      4  C   UNL     1      19.263   1.063  -6.025  1.00  0.00     0.000 C 
BRANCH   4   5
ATOM      5  C   UNL     1      19.255   0.061  -7.202  1.00  0.00     0.000 C 
BRANCH   5   6
ATOM      6  C   UNL     1      18.755  -1.346  -6.825  1.00  0.00     0.000 C 
BRANCH   6   7
ATOM      7  C   UNL     1      19.853  -2.268  -6.251  1.00  0.00     0.000 C 
BRANCH   7   8
ATOM      8  C   UNL     1      19.898  -2.289  -4.713  1.00  0.00     0.000 C 
BRANCH   8   9
ATOM      9  C   UNL     1      19.158  -3.505  -4.127  1.00  0.00     0.000 C 
BRANCH   9  10
ATOM     10  C   UNL     1      17.909  -3.107  -3.323  1.00  0.00     0.000 C 
BRANCH  10  11
ATOM     11  C   UNL     1      18.129  -1.846  -2.473  1.00  0.00     0.000 C 
BRANCH  11  12
ATOM     12  C   UNL     1      16.974  -0.851  -2.660  1.00  0.00     0.006 C 
BRANCH  12  13
ATOM     13  C   UNL     1      17.082  -0.077  -3.980  1.00  0.00     0.053 C 
BRANCH  13  14
ATOM     14  C   UNL     1      15.786  -0.073  -4.732  1.00  0.00     0.041 C 
ATOM     15  O   UNL     1      15.691   0.546  -5.826  1.00  0.00    -0.550 OA
ATOM     16  O   UNL     1      14.697  -0.786  -4.248  1.00  0.00    -0.550 OA
ENDBRANCH  13  14
ENDBRANCH  12  13
ENDBRANCH  11  12
ENDBRANCH  10  11
ENDBRANCH   9  10
ENDBRANCH   8   9
ENDBRANCH   7   8
ENDBRANCH   6   7
ENDBRANCH   5   6
ENDBRANCH   4   5
ENDBRANCH   3   4
ENDBRANCH   2   3
ENDBRANCH   1   2
BRANCH   1  17
ATOM     17  C   UNL     1      24.330   1.114  -5.644  1.00  0.00     0.000 C 
BRANCH  17  18
ATOM     18  C   UNL     1      25.338   1.039  -4.486  1.00  0.00     0.000 C 
BRANCH  18  19
ATOM     19  C   UNL     1      26.795   0.990  -4.967  1.00  0.00     0.000 C 
BRANCH  19  20
ATOM     20  C   UNL     1      27.490  -0.284  -4.463  1.00  0.00     0.000 C 
BRANCH  20  21
ATOM     21  C   UNL     1      28.699  -0.690  -5.325  1.00  0.00     0.000 C 
BRANCH  21  22
ATOM     22  C   UNL     1      29.720  -1.606  -4.622  1.00  0.00    -0.000 C 
BRANCH  22  23
ATOM     23  C   UNL     1      29.118  -2.814  -3.875  1.00  0.00    -0.000 C 
BRANCH  23  24
ATOM     24  C   UNL     1      28.610  -3.956  -4.774  1.00  0.00    -0.000 C 
BRANCH  24  25
ATOM     25  C   UNL     1      27.198  -3.700  -5.327  1.00  0.00    -0.000 C 
BRANCH  25  26
ATOM     26  C   UNL     1      26.190  -4.785  -4.907  1.00  0.00    -0.000 C 
BRANCH  26  27
ATOM     27  C   UNL     1      26.759  -6.217  -4.827  1.00  0.00    -0.000 C 
BRANCH  27  28
ATOM     28  C   UNL     1      26.602  -7.054  -6.109  1.00  0.00    -0.000 C 
BRANCH  28  29
ATOM     29  C   UNL     1      27.949  -7.431  -6.743  1.00  0.00    -0.003 C 
ATOM     30  C   UNL     1      28.861  -8.122  -5.734  1.00  0.00     0.004 C 
ENDBRANCH  28  29
ENDBRANCH  27  28
ENDBRANCH  26  27
ENDBRANCH  25  26
ENDBRANCH  24  25
ENDBRANCH  23  24
ENDBRANCH  22  23
ENDBRANCH  21  22
ENDBRANCH  20  21
ENDBRANCH  19  20
ENDBRANCH  18  19
ENDBRANCH  17  18
ENDBRANCH   1  17
TORSDOF 26
ENDMDL
MODEL 4
REMARK VINA RESULT:    -3.720      3.752      9.724
REMARK INTER + INTRA:         -11.936
REMARK INTER:                  -8.196
REMARK INTRA:                  -3.741
REMARK UNBOUND:                -2.562
REMARK SMILES CCCCCCCCCCCCCCCCCCCCCCCCCCCC(=O)[O-]
REMARK SMILES IDX 15 1 16 2 17 3 18 4 19 5 20 6 21 7 22 8 23 9 24 10 25 11
REMARK SMILES IDX 26 12 27 13 28 14 29 15 30 16 14 17 13 18 12 19 11 20 10 21
REMARK SMILES IDX 9 22 8 23 7 24 6 25 5 26 4 27 3 28 2 29 1 30
REMARK H PARENT
REMARK Flexibility Score: inf
ROOT
ATOM      1  C   UNL     1      26.197  -5.158  -5.407  1.00  0.00     0.000 C 
ENDROOT
BRANCH   1   2
ATOM      2  C   UNL     1      26.427  -4.324  -4.137  1.00  0.00     0.000 C 
BRANCH   2   3
ATOM      3  C   UNL     1      26.613  -2.821  -4.423  1.00  0.00     0.000 C 
BRANCH   3   4
ATOM      4  C   UNL     1      27.473  -2.504  -5.663  1.00  0.00     0.000 C 
BRANCH   4   5
ATOM      5  C   UNL     1      28.325  -1.221  -5.528  1.00  0.00     0.000 C 
BRANCH   5   6
ATOM      6  C   UNL     1      27.535   0.083  -5.750  1.00  0.00     0.000 C 
BRANCH   6   7
ATOM      7  C   UNL     1      27.282   0.889  -4.458  1.00  0.00     0.000 C 
BRANCH   7   8
ATOM      8  C   UNL     1      25.799   0.944  -4.046  1.00  0.00     0.000 C 
BRANCH   8   9
ATOM      9  C   UNL     1      24.867   1.125  -5.258  1.00  0.00     0.000 C 
BRANCH   9  10
ATOM     10  C   UNL     1      23.395   0.841  -4.919  1.00  0.00     0.000 C 
BRANCH  10  11
ATOM     11  C   UNL     1      22.452   1.108  -6.103  1.00  0.00     0.000 C 
BRANCH  11  12
ATOM     12  C   UNL     1      21.225   0.187  -6.043  1.00  0.00     0.006 C 
BRANCH  12  13
ATOM     13  C   UNL     1      21.063  -0.477  -4.670  1.00  0.00     0.053 C 
BRANCH  13  14
ATOM     14  C   UNL     1      19.651  -0.914  -4.424  1.00  0.00     0.041 C 
ATOM     15  O   UNL     1      18.841  -1.008  -5.385  1.00  0.00    -0.550 OA
ATOM     16  O   UNL     1      19.241  -1.260  -3.143  1.00  0.00    -0.550 OA
ENDBRANCH  13  14
ENDBRANCH  12  13
ENDBRANCH  11  12
ENDBRANCH  10  11
ENDBRANCH   9  10
ENDBRANCH   8   9
ENDBRANCH   7   8
ENDBRANCH   6   7
ENDBRANCH   5   6
ENDBRANCH   4   5
ENDBRANCH   3   4
ENDBRANCH   2   3
ENDBRANCH   1   2
BRANCH   1  17
ATOM     17  C   UNL     1      27.041  -6.442  -5.376  1.00  0.00     0.000 C 
BRANCH  17  18
ATOM     18  C   UNL     1      27.441  -6.858  -3.951  1.00  0.00     0.000 C 
BRANCH  18  19
ATOM     19  C   UNL     1      28.953  -6.761  -3.705  1.00  0.00     0.000 C 
BRANCH  19  20
ATOM     20  C   UNL     1      29.622  -5.887  -4.776  1.00  0.00     0.000 C 
BRANCH  20  21
ATOM     21  C   UNL     1      30.114  -4.536  -4.228  1.00  0.00     0.000 C 
BRANCH  21  22
ATOM     22  C   UNL     1      30.004  -4.375  -2.699  1.00  0.00    -0.000 C 
BRANCH  22  23
ATOM     23  C   UNL     1      29.907  -2.921  -2.193  1.00  0.00    -0.000 C 
BRANCH  23  24
ATOM     24  C   UNL     1      28.654  -2.597  -1.360  1.00  0.00    -0.000 C 
BRANCH  24  25
ATOM     25  C   UNL     1      28.037  -1.233  -1.709  1.00  0.00    -0.000 C 
BRANCH  25  26
ATOM     26  C   UNL     1      28.666  -0.075  -0.912  1.00  0.00    -0.000 C 
BRANCH  26  27
ATOM     27  C   UNL     1      27.662   0.841  -0.180  1.00  0.00    -0.000 C 
BRANCH  27  28
ATOM     28  C   UNL     1      26.897   0.177   0.978  1.00  0.00    -0.000 C 
BRANCH  28  29
ATOM     29  C   UNL     1      27.714   0.119   2.277  1.00  0.00    -0.003 C 
ATOM     30  C   UNL     1      28.110  -1.314   2.617  1.00  0.00     0.004 C 
ENDBRANCH  28  29
ENDBRANCH  27  28
ENDBRANCH  26  27
ENDBRANCH  25  26
ENDBRANCH  24  25
ENDBRANCH  23  24
ENDBRANCH  22  23
ENDBRANCH  21  22
ENDBRANCH  20  21
ENDBRANCH  19  20
ENDBRANCH  18  19
ENDBRANCH  17  18
ENDBRANCH   1  17
TORSDOF 26
ENDMDL
MODEL 5
REMARK VINA RESULT:    -3.621      6.813      9.183
REMARK INTER + INTRA:         -11.688
REMARK INTER:                  -8.705
REMARK INTRA:                  -2.983
REMARK UNBOUND:                -2.562
REMARK SMILES CCCCCCCCCCCCCCCCCCCCCCCCCCCC(=O)[O-]
REMARK SMILES IDX 15 1 16 2 17 3 18 4 19 5 20 6 21 7 22 8 23 9 24 10 25 11
REMARK SMILES IDX 26 12 27 13 28 14 29 15 30 16 14 17 13 18 12 19 11 20 10 21
REMARK SMILES IDX 9 22 8 23 7 24 6 25 5 26 4 27 3 28 2 29 1 30
REMARK H PARENT
REMARK Flexibility Score: inf
ROOT
ATOM      1  C   UNL     1      26.122  -5.561  -3.725  1.00  0.00     0.000 C 
ENDROOT
BRANCH   1   2
ATOM      2  C   UNL     1      26.602  -5.823  -5.161  1.00  0.00     0.000 C 
BRANCH   2   3
ATOM      3  C   UNL     1      26.159  -7.194  -5.709  1.00  0.00     0.000 C 
BRANCH   3   4
ATOM      4  C   UNL     1      27.013  -7.727  -6.876  1.00  0.00     0.000 C 
BRANCH   4   5
ATOM      5  C   UNL     1      28.536  -7.687  -6.613  1.00  0.00     0.000 C 
BRANCH   5   6
ATOM      6  C   UNL     1      28.986  -8.531  -5.405  1.00  0.00     0.000 C 
BRANCH   6   7
ATOM      7  C   UNL     1      30.055  -7.847  -4.527  1.00  0.00     0.000 C 
BRANCH   7   8
ATOM      8  C   UNL     1      29.470  -6.852  -3.507  1.00  0.00     0.000 C 
BRANCH   8   9
ATOM      9  C   UNL     1      30.124  -5.463  -3.612  1.00  0.00     0.000 C 
BRANCH   9  10
ATOM     10  C   UNL     1      29.692  -4.699  -4.874  1.00  0.00     0.000 C 
BRANCH  10  11
ATOM     11  C   UNL     1      29.928  -3.185  -4.761  1.00  0.00     0.000 C 
BRANCH  11  12
ATOM     12  C   UNL     1      30.010  -2.538  -6.151  1.00  0.00     0.006 C 
BRANCH  12  13
ATOM     13  C   UNL     1      30.022  -1.006  -6.080  1.00  0.00     0.053 C 
BRANCH  13  14
ATOM     14  C   UNL     1      29.162  -0.391  -7.141  1.00  0.00     0.041 C 
ATOM     15  O   UNL     1      28.545   0.684  -6.911  1.00  0.00    -0.550 OA
ATOM     16  O   UNL     1      29.075  -0.979  -8.396  1.00  0.00    -0.550 OA
ENDBRANCH  13  14
ENDBRANCH  12  13
ENDBRANCH  11  12
ENDBRANCH  10  11
ENDBRANCH   9  10
ENDBRANCH   8   9
ENDBRANCH   7   8
ENDBRANCH   6   7
ENDBRANCH   5   6
ENDBRANCH   4   5
ENDBRANCH   3   4
ENDBRANCH   2   3
ENDBRANCH   1   2
BRANCH   1  17
ATOM     17  C   UNL     1      26.262  -4.073  -3.366  1.00  0.00     0.000 C 
BRANCH  17  18
ATOM     18  C   UNL     1      26.473  -3.842  -1.861  1.00  0.00     0.000 C 
BRANCH  18  19
ATOM     19  C   UNL     1      27.878  -3.320  -1.531  1.00  0.00     0.000 C 
BRANCH  19  20
ATOM     20  C   UNL     1      28.297  -2.222  -2.520  1.00  0.00     0.000 C 
BRANCH  20  21
ATOM     21  C   UNL     1      27.591  -0.880  -2.262  1.00  0.00     0.000 C 
BRANCH  21  22
ATOM     22  C   UNL     1      27.606  -0.408  -0.795  1.00  0.00    -0.000 C 
BRANCH  22  23
ATOM     23  C   UNL     1      26.325   0.306  -0.317  1.00  0.00    -0.000 C 
BRANCH  23  24
ATOM     24  C   UNL     1      26.458   1.079   1.008  1.00  0.00    -0.000 C 
BRANCH  24  25
ATOM     25  C   UNL     1      27.866   0.984   1.619  1.00  0.00    -0.000 C 
BRANCH  25  26
ATOM     26  C   UNL     1      27.889   0.190   2.938  1.00  0.00    -0.000 C 
BRANCH  26  27
ATOM     27  C   UNL     1      28.833  -1.031   2.954  1.00  0.00    -0.000 C 
BRANCH  27  28
ATOM     28  C   UNL     1      28.176  -2.358   3.375  1.00  0.00    -0.000 C 
BRANCH  28  29
ATOM     29  C   UNL     1      28.122  -3.384   2.236  1.00  0.00    -0.003 C 
ATOM     30  C   UNL     1      28.335  -4.802   2.758  1.00  0.00     0.004 C 
ENDBRANCH  28  29
ENDBRANCH  27  28
ENDBRANCH  26  27
ENDBRANCH  25  26
ENDBRANCH  24  25
ENDBRANCH  23  24
ENDBRANCH  22  23
ENDBRANCH  21  22
ENDBRANCH  20  21
ENDBRANCH  19  20
ENDBRANCH  18  19
ENDBRANCH  17  18
ENDBRANCH   1  17
TORSDOF 26
ENDMDL
MODEL 6
REMARK VINA RESULT:    -3.340      6.392      8.844
REMARK INTER + INTRA:         -10.979
REMARK INTER:                  -9.706
REMARK INTRA:                  -1.272
REMARK UNBOUND:                -2.562
REMARK SMILES CCCCCCCCCCCCCCCCCCCCCCCCCCCC(=O)[O-]
REMARK SMILES IDX 15 1 16 2 17 3 18 4 19 5 20 6 21 7 22 8 23 9 24 10 25 11
REMARK SMILES IDX 26 12 27 13 28 14 29 15 30 16 14 17 13 18 12 19 11 20 10 21
REMARK SMILES IDX 9 22 8 23 7 24 6 25 5 26 4 27 3 28 2 29 1 30
REMARK H PARENT
REMARK Flexibility Score: inf
ROOT
ATOM      1  C   UNL     1      27.900  -0.366  -2.595  1.00  0.00     0.000 C 
ENDROOT
BRANCH   1   2
ATOM      2  C   UNL     1      28.264  -1.398  -1.517  1.00  0.00     0.000 C 
BRANCH   2   3
ATOM      3  C   UNL     1      29.761  -1.769  -1.512  1.00  0.00     0.000 C 
BRANCH   3   4
ATOM      4  C   UNL     1      30.066  -3.217  -1.946  1.00  0.00     0.000 C 
BRANCH   4   5
ATOM      5  C   UNL     1      29.263  -3.688  -3.180  1.00  0.00     0.000 C 
BRANCH   5   6
ATOM      6  C   UNL     1      29.927  -3.349  -4.528  1.00  0.00     0.000 C 
BRANCH   6   7
ATOM      7  C   UNL     1      28.957  -3.377  -5.729  1.00  0.00     0.000 C 
BRANCH   7   8
ATOM      8  C   UNL     1      27.646  -2.610  -5.479  1.00  0.00     0.000 C 
BRANCH   8   9
ATOM      9  C   UNL     1      26.588  -3.481  -4.779  1.00  0.00     0.000 C 
BRANCH   9  10
ATOM     10  C   UNL     1      26.405  -4.849  -5.457  1.00  0.00     0.000 C 
BRANCH  10  11
ATOM     11  C   UNL     1      26.191  -5.987  -4.447  1.00  0.00     0.000 C 
BRANCH  11  12
ATOM     12  C   UNL     1      27.509  -6.357  -3.751  1.00  0.00     0.006 C 
BRANCH  12  13
ATOM     13  C   UNL     1      27.969  -7.779  -4.096  1.00  0.00     0.053 C 
BRANCH  13  14
ATOM     14  C   UNL     1      29.242  -7.778  -4.886  1.00  0.00     0.041 C 
ATOM     15  O   UNL     1      30.074  -6.843  -4.744  1.00  0.00    -0.550 OA
ATOM     16  O   UNL     1      29.530  -8.830  -5.746  1.00  0.00    -0.550 OA
ENDBRANCH  13  14
ENDBRANCH  12  13
ENDBRANCH  11  12
ENDBRANCH  10  11
ENDBRANCH   9  10
ENDBRANCH   8   9
ENDBRANCH   7   8
ENDBRANCH   6   7
ENDBRANCH   5   6
ENDBRANCH   4   5
ENDBRANCH   3   4
ENDBRANCH   2   3
ENDBRANCH   1   2
BRANCH   1  17
ATOM     17  C   UNL     1      27.602   1.002  -1.961  1.00  0.00     0.000 C 
BRANCH  17  18
ATOM     18  C   UNL     1      26.386   0.971  -1.021  1.00  0.00     0.000 C 
BRANCH  18  19
ATOM     19  C   UNL     1      26.466  -0.157   0.017  1.00  0.00     0.000 C 
BRANCH  19  20
ATOM     20  C   UNL     1      27.654   0.061   0.965  1.00  0.00     0.000 C 
BRANCH  20  21
ATOM     21  C   UNL     1      27.377   1.124   2.042  1.00  0.00     0.000 C 
BRANCH  21  22
ATOM     22  C   UNL     1      25.987   1.036   2.702  1.00  0.00    -0.000 C 
BRANCH  22  23
ATOM     23  C   UNL     1      25.992   0.736   4.215  1.00  0.00    -0.000 C 
BRANCH  23  24
ATOM     24  C   UNL     1      27.344   0.946   4.922  1.00  0.00    -0.000 C 
BRANCH  24  25
ATOM     25  C   UNL     1      28.206  -0.327   4.958  1.00  0.00    -0.000 C 
BRANCH  25  26
ATOM     26  C   UNL     1      27.368  -1.608   5.125  1.00  0.00    -0.000 C 
BRANCH  26  27
ATOM     27  C   UNL     1      27.852  -2.823   4.306  1.00  0.00    -0.000 C 
BRANCH  27  28
ATOM     28  C   UNL     1      28.246  -2.513   2.851  1.00  0.00    -0.000 C 
BRANCH  28  29
ATOM     29  C   UNL     1      28.513  -3.779   2.023  1.00  0.00    -0.003 C 
ATOM     30  C   UNL     1      28.433  -5.032   2.889  1.00  0.00     0.004 C 
ENDBRANCH  28  29
ENDBRANCH  27  28
ENDBRANCH  26  27
ENDBRANCH  25  26
ENDBRANCH  24  25
ENDBRANCH  23  24
ENDBRANCH  22  23
ENDBRANCH  21  22
ENDBRANCH  20  21
ENDBRANCH  19  20
ENDBRANCH  18  19
ENDBRANCH  17  18
ENDBRANCH   1  17
TORSDOF 26
ENDMDL
MODEL 7
REMARK VINA RESULT:    -3.175      3.634     10.265
REMARK INTER + INTRA:         -10.562
REMARK INTER:                  -8.896
REMARK INTRA:                  -1.667
REMARK UNBOUND:                -2.562
REMARK SMILES CCCCCCCCCCCCCCCCCCCCCCCCCCCC(=O)[O-]
REMARK SMILES IDX 15 1 16 2 17 3 18 4 19 5 20 6 21 7 22 8 23 9 24 10 25 11
REMARK SMILES IDX 26 12 27 13 28 14 29 15 30 16 14 17 13 18 12 19 11 20 10 21
REMARK SMILES IDX 9 22 8 23 7 24 6 25 5 26 4 27 3 28 2 29 1 30
REMARK H PARENT
REMARK Flexibility Score: inf
ROOT
ATOM      1  C   UNL     1      26.340   1.091  -3.831  1.00  0.00     0.000 C 
ENDROOT
BRANCH   1   2
ATOM      2  C   UNL     1      25.353   0.891  -4.991  1.00  0.00     0.000 C 
BRANCH   2   3
ATOM      3  C   UNL     1      23.885   1.125  -4.586  1.00  0.00     0.000 C 
BRANCH   3   4
ATOM      4  C   UNL     1      22.873   1.021  -5.745  1.00  0.00     0.000 C 
BRANCH   4   5
ATOM      5  C   UNL     1      21.395   1.076  -5.298  1.00  0.00     0.000 C 
BRANCH   5   6
ATOM      6  C   UNL     1      20.386   0.837  -6.438  1.00  0.00     0.000 C 
BRANCH   6   7
ATOM      7  C   UNL     1      18.933   0.630  -5.956  1.00  0.00     0.000 C 
BRANCH   7   8
ATOM      8  C   UNL     1      18.068  -0.179  -6.939  1.00  0.00     0.000 C 
BRANCH   8   9
ATOM      9  C   UNL     1      16.820  -0.771  -6.260  1.00  0.00     0.000 C 
BRANCH   9  10
ATOM     10  C   UNL     1      16.184   0.193  -5.245  1.00  0.00     0.000 C 
BRANCH  10  11
ATOM     11  C   UNL     1      16.114  -0.399  -3.830  1.00  0.00     0.000 C 
BRANCH  11  12
ATOM     12  C   UNL     1      16.883  -1.727  -3.753  1.00  0.00     0.006 C 
BRANCH  12  13
ATOM     13  C   UNL     1      18.288  -1.551  -3.163  1.00  0.00     0.053 C 
BRANCH  13  14
ATOM     14  C   UNL     1      19.271  -2.508  -3.765  1.00  0.00     0.041 C 
ATOM     15  O   UNL     1      19.162  -3.745  -3.551  1.00  0.00    -0.550 OA
ATOM     16  O   UNL     1      20.279  -2.040  -4.598  1.00  0.00    -0.550 OA
ENDBRANCH  13  14
ENDBRANCH  12  13
ENDBRANCH  11  12
ENDBRANCH  10  11
ENDBRANCH   9  10
ENDBRANCH   8   9
ENDBRANCH   7   8
ENDBRANCH   6   7
ENDBRANCH   5   6
ENDBRANCH   4   5
ENDBRANCH   3   4
ENDBRANCH   2   3
ENDBRANCH   1   2
BRANCH   1  17
ATOM     17  C   UNL     1      27.657   0.346  -4.100  1.00  0.00     0.000 C 
BRANCH  17  18
ATOM     18  C   UNL     1      27.642  -0.429  -5.428  1.00  0.00     0.000 C 
BRANCH  18  19
ATOM     19  C   UNL     1      28.615  -1.616  -5.435  1.00  0.00     0.000 C 
BRANCH  19  20
ATOM     20  C   UNL     1      27.859  -2.937  -5.638  1.00  0.00     0.000 C 
BRANCH  20  21
ATOM     21  C   UNL     1      28.688  -4.172  -5.243  1.00  0.00     0.000 C 
BRANCH  21  22
ATOM     22  C   UNL     1      29.598  -3.978  -4.015  1.00  0.00    -0.000 C 
BRANCH  22  23
ATOM     23  C   UNL     1      28.864  -3.828  -2.666  1.00  0.00    -0.000 C 
BRANCH  23  24
ATOM     24  C   UNL     1      28.726  -2.384  -2.150  1.00  0.00    -0.000 C 
BRANCH  24  25
ATOM     25  C   UNL     1      27.649  -2.236  -1.062  1.00  0.00    -0.000 C 
BRANCH  25  26
ATOM     26  C   UNL     1      28.137  -1.423   0.151  1.00  0.00    -0.000 C 
BRANCH  26  27
ATOM     27  C   UNL     1      28.999  -2.206   1.164  1.00  0.00    -0.000 C 
BRANCH  27  28
ATOM     28  C   UNL     1      28.210  -2.931   2.268  1.00  0.00    -0.000 C 
BRANCH  28  29
ATOM     29  C   UNL     1      28.200  -2.162   3.597  1.00  0.00    -0.003 C 
ATOM     30  C   UNL     1      27.667  -0.744   3.411  1.00  0.00     0.004 C 
ENDBRANCH  28  29
ENDBRANCH  27  28
ENDBRANCH  26  27
ENDBRANCH  25  26
ENDBRANCH  24  25
ENDBRANCH  23  24
ENDBRANCH  22  23
ENDBRANCH  21  22
ENDBRANCH  20  21
ENDBRANCH  19  20
ENDBRANCH  18  19
ENDBRANCH  17  18
ENDBRANCH   1  17
TORSDOF 26
ENDMDL
MODEL 8
REMARK VINA RESULT:    -2.954      3.875      9.894
REMARK INTER + INTRA:         -10.005
REMARK INTER:                  -7.301
REMARK INTRA:                  -2.704
REMARK UNBOUND:                -2.562
REMARK SMILES CCCCCCCCCCCCCCCCCCCCCCCCCCCC(=O)[O-]
REMARK SMILES IDX 15 1 16 2 17 3 18 4 19 5 20 6 21 7 22 8 23 9 24 10 25 11
REMARK SMILES IDX 26 12 27 13 28 14 29 15 30 16 14 17 13 18 12 19 11 20 10 21
REMARK SMILES IDX 9 22 8 23 7 24 6 25 5 26 4 27 3 28 2 29 1 30
REMARK H PARENT
REMARK Flexibility Score: inf
ROOT
ATOM      1  C   UNL     1      22.062  -0.320  -5.318  1.00  0.00     0.000 C 
ENDROOT
BRANCH   1   2
ATOM      2  C   UNL     1      20.850  -0.271  -6.261  1.00  0.00     0.000 C 
BRANCH   2   3
ATOM      3  C   UNL     1      20.183   1.118  -6.321  1.00  0.00     0.000 C 
BRANCH   3   4
ATOM      4  C   UNL     1      18.681   1.125  -5.976  1.00  0.00     0.000 C 
BRANCH   4   5
ATOM      5  C   UNL     1      17.799   0.350  -6.982  1.00  0.00     0.000 C 
BRANCH   5   6
ATOM      6  C   UNL     1      16.775  -0.594  -6.321  1.00  0.00     0.000 C 
BRANCH   6   7
ATOM      7  C   UNL     1      17.102  -2.093  -6.497  1.00  0.00     0.000 C 
BRANCH   7   8
ATOM      8  C   UNL     1      18.583  -2.368  -6.812  1.00  0.00     0.000 C 
BRANCH   8   9
ATOM      9  C   UNL     1      19.309  -3.050  -5.638  1.00  0.00     0.000 C 
BRANCH   9  10
ATOM     10  C   UNL     1      18.539  -2.925  -4.313  1.00  0.00     0.000 C 
BRANCH  10  11
ATOM     11  C   UNL     1      19.154  -1.882  -3.367  1.00  0.00     0.000 C 
BRANCH  11  12
ATOM     12  C   UNL     1      18.166  -0.737  -3.100  1.00  0.00     0.006 C 
BRANCH  12  13
ATOM     13  C   UNL     1      16.962  -1.191  -2.265  1.00  0.00     0.053 C 
BRANCH  13  14
ATOM     14  C   UNL     1      17.020  -0.659  -0.866  1.00  0.00     0.041 C 
ATOM     15  O   UNL     1      15.962  -0.308  -0.278  1.00  0.00    -0.550 OA
ATOM     16  O   UNL     1      18.234  -0.592  -0.195  1.00  0.00    -0.550 OA
ENDBRANCH  13  14
ENDBRANCH  12  13
ENDBRANCH  11  12
ENDBRANCH  10  11
ENDBRANCH   9  10
ENDBRANCH   8   9
ENDBRANCH   7   8
ENDBRANCH   6   7
ENDBRANCH   5   6
ENDBRANCH   4   5
ENDBRANCH   3   4
ENDBRANCH   2   3
ENDBRANCH   1   2
BRANCH   1  17
ATOM     17  C   UNL     1      22.541   1.098  -4.971  1.00  0.00     0.000 C 
BRANCH  17  18
ATOM     18  C   UNL     1      23.979   1.125  -4.427  1.00  0.00     0.000 C 
BRANCH  18  19
ATOM     19  C   UNL     1      25.002   0.558  -5.422  1.00  0.00     0.000 C 
BRANCH  19  20
ATOM     20  C   UNL     1      26.416   0.593  -4.825  1.00  0.00     0.000 C 
BRANCH  20  21
ATOM     21  C   UNL     1      27.478  -0.011  -5.760  1.00  0.00     0.000 C 
BRANCH  21  22
ATOM     22  C   UNL     1      28.644  -0.723  -5.045  1.00  0.00    -0.000 C 
BRANCH  22  23
ATOM     23  C   UNL     1      28.759  -2.238  -5.318  1.00  0.00    -0.000 C 
BRANCH  23  24
ATOM     24  C   UNL     1      27.477  -3.050  -5.063  1.00  0.00    -0.000 C 
BRANCH  24  25
ATOM     25  C   UNL     1      27.152  -3.206  -3.568  1.00  0.00    -0.000 C 
BRANCH  25  26
ATOM     26  C   UNL     1      26.617  -4.606  -3.218  1.00  0.00    -0.000 C 
BRANCH  26  27
ATOM     27  C   UNL     1      26.440  -5.562  -4.417  1.00  0.00    -0.000 C 
BRANCH  27  28
ATOM     28  C   UNL     1      27.335  -6.813  -4.391  1.00  0.00    -0.000 C 
BRANCH  28  29
ATOM     29  C   UNL     1      27.904  -7.168  -5.772  1.00  0.00    -0.003 C 
ATOM     30  C   UNL     1      27.227  -6.358  -6.874  1.00  0.00     0.004 C 
ENDBRANCH  28  29
ENDBRANCH  27  28
ENDBRANCH  26  27
ENDBRANCH  25  26
ENDBRANCH  24  25
ENDBRANCH  23  24
ENDBRANCH  22  23
ENDBRANCH  21  22
ENDBRANCH  20  21
ENDBRANCH  19  20
ENDBRANCH  18  19
ENDBRANCH  17  18
ENDBRANCH   1  17
TORSDOF 26
ENDMDL
MODEL 9
REMARK VINA RESULT:    -2.655      6.904      9.818
REMARK INTER + INTRA:          -9.253
REMARK INTER:                  -6.026
REMARK INTRA:                  -3.227
REMARK UNBOUND:                -2.562
REMARK SMILES CCCCCCCCCCCCCCCCCCCCCCCCCCCC(=O)[O-]
REMARK SMILES IDX 15 1 16 2 17 3 18 4 19 5 20 6 21 7 22 8 23 9 24 10 25 11
REMARK SMILES IDX 26 12 27 13 28 14 29 15 30 16 14 17 13 18 12 19 11 20 10 21
REMARK SMILES IDX 9 22 8 23 7 24 6 25 5 26 4 27 3 28 2 29 1 30
REMARK H PARENT
REMARK Flexibility Score: inf
ROOT
ATOM      1  C   UNL     1      28.577  -2.846  -1.658  1.00  0.00     0.000 C 
ENDROOT
BRANCH   1   2
ATOM      2  C   UNL     1      28.390  -2.587  -0.155  1.00  0.00     0.000 C 
BRANCH   2   3
ATOM      3  C   UNL     1      29.609  -1.909   0.500  1.00  0.00     0.000 C 
BRANCH   3   4
ATOM      4  C   UNL     1      29.334  -0.503   1.071  1.00  0.00     0.000 C 
BRANCH   4   5
ATOM      5  C   UNL     1      27.919   0.037   0.760  1.00  0.00     0.000 C 
BRANCH   5   6
ATOM      6  C   UNL     1      27.435   1.125   1.738  1.00  0.00     0.000 C 
BRANCH   6   7
ATOM      7  C   UNL     1      26.091   0.796   2.425  1.00  0.00     0.000 C 
BRANCH   7   8
ATOM      8  C   UNL     1      26.201   0.646   3.953  1.00  0.00     0.000 C 
BRANCH   8   9
ATOM      9  C   UNL     1      27.651   0.791   4.448  1.00  0.00     0.000 C 
BRANCH   9  10
ATOM     10  C   UNL     1      28.192  -0.501   5.081  1.00  0.00     0.000 C 
BRANCH  10  11
ATOM     11  C   UNL     1      27.378  -1.741   4.684  1.00  0.00     0.000 C 
BRANCH  11  12
ATOM     12  C   UNL     1      28.304  -2.922   4.354  1.00  0.00     0.006 C 
BRANCH  12  13
ATOM     13  C   UNL     1      28.021  -3.511   2.966  1.00  0.00     0.053 C 
BRANCH  13  14
ATOM     14  C   UNL     1      28.231  -4.994   2.936  1.00  0.00     0.041 C 
ATOM     15  O   UNL     1      29.367  -5.467   2.664  1.00  0.00    -0.550 OA
ATOM     16  O   UNL     1      27.186  -5.853   3.251  1.00  0.00    -0.550 OA
ENDBRANCH  13  14
ENDBRANCH  12  13
ENDBRANCH  11  12
ENDBRANCH  10  11
ENDBRANCH   9  10
ENDBRANCH   8   9
ENDBRANCH   7   8
ENDBRANCH   6   7
ENDBRANCH   5   6
ENDBRANCH   4   5
ENDBRANCH   3   4
ENDBRANCH   2   3
ENDBRANCH   1   2
BRANCH   1  17
ATOM     17  C   UNL     1      28.799  -1.527  -2.415  1.00  0.00     0.000 C 
BRANCH  17  18
ATOM     18  C   UNL     1      30.124  -1.505  -3.194  1.00  0.00     0.000 C 
BRANCH  18  19
ATOM     19  C   UNL     1      29.977  -2.016  -4.634  1.00  0.00     0.000 C 
BRANCH  19  20
ATOM     20  C   UNL     1      28.801  -1.323  -5.339  1.00  0.00     0.000 C 
BRANCH  20  21
ATOM     21  C   UNL     1      27.783  -2.315  -5.927  1.00  0.00     0.000 C 
BRANCH  21  22
ATOM     22  C   UNL     1      26.868  -2.998  -4.892  1.00  0.00    -0.000 C 
BRANCH  22  23
ATOM     23  C   UNL     1      26.794  -4.536  -4.989  1.00  0.00    -0.000 C 
BRANCH  23  24
ATOM     24  C   UNL     1      27.590  -5.301  -3.916  1.00  0.00    -0.000 C 
BRANCH  24  25
ATOM     25  C   UNL     1      29.086  -5.419  -4.249  1.00  0.00    -0.000 C 
BRANCH  25  26
ATOM     26  C   UNL     1      29.690  -6.765  -3.806  1.00  0.00    -0.000 C 
BRANCH  26  27
ATOM     27  C   UNL     1      29.852  -7.814  -4.925  1.00  0.00    -0.000 C 
BRANCH  27  28
ATOM     28  C   UNL     1      28.534  -8.348  -5.515  1.00  0.00    -0.000 C 
BRANCH  28  29
ATOM     29  C   UNL     1      28.216  -7.757  -6.895  1.00  0.00    -0.003 C 
ATOM     30  C   UNL     1      26.796  -7.201  -6.945  1.00  0.00     0.004 C 
ENDBRANCH  28  29
ENDBRANCH  27  28
ENDBRANCH  26  27
ENDBRANCH  25  26
ENDBRANCH  24  25
ENDBRANCH  23  24
ENDBRANCH  22  23
ENDBRANCH  21  22
ENDBRANCH  20  21
ENDBRANCH  19  20
ENDBRANCH  18  19
ENDBRANCH  17  18
ENDBRANCH   1  17
TORSDOF 26
ENDMDL
