MODEL 1
REMARK VINA RESULT:    -5.680      0.000      0.000
REMARK INTER + INTRA:         -13.341
REMARK INTER:                 -10.994
REMARK INTRA:                  -2.347
REMARK UNBOUND:                -2.347
REMARK SMILES CCCCCCCCCCCCCCCCCC(=O)[O-]
REMARK SMILES IDX 10 1 11 2 12 3 13 4 14 5 15 6 16 7 17 8 18 9 19 10 20 11
REMARK SMILES IDX 9 12 8 13 7 14 6 15 5 16 4 17 3 18 2 19 1 20
REMARK H PARENT
REMARK Flexibility Score: inf
ROOT
ATOM      1  C   UNL     1     -13.509  -9.775  10.692  1.00  0.00     0.000 C 
ENDROOT
BRANCH   1   2
ATOM      2  C   UNL     1     -12.365  -8.779  10.949  1.00  0.00     0.000 C 
BRANCH   2   3
ATOM      3  C   UNL     1     -12.289  -7.670   9.887  1.00  0.00     0.000 C 
BRANCH   3   4
ATOM      4  C   UNL     1     -12.542  -8.196   8.465  1.00  0.00     0.000 C 
BRANCH   4   5
ATOM      5  C   UNL     1     -11.250  -8.656   7.765  1.00  0.00     0.000 C 
BRANCH   5   6
ATOM      6  C   UNL     1     -11.228 -10.169   7.500  1.00  0.00     0.000 C 
BRANCH   6   7
ATOM      7  C   UNL     1      -9.828 -10.780   7.686  1.00  0.00     0.006 C 
BRANCH   7   8
ATOM      8  C   UNL     1      -8.845  -9.789   8.324  1.00  0.00     0.053 C 
BRANCH   8   9
ATOM      9  C   UNL     1      -7.737  -9.421   7.387  1.00  0.00     0.041 C 
ATOM     10  O   UNL     1      -7.616  -8.235   6.980  1.00  0.00    -0.550 OA
ATOM     11  O   UNL     1      -6.817 -10.382   6.985  1.00  0.00    -0.550 OA
ENDBRANCH   8   9
ENDBRANCH   7   8
ENDBRANCH   6   7
ENDBRANCH   5   6
ENDBRANCH   4   5
ENDBRANCH   3   4
ENDBRANCH   2   3
ENDBRANCH   1   2
BRANCH   1  12
ATOM     12  C   UNL     1     -13.127 -11.243  10.978  1.00  0.00     0.000 C 
BRANCH  12  13
ATOM     13  C   UNL     1     -11.602 -11.443  11.038  1.00  0.00    -0.000 C 
BRANCH  13  14
ATOM     14  C   UNL     1     -11.144 -12.708  10.294  1.00  0.00    -0.000 C 
BRANCH  14  15
ATOM     15  C   UNL     1     -12.207 -13.219   9.305  1.00  0.00    -0.000 C 
BRANCH  15  16
ATOM     16  C   UNL     1     -11.663 -14.310   8.367  1.00  0.00    -0.000 C 
BRANCH  16  17
ATOM     17  C   UNL     1     -10.238 -14.751   8.734  1.00  0.00    -0.000 C 
BRANCH  17  18
ATOM     18  C   UNL     1     -10.215 -16.224   9.168  1.00  0.00    -0.000 C 
BRANCH  18  19
ATOM     19  C   UNL     1     -11.560 -16.930   8.936  1.00  0.00    -0.003 C 
ATOM     20  C   UNL     1     -11.690 -18.232   9.727  1.00  0.00     0.004 C 
ENDBRANCH  18  19
ENDBRANCH  17  18
ENDBRANCH  16  17
ENDBRANCH  15  16
ENDBRANCH  14  15
ENDBRANCH  13  14
ENDBRANCH  12  13
ENDBRANCH   1  12
TORSDOF 16
ENDMDL
MODEL 2
REMARK VINA RESULT:    -5.471      2.737      6.011
REMARK INTER + INTRA:         -12.935
REMARK INTER:                 -10.623
REMARK INTRA:                  -2.313
REMARK UNBOUND:                -2.347
REMARK SMILES CCCCCCCCCCCCCCCCCC(=O)[O-]
REMARK SMILES IDX 10 1 11 2 12 3 13 4 14 5 15 6 16 7 17 8 18 9 19 10 20 11
REMARK SMILES IDX 9 12 8 13 7 14 6 15 5 16 4 17 3 18 2 19 1 20
REMARK H PARENT
REMARK Flexibility Score: inf
ROOT
ATOM      1  C   UNL     1      -9.911  -8.860   9.321  1.00  0.00     0.000 C 
ENDROOT
BRANCH   1   2
ATOM      2  C   UNL     1      -9.140 -10.186   9.207  1.00  0.00     0.000 C 
BRANCH   2   3
ATOM      3  C   UNL     1      -8.763 -10.536   7.758  1.00  0.00     0.000 C 
BRANCH   3   4
ATOM      4  C   UNL     1      -9.343 -11.886   7.307  1.00  0.00     0.000 C 
BRANCH   4   5
ATOM      5  C   UNL     1     -10.169 -12.574   8.409  1.00  0.00     0.000 C 
BRANCH   5   6
ATOM      6  C   UNL     1     -11.428 -13.265   7.860  1.00  0.00     0.000 C 
BRANCH   6   7
ATOM      7  C   UNL     1     -12.102 -14.174   8.902  1.00  0.00     0.006 C 
BRANCH   7   8
ATOM      8  C   UNL     1     -12.262 -15.613   8.395  1.00  0.00     0.053 C 
BRANCH   8   9
ATOM      9  C   UNL     1     -11.190 -16.514   8.926  1.00  0.00     0.041 C 
ATOM     10  O   UNL     1     -11.483 -17.656   9.370  1.00  0.00    -0.550 OA
ATOM     11  O   UNL     1      -9.863 -16.104   8.904  1.00  0.00    -0.550 OA
ENDBRANCH   8   9
ENDBRANCH   7   8
ENDBRANCH   6   7
ENDBRANCH   5   6
ENDBRANCH   4   5
ENDBRANCH   3   4
ENDBRANCH   2   3
ENDBRANCH   1   2
BRANCH   1  12
ATOM     12  C   UNL     1     -10.513  -8.377   7.985  1.00  0.00     0.000 C 
BRANCH  12  13
ATOM     13  C   UNL     1     -12.011  -8.047   8.112  1.00  0.00    -0.000 C 
BRANCH  13  14
ATOM     14  C   UNL     1     -12.302  -7.051   9.246  1.00  0.00    -0.000 C 
BRANCH  14  15
ATOM     15  C   UNL     1     -13.156  -7.675  10.364  1.00  0.00    -0.000 C 
BRANCH  15  16
ATOM     16  C   UNL     1     -14.021  -8.844   9.864  1.00  0.00    -0.000 C 
BRANCH  16  17
ATOM     17  C   UNL     1     -14.043 -10.027  10.844  1.00  0.00    -0.000 C 
BRANCH  17  18
ATOM     18  C   UNL     1     -13.102 -11.146  10.374  1.00  0.00    -0.000 C 
BRANCH  18  19
ATOM     19  C   UNL     1     -11.923 -11.368  11.335  1.00  0.00    -0.003 C 
ATOM     20  C   UNL     1     -11.994 -10.477  12.575  1.00  0.00     0.004 C 
ENDBRANCH  18  19
ENDBRANCH  17  18
ENDBRANCH  16  17
ENDBRANCH  15  16
ENDBRANCH  14  15
ENDBRANCH  13  14
ENDBRANCH  12  13
ENDBRANCH   1  12
TORSDOF 16
ENDMDL
MODEL 3
REMARK VINA RESULT:    -5.368      2.910      5.527
REMARK INTER + INTRA:         -12.736
REMARK INTER:                 -10.134
REMARK INTRA:                  -2.603
REMARK UNBOUND:                -2.347
REMARK SMILES CCCCCCCCCCCCCCCCCC(=O)[O-]
REMARK SMILES IDX 10 1 11 2 12 3 13 4 14 5 15 6 16 7 17 8 18 9 19 10 20 11
REMARK SMILES IDX 9 12 8 13 7 14 6 15 5 16 4 17 3 18 2 19 1 20
REMARK H PARENT
REMARK Flexibility Score: inf
ROOT
ATOM      1  C   UNL     1     -11.385  -8.902   8.209  1.00  0.00     0.000 C 
ENDROOT
BRANCH   1   2
ATOM      2  C   UNL     1     -10.492  -8.644   9.434  1.00  0.00     0.000 C 
BRANCH   2   3
ATOM      3  C   UNL     1      -9.146  -9.383   9.358  1.00  0.00     0.000 C 
BRANCH   3   4
ATOM      4  C   UNL     1      -8.632  -9.527   7.916  1.00  0.00     0.000 C 
BRANCH   4   5
ATOM      5  C   UNL     1      -8.289 -10.983   7.552  1.00  0.00     0.000 C 
BRANCH   5   6
ATOM      6  C   UNL     1      -9.503 -11.760   7.018  1.00  0.00     0.000 C 
BRANCH   6   7
ATOM      7  C   UNL     1     -10.154 -12.648   8.092  1.00  0.00     0.006 C 
BRANCH   7   8
ATOM      8  C   UNL     1     -11.660 -12.825   7.860  1.00  0.00     0.053 C 
BRANCH   8   9
ATOM      9  C   UNL     1     -12.154 -14.139   8.382  1.00  0.00     0.041 C 
ATOM     10  O   UNL     1     -11.366 -15.114   8.493  1.00  0.00    -0.550 OA
ATOM     11  O   UNL     1     -13.479 -14.278   8.774  1.00  0.00    -0.550 OA
ENDBRANCH   8   9
ENDBRANCH   7   8
ENDBRANCH   6   7
ENDBRANCH   5   6
ENDBRANCH   4   5
ENDBRANCH   3   4
ENDBRANCH   2   3
ENDBRANCH   1   2
BRANCH   1  12
ATOM     12  C   UNL     1     -12.539  -7.888   8.059  1.00  0.00     0.000 C 
BRANCH  12  13
ATOM     13  C   UNL     1     -12.694  -7.000   9.307  1.00  0.00    -0.000 C 
BRANCH  13  14
ATOM     14  C   UNL     1     -14.047  -7.201  10.008  1.00  0.00    -0.000 C 
BRANCH  14  15
ATOM     15  C   UNL     1     -14.901  -8.285   9.327  1.00  0.00    -0.000 C 
BRANCH  15  16
ATOM     16  C   UNL     1     -15.559  -9.240  10.338  1.00  0.00    -0.000 C 
BRANCH  16  17
ATOM     17  C   UNL     1     -14.534  -9.958  11.229  1.00  0.00    -0.000 C 
BRANCH  17  18
ATOM     18  C   UNL     1     -13.485 -10.690  10.378  1.00  0.00    -0.000 C 
BRANCH  18  19
ATOM     19  C   UNL     1     -12.411 -11.382  11.232  1.00  0.00    -0.003 C 
ATOM     20  C   UNL     1     -11.977 -10.541  12.433  1.00  0.00     0.004 C 
ENDBRANCH  18  19
ENDBRANCH  17  18
ENDBRANCH  16  17
ENDBRANCH  15  16
ENDBRANCH  14  15
ENDBRANCH  13  14
ENDBRANCH  12  13
ENDBRANCH   1  12
TORSDOF 16
ENDMDL
MODEL 4
REMARK VINA RESULT:    -5.352      1.492      2.458
REMARK INTER + INTRA:         -12.706
REMARK INTER:                 -10.121
REMARK INTRA:                  -2.585
REMARK UNBOUND:                -2.347
REMARK SMILES CCCCCCCCCCCCCCCCCC(=O)[O-]
REMARK SMILES IDX 10 1 11 2 12 3 13 4 14 5 15 6 16 7 17 8 18 9 19 10 20 11
REMARK SMILES IDX 9 12 8 13 7 14 6 15 5 16 4 17 3 18 2 19 1 20
REMARK H PARENT
REMARK Flexibility Score: inf
ROOT
ATOM      1  C   UNL     1     -14.634  -8.114   9.307  1.00  0.00     0.000 C 
ENDROOT
BRANCH   1   2
ATOM      2  C   UNL     1     -13.828  -6.921   9.846  1.00  0.00     0.000 C 
BRANCH   2   3
ATOM      3  C   UNL     1     -12.407  -6.846   9.262  1.00  0.00     0.000 C 
BRANCH   3   4
ATOM      4  C   UNL     1     -11.342  -7.384  10.230  1.00  0.00     0.000 C 
BRANCH   4   5
ATOM      5  C   UNL     1     -10.501  -8.518   9.616  1.00  0.00     0.000 C 
BRANCH   5   6
ATOM      6  C   UNL     1     -10.999  -8.935   8.223  1.00  0.00     0.000 C 
BRANCH   6   7
ATOM      7  C   UNL     1     -10.200 -10.112   7.639  1.00  0.00     0.006 C 
BRANCH   7   8
ATOM      8  C   UNL     1      -8.774 -10.178   8.201  1.00  0.00     0.053 C 
BRANCH   8   9
ATOM      9  C   UNL     1      -7.806  -9.404   7.360  1.00  0.00     0.041 C 
ATOM     10  O   UNL     1      -6.740  -9.942   6.960  1.00  0.00    -0.550 OA
ATOM     11  O   UNL     1      -8.096  -8.096   6.991  1.00  0.00    -0.550 OA
ENDBRANCH   8   9
ENDBRANCH   7   8
ENDBRANCH   6   7
ENDBRANCH   5   6
ENDBRANCH   4   5
ENDBRANCH   3   4
ENDBRANCH   2   3
ENDBRANCH   1   2
BRANCH   1  12
ATOM     12  C   UNL     1     -14.996  -9.156  10.386  1.00  0.00     0.000 C 
BRANCH  12  13
ATOM     13  C   UNL     1     -13.991 -10.322  10.424  1.00  0.00    -0.000 C 
BRANCH  13  14
ATOM     14  C   UNL     1     -13.021 -10.225  11.613  1.00  0.00    -0.000 C 
BRANCH  14  15
ATOM     15  C   UNL     1     -11.987 -11.365  11.614  1.00  0.00    -0.000 C 
BRANCH  15  16
ATOM     16  C   UNL     1     -11.847 -12.036  10.237  1.00  0.00    -0.000 C 
BRANCH  16  17
ATOM     17  C   UNL     1     -10.564 -12.872  10.113  1.00  0.00    -0.000 C 
BRANCH  17  18
ATOM     18  C   UNL     1     -10.548 -13.659   8.793  1.00  0.00    -0.000 C 
BRANCH  18  19
ATOM     19  C   UNL     1     -11.877 -13.557   8.029  1.00  0.00    -0.003 C 
ATOM     20  C   UNL     1     -12.745 -14.806   8.183  1.00  0.00     0.004 C 
ENDBRANCH  18  19
ENDBRANCH  17  18
ENDBRANCH  16  17
ENDBRANCH  15  16
ENDBRANCH  14  15
ENDBRANCH  13  14
ENDBRANCH  12  13
ENDBRANCH   1  12
TORSDOF 16
ENDMDL
MODEL 5
REMARK VINA RESULT:    -5.318      2.966      6.019
REMARK INTER + INTRA:         -12.639
REMARK INTER:                 -10.811
REMARK INTRA:                  -1.828
REMARK UNBOUND:                -2.347
REMARK SMILES CCCCCCCCCCCCCCCCCC(=O)[O-]
REMARK SMILES IDX 10 1 11 2 12 3 13 4 14 5 15 6 16 7 17 8 18 9 19 10 20 11
REMARK SMILES IDX 9 12 8 13 7 14 6 15 5 16 4 17 3 18 2 19 1 20
REMARK H PARENT
REMARK Flexibility Score: inf
ROOT
ATOM      1  C   UNL     1     -13.621 -10.098  10.602  1.00  0.00     0.000 C 
ENDROOT
BRANCH   1   2
ATOM      2  C   UNL     1     -12.285 -10.305  11.334  1.00  0.00     0.000 C 
BRANCH   2   3
ATOM      3  C   UNL     1     -11.724 -11.726  11.164  1.00  0.00     0.000 C 
BRANCH   3   4
ATOM      4  C   UNL     1     -12.554 -12.575  10.188  1.00  0.00     0.000 C 
BRANCH   4   5
ATOM      5  C   UNL     1     -11.903 -12.687   8.798  1.00  0.00     0.000 C 
BRANCH   5   6
ATOM      6  C   UNL     1     -10.501 -13.314   8.851  1.00  0.00     0.000 C 
BRANCH   6   7
ATOM      7  C   UNL     1     -10.418 -14.490   9.839  1.00  0.00     0.006 C 
BRANCH   7   8
ATOM      8  C   UNL     1     -10.114 -15.818   9.132  1.00  0.00     0.053 C 
BRANCH   8   9
ATOM      9  C   UNL     1     -11.336 -16.675   9.008  1.00  0.00     0.041 C 
ATOM     10  O   UNL     1     -11.308 -17.877   9.383  1.00  0.00    -0.550 OA
ATOM     11  O   UNL     1     -12.515 -16.139   8.507  1.00  0.00    -0.550 OA
ENDBRANCH   8   9
ENDBRANCH   7   8
ENDBRANCH   6   7
ENDBRANCH   5   6
ENDBRANCH   4   5
ENDBRANCH   3   4
ENDBRANCH   2   3
ENDBRANCH   1   2
BRANCH   1  12
ATOM     12  C   UNL     1     -13.707  -8.763   9.834  1.00  0.00     0.000 C 
BRANCH  12  13
ATOM     13  C   UNL     1     -12.608  -7.775  10.267  1.00  0.00    -0.000 C 
BRANCH  13  14
ATOM     14  C   UNL     1     -11.567  -7.529   9.162  1.00  0.00    -0.000 C 
BRANCH  14  15
ATOM     15  C   UNL     1     -11.890  -8.308   7.875  1.00  0.00    -0.000 C 
BRANCH  15  16
ATOM     16  C   UNL     1     -11.058  -9.594   7.738  1.00  0.00    -0.000 C 
BRANCH  16  17
ATOM     17  C   UNL     1      -9.819  -9.598   8.646  1.00  0.00    -0.000 C 
BRANCH  17  18
ATOM     18  C   UNL     1      -8.563  -9.191   7.861  1.00  0.00    -0.000 C 
BRANCH  18  19
ATOM     19  C   UNL     1      -7.687 -10.395   7.482  1.00  0.00    -0.003 C 
ATOM     20  C   UNL     1      -6.379  -9.986   6.805  1.00  0.00     0.004 C 
ENDBRANCH  18  19
ENDBRANCH  17  18
ENDBRANCH  16  17
ENDBRANCH  15  16
ENDBRANCH  14  15
ENDBRANCH  13  14
ENDBRANCH  12  13
ENDBRANCH   1  12
TORSDOF 16
ENDMDL
MODEL 6
REMARK VINA RESULT:    -5.290      1.155      1.660
REMARK INTER + INTRA:         -12.585
REMARK INTER:                 -10.472
REMARK INTRA:                  -2.114
REMARK UNBOUND:                -2.347
REMARK SMILES CCCCCCCCCCCCCCCCCC(=O)[O-]
REMARK SMILES IDX 10 1 11 2 12 3 13 4 14 5 15 6 16 7 17 8 18 9 19 10 20 11
REMARK SMILES IDX 9 12 8 13 7 14 6 15 5 16 4 17 3 18 2 19 1 20
REMARK H PARENT
REMARK Flexibility Score: inf
ROOT
ATOM      1  C   UNL     1     -15.075  -9.365  10.724  1.00  0.00     0.000 C 
ENDROOT
BRANCH   1   2
ATOM      2  C   UNL     1     -14.716  -8.462   9.532  1.00  0.00     0.000 C 
BRANCH   2   3
ATOM      3  C   UNL     1     -13.938  -7.203   9.950  1.00  0.00     0.000 C 
BRANCH   3   4
ATOM      4  C   UNL     1     -12.555  -7.116   9.285  1.00  0.00     0.000 C 
BRANCH   4   5
ATOM      5  C   UNL     1     -12.443  -8.002   8.031  1.00  0.00     0.000 C 
BRANCH   5   6
ATOM      6  C   UNL     1     -11.227  -8.940   8.077  1.00  0.00     0.000 C 
BRANCH   6   7
ATOM      7  C   UNL     1     -10.300  -8.647   9.269  1.00  0.00     0.006 C 
BRANCH   7   8
ATOM      8  C   UNL     1      -9.050  -9.536   9.262  1.00  0.00     0.053 C 
BRANCH   8   9
ATOM      9  C   UNL     1      -8.525  -9.749   7.876  1.00  0.00     0.041 C 
ATOM     10  O   UNL     1      -7.892  -8.832   7.289  1.00  0.00    -0.550 OA
ATOM     11  O   UNL     1      -8.709 -10.972   7.242  1.00  0.00    -0.550 OA
ENDBRANCH   8   9
ENDBRANCH   7   8
ENDBRANCH   6   7
ENDBRANCH   5   6
ENDBRANCH   4   5
ENDBRANCH   3   4
ENDBRANCH   2   3
ENDBRANCH   1   2
BRANCH   1  12
ATOM     12  C   UNL     1     -14.123 -10.566  10.900  1.00  0.00     0.000 C 
BRANCH  12  13
ATOM     13  C   UNL     1     -12.761 -10.144  11.479  1.00  0.00    -0.000 C 
BRANCH  13  14
ATOM     14  C   UNL     1     -11.728 -11.282  11.449  1.00  0.00    -0.000 C 
BRANCH  14  15
ATOM     15  C   UNL     1     -11.830 -12.127  10.166  1.00  0.00    -0.000 C 
BRANCH  15  16
ATOM     16  C   UNL     1     -10.606 -13.034   9.958  1.00  0.00    -0.000 C 
BRANCH  16  17
ATOM     17  C   UNL     1     -10.597 -13.711   8.579  1.00  0.00    -0.000 C 
BRANCH  17  18
ATOM     18  C   UNL     1     -11.371 -15.037   8.613  1.00  0.00    -0.000 C 
BRANCH  18  19
ATOM     19  C   UNL     1     -10.554 -16.181   9.233  1.00  0.00    -0.003 C 
ATOM     20  C   UNL     1     -11.338 -17.491   9.318  1.00  0.00     0.004 C 
ENDBRANCH  18  19
ENDBRANCH  17  18
ENDBRANCH  16  17
ENDBRANCH  15  16
ENDBRANCH  14  15
ENDBRANCH  13  14
ENDBRANCH  12  13
ENDBRANCH   1  12
TORSDOF 16
ENDMDL
MODEL 7
REMARK VINA RESULT:    -5.252      2.453      5.409
REMARK INTER + INTRA:         -12.511
REMARK INTER:                  -9.943
REMARK INTRA:                  -2.568
REMARK UNBOUND:                -2.347
REMARK SMILES CCCCCCCCCCCCCCCCCC(=O)[O-]
REMARK SMILES IDX 10 1 11 2 12 3 13 4 14 5 15 6 16 7 17 8 18 9 19 10 20 11
REMARK SMILES IDX 9 12 8 13 7 14 6 15 5 16 4 17 3 18 2 19 1 20
REMARK H PARENT
REMARK Flexibility Score: inf
ROOT
ATOM      1  C   UNL     1     -14.895  -8.028   9.522  1.00  0.00     0.000 C 
ENDROOT
BRANCH   1   2
ATOM      2  C   UNL     1     -15.057  -9.184  10.524  1.00  0.00     0.000 C 
BRANCH   2   3
ATOM      3  C   UNL     1     -13.961 -10.253  10.385  1.00  0.00     0.000 C 
BRANCH   3   4
ATOM      4  C   UNL     1     -13.088 -10.372  11.645  1.00  0.00     0.000 C 
BRANCH   4   5
ATOM      5  C   UNL     1     -11.814 -11.203  11.408  1.00  0.00     0.000 C 
BRANCH   5   6
ATOM      6  C   UNL     1     -11.793 -11.870  10.023  1.00  0.00     0.000 C 
BRANCH   6   7
ATOM      7  C   UNL     1     -10.885 -13.111   9.981  1.00  0.00     0.006 C 
BRANCH   7   8
ATOM      8  C   UNL     1     -11.563 -14.299   9.286  1.00  0.00     0.053 C 
BRANCH   8   9
ATOM      9  C   UNL     1     -10.579 -15.370   8.927  1.00  0.00     0.041 C 
ATOM     10  O   UNL     1      -9.392 -15.068   8.632  1.00  0.00    -0.550 OA
ATOM     11  O   UNL     1     -10.964 -16.704   8.947  1.00  0.00    -0.550 OA
ENDBRANCH   8   9
ENDBRANCH   7   8
ENDBRANCH   6   7
ENDBRANCH   5   6
ENDBRANCH   4   5
ENDBRANCH   3   4
ENDBRANCH   2   3
ENDBRANCH   1   2
BRANCH   1  12
ATOM     12  C   UNL     1     -14.049  -6.855  10.061  1.00  0.00     0.000 C 
BRANCH  12  13
ATOM     13  C   UNL     1     -12.586  -6.933   9.589  1.00  0.00    -0.000 C 
BRANCH  13  14
ATOM     14  C   UNL     1     -12.443  -7.624   8.223  1.00  0.00    -0.000 C 
BRANCH  14  15
ATOM     15  C   UNL     1     -11.339  -8.696   8.226  1.00  0.00    -0.000 C 
BRANCH  15  16
ATOM     16  C   UNL     1     -10.305  -8.475   9.343  1.00  0.00    -0.000 C 
BRANCH  16  17
ATOM     17  C   UNL     1      -9.135  -9.469   9.273  1.00  0.00    -0.000 C 
BRANCH  17  18
ATOM     18  C   UNL     1      -8.557  -9.537   7.851  1.00  0.00    -0.000 C 
BRANCH  18  19
ATOM     19  C   UNL     1      -8.274 -10.977   7.397  1.00  0.00    -0.003 C 
ATOM     20  C   UNL     1      -9.543 -11.736   7.008  1.00  0.00     0.004 C 
ENDBRANCH  18  19
ENDBRANCH  17  18
ENDBRANCH  16  17
ENDBRANCH  15  16
ENDBRANCH  14  15
ENDBRANCH  13  14
ENDBRANCH  12  13
ENDBRANCH   1  12
TORSDOF 16
ENDMDL
MODEL 8
REMARK VINA RESULT:    -5.247      2.545      4.604
REMARK INTER + INTRA:         -12.503
REMARK INTER:                 -10.284
REMARK INTRA:                  -2.219
REMARK UNBOUND:                -2.347
REMARK SMILES CCCCCCCCCCCCCCCCCC(=O)[O-]
REMARK SMILES IDX 10 1 11 2 12 3 13 4 14 5 15 6 16 7 17 8 18 9 19 10 20 11
REMARK SMILES IDX 9 12 8 13 7 14 6 15 5 16 4 17 3 18 2 19 1 20
REMARK H PARENT
REMARK Flexibility Score: inf
ROOT
ATOM      1  C   UNL     1     -10.710  -8.619   9.437  1.00  0.00     0.000 C 
ENDROOT
BRANCH   1   2
ATOM      2  C   UNL     1     -11.534  -8.633  10.736  1.00  0.00     0.000 C 
BRANCH   2   3
ATOM      3  C   UNL     1     -11.621 -10.029  11.373  1.00  0.00     0.000 C 
BRANCH   3   4
ATOM      4  C   UNL     1     -13.069 -10.522  11.519  1.00  0.00     0.000 C 
BRANCH   4   5
ATOM      5  C   UNL     1     -13.939 -10.173  10.298  1.00  0.00     0.000 C 
BRANCH   5   6
ATOM      6  C   UNL     1     -15.188  -9.361  10.675  1.00  0.00     0.000 C 
BRANCH   6   7
ATOM      7  C   UNL     1     -15.505  -8.256   9.652  1.00  0.00     0.006 C 
BRANCH   7   8
ATOM      8  C   UNL     1     -14.596  -7.032   9.825  1.00  0.00     0.053 C 
BRANCH   8   9
ATOM      9  C   UNL     1     -13.916  -6.658   8.544  1.00  0.00     0.041 C 
ATOM     10  O   UNL     1     -13.575  -7.550   7.722  1.00  0.00    -0.550 OA
ATOM     11  O   UNL     1     -13.684  -5.322   8.244  1.00  0.00    -0.550 OA
ENDBRANCH   8   9
ENDBRANCH   7   8
ENDBRANCH   6   7
ENDBRANCH   5   6
ENDBRANCH   4   5
ENDBRANCH   3   4
ENDBRANCH   2   3
ENDBRANCH   1   2
BRANCH   1  12
ATOM     12  C   UNL     1      -9.426  -9.472   9.508  1.00  0.00     0.000 C 
BRANCH  12  13
ATOM     13  C   UNL     1      -8.605  -9.391   8.208  1.00  0.00    -0.000 C 
BRANCH  13  14
ATOM     14  C   UNL     1      -8.728 -10.663   7.354  1.00  0.00    -0.000 C 
BRANCH  14  15
ATOM     15  C   UNL     1      -9.423 -11.808   8.112  1.00  0.00    -0.000 C 
BRANCH  15  16
ATOM     16  C   UNL     1     -10.854 -12.064   7.610  1.00  0.00    -0.000 C 
BRANCH  16  17
ATOM     17  C   UNL     1     -11.769 -12.645   8.699  1.00  0.00    -0.000 C 
BRANCH  17  18
ATOM     18  C   UNL     1     -11.044 -13.738   9.499  1.00  0.00    -0.000 C 
BRANCH  18  19
ATOM     19  C   UNL     1     -11.057 -15.099   8.786  1.00  0.00    -0.003 C 
ATOM     20  C   UNL     1      -9.760 -15.884   8.985  1.00  0.00     0.004 C 
ENDBRANCH  18  19
ENDBRANCH  17  18
ENDBRANCH  16  17
ENDBRANCH  15  16
ENDBRANCH  14  15
ENDBRANCH  13  14
ENDBRANCH  12  13
ENDBRANCH   1  12
TORSDOF 16
ENDMDL
MODEL 9
REMARK VINA RESULT:    -5.228      3.367      5.622
REMARK INTER + INTRA:         -12.466
REMARK INTER:                 -10.095
REMARK INTRA:                  -2.370
REMARK UNBOUND:                -2.347
REMARK SMILES CCCCCCCCCCCCCCCCCC(=O)[O-]
REMARK SMILES IDX 10 1 11 2 12 3 13 4 14 5 15 6 16 7 17 8 18 9 19 10 20 11
REMARK SMILES IDX 9 12 8 13 7 14 6 15 5 16 4 17 3 18 2 19 1 20
REMARK H PARENT
REMARK Flexibility Score: inf
ROOT
ATOM      1  C   UNL     1      -8.710  -9.546   7.749  1.00  0.00     0.000 C 
ENDROOT
BRANCH   1   2
ATOM      2  C   UNL     1      -9.029  -9.512   9.254  1.00  0.00     0.000 C 
BRANCH   2   3
ATOM      3  C   UNL     1     -10.228  -8.610   9.590  1.00  0.00     0.000 C 
BRANCH   3   4
ATOM      4  C   UNL     1     -11.109  -8.318   8.364  1.00  0.00     0.000 C 
BRANCH   4   5
ATOM      5  C   UNL     1     -12.612  -8.342   8.697  1.00  0.00     0.000 C 
BRANCH   5   6
ATOM      6  C   UNL     1     -12.993  -7.325   9.783  1.00  0.00     0.000 C 
BRANCH   6   7
ATOM      7  C   UNL     1     -14.516  -7.149   9.919  1.00  0.00     0.006 C 
BRANCH   7   8
ATOM      8  C   UNL     1     -14.901  -5.714  10.300  1.00  0.00     0.053 C 
BRANCH   8   9
ATOM      9  C   UNL     1     -14.478  -4.728   9.255  1.00  0.00     0.041 C 
ATOM     10  O   UNL     1     -15.018  -4.738   8.117  1.00  0.00    -0.550 OA
ATOM     11  O   UNL     1     -13.509  -3.776   9.547  1.00  0.00    -0.550 OA
ENDBRANCH   8   9
ENDBRANCH   7   8
ENDBRANCH   6   7
ENDBRANCH   5   6
ENDBRANCH   4   5
ENDBRANCH   3   4
ENDBRANCH   2   3
ENDBRANCH   1   2
BRANCH   1  12
ATOM     12  C   UNL     1      -8.093 -10.879   7.277  1.00  0.00     0.000 C 
BRANCH  12  13
ATOM     13  C   UNL     1      -9.018 -12.076   7.560  1.00  0.00    -0.000 C 
BRANCH  13  14
ATOM     14  C   UNL     1     -10.498 -11.754   7.296  1.00  0.00    -0.000 C 
BRANCH  14  15
ATOM     15  C   UNL     1     -11.442 -12.797   7.921  1.00  0.00    -0.000 C 
BRANCH  15  16
ATOM     16  C   UNL     1     -10.963 -13.272   9.303  1.00  0.00    -0.000 C 
BRANCH  16  17
ATOM     17  C   UNL     1     -11.255 -12.252  10.414  1.00  0.00    -0.000 C 
BRANCH  17  18
ATOM     18  C   UNL     1     -12.651 -11.635  10.239  1.00  0.00    -0.000 C 
BRANCH  18  19
ATOM     19  C   UNL     1     -13.128 -10.889  11.495  1.00  0.00    -0.003 C 
ATOM     20  C   UNL     1     -11.979 -10.263  12.285  1.00  0.00     0.004 C 
ENDBRANCH  18  19
ENDBRANCH  17  18
ENDBRANCH  16  17
ENDBRANCH  15  16
ENDBRANCH  14  15
ENDBRANCH  13  14
ENDBRANCH  12  13
ENDBRANCH   1  12
TORSDOF 16
ENDMDL
