MODEL 1
REMARK VINA RESULT:    -4.748      0.000      0.000
REMARK INTER + INTRA:         -10.903
REMARK INTER:                  -8.635
REMARK INTRA:                  -2.268
REMARK UNBOUND:                -2.268
REMARK SMILES CCCCCCCCCCCCCCCC(=O)[O-]
REMARK SMILES IDX 9 1 10 2 11 3 12 4 13 5 14 6 15 7 16 8 17 9 18 10 8 11 7 12
REMARK SMILES IDX 6 13 5 14 4 15 3 16 2 17 1 18
REMARK H PARENT
REMARK Flexibility Score: inf
ROOT
ATOM      1  C   UNL     1      20.050  20.574  48.157  1.00  0.00     0.000 C 
ENDROOT
BRANCH   1   2
ATOM      2  C   UNL     1      18.551  20.874  47.974  1.00  0.00     0.000 C 
BRANCH   2   3
ATOM      3  C   UNL     1      18.159  21.051  46.497  1.00  0.00     0.000 C 
BRANCH   3   4
ATOM      4  C   UNL     1      19.363  20.920  45.548  1.00  0.00     0.000 C 
BRANCH   4   5
ATOM      5  C   UNL     1      19.235  19.722  44.593  1.00  0.00     0.000 C 
BRANCH   5   6
ATOM      6  C   UNL     1      18.526  20.084  43.276  1.00  0.00     0.006 C 
BRANCH   6   7
ATOM      7  C   UNL     1      18.547  21.594  43.004  1.00  0.00     0.053 C 
BRANCH   7   8
ATOM      8  C   UNL     1      17.199  22.105  42.598  1.00  0.00     0.041 C 
ATOM      9  O   UNL     1      16.208  21.329  42.574  1.00  0.00    -0.550 OA
ATOM     10  O   UNL     1      17.031  23.445  42.274  1.00  0.00    -0.550 OA
ENDBRANCH   7   8
ENDBRANCH   6   7
ENDBRANCH   5   6
ENDBRANCH   4   5
ENDBRANCH   3   4
ENDBRANCH   2   3
ENDBRANCH   1   2
BRANCH   1  11
ATOM     11  C   UNL     1      20.327  19.694  49.386  1.00  0.00     0.000 C 
BRANCH  11  12
ATOM     12  C   UNL     1      20.895  18.313  49.012  1.00  0.00    -0.000 C 
BRANCH  12  13
ATOM     13  C   UNL     1      20.828  18.040  47.501  1.00  0.00    -0.000 C 
BRANCH  13  14
ATOM     14  C   UNL     1      20.378  16.603  47.181  1.00  0.00    -0.000 C 
BRANCH  14  15
ATOM     15  C   UNL     1      18.995  16.555  46.513  1.00  0.00    -0.000 C 
BRANCH  15  16
ATOM     16  C   UNL     1      17.901  17.210  47.375  1.00  0.00    -0.000 C 
BRANCH  16  17
ATOM     17  C   UNL     1      16.710  17.701  46.538  1.00  0.00    -0.003 C 
ATOM     18  C   UNL     1      16.723  17.151  45.112  1.00  0.00     0.004 C 
ENDBRANCH  16  17
ENDBRANCH  15  16
ENDBRANCH  14  15
ENDBRANCH  13  14
ENDBRANCH  12  13
ENDBRANCH  11  12
ENDBRANCH   1  11
TORSDOF 14
ENDMDL
MODEL 2
REMARK VINA RESULT:    -4.628      2.305      4.765
REMARK INTER + INTRA:         -10.685
REMARK INTER:                  -8.319
REMARK INTRA:                  -2.366
REMARK UNBOUND:                -2.268
REMARK SMILES CCCCCCCCCCCCCCCC(=O)[O-]
REMARK SMILES IDX 9 1 10 2 11 3 12 4 13 5 14 6 15 7 16 8 17 9 18 10 8 11 7 12
REMARK SMILES IDX 6 13 5 14 4 15 3 16 2 17 1 18
REMARK H PARENT
REMARK Flexibility Score: inf
ROOT
ATOM      1  C   UNL     1      20.649  18.785  49.580  1.00  0.00     0.000 C 
ENDROOT
BRANCH   1   2
ATOM      2  C   UNL     1      21.319  17.459  49.180  1.00  0.00     0.000 C 
BRANCH   2   3
ATOM      3  C   UNL     1      21.333  17.238  47.657  1.00  0.00     0.000 C 
BRANCH   3   4
ATOM      4  C   UNL     1      20.291  16.201  47.202  1.00  0.00     0.000 C 
BRANCH   4   5
ATOM      5  C   UNL     1      19.127  16.836  46.424  1.00  0.00     0.000 C 
BRANCH   5   6
ATOM      6  C   UNL     1      17.923  17.169  47.323  1.00  0.00     0.006 C 
BRANCH   6   7
ATOM      7  C   UNL     1      16.779  17.825  46.538  1.00  0.00     0.053 C 
BRANCH   7   8
ATOM      8  C   UNL     1      15.748  16.825  46.117  1.00  0.00     0.041 C 
ATOM      9  O   UNL     1      14.863  17.141  45.279  1.00  0.00    -0.550 OA
ATOM     10  O   UNL     1      15.782  15.534  46.628  1.00  0.00    -0.550 OA
ENDBRANCH   7   8
ENDBRANCH   6   7
ENDBRANCH   5   6
ENDBRANCH   4   5
ENDBRANCH   3   4
ENDBRANCH   2   3
ENDBRANCH   1   2
BRANCH   1  11
ATOM     11  C   UNL     1      20.406  19.708  48.374  1.00  0.00     0.000 C 
BRANCH  11  12
ATOM     12  C   UNL     1      19.101  20.514  48.496  1.00  0.00    -0.000 C 
BRANCH  12  13
ATOM     13  C   UNL     1      18.589  21.014  47.136  1.00  0.00    -0.000 C 
BRANCH  13  14
ATOM     14  C   UNL     1      19.501  20.590  45.971  1.00  0.00    -0.000 C 
BRANCH  14  15
ATOM     15  C   UNL     1      18.826  20.767  44.601  1.00  0.00    -0.000 C 
BRANCH  15  16
ATOM     16  C   UNL     1      18.808  19.464  43.781  1.00  0.00    -0.000 C 
BRANCH  16  17
ATOM     17  C   UNL     1      17.436  19.189  43.148  1.00  0.00    -0.003 C 
ATOM     18  C   UNL     1      16.607  20.459  42.959  1.00  0.00     0.004 C 
ENDBRANCH  16  17
ENDBRANCH  15  16
ENDBRANCH  14  15
ENDBRANCH  13  14
ENDBRANCH  12  13
ENDBRANCH  11  12
ENDBRANCH   1  11
TORSDOF 14
ENDMDL
MODEL 3
REMARK VINA RESULT:    -4.576      3.930      5.809
REMARK INTER + INTRA:         -10.589
REMARK INTER:                  -8.387
REMARK INTRA:                  -2.202
REMARK UNBOUND:                -2.268
REMARK SMILES CCCCCCCCCCCCCCCC(=O)[O-]
REMARK SMILES IDX 9 1 10 2 11 3 12 4 13 5 14 6 15 7 16 8 17 9 18 10 8 11 7 12
REMARK SMILES IDX 6 13 5 14 4 15 3 16 2 17 1 18
REMARK H PARENT
REMARK Flexibility Score: inf
ROOT
ATOM      1  C   UNL     1      19.447  20.726  45.392  1.00  0.00     0.000 C 
ENDROOT
BRANCH   1   2
ATOM      2  C   UNL     1      18.436  21.273  46.416  1.00  0.00     0.000 C 
BRANCH   2   3
ATOM      3  C   UNL     1      18.654  20.698  47.827  1.00  0.00     0.000 C 
BRANCH   3   4
ATOM      4  C   UNL     1      20.120  20.310  48.085  1.00  0.00     0.000 C 
BRANCH   4   5
ATOM      5  C   UNL     1      20.283  18.822  48.439  1.00  0.00     0.000 C 
BRANCH   5   6
ATOM      6  C   UNL     1      21.262  18.093  47.502  1.00  0.00     0.006 C 
BRANCH   6   7
ATOM      7  C   UNL     1      21.274  16.577  47.743  1.00  0.00     0.053 C 
BRANCH   7   8
ATOM      8  C   UNL     1      22.296  16.185  48.765  1.00  0.00     0.041 C 
ATOM      9  O   UNL     1      21.938  15.866  49.930  1.00  0.00    -0.550 OA
ATOM     10  O   UNL     1      23.641  16.142  48.423  1.00  0.00    -0.550 OA
ENDBRANCH   7   8
ENDBRANCH   6   7
ENDBRANCH   5   6
ENDBRANCH   4   5
ENDBRANCH   3   4
ENDBRANCH   2   3
ENDBRANCH   1   2
BRANCH   1  11
ATOM     11  C   UNL     1      18.887  19.540  44.590  1.00  0.00     0.000 C 
BRANCH  11  12
ATOM     12  C   UNL     1      17.349  19.501  44.582  1.00  0.00    -0.000 C 
BRANCH  12  13
ATOM     13  C   UNL     1      16.794  18.104  44.904  1.00  0.00    -0.000 C 
BRANCH  13  14
ATOM     14  C   UNL     1      16.630  17.869  46.416  1.00  0.00    -0.000 C 
BRANCH  14  15
ATOM     15  C   UNL     1      17.639  16.849  46.966  1.00  0.00    -0.000 C 
BRANCH  15  16
ATOM     16  C   UNL     1      18.275  15.992  45.857  1.00  0.00    -0.000 C 
BRANCH  16  17
ATOM     17  C   UNL     1      17.918  14.504  45.987  1.00  0.00    -0.003 C 
ATOM     18  C   UNL     1      19.144  13.622  46.222  1.00  0.00     0.004 C 
ENDBRANCH  16  17
ENDBRANCH  15  16
ENDBRANCH  14  15
ENDBRANCH  13  14
ENDBRANCH  12  13
ENDBRANCH  11  12
ENDBRANCH   1  11
TORSDOF 14
ENDMDL
MODEL 4
REMARK VINA RESULT:    -4.563      1.753      2.773
REMARK INTER + INTRA:         -10.565
REMARK INTER:                  -8.399
REMARK INTRA:                  -2.166
REMARK UNBOUND:                -2.268
REMARK SMILES CCCCCCCCCCCCCCCC(=O)[O-]
REMARK SMILES IDX 9 1 10 2 11 3 12 4 13 5 14 6 15 7 16 8 17 9 18 10 8 11 7 12
REMARK SMILES IDX 6 13 5 14 4 15 3 16 2 17 1 18
REMARK H PARENT
REMARK Flexibility Score: inf
ROOT
ATOM      1  C   UNL     1      21.516  17.961  47.661  1.00  0.00     0.000 C 
ENDROOT
BRANCH   1   2
ATOM      2  C   UNL     1      21.068  19.225  46.906  1.00  0.00     0.000 C 
BRANCH   2   3
ATOM      3  C   UNL     1      19.819  19.874  47.526  1.00  0.00     0.000 C 
BRANCH   3   4
ATOM      4  C   UNL     1      18.883  20.483  46.468  1.00  0.00     0.000 C 
BRANCH   4   5
ATOM      5  C   UNL     1      19.442  20.355  45.042  1.00  0.00     0.000 C 
BRANCH   5   6
ATOM      6  C   UNL     1      18.532  19.527  44.118  1.00  0.00     0.006 C 
BRANCH   6   7
ATOM      7  C   UNL     1      17.055  19.622  44.525  1.00  0.00     0.053 C 
BRANCH   7   8
ATOM      8  C   UNL     1      16.300  20.581  43.657  1.00  0.00     0.041 C 
ATOM      9  O   UNL     1      15.095  20.848  43.906  1.00  0.00    -0.550 OA
ATOM     10  O   UNL     1      16.937  21.203  42.590  1.00  0.00    -0.550 OA
ENDBRANCH   7   8
ENDBRANCH   6   7
ENDBRANCH   5   6
ENDBRANCH   4   5
ENDBRANCH   3   4
ENDBRANCH   2   3
ENDBRANCH   1   2
BRANCH   1  11
ATOM     11  C   UNL     1      20.336  17.039  48.013  1.00  0.00     0.000 C 
BRANCH  11  12
ATOM     12  C   UNL     1      19.937  16.114  46.850  1.00  0.00    -0.000 C 
BRANCH  12  13
ATOM     13  C   UNL     1      18.641  16.566  46.158  1.00  0.00    -0.000 C 
BRANCH  13  14
ATOM     14  C   UNL     1      17.525  16.908  47.161  1.00  0.00    -0.000 C 
BRANCH  14  15
ATOM     15  C   UNL     1      16.202  16.198  46.834  1.00  0.00    -0.000 C 
BRANCH  15  16
ATOM     16  C   UNL     1      16.366  15.115  45.753  1.00  0.00    -0.000 C 
BRANCH  16  17
ATOM     17  C   UNL     1      16.295  13.693  46.331  1.00  0.00    -0.003 C 
ATOM     18  C   UNL     1      17.623  12.945  46.225  1.00  0.00     0.004 C 
ENDBRANCH  16  17
ENDBRANCH  15  16
ENDBRANCH  14  15
ENDBRANCH  13  14
ENDBRANCH  12  13
ENDBRANCH  11  12
ENDBRANCH   1  11
TORSDOF 14
ENDMDL
MODEL 5
REMARK VINA RESULT:    -4.518      4.905      7.015
REMARK INTER + INTRA:         -10.483
REMARK INTER:                  -8.769
REMARK INTRA:                  -1.714
REMARK UNBOUND:                -2.268
REMARK SMILES CCCCCCCCCCCCCCCC(=O)[O-]
REMARK SMILES IDX 9 1 10 2 11 3 12 4 13 5 14 6 15 7 16 8 17 9 18 10 8 11 7 12
REMARK SMILES IDX 6 13 5 14 4 15 3 16 2 17 1 18
REMARK H PARENT
REMARK Flexibility Score: inf
ROOT
ATOM      1  C   UNL     1      19.717  20.056  47.981  1.00  0.00     0.000 C 
ENDROOT
BRANCH   1   2
ATOM      2  C   UNL     1      20.425  18.871  48.662  1.00  0.00     0.000 C 
BRANCH   2   3
ATOM      3  C   UNL     1      21.234  18.016  47.671  1.00  0.00     0.000 C 
BRANCH   3   4
ATOM      4  C   UNL     1      20.656  16.600  47.504  1.00  0.00     0.000 C 
BRANCH   4   5
ATOM      5  C   UNL     1      21.613  15.508  48.007  1.00  0.00     0.000 C 
BRANCH   5   6
ATOM      6  C   UNL     1      22.946  16.078  48.525  1.00  0.00     0.006 C 
BRANCH   6   7
ATOM      7  C   UNL     1      23.982  14.978  48.790  1.00  0.00     0.053 C 
BRANCH   7   8
ATOM      8  C   UNL     1      24.180  14.741  50.255  1.00  0.00     0.041 C 
ATOM      9  O   UNL     1      23.335  15.168  51.086  1.00  0.00    -0.550 OA
ATOM     10  O   UNL     1      25.282  14.023  50.701  1.00  0.00    -0.550 OA
ENDBRANCH   7   8
ENDBRANCH   6   7
ENDBRANCH   5   6
ENDBRANCH   4   5
ENDBRANCH   3   4
ENDBRANCH   2   3
ENDBRANCH   1   2
BRANCH   1  11
ATOM     11  C   UNL     1      20.291  20.360  46.588  1.00  0.00     0.000 C 
BRANCH  11  12
ATOM     12  C   UNL     1      19.213  20.819  45.589  1.00  0.00    -0.000 C 
BRANCH  12  13
ATOM     13  C   UNL     1      19.126  19.906  44.357  1.00  0.00    -0.000 C 
BRANCH  13  14
ATOM     14  C   UNL     1      17.884  18.998  44.382  1.00  0.00    -0.000 C 
BRANCH  14  15
ATOM     15  C   UNL     1      18.052  17.798  45.328  1.00  0.00    -0.000 C 
BRANCH  15  16
ATOM     16  C   UNL     1      17.131  17.885  46.559  1.00  0.00    -0.000 C 
BRANCH  16  17
ATOM     17  C   UNL     1      16.780  16.502  47.129  1.00  0.00    -0.003 C 
ATOM     18  C   UNL     1      17.332  15.357  46.281  1.00  0.00     0.004 C 
ENDBRANCH  16  17
ENDBRANCH  15  16
ENDBRANCH  14  15
ENDBRANCH  13  14
ENDBRANCH  12  13
ENDBRANCH  11  12
ENDBRANCH   1  11
TORSDOF 14
ENDMDL
MODEL 6
REMARK VINA RESULT:    -4.485      4.246      6.903
REMARK INTER + INTRA:         -10.424
REMARK INTER:                  -8.276
REMARK INTRA:                  -2.148
REMARK UNBOUND:                -2.268
REMARK SMILES CCCCCCCCCCCCCCCC(=O)[O-]
REMARK SMILES IDX 9 1 10 2 11 3 12 4 13 5 14 6 15 7 16 8 17 9 18 10 8 11 7 12
REMARK SMILES IDX 6 13 5 14 4 15 3 16 2 17 1 18
REMARK H PARENT
REMARK Flexibility Score: inf
ROOT
ATOM      1  C   UNL     1      16.677  17.860  45.739  1.00  0.00     0.000 C 
ENDROOT
BRANCH   1   2
ATOM      2  C   UNL     1      17.456  17.217  46.901  1.00  0.00     0.000 C 
BRANCH   2   3
ATOM      3  C   UNL     1      18.509  16.204  46.419  1.00  0.00     0.000 C 
BRANCH   3   4
ATOM      4  C   UNL     1      19.931  16.568  46.879  1.00  0.00     0.000 C 
BRANCH   4   5
ATOM      5  C   UNL     1      19.967  17.108  48.318  1.00  0.00     0.000 C 
BRANCH   5   6
ATOM      6  C   UNL     1      21.400  17.302  48.844  1.00  0.00     0.006 C 
BRANCH   6   7
ATOM      7  C   UNL     1      22.372  16.261  48.274  1.00  0.00     0.053 C 
BRANCH   7   8
ATOM      8  C   UNL     1      22.442  15.036  49.133  1.00  0.00     0.041 C 
ATOM      9  O   UNL     1      22.809  13.937  48.641  1.00  0.00    -0.550 OA
ATOM     10  O   UNL     1      22.130  15.116  50.484  1.00  0.00    -0.550 OA
ENDBRANCH   7   8
ENDBRANCH   6   7
ENDBRANCH   5   6
ENDBRANCH   4   5
ENDBRANCH   3   4
ENDBRANCH   2   3
ENDBRANCH   1   2
BRANCH   1  11
ATOM     11  C   UNL     1      17.418  17.737  44.398  1.00  0.00     0.000 C 
BRANCH  11  12
ATOM     12  C   UNL     1      17.858  19.101  43.836  1.00  0.00    -0.000 C 
BRANCH  12  13
ATOM     13  C   UNL     1      17.221  20.280  44.587  1.00  0.00    -0.000 C 
BRANCH  13  14
ATOM     14  C   UNL     1      18.231  21.030  45.474  1.00  0.00    -0.000 C 
BRANCH  14  15
ATOM     15  C   UNL     1      19.594  20.322  45.540  1.00  0.00    -0.000 C 
BRANCH  15  16
ATOM     16  C   UNL     1      20.202  20.348  46.954  1.00  0.00    -0.000 C 
BRANCH  16  17
ATOM     17  C   UNL     1      19.154  20.639  48.039  1.00  0.00    -0.003 C 
ATOM     18  C   UNL     1      19.758  20.700  49.442  1.00  0.00     0.004 C 
ENDBRANCH  16  17
ENDBRANCH  15  16
ENDBRANCH  14  15
ENDBRANCH  13  14
ENDBRANCH  12  13
ENDBRANCH  11  12
ENDBRANCH   1  11
TORSDOF 14
ENDMDL
MODEL 7
REMARK VINA RESULT:    -4.469      2.935      5.073
REMARK INTER + INTRA:         -10.395
REMARK INTER:                  -8.453
REMARK INTRA:                  -1.942
REMARK UNBOUND:                -2.268
REMARK SMILES CCCCCCCCCCCCCCCC(=O)[O-]
REMARK SMILES IDX 9 1 10 2 11 3 12 4 13 5 14 6 15 7 16 8 17 9 18 10 8 11 7 12
REMARK SMILES IDX 6 13 5 14 4 15 3 16 2 17 1 18
REMARK H PARENT
REMARK Flexibility Score: inf
ROOT
ATOM      1  C   UNL     1      18.141  20.894  46.544  1.00  0.00     0.000 C 
ENDROOT
BRANCH   1   2
ATOM      2  C   UNL     1      19.172  20.714  45.416  1.00  0.00     0.000 C 
BRANCH   2   3
ATOM      3  C   UNL     1      18.882  19.481  44.542  1.00  0.00     0.000 C 
BRANCH   3   4
ATOM      4  C   UNL     1      17.843  18.540  45.175  1.00  0.00     0.000 C 
BRANCH   4   5
ATOM      5  C   UNL     1      18.465  17.230  45.685  1.00  0.00     0.000 C 
BRANCH   5   6
ATOM      6  C   UNL     1      17.939  16.823  47.073  1.00  0.00     0.006 C 
BRANCH   6   7
ATOM      7  C   UNL     1      16.410  16.694  47.097  1.00  0.00     0.053 C 
BRANCH   7   8
ATOM      8  C   UNL     1      15.942  15.481  46.355  1.00  0.00     0.041 C 
ATOM      9  O   UNL     1      14.968  15.559  45.561  1.00  0.00    -0.550 OA
ATOM     10  O   UNL     1      16.602  14.269  46.517  1.00  0.00    -0.550 OA
ENDBRANCH   7   8
ENDBRANCH   6   7
ENDBRANCH   5   6
ENDBRANCH   4   5
ENDBRANCH   3   4
ENDBRANCH   2   3
ENDBRANCH   1   2
BRANCH   1  11
ATOM     11  C   UNL     1      18.749  20.666  47.938  1.00  0.00     0.000 C 
BRANCH  11  12
ATOM     12  C   UNL     1      20.251  20.337  47.884  1.00  0.00    -0.000 C 
BRANCH  12  13
ATOM     13  C   UNL     1      20.577  18.973  48.513  1.00  0.00    -0.000 C 
BRANCH  13  14
ATOM     14  C   UNL     1      21.478  18.109  47.614  1.00  0.00    -0.000 C 
BRANCH  14  15
ATOM     15  C   UNL     1      21.521  16.639  48.062  1.00  0.00    -0.000 C 
BRANCH  15  16
ATOM     16  C   UNL     1      22.948  16.167  48.396  1.00  0.00    -0.000 C 
BRANCH  16  17
ATOM     17  C   UNL     1      23.157  14.674  48.100  1.00  0.00    -0.003 C 
ATOM     18  C   UNL     1      21.845  13.934  47.841  1.00  0.00     0.004 C 
ENDBRANCH  16  17
ENDBRANCH  15  16
ENDBRANCH  14  15
ENDBRANCH  13  14
ENDBRANCH  12  13
ENDBRANCH  11  12
ENDBRANCH   1  11
TORSDOF 14
ENDMDL
MODEL 8
REMARK VINA RESULT:    -4.462      1.239      3.490
REMARK INTER + INTRA:         -10.382
REMARK INTER:                  -7.896
REMARK INTRA:                  -2.486
REMARK UNBOUND:                -2.268
REMARK SMILES CCCCCCCCCCCCCCCC(=O)[O-]
REMARK SMILES IDX 9 1 10 2 11 3 12 4 13 5 14 6 15 7 16 8 17 9 18 10 8 11 7 12
REMARK SMILES IDX 6 13 5 14 4 15 3 16 2 17 1 18
REMARK H PARENT
REMARK Flexibility Score: inf
ROOT
ATOM      1  C   UNL     1      19.240  16.787  46.524  1.00  0.00     0.000 C 
ENDROOT
BRANCH   1   2
ATOM      2  C   UNL     1      17.907  17.163  47.196  1.00  0.00     0.000 C 
BRANCH   2   3
ATOM      3  C   UNL     1      16.800  17.483  46.176  1.00  0.00     0.000 C 
BRANCH   3   4
ATOM      4  C   UNL     1      17.136  16.977  44.763  1.00  0.00     0.000 C 
BRANCH   4   5
ATOM      5  C   UNL     1      16.528  17.858  43.659  1.00  0.00     0.000 C 
BRANCH   5   6
ATOM      6  C   UNL     1      15.364  18.728  44.167  1.00  0.00     0.006 C 
BRANCH   6   7
ATOM      7  C   UNL     1      15.609  20.223  43.924  1.00  0.00     0.053 C 
BRANCH   7   8
ATOM      8  C   UNL     1      15.927  20.507  42.488  1.00  0.00     0.041 C 
ATOM      9  O   UNL     1      17.015  21.060  42.177  1.00  0.00    -0.550 OA
ATOM     10  O   UNL     1      15.034  20.135  41.491  1.00  0.00    -0.550 OA
ENDBRANCH   7   8
ENDBRANCH   6   7
ENDBRANCH   5   6
ENDBRANCH   4   5
ENDBRANCH   3   4
ENDBRANCH   2   3
ENDBRANCH   1   2
BRANCH   1  11
ATOM     11  C   UNL     1      20.392  16.662  47.534  1.00  0.00     0.000 C 
BRANCH  11  12
ATOM     12  C   UNL     1      21.111  18.000  47.784  1.00  0.00    -0.000 C 
BRANCH  12  13
ATOM     13  C   UNL     1      20.762  18.608  49.151  1.00  0.00    -0.000 C 
BRANCH  13  14
ATOM     14  C   UNL     1      20.024  19.953  49.027  1.00  0.00    -0.000 C 
BRANCH  14  15
ATOM     15  C   UNL     1      20.062  20.516  47.597  1.00  0.00    -0.000 C 
BRANCH  15  16
ATOM     16  C   UNL     1      18.655  20.780  47.031  1.00  0.00    -0.000 C 
BRANCH  16  17
ATOM     17  C   UNL     1      18.671  21.040  45.516  1.00  0.00    -0.003 C 
ATOM     18  C   UNL     1      19.399  19.945  44.737  1.00  0.00     0.004 C 
ENDBRANCH  16  17
ENDBRANCH  15  16
ENDBRANCH  14  15
ENDBRANCH  13  14
ENDBRANCH  12  13
ENDBRANCH  11  12
ENDBRANCH   1  11
TORSDOF 14
ENDMDL
MODEL 9
REMARK VINA RESULT:    -4.427      2.079      4.092
REMARK INTER + INTRA:         -10.318
REMARK INTER:                  -8.053
REMARK INTRA:                  -2.265
REMARK UNBOUND:                -2.268
REMARK SMILES CCCCCCCCCCCCCCCC(=O)[O-]
REMARK SMILES IDX 9 1 10 2 11 3 12 4 13 5 14 6 15 7 16 8 17 9 18 10 8 11 7 12
REMARK SMILES IDX 6 13 5 14 4 15 3 16 2 17 1 18
REMARK H PARENT
REMARK Flexibility Score: inf
ROOT
ATOM      1  C   UNL     1      19.913  16.137  46.900  1.00  0.00     0.000 C 
ENDROOT
BRANCH   1   2
ATOM      2  C   UNL     1      20.324  17.090  48.037  1.00  0.00     0.000 C 
BRANCH   2   3
ATOM      3  C   UNL     1      21.572  17.921  47.689  1.00  0.00     0.000 C 
BRANCH   3   4
ATOM      4  C   UNL     1      21.225  19.222  46.944  1.00  0.00     0.000 C 
BRANCH   4   5
ATOM      5  C   UNL     1      20.114  20.024  47.641  1.00  0.00     0.000 C 
BRANCH   5   6
ATOM      6  C   UNL     1      19.098  20.617  46.649  1.00  0.00     0.006 C 
BRANCH   6   7
ATOM      7  C   UNL     1      19.431  20.259  45.195  1.00  0.00     0.053 C 
BRANCH   7   8
ATOM      8  C   UNL     1      18.205  19.894  44.417  1.00  0.00     0.041 C 
ATOM      9  O   UNL     1      17.067  20.239  44.829  1.00  0.00    -0.550 OA
ATOM     10  O   UNL     1      18.322  19.198  43.220  1.00  0.00    -0.550 OA
ENDBRANCH   7   8
ENDBRANCH   6   7
ENDBRANCH   5   6
ENDBRANCH   4   5
ENDBRANCH   3   4
ENDBRANCH   2   3
ENDBRANCH   1   2
BRANCH   1  11
ATOM     11  C   UNL     1      18.697  16.652  46.113  1.00  0.00     0.000 C 
BRANCH  11  12
ATOM     12  C   UNL     1      17.605  17.240  47.023  1.00  0.00    -0.000 C 
BRANCH  12  13
ATOM     13  C   UNL     1      16.189  17.000  46.475  1.00  0.00    -0.000 C 
BRANCH  13  14
ATOM     14  C   UNL     1      15.766  15.522  46.562  1.00  0.00    -0.000 C 
BRANCH  14  15
ATOM     15  C   UNL     1      15.536  14.893  45.179  1.00  0.00    -0.000 C 
BRANCH  15  16
ATOM     16  C   UNL     1      16.400  13.640  44.950  1.00  0.00    -0.000 C 
BRANCH  16  17
ATOM     17  C   UNL     1      17.180  13.227  46.208  1.00  0.00    -0.003 C 
ATOM     18  C   UNL     1      18.645  12.906  45.915  1.00  0.00     0.004 C 
ENDBRANCH  16  17
ENDBRANCH  15  16
ENDBRANCH  14  15
ENDBRANCH  13  14
ENDBRANCH  12  13
ENDBRANCH  11  12
ENDBRANCH   1  11
TORSDOF 14
ENDMDL
