MODEL 1
REMARK VINA RESULT:    -4.624      0.000      0.000
REMARK INTER + INTRA:         -14.557
REMARK INTER:                 -10.572
REMARK INTRA:                  -3.985
REMARK UNBOUND:                -3.985
REMARK SMILES CCCCCCCCCCCCCCCCCCCCCCCC(=O)[O-]
REMARK SMILES IDX 13 1 14 2 15 3 16 4 17 5 18 6 19 7 20 8 21 9 22 10 23 11
REMARK SMILES IDX 24 12 25 13 26 14 12 15 11 16 10 17 9 18 8 19 7 20 6 21 5 22
REMARK SMILES IDX 4 23 3 24 2 25 1 26
REMARK H PARENT
REMARK Flexibility Score: inf
ROOT
ATOM      1  C   UNL     1      -3.702 -49.270  17.168  1.00  0.00     0.000 C 
ENDROOT
BRANCH   1   2
ATOM      2  C   UNL     1      -2.394 -48.979  17.923  1.00  0.00     0.000 C 
BRANCH   2   3
ATOM      3  C   UNL     1      -1.607 -47.804  17.323  1.00  0.00     0.000 C 
BRANCH   3   4
ATOM      4  C   UNL     1      -1.570 -46.617  18.298  1.00  0.00     0.000 C 
BRANCH   4   5
ATOM      5  C   UNL     1      -2.017 -45.300  17.645  1.00  0.00     0.000 C 
BRANCH   5   6
ATOM      6  C   UNL     1      -1.797 -45.288  16.123  1.00  0.00     0.000 C 
BRANCH   6   7
ATOM      7  C   UNL     1      -2.710 -44.283  15.397  1.00  0.00     0.000 C 
BRANCH   7   8
ATOM      8  C   UNL     1      -3.869 -44.915  14.599  1.00  0.00     0.000 C 
BRANCH   8   9
ATOM      9  C   UNL     1      -4.082 -46.420  14.837  1.00  0.00     0.000 C 
BRANCH   9  10
ATOM     10  C   UNL     1      -3.829 -47.262  13.573  1.00  0.00     0.006 C 
BRANCH  10  11
ATOM     11  C   UNL     1      -2.927 -48.472  13.855  1.00  0.00     0.053 C 
BRANCH  11  12
ATOM     12  C   UNL     1      -2.709 -49.306  12.629  1.00  0.00     0.041 C 
ATOM     13  O   UNL     1      -1.540 -49.568  12.239  1.00  0.00    -0.550 OA
ATOM     14  O   UNL     1      -3.798 -49.784  11.910  1.00  0.00    -0.550 OA
ENDBRANCH  11  12
ENDBRANCH  10  11
ENDBRANCH   9  10
ENDBRANCH   8   9
ENDBRANCH   7   8
ENDBRANCH   6   7
ENDBRANCH   5   6
ENDBRANCH   4   5
ENDBRANCH   3   4
ENDBRANCH   2   3
ENDBRANCH   1   2
BRANCH   1  15
ATOM     15  C   UNL     1      -4.954 -48.898  17.981  1.00  0.00     0.000 C 
BRANCH  15  16
ATOM     16  C   UNL     1      -4.619 -48.337  19.375  1.00  0.00     0.000 C 
BRANCH  16  17
ATOM     17  C   UNL     1      -4.997 -46.860  19.592  1.00  0.00     0.000 C 
BRANCH  17  18
ATOM     18  C   UNL     1      -5.322 -46.125  18.279  1.00  0.00    -0.000 C 
BRANCH  18  19
ATOM     19  C   UNL     1      -6.032 -44.785  18.515  1.00  0.00    -0.000 C 
BRANCH  19  20
ATOM     20  C   UNL     1      -7.010 -44.429  17.383  1.00  0.00    -0.000 C 
BRANCH  20  21
ATOM     21  C   UNL     1      -7.357 -45.634  16.492  1.00  0.00    -0.000 C 
BRANCH  21  22
ATOM     22  C   UNL     1      -8.298 -45.286  15.319  1.00  0.00    -0.000 C 
BRANCH  22  23
ATOM     23  C   UNL     1      -7.528 -44.999  14.017  1.00  0.00    -0.000 C 
BRANCH  23  24
ATOM     24  C   UNL     1      -8.228 -45.566  12.769  1.00  0.00    -0.000 C 
BRANCH  24  25
ATOM     25  C   UNL     1      -7.296 -46.281  11.773  1.00  0.00    -0.003 C 
ATOM     26  C   UNL     1      -7.962 -47.467  11.075  1.00  0.00     0.004 C 
ENDBRANCH  24  25
ENDBRANCH  23  24
ENDBRANCH  22  23
ENDBRANCH  21  22
ENDBRANCH  20  21
ENDBRANCH  19  20
ENDBRANCH  18  19
ENDBRANCH  17  18
ENDBRANCH  16  17
ENDBRANCH  15  16
ENDBRANCH   1  15
TORSDOF 22
ENDMDL
MODEL 2
REMARK VINA RESULT:    -4.520      2.806      5.095
REMARK INTER + INTRA:         -14.319
REMARK INTER:                  -9.825
REMARK INTRA:                  -4.494
REMARK UNBOUND:                -3.985
REMARK SMILES CCCCCCCCCCCCCCCCCCCCCCCC(=O)[O-]
REMARK SMILES IDX 13 1 14 2 15 3 16 4 17 5 18 6 19 7 20 8 21 9 22 10 23 11
REMARK SMILES IDX 24 12 25 13 26 14 12 15 11 16 10 17 9 18 8 19 7 20 6 21 5 22
REMARK SMILES IDX 4 23 3 24 2 25 1 26
REMARK H PARENT
REMARK Flexibility Score: inf
ROOT
ATOM      1  C   UNL     1      -1.559 -47.772  17.102  1.00  0.00     0.000 C 
ENDROOT
BRANCH   1   2
ATOM      2  C   UNL     1      -1.654 -46.759  18.255  1.00  0.00     0.000 C 
BRANCH   2   3
ATOM      3  C   UNL     1      -2.164 -45.382  17.801  1.00  0.00     0.000 C 
BRANCH   3   4
ATOM      4  C   UNL     1      -1.898 -45.169  16.303  1.00  0.00     0.000 C 
BRANCH   4   5
ATOM      5  C   UNL     1      -3.166 -44.779  15.527  1.00  0.00     0.000 C 
BRANCH   5   6
ATOM      6  C   UNL     1      -4.436 -44.855  16.390  1.00  0.00     0.000 C 
BRANCH   6   7
ATOM      7  C   UNL     1      -5.616 -45.518  15.656  1.00  0.00     0.000 C 
BRANCH   7   8
ATOM      8  C   UNL     1      -6.889 -45.707  16.506  1.00  0.00     0.000 C 
BRANCH   8   9
ATOM      9  C   UNL     1      -8.147 -45.009  15.961  1.00  0.00     0.000 C 
BRANCH   9  10
ATOM     10  C   UNL     1      -8.310 -45.180  14.440  1.00  0.00     0.006 C 
BRANCH  10  11
ATOM     11  C   UNL     1      -8.622 -43.850  13.738  1.00  0.00     0.053 C 
BRANCH  11  12
ATOM     12  C   UNL     1      -7.376 -43.147  13.292  1.00  0.00     0.041 C 
ATOM     13  O   UNL     1      -6.964 -43.274  12.108  1.00  0.00    -0.550 OA
ATOM     14  O   UNL     1      -6.663 -42.359  14.189  1.00  0.00    -0.550 OA
ENDBRANCH  11  12
ENDBRANCH  10  11
ENDBRANCH   9  10
ENDBRANCH   8   9
ENDBRANCH   7   8
ENDBRANCH   6   7
ENDBRANCH   5   6
ENDBRANCH   4   5
ENDBRANCH   3   4
ENDBRANCH   2   3
ENDBRANCH   1   2
BRANCH   1  15
ATOM     15  C   UNL     1      -2.452 -49.006  17.318  1.00  0.00     0.000 C 
BRANCH  15  16
ATOM     16  C   UNL     1      -3.856 -48.844  16.706  1.00  0.00     0.000 C 
BRANCH  16  17
ATOM     17  C   UNL     1      -4.988 -48.609  17.723  1.00  0.00     0.000 C 
BRANCH  17  18
ATOM     18  C   UNL     1      -4.573 -48.938  19.168  1.00  0.00    -0.000 C 
BRANCH  18  19
ATOM     19  C   UNL     1      -4.615 -47.709  20.087  1.00  0.00    -0.000 C 
BRANCH  19  20
ATOM     20  C   UNL     1      -5.353 -46.521  19.448  1.00  0.00    -0.000 C 
BRANCH  20  21
ATOM     21  C   UNL     1      -5.392 -45.282  20.359  1.00  0.00    -0.000 C 
BRANCH  21  22
ATOM     22  C   UNL     1      -6.816 -44.740  20.606  1.00  0.00    -0.000 C 
BRANCH  22  23
ATOM     23  C   UNL     1      -7.269 -43.763  19.506  1.00  0.00    -0.000 C 
BRANCH  23  24
ATOM     24  C   UNL     1      -6.149 -42.810  19.053  1.00  0.00    -0.000 C 
BRANCH  24  25
ATOM     25  C   UNL     1      -6.401 -42.108  17.706  1.00  0.00    -0.003 C 
ATOM     26  C   UNL     1      -7.842 -41.625  17.544  1.00  0.00     0.004 C 
ENDBRANCH  24  25
ENDBRANCH  23  24
ENDBRANCH  22  23
ENDBRANCH  21  22
ENDBRANCH  20  21
ENDBRANCH  19  20
ENDBRANCH  18  19
ENDBRANCH  17  18
ENDBRANCH  16  17
ENDBRANCH  15  16
ENDBRANCH   1  15
TORSDOF 22
ENDMDL
MODEL 3
REMARK VINA RESULT:    -4.498      3.317      6.020
REMARK INTER + INTRA:         -14.268
REMARK INTER:                 -10.209
REMARK INTRA:                  -4.059
REMARK UNBOUND:                -3.985
REMARK SMILES CCCCCCCCCCCCCCCCCCCCCCCC(=O)[O-]
REMARK SMILES IDX 13 1 14 2 15 3 16 4 17 5 18 6 19 7 20 8 21 9 22 10 23 11
REMARK SMILES IDX 24 12 25 13 26 14 12 15 11 16 10 17 9 18 8 19 7 20 6 21 5 22
REMARK SMILES IDX 4 23 3 24 2 25 1 26
REMARK H PARENT
REMARK Flexibility Score: inf
ROOT
ATOM      1  C   UNL     1      -1.562 -46.742  17.889  1.00  0.00     0.000 C 
ENDROOT
BRANCH   1   2
ATOM      2  C   UNL     1      -1.142 -47.491  16.613  1.00  0.00     0.000 C 
BRANCH   2   3
ATOM      3  C   UNL     1      -1.384 -49.006  16.703  1.00  0.00     0.000 C 
BRANCH   3   4
ATOM      4  C   UNL     1      -2.603 -49.313  17.586  1.00  0.00     0.000 C 
BRANCH   4   5
ATOM      5  C   UNL     1      -3.936 -49.077  16.859  1.00  0.00     0.000 C 
BRANCH   5   6
ATOM      6  C   UNL     1      -5.045 -48.580  17.801  1.00  0.00     0.000 C 
BRANCH   6   7
ATOM      7  C   UNL     1      -4.597 -48.530  19.273  1.00  0.00     0.000 C 
BRANCH   7   8
ATOM      8  C   UNL     1      -4.590 -47.122  19.905  1.00  0.00     0.000 C 
BRANCH   8   9
ATOM      9  C   UNL     1      -5.664 -46.160  19.367  1.00  0.00     0.000 C 
BRANCH   9  10
ATOM     10  C   UNL     1      -5.312 -44.682  19.611  1.00  0.00     0.006 C 
BRANCH  10  11
ATOM     11  C   UNL     1      -6.255 -44.023  20.629  1.00  0.00     0.053 C 
BRANCH  11  12
ATOM     12  C   UNL     1      -7.538 -43.576  19.995  1.00  0.00     0.041 C 
ATOM     13  O   UNL     1      -7.566 -43.254  18.778  1.00  0.00    -0.550 OA
ATOM     14  O   UNL     1      -8.701 -43.505  20.753  1.00  0.00    -0.550 OA
ENDBRANCH  11  12
ENDBRANCH  10  11
ENDBRANCH   9  10
ENDBRANCH   8   9
ENDBRANCH   7   8
ENDBRANCH   6   7
ENDBRANCH   5   6
ENDBRANCH   4   5
ENDBRANCH   3   4
ENDBRANCH   2   3
ENDBRANCH   1   2
BRANCH   1  15
ATOM     15  C   UNL     1      -2.229 -45.388  17.593  1.00  0.00     0.000 C 
BRANCH  15  16
ATOM     16  C   UNL     1      -1.976 -44.896  16.155  1.00  0.00     0.000 C 
BRANCH  16  17
ATOM     17  C   UNL     1      -3.231 -44.796  15.270  1.00  0.00     0.000 C 
BRANCH  17  18
ATOM     18  C   UNL     1      -4.439 -45.550  15.855  1.00  0.00    -0.000 C 
BRANCH  18  19
ATOM     19  C   UNL     1      -5.756 -45.186  15.153  1.00  0.00    -0.000 C 
BRANCH  19  20
ATOM     20  C   UNL     1      -5.535 -44.639  13.733  1.00  0.00    -0.000 C 
BRANCH  20  21
ATOM     21  C   UNL     1      -5.717 -45.712  12.645  1.00  0.00    -0.000 C 
BRANCH  21  22
ATOM     22  C   UNL     1      -4.391 -46.173  12.003  1.00  0.00    -0.000 C 
BRANCH  22  23
ATOM     23  C   UNL     1      -4.188 -47.695  12.114  1.00  0.00    -0.000 C 
BRANCH  23  24
ATOM     24  C   UNL     1      -3.430 -48.107  13.390  1.00  0.00    -0.000 C 
BRANCH  24  25
ATOM     25  C   UNL     1      -2.692 -49.455  13.297  1.00  0.00    -0.003 C 
ATOM     26  C   UNL     1      -1.570 -49.453  12.260  1.00  0.00     0.004 C 
ENDBRANCH  24  25
ENDBRANCH  23  24
ENDBRANCH  22  23
ENDBRANCH  21  22
ENDBRANCH  20  21
ENDBRANCH  19  20
ENDBRANCH  18  19
ENDBRANCH  17  18
ENDBRANCH  16  17
ENDBRANCH  15  16
ENDBRANCH   1  15
TORSDOF 22
ENDMDL
MODEL 4
REMARK VINA RESULT:    -4.488      1.571      5.582
REMARK INTER + INTRA:         -14.244
REMARK INTER:                 -10.191
REMARK INTRA:                  -4.053
REMARK UNBOUND:                -3.985
REMARK SMILES CCCCCCCCCCCCCCCCCCCCCCCC(=O)[O-]
REMARK SMILES IDX 13 1 14 2 15 3 16 4 17 5 18 6 19 7 20 8 21 9 22 10 23 11
REMARK SMILES IDX 24 12 25 13 26 14 12 15 11 16 10 17 9 18 8 19 7 20 6 21 5 22
REMARK SMILES IDX 4 23 3 24 2 25 1 26
REMARK H PARENT
REMARK Flexibility Score: inf
ROOT
ATOM      1  C   UNL     1      -2.901 -44.549  15.276  1.00  0.00     0.000 C 
ENDROOT
BRANCH   1   2
ATOM      2  C   UNL     1      -3.706 -45.710  14.669  1.00  0.00     0.000 C 
BRANCH   2   3
ATOM      3  C   UNL     1      -5.175 -45.720  15.121  1.00  0.00     0.000 C 
BRANCH   3   4
ATOM      4  C   UNL     1      -5.444 -44.587  16.124  1.00  0.00     0.000 C 
BRANCH   4   5
ATOM      5  C   UNL     1      -6.926 -44.487  16.519  1.00  0.00     0.000 C 
BRANCH   5   6
ATOM      6  C   UNL     1      -7.843 -45.300  15.590  1.00  0.00     0.000 C 
BRANCH   6   7
ATOM      7  C   UNL     1      -8.720 -44.410  14.691  1.00  0.00     0.000 C 
BRANCH   7   8
ATOM      8  C   UNL     1      -8.544 -44.640  13.176  1.00  0.00     0.000 C 
BRANCH   8   9
ATOM      9  C   UNL     1      -8.869 -46.064  12.690  1.00  0.00     0.000 C 
BRANCH   9  10
ATOM     10  C   UNL     1      -7.762 -46.653  11.798  1.00  0.00     0.006 C 
BRANCH  10  11
ATOM     11  C   UNL     1      -6.567 -45.701  11.653  1.00  0.00     0.053 C 
BRANCH  11  12
ATOM     12  C   UNL     1      -5.313 -46.430  11.276  1.00  0.00     0.041 C 
ATOM     13  O   UNL     1      -4.505 -45.921  10.454  1.00  0.00    -0.550 OA
ATOM     14  O   UNL     1      -5.041 -47.676  11.827  1.00  0.00    -0.550 OA
ENDBRANCH  11  12
ENDBRANCH  10  11
ENDBRANCH   9  10
ENDBRANCH   8   9
ENDBRANCH   7   8
ENDBRANCH   6   7
ENDBRANCH   5   6
ENDBRANCH   4   5
ENDBRANCH   3   4
ENDBRANCH   2   3
ENDBRANCH   1   2
BRANCH   1  15
ATOM     15  C   UNL     1      -1.715 -45.030  16.130  1.00  0.00     0.000 C 
BRANCH  15  16
ATOM     16  C   UNL     1      -2.117 -45.372  17.576  1.00  0.00     0.000 C 
BRANCH  16  17
ATOM     17  C   UNL     1      -1.595 -46.724  18.095  1.00  0.00     0.000 C 
BRANCH  17  18
ATOM     18  C   UNL     1      -1.522 -47.800  16.997  1.00  0.00    -0.000 C 
BRANCH  18  19
ATOM     19  C   UNL     1      -2.398 -49.022  17.311  1.00  0.00    -0.000 C 
BRANCH  19  20
ATOM     20  C   UNL     1      -3.772 -48.953  16.625  1.00  0.00    -0.000 C 
BRANCH  20  21
ATOM     21  C   UNL     1      -4.926 -48.735  17.618  1.00  0.00    -0.000 C 
BRANCH  21  22
ATOM     22  C   UNL     1      -4.518 -48.926  19.095  1.00  0.00    -0.000 C 
BRANCH  22  23
ATOM     23  C   UNL     1      -4.572 -47.610  19.891  1.00  0.00    -0.000 C 
BRANCH  23  24
ATOM     24  C   UNL     1      -5.209 -46.455  19.096  1.00  0.00    -0.000 C 
BRANCH  24  25
ATOM     25  C   UNL     1      -5.317 -45.124  19.863  1.00  0.00    -0.003 C 
ATOM     26  C   UNL     1      -6.678 -44.927  20.530  1.00  0.00     0.004 C 
ENDBRANCH  24  25
ENDBRANCH  23  24
ENDBRANCH  22  23
ENDBRANCH  21  22
ENDBRANCH  20  21
ENDBRANCH  19  20
ENDBRANCH  18  19
ENDBRANCH  17  18
ENDBRANCH  16  17
ENDBRANCH  15  16
ENDBRANCH   1  15
TORSDOF 22
ENDMDL
MODEL 5
REMARK VINA RESULT:    -4.451      3.585      6.531
REMARK INTER + INTRA:         -14.161
REMARK INTER:                 -11.246
REMARK INTRA:                  -2.915
REMARK UNBOUND:                -3.985
REMARK SMILES CCCCCCCCCCCCCCCCCCCCCCCC(=O)[O-]
REMARK SMILES IDX 13 1 14 2 15 3 16 4 17 5 18 6 19 7 20 8 21 9 22 10 23 11
REMARK SMILES IDX 24 12 25 13 26 14 12 15 11 16 10 17 9 18 8 19 7 20 6 21 5 22
REMARK SMILES IDX 4 23 3 24 2 25 1 26
REMARK H PARENT
REMARK Flexibility Score: inf
ROOT
ATOM      1  C   UNL     1      -4.072 -45.943  15.209  1.00  0.00     0.000 C 
ENDROOT
BRANCH   1   2
ATOM      2  C   UNL     1      -3.812 -46.819  13.973  1.00  0.00     0.000 C 
BRANCH   2   3
ATOM      3  C   UNL     1      -3.113 -48.144  14.315  1.00  0.00     0.000 C 
BRANCH   3   4
ATOM      4  C   UNL     1      -2.787 -48.934  13.039  1.00  0.00     0.000 C 
BRANCH   4   5
ATOM      5  C   UNL     1      -1.661 -49.959  13.248  1.00  0.00     0.000 C 
BRANCH   5   6
ATOM      6  C   UNL     1      -0.440 -49.690  12.351  1.00  0.00     0.000 C 
BRANCH   6   7
ATOM      7  C   UNL     1      -0.786 -49.717  10.852  1.00  0.00     0.000 C 
BRANCH   7   8
ATOM      8  C   UNL     1       0.322 -49.190   9.917  1.00  0.00     0.000 C 
BRANCH   8   9
ATOM      9  C   UNL     1       1.273 -48.159  10.550  1.00  0.00     0.000 C 
BRANCH   9  10
ATOM     10  C   UNL     1       2.493 -47.854   9.662  1.00  0.00     0.006 C 
BRANCH  10  11
ATOM     11  C   UNL     1       3.051 -49.117   8.991  1.00  0.00     0.053 C 
BRANCH  11  12
ATOM     12  C   UNL     1       4.419 -48.891   8.422  1.00  0.00     0.041 C 
ATOM     13  O   UNL     1       4.555 -48.511   7.229  1.00  0.00    -0.550 OA
ATOM     14  O   UNL     1       5.545 -49.110   9.208  1.00  0.00    -0.550 OA
ENDBRANCH  11  12
ENDBRANCH  10  11
ENDBRANCH   9  10
ENDBRANCH   8   9
ENDBRANCH   7   8
ENDBRANCH   6   7
ENDBRANCH   5   6
ENDBRANCH   4   5
ENDBRANCH   3   4
ENDBRANCH   2   3
ENDBRANCH   1   2
BRANCH   1  15
ATOM     15  C   UNL     1      -3.032 -44.821  15.374  1.00  0.00     0.000 C 
BRANCH  15  16
ATOM     16  C   UNL     1      -1.824 -45.244  16.229  1.00  0.00     0.000 C 
BRANCH  16  17
ATOM     17  C   UNL     1      -2.071 -45.254  17.749  1.00  0.00     0.000 C 
BRANCH  17  18
ATOM     18  C   UNL     1      -1.597 -46.552  18.425  1.00  0.00    -0.000 C 
BRANCH  18  19
ATOM     19  C   UNL     1      -1.525 -47.733  17.446  1.00  0.00    -0.000 C 
BRANCH  19  20
ATOM     20  C   UNL     1      -2.284 -48.969  17.957  1.00  0.00    -0.000 C 
BRANCH  20  21
ATOM     21  C   UNL     1      -3.811 -48.818  17.854  1.00  0.00    -0.000 C 
BRANCH  21  22
ATOM     22  C   UNL     1      -4.515 -48.692  19.222  1.00  0.00    -0.000 C 
BRANCH  22  23
ATOM     23  C   UNL     1      -4.928 -47.242  19.535  1.00  0.00    -0.000 C 
BRANCH  23  24
ATOM     24  C   UNL     1      -5.598 -46.539  18.341  1.00  0.00    -0.000 C 
BRANCH  24  25
ATOM     25  C   UNL     1      -5.724 -45.011  18.478  1.00  0.00    -0.003 C 
ATOM     26  C   UNL     1      -5.073 -44.468  19.749  1.00  0.00     0.004 C 
ENDBRANCH  24  25
ENDBRANCH  23  24
ENDBRANCH  22  23
ENDBRANCH  21  22
ENDBRANCH  20  21
ENDBRANCH  19  20
ENDBRANCH  18  19
ENDBRANCH  17  18
ENDBRANCH  16  17
ENDBRANCH  15  16
ENDBRANCH   1  15
TORSDOF 22
ENDMDL
MODEL 6
REMARK VINA RESULT:    -4.441      1.737      3.263
REMARK INTER + INTRA:         -14.138
REMARK INTER:                 -10.202
REMARK INTRA:                  -3.935
REMARK UNBOUND:                -3.985
REMARK SMILES CCCCCCCCCCCCCCCCCCCCCCCC(=O)[O-]
REMARK SMILES IDX 13 1 14 2 15 3 16 4 17 5 18 6 19 7 20 8 21 9 22 10 23 11
REMARK SMILES IDX 24 12 25 13 26 14 12 15 11 16 10 17 9 18 8 19 7 20 6 21 5 22
REMARK SMILES IDX 4 23 3 24 2 25 1 26
REMARK H PARENT
REMARK Flexibility Score: inf
ROOT
ATOM      1  C   UNL     1      -1.451 -47.699  17.149  1.00  0.00     0.000 C 
ENDROOT
BRANCH   1   2
ATOM      2  C   UNL     1      -1.661 -46.605  18.208  1.00  0.00     0.000 C 
BRANCH   2   3
ATOM      3  C   UNL     1      -2.061 -45.252  17.599  1.00  0.00     0.000 C 
BRANCH   3   4
ATOM      4  C   UNL     1      -1.787 -45.232  16.087  1.00  0.00     0.000 C 
BRANCH   4   5
ATOM      5  C   UNL     1      -2.643 -44.195  15.344  1.00  0.00     0.000 C 
BRANCH   5   6
ATOM      6  C   UNL     1      -3.657 -44.842  14.385  1.00  0.00     0.000 C 
BRANCH   6   7
ATOM      7  C   UNL     1      -3.995 -46.294  14.767  1.00  0.00     0.000 C 
BRANCH   7   8
ATOM      8  C   UNL     1      -3.813 -47.325  13.634  1.00  0.00     0.000 C 
BRANCH   8   9
ATOM      9  C   UNL     1      -4.219 -46.834  12.233  1.00  0.00     0.000 C 
BRANCH   9  10
ATOM     10  C   UNL     1      -4.083 -47.928  11.159  1.00  0.00     0.006 C 
BRANCH  10  11
ATOM     11  C   UNL     1      -5.403 -48.678  10.926  1.00  0.00     0.053 C 
BRANCH  11  12
ATOM     12  C   UNL     1      -6.502 -47.757  10.494  1.00  0.00     0.041 C 
ATOM     13  O   UNL     1      -7.595 -47.733  11.123  1.00  0.00    -0.550 OA
ATOM     14  O   UNL     1      -6.325 -46.930   9.391  1.00  0.00    -0.550 OA
ENDBRANCH  11  12
ENDBRANCH  10  11
ENDBRANCH   9  10
ENDBRANCH   8   9
ENDBRANCH   7   8
ENDBRANCH   6   7
ENDBRANCH   5   6
ENDBRANCH   4   5
ENDBRANCH   3   4
ENDBRANCH   2   3
ENDBRANCH   1   2
BRANCH   1  15
ATOM     15  C   UNL     1      -2.103 -49.037  17.537  1.00  0.00     0.000 C 
BRANCH  15  16
ATOM     16  C   UNL     1      -3.392 -49.328  16.745  1.00  0.00     0.000 C 
BRANCH  16  17
ATOM     17  C   UNL     1      -4.699 -48.950  17.466  1.00  0.00     0.000 C 
BRANCH  17  18
ATOM     18  C   UNL     1      -4.499 -48.685  18.969  1.00  0.00    -0.000 C 
BRANCH  18  19
ATOM     19  C   UNL     1      -4.903 -47.260  19.374  1.00  0.00    -0.000 C 
BRANCH  19  20
ATOM     20  C   UNL     1      -5.643 -46.515  18.250  1.00  0.00    -0.000 C 
BRANCH  20  21
ATOM     21  C   UNL     1      -5.744 -45.001  18.502  1.00  0.00    -0.000 C 
BRANCH  21  22
ATOM     22  C   UNL     1      -5.905 -44.168  17.213  1.00  0.00    -0.000 C 
BRANCH  22  23
ATOM     23  C   UNL     1      -7.383 -43.923  16.857  1.00  0.00    -0.000 C 
BRANCH  23  24
ATOM     24  C   UNL     1      -8.009 -45.086  16.066  1.00  0.00    -0.000 C 
BRANCH  24  25
ATOM     25  C   UNL     1      -8.401 -44.746  14.616  1.00  0.00    -0.003 C 
ATOM     26  C   UNL     1      -7.325 -45.127  13.600  1.00  0.00     0.004 C 
ENDBRANCH  24  25
ENDBRANCH  23  24
ENDBRANCH  22  23
ENDBRANCH  21  22
ENDBRANCH  20  21
ENDBRANCH  19  20
ENDBRANCH  18  19
ENDBRANCH  17  18
ENDBRANCH  16  17
ENDBRANCH  15  16
ENDBRANCH   1  15
TORSDOF 22
ENDMDL
MODEL 7
REMARK VINA RESULT:    -4.429      1.319      2.190
REMARK INTER + INTRA:         -14.109
REMARK INTER:                 -10.010
REMARK INTRA:                  -4.099
REMARK UNBOUND:                -3.985
REMARK SMILES CCCCCCCCCCCCCCCCCCCCCCCC(=O)[O-]
REMARK SMILES IDX 13 1 14 2 15 3 16 4 17 5 18 6 19 7 20 8 21 9 22 10 23 11
REMARK SMILES IDX 24 12 25 13 26 14 12 15 11 16 10 17 9 18 8 19 7 20 6 21 5 22
REMARK SMILES IDX 4 23 3 24 2 25 1 26
REMARK H PARENT
REMARK Flexibility Score: inf
ROOT
ATOM      1  C   UNL     1      -3.778 -48.975  16.728  1.00  0.00     0.000 C 
ENDROOT
BRANCH   1   2
ATOM      2  C   UNL     1      -2.418 -49.004  17.445  1.00  0.00     0.000 C 
BRANCH   2   3
ATOM      3  C   UNL     1      -1.542 -47.786  17.114  1.00  0.00     0.000 C 
BRANCH   3   4
ATOM      4  C   UNL     1      -1.614 -46.740  18.237  1.00  0.00     0.000 C 
BRANCH   4   5
ATOM      5  C   UNL     1      -2.014 -45.348  17.725  1.00  0.00     0.000 C 
BRANCH   5   6
ATOM      6  C   UNL     1      -1.604 -45.115  16.261  1.00  0.00     0.000 C 
BRANCH   6   7
ATOM      7  C   UNL     1      -2.772 -44.622  15.388  1.00  0.00     0.000 C 
BRANCH   7   8
ATOM      8  C   UNL     1      -4.175 -45.025  15.887  1.00  0.00     0.000 C 
BRANCH   8   9
ATOM      9  C   UNL     1      -4.963 -45.951  14.943  1.00  0.00     0.000 C 
BRANCH   9  10
ATOM     10  C   UNL     1      -4.270 -46.139  13.582  1.00  0.00     0.006 C 
BRANCH  10  11
ATOM     11  C   UNL     1      -3.838 -47.594  13.347  1.00  0.00     0.053 C 
BRANCH  11  12
ATOM     12  C   UNL     1      -3.571 -47.872  11.900  1.00  0.00     0.041 C 
ATOM     13  O   UNL     1      -3.867 -47.017  11.023  1.00  0.00    -0.550 OA
ATOM     14  O   UNL     1      -3.003 -49.082  11.517  1.00  0.00    -0.550 OA
ENDBRANCH  11  12
ENDBRANCH  10  11
ENDBRANCH   9  10
ENDBRANCH   8   9
ENDBRANCH   7   8
ENDBRANCH   6   7
ENDBRANCH   5   6
ENDBRANCH   4   5
ENDBRANCH   3   4
ENDBRANCH   2   3
ENDBRANCH   1   2
BRANCH   1  15
ATOM     15  C   UNL     1      -4.930 -48.546  17.654  1.00  0.00     0.000 C 
BRANCH  15  16
ATOM     16  C   UNL     1      -4.601 -48.734  19.147  1.00  0.00     0.000 C 
BRANCH  16  17
ATOM     17  C   UNL     1      -4.604 -47.441  19.983  1.00  0.00     0.000 C 
BRANCH  17  18
ATOM     18  C   UNL     1      -5.333 -46.279  19.286  1.00  0.00    -0.000 C 
BRANCH  18  19
ATOM     19  C   UNL     1      -5.154 -44.945  20.026  1.00  0.00    -0.000 C 
BRANCH  19  20
ATOM     20  C   UNL     1      -4.999 -43.755  19.066  1.00  0.00    -0.000 C 
BRANCH  20  21
ATOM     21  C   UNL     1      -6.180 -42.772  19.135  1.00  0.00    -0.000 C 
BRANCH  21  22
ATOM     22  C   UNL     1      -7.482 -43.323  18.515  1.00  0.00    -0.000 C 
BRANCH  22  23
ATOM     23  C   UNL     1      -7.342 -43.590  17.005  1.00  0.00    -0.000 C 
BRANCH  23  24
ATOM     24  C   UNL     1      -8.609 -44.206  16.385  1.00  0.00    -0.000 C 
BRANCH  24  25
ATOM     25  C   UNL     1      -8.360 -45.425  15.478  1.00  0.00    -0.003 C 
ATOM     26  C   UNL     1      -8.431 -45.086  13.989  1.00  0.00     0.004 C 
ENDBRANCH  24  25
ENDBRANCH  23  24
ENDBRANCH  22  23
ENDBRANCH  21  22
ENDBRANCH  20  21
ENDBRANCH  19  20
ENDBRANCH  18  19
ENDBRANCH  17  18
ENDBRANCH  16  17
ENDBRANCH  15  16
ENDBRANCH   1  15
TORSDOF 22
ENDMDL
MODEL 8
REMARK VINA RESULT:    -4.343      2.247      5.370
REMARK INTER + INTRA:         -13.914
REMARK INTER:                 -10.746
REMARK INTRA:                  -3.168
REMARK UNBOUND:                -3.985
REMARK SMILES CCCCCCCCCCCCCCCCCCCCCCCC(=O)[O-]
REMARK SMILES IDX 13 1 14 2 15 3 16 4 17 5 18 6 19 7 20 8 21 9 22 10 23 11
REMARK SMILES IDX 24 12 25 13 26 14 12 15 11 16 10 17 9 18 8 19 7 20 6 21 5 22
REMARK SMILES IDX 4 23 3 24 2 25 1 26
REMARK H PARENT
REMARK Flexibility Score: inf
ROOT
ATOM      1  C   UNL     1      -2.110 -45.303  16.249  1.00  0.00     0.000 C 
ENDROOT
BRANCH   1   2
ATOM      2  C   UNL     1      -3.561 -45.052  15.806  1.00  0.00     0.000 C 
BRANCH   2   3
ATOM      3  C   UNL     1      -3.665 -44.073  14.627  1.00  0.00     0.000 C 
BRANCH   3   4
ATOM      4  C   UNL     1      -4.213 -44.780  13.378  1.00  0.00     0.000 C 
BRANCH   4   5
ATOM      5  C   UNL     1      -4.234 -46.310  13.524  1.00  0.00     0.000 C 
BRANCH   5   6
ATOM      6  C   UNL     1      -4.462 -47.030  12.184  1.00  0.00     0.000 C 
BRANCH   6   7
ATOM      7  C   UNL     1      -3.608 -48.303  12.040  1.00  0.00     0.000 C 
BRANCH   7   8
ATOM      8  C   UNL     1      -2.980 -48.817  13.351  1.00  0.00     0.000 C 
BRANCH   8   9
ATOM      9  C   UNL     1      -1.553 -49.378  13.215  1.00  0.00     0.000 C 
BRANCH   9  10
ATOM     10  C   UNL     1      -1.249 -49.890  11.796  1.00  0.00     0.006 C 
BRANCH  10  11
ATOM     11  C   UNL     1       0.033 -49.271  11.219  1.00  0.00     0.053 C 
BRANCH  11  12
ATOM     12  C   UNL     1       0.113 -49.434   9.732  1.00  0.00     0.041 C 
ATOM     13  O   UNL     1      -0.911 -49.755   9.072  1.00  0.00    -0.550 OA
ATOM     14  O   UNL     1       1.323 -49.241   9.075  1.00  0.00    -0.550 OA
ENDBRANCH  11  12
ENDBRANCH  10  11
ENDBRANCH   9  10
ENDBRANCH   8   9
ENDBRANCH   7   8
ENDBRANCH   6   7
ENDBRANCH   5   6
ENDBRANCH   4   5
ENDBRANCH   3   4
ENDBRANCH   2   3
ENDBRANCH   1   2
BRANCH   1  15
ATOM     15  C   UNL     1      -1.958 -45.377  17.779  1.00  0.00     0.000 C 
BRANCH  15  16
ATOM     16  C   UNL     1      -1.623 -46.794  18.280  1.00  0.00     0.000 C 
BRANCH  16  17
ATOM     17  C   UNL     1      -1.528 -47.869  17.183  1.00  0.00     0.000 C 
BRANCH  17  18
ATOM     18  C   UNL     1      -2.517 -49.029  17.393  1.00  0.00    -0.000 C 
BRANCH  18  19
ATOM     19  C   UNL     1      -3.880 -48.766  16.737  1.00  0.00    -0.000 C 
BRANCH  19  20
ATOM     20  C   UNL     1      -5.001 -48.563  17.770  1.00  0.00    -0.000 C 
BRANCH  20  21
ATOM     21  C   UNL     1      -4.511 -48.711  19.220  1.00  0.00    -0.000 C 
BRANCH  21  22
ATOM     22  C   UNL     1      -4.639 -47.417  20.053  1.00  0.00    -0.000 C 
BRANCH  22  23
ATOM     23  C   UNL     1      -5.266 -46.264  19.248  1.00  0.00    -0.000 C 
BRANCH  23  24
ATOM     24  C   UNL     1      -6.236 -45.409  20.083  1.00  0.00    -0.000 C 
BRANCH  24  25
ATOM     25  C   UNL     1      -5.922 -43.901  20.097  1.00  0.00    -0.003 C 
ATOM     26  C   UNL     1      -4.652 -43.548  19.324  1.00  0.00     0.004 C 
ENDBRANCH  24  25
ENDBRANCH  23  24
ENDBRANCH  22  23
ENDBRANCH  21  22
ENDBRANCH  20  21
ENDBRANCH  19  20
ENDBRANCH  18  19
ENDBRANCH  17  18
ENDBRANCH  16  17
ENDBRANCH  15  16
ENDBRANCH   1  15
TORSDOF 22
ENDMDL
MODEL 9
REMARK VINA RESULT:    -4.307      1.564      5.384
REMARK INTER + INTRA:         -13.832
REMARK INTER:                 -10.714
REMARK INTRA:                  -3.118
REMARK UNBOUND:                -3.985
REMARK SMILES CCCCCCCCCCCCCCCCCCCCCCCC(=O)[O-]
REMARK SMILES IDX 13 1 14 2 15 3 16 4 17 5 18 6 19 7 20 8 21 9 22 10 23 11
REMARK SMILES IDX 24 12 25 13 26 14 12 15 11 16 10 17 9 18 8 19 7 20 6 21 5 22
REMARK SMILES IDX 4 23 3 24 2 25 1 26
REMARK H PARENT
REMARK Flexibility Score: inf
ROOT
ATOM      1  C   UNL     1      -2.693 -44.552  15.323  1.00  0.00     0.000 C 
ENDROOT
BRANCH   1   2
ATOM      2  C   UNL     1      -3.985 -45.386  15.282  1.00  0.00     0.000 C 
BRANCH   2   3
ATOM      3  C   UNL     1      -3.864 -46.632  14.391  1.00  0.00     0.000 C 
BRANCH   3   4
ATOM      4  C   UNL     1      -4.486 -46.376  13.009  1.00  0.00     0.000 C 
BRANCH   4   5
ATOM      5  C   UNL     1      -5.400 -45.142  12.990  1.00  0.00     0.000 C 
BRANCH   5   6
ATOM      6  C   UNL     1      -6.418 -45.176  11.837  1.00  0.00     0.000 C 
BRANCH   6   7
ATOM      7  C   UNL     1      -7.800 -45.692  12.278  1.00  0.00     0.000 C 
BRANCH   7   8
ATOM      8  C   UNL     1      -8.376 -46.831  11.412  1.00  0.00     0.000 C 
BRANCH   8   9
ATOM      9  C   UNL     1      -7.328 -47.736  10.741  1.00  0.00     0.000 C 
BRANCH   9  10
ATOM     10  C   UNL     1      -7.624 -49.233  10.936  1.00  0.00     0.006 C 
BRANCH  10  11
ATOM     11  C   UNL     1      -6.583 -50.125  10.245  1.00  0.00     0.053 C 
BRANCH  11  12
ATOM     12  C   UNL     1      -5.210 -49.924  10.810  1.00  0.00     0.041 C 
ATOM     13  O   UNL     1      -4.992 -50.125  12.035  1.00  0.00    -0.550 OA
ATOM     14  O   UNL     1      -4.172 -49.504   9.986  1.00  0.00    -0.550 OA
ENDBRANCH  11  12
ENDBRANCH  10  11
ENDBRANCH   9  10
ENDBRANCH   8   9
ENDBRANCH   7   8
ENDBRANCH   6   7
ENDBRANCH   5   6
ENDBRANCH   4   5
ENDBRANCH   3   4
ENDBRANCH   2   3
ENDBRANCH   1   2
BRANCH   1  15
ATOM     15  C   UNL     1      -1.612 -45.173  16.224  1.00  0.00     0.000 C 
BRANCH  15  16
ATOM     16  C   UNL     1      -2.066 -45.325  17.688  1.00  0.00     0.000 C 
BRANCH  16  17
ATOM     17  C   UNL     1      -1.739 -46.684  18.334  1.00  0.00     0.000 C 
BRANCH  17  18
ATOM     18  C   UNL     1      -1.444 -47.784  17.299  1.00  0.00    -0.000 C 
BRANCH  18  19
ATOM     19  C   UNL     1      -2.376 -48.996  17.447  1.00  0.00    -0.000 C 
BRANCH  19  20
ATOM     20  C   UNL     1      -3.509 -48.747  18.456  1.00  0.00    -0.000 C 
BRANCH  20  21
ATOM     21  C   UNL     1      -4.886 -48.607  17.786  1.00  0.00    -0.000 C 
BRANCH  21  22
ATOM     22  C   UNL     1      -5.439 -47.166  17.801  1.00  0.00    -0.000 C 
BRANCH  22  23
ATOM     23  C   UNL     1      -5.385 -46.534  19.204  1.00  0.00    -0.000 C 
BRANCH  23  24
ATOM     24  C   UNL     1      -6.079 -45.162  19.270  1.00  0.00    -0.000 C 
BRANCH  24  25
ATOM     25  C   UNL     1      -5.416 -44.059  18.424  1.00  0.00    -0.003 C 
ATOM     26  C   UNL     1      -5.780 -42.649  18.888  1.00  0.00     0.004 C 
ENDBRANCH  24  25
ENDBRANCH  23  24
ENDBRANCH  22  23
ENDBRANCH  21  22
ENDBRANCH  20  21
ENDBRANCH  19  20
ENDBRANCH  18  19
ENDBRANCH  17  18
ENDBRANCH  16  17
ENDBRANCH  15  16
ENDBRANCH   1  15
TORSDOF 22
ENDMDL
