MODEL 1
REMARK VINA RESULT:    -4.150      0.000      0.000
REMARK INTER + INTRA:          -9.106
REMARK INTER:                  -7.547
REMARK INTRA:                  -1.559
REMARK UNBOUND:                -1.559
REMARK SMILES CCCCCCCCCCCCCCCC(=O)[O-]
REMARK SMILES IDX 9 1 10 2 11 3 12 4 13 5 14 6 15 7 16 8 17 9 18 10 8 11 7 12
REMARK SMILES IDX 6 13 5 14 4 15 3 16 2 17 1 18
REMARK H PARENT
REMARK Flexibility Score: inf
ROOT
ATOM      1  C   UNL     1      46.737   5.184  21.271  1.00  0.00     0.000 C 
ENDROOT
BRANCH   1   2
ATOM      2  C   UNL     1      47.036   6.570  21.873  1.00  0.00     0.000 C 
BRANCH   2   3
ATOM      3  C   UNL     1      47.375   7.626  20.806  1.00  0.00     0.000 C 
BRANCH   3   4
ATOM      4  C   UNL     1      48.408   8.652  21.304  1.00  0.00     0.000 C 
BRANCH   4   5
ATOM      5  C   UNL     1      49.818   8.051  21.429  1.00  0.00     0.000 C 
BRANCH   5   6
ATOM      6  C   UNL     1      50.284   7.337  20.147  1.00  0.00     0.006 C 
BRANCH   6   7
ATOM      7  C   UNL     1      51.102   8.229  19.196  1.00  0.00     0.053 C 
BRANCH   7   8
ATOM      8  C   UNL     1      50.249   8.929  18.182  1.00  0.00     0.041 C 
ATOM      9  O   UNL     1      49.849   8.319  17.156  1.00  0.00    -0.550 OA
ATOM     10  O   UNL     1      49.865  10.248  18.389  1.00  0.00    -0.550 OA
ENDBRANCH   7   8
ENDBRANCH   6   7
ENDBRANCH   5   6
ENDBRANCH   4   5
ENDBRANCH   3   4
ENDBRANCH   2   3
ENDBRANCH   1   2
BRANCH   1  11
ATOM     11  C   UNL     1      47.598   4.034  21.825  1.00  0.00     0.000 C 
BRANCH  11  12
ATOM     12  C   UNL     1      49.082   4.405  21.958  1.00  0.00    -0.000 C 
BRANCH  12  13
ATOM     13  C   UNL     1      49.924   3.180  22.334  1.00  0.00    -0.000 C 
BRANCH  13  14
ATOM     14  C   UNL     1      50.726   2.673  21.126  1.00  0.00    -0.000 C 
BRANCH  14  15
ATOM     15  C   UNL     1      50.748   3.679  19.963  1.00  0.00    -0.000 C 
BRANCH  15  16
ATOM     16  C   UNL     1      52.014   3.554  19.097  1.00  0.00    -0.000 C 
BRANCH  16  17
ATOM     17  C   UNL     1      52.935   2.416  19.565  1.00  0.00    -0.003 C 
ATOM     18  C   UNL     1      54.294   2.916  20.056  1.00  0.00     0.004 C 
ENDBRANCH  16  17
ENDBRANCH  15  16
ENDBRANCH  14  15
ENDBRANCH  13  14
ENDBRANCH  12  13
ENDBRANCH  11  12
ENDBRANCH   1  11
TORSDOF 14
ENDMDL
MODEL 2
REMARK VINA RESULT:    -4.114      3.087      5.026
REMARK INTER + INTRA:          -9.041
REMARK INTER:                  -6.725
REMARK INTRA:                  -2.316
REMARK UNBOUND:                -1.559
REMARK SMILES CCCCCCCCCCCCCCCC(=O)[O-]
REMARK SMILES IDX 9 1 10 2 11 3 12 4 13 5 14 6 15 7 16 8 17 9 18 10 8 11 7 12
REMARK SMILES IDX 6 13 5 14 4 15 3 16 2 17 1 18
REMARK H PARENT
REMARK Flexibility Score: inf
ROOT
ATOM      1  C   UNL     1      46.817   5.329  25.469  1.00  0.00     0.000 C 
ENDROOT
BRANCH   1   2
ATOM      2  C   UNL     1      46.567   5.995  24.103  1.00  0.00     0.000 C 
BRANCH   2   3
ATOM      3  C   UNL     1      47.582   5.561  23.031  1.00  0.00     0.000 C 
BRANCH   3   4
ATOM      4  C   UNL     1      47.655   6.551  21.856  1.00  0.00     0.000 C 
BRANCH   4   5
ATOM      5  C   UNL     1      48.990   6.465  21.099  1.00  0.00     0.000 C 
BRANCH   5   6
ATOM      6  C   UNL     1      49.599   7.846  20.796  1.00  0.00     0.006 C 
BRANCH   6   7
ATOM      7  C   UNL     1      50.842   7.798  19.890  1.00  0.00     0.053 C 
BRANCH   7   8
ATOM      8  C   UNL     1      50.640   8.515  18.589  1.00  0.00     0.041 C 
ATOM      9  O   UNL     1      50.697   7.886  17.500  1.00  0.00    -0.550 OA
ATOM     10  O   UNL     1      50.353   9.874  18.582  1.00  0.00    -0.550 OA
ENDBRANCH   7   8
ENDBRANCH   6   7
ENDBRANCH   5   6
ENDBRANCH   4   5
ENDBRANCH   3   4
ENDBRANCH   2   3
ENDBRANCH   1   2
BRANCH   1  11
ATOM     11  C   UNL     1      47.353   6.270  26.564  1.00  0.00     0.000 C 
BRANCH  11  12
ATOM     12  C   UNL     1      48.713   5.827  27.123  1.00  0.00    -0.000 C 
BRANCH  12  13
ATOM     13  C   UNL     1      49.809   6.839  26.767  1.00  0.00    -0.000 C 
BRANCH  13  14
ATOM     14  C   UNL     1      50.626   6.360  25.557  1.00  0.00    -0.000 C 
BRANCH  14  15
ATOM     15  C   UNL     1      50.476   7.284  24.336  1.00  0.00    -0.000 C 
BRANCH  15  16
ATOM     16  C   UNL     1      50.088   8.720  24.728  1.00  0.00    -0.000 C 
BRANCH  16  17
ATOM     17  C   UNL     1      48.861   9.229  23.955  1.00  0.00    -0.003 C 
ATOM     18  C   UNL     1      47.664   9.512  24.862  1.00  0.00     0.004 C 
ENDBRANCH  16  17
ENDBRANCH  15  16
ENDBRANCH  14  15
ENDBRANCH  13  14
ENDBRANCH  12  13
ENDBRANCH  11  12
ENDBRANCH   1  11
TORSDOF 14
ENDMDL
MODEL 3
REMARK VINA RESULT:    -4.111      4.510      6.897
REMARK INTER + INTRA:          -9.034
REMARK INTER:                  -7.744
REMARK INTRA:                  -1.290
REMARK UNBOUND:                -1.559
REMARK SMILES CCCCCCCCCCCCCCCC(=O)[O-]
REMARK SMILES IDX 9 1 10 2 11 3 12 4 13 5 14 6 15 7 16 8 17 9 18 10 8 11 7 12
REMARK SMILES IDX 6 13 5 14 4 15 3 16 2 17 1 18
REMARK H PARENT
REMARK Flexibility Score: inf
ROOT
ATOM      1  C   UNL     1      45.835   2.948  20.657  1.00  0.00     0.000 C 
ENDROOT
BRANCH   1   2
ATOM      2  C   UNL     1      46.664   1.943  19.834  1.00  0.00     0.000 C 
BRANCH   2   3
ATOM      3  C   UNL     1      47.921   1.455  20.575  1.00  0.00     0.000 C 
BRANCH   3   4
ATOM      4  C   UNL     1      49.055   2.495  20.554  1.00  0.00     0.000 C 
BRANCH   4   5
ATOM      5  C   UNL     1      50.040   2.312  21.720  1.00  0.00     0.000 C 
BRANCH   5   6
ATOM      6  C   UNL     1      51.238   1.416  21.361  1.00  0.00     0.006 C 
BRANCH   6   7
ATOM      7  C   UNL     1      52.600   2.128  21.443  1.00  0.00     0.053 C 
BRANCH   7   8
ATOM      8  C   UNL     1      53.151   2.482  20.094  1.00  0.00     0.041 C 
ATOM      9  O   UNL     1      52.424   2.399  19.069  1.00  0.00    -0.550 OA
ATOM     10  O   UNL     1      54.457   2.939  19.975  1.00  0.00    -0.550 OA
ENDBRANCH   7   8
ENDBRANCH   6   7
ENDBRANCH   5   6
ENDBRANCH   4   5
ENDBRANCH   3   4
ENDBRANCH   2   3
ENDBRANCH   1   2
BRANCH   1  11
ATOM     11  C   UNL     1      44.534   3.423  19.986  1.00  0.00     0.000 C 
BRANCH  11  12
ATOM     12  C   UNL     1      43.282   2.734  20.547  1.00  0.00    -0.000 C 
BRANCH  12  13
ATOM     13  C   UNL     1      43.594   2.015  21.865  1.00  0.00    -0.000 C 
BRANCH  13  14
ATOM     14  C   UNL     1      43.146   0.546  21.809  1.00  0.00    -0.000 C 
BRANCH  14  15
ATOM     15  C   UNL     1      43.942  -0.355  22.768  1.00  0.00    -0.000 C 
BRANCH  15  16
ATOM     16  C   UNL     1      45.359   0.180  23.039  1.00  0.00    -0.000 C 
BRANCH  16  17
ATOM     17  C   UNL     1      46.418  -0.935  23.036  1.00  0.00    -0.003 C 
ATOM     18  C   UNL     1      46.846  -1.349  24.444  1.00  0.00     0.004 C 
ENDBRANCH  16  17
ENDBRANCH  15  16
ENDBRANCH  14  15
ENDBRANCH  13  14
ENDBRANCH  12  13
ENDBRANCH  11  12
ENDBRANCH   1  11
TORSDOF 14
ENDMDL
MODEL 4
REMARK VINA RESULT:    -4.106      5.579      7.913
REMARK INTER + INTRA:          -9.025
REMARK INTER:                  -7.177
REMARK INTRA:                  -1.849
REMARK UNBOUND:                -1.559
REMARK SMILES CCCCCCCCCCCCCCCC(=O)[O-]
REMARK SMILES IDX 9 1 10 2 11 3 12 4 13 5 14 6 15 7 16 8 17 9 18 10 8 11 7 12
REMARK SMILES IDX 6 13 5 14 4 15 3 16 2 17 1 18
REMARK H PARENT
REMARK Flexibility Score: inf
ROOT
ATOM      1  C   UNL     1      43.601   2.098  21.592  1.00  0.00     0.000 C 
ENDROOT
BRANCH   1   2
ATOM      2  C   UNL     1      43.075   0.697  21.227  1.00  0.00     0.000 C 
BRANCH   2   3
ATOM      3  C   UNL     1      43.272  -0.330  22.356  1.00  0.00     0.000 C 
BRANCH   3   4
ATOM      4  C   UNL     1      43.802   0.314  23.648  1.00  0.00     0.000 C 
BRANCH   4   5
ATOM      5  C   UNL     1      45.084  -0.365  24.159  1.00  0.00     0.000 C 
BRANCH   5   6
ATOM      6  C   UNL     1      46.037  -0.781  23.024  1.00  0.00     0.006 C 
BRANCH   6   7
ATOM      7  C   UNL     1      47.529  -0.691  23.393  1.00  0.00     0.053 C 
BRANCH   7   8
ATOM      8  C   UNL     1      48.340  -1.804  22.803  1.00  0.00     0.041 C 
ATOM      9  O   UNL     1      48.035  -3.004  23.031  1.00  0.00    -0.550 OA
ATOM     10  O   UNL     1      49.414  -1.515  21.971  1.00  0.00    -0.550 OA
ENDBRANCH   7   8
ENDBRANCH   6   7
ENDBRANCH   5   6
ENDBRANCH   4   5
ENDBRANCH   3   4
ENDBRANCH   2   3
ENDBRANCH   1   2
BRANCH   1  11
ATOM     11  C   UNL     1      43.857   3.030  20.393  1.00  0.00     0.000 C 
BRANCH  11  12
ATOM     12  C   UNL     1      45.350   3.260  20.119  1.00  0.00    -0.000 C 
BRANCH  12  13
ATOM     13  C   UNL     1      46.219   2.419  21.062  1.00  0.00    -0.000 C 
BRANCH  13  14
ATOM     14  C   UNL     1      47.056   1.400  20.274  1.00  0.00    -0.000 C 
BRANCH  14  15
ATOM     15  C   UNL     1      48.567   1.568  20.505  1.00  0.00    -0.000 C 
BRANCH  15  16
ATOM     16  C   UNL     1      48.888   2.662  21.539  1.00  0.00    -0.000 C 
BRANCH  16  17
ATOM     17  C   UNL     1      49.979   3.629  21.053  1.00  0.00    -0.003 C 
ATOM     18  C   UNL     1      50.850   3.032  19.947  1.00  0.00     0.004 C 
ENDBRANCH  16  17
ENDBRANCH  15  16
ENDBRANCH  14  15
ENDBRANCH  13  14
ENDBRANCH  12  13
ENDBRANCH  11  12
ENDBRANCH   1  11
TORSDOF 14
ENDMDL
MODEL 5
REMARK VINA RESULT:    -4.090      2.965      4.754
REMARK INTER + INTRA:          -8.997
REMARK INTER:                  -6.767
REMARK INTRA:                  -2.230
REMARK UNBOUND:                -1.559
REMARK SMILES CCCCCCCCCCCCCCCC(=O)[O-]
REMARK SMILES IDX 9 1 10 2 11 3 12 4 13 5 14 6 15 7 16 8 17 9 18 10 8 11 7 12
REMARK SMILES IDX 6 13 5 14 4 15 3 16 2 17 1 18
REMARK H PARENT
REMARK Flexibility Score: inf
ROOT
ATOM      1  C   UNL     1      50.150   5.786  25.260  1.00  0.00     0.000 C 
ENDROOT
BRANCH   1   2
ATOM      2  C   UNL     1      49.590   7.206  25.465  1.00  0.00     0.000 C 
BRANCH   2   3
ATOM      3  C   UNL     1      50.391   8.280  24.708  1.00  0.00     0.000 C 
BRANCH   3   4
ATOM      4  C   UNL     1      49.489   9.379  24.122  1.00  0.00     0.000 C 
BRANCH   4   5
ATOM      5  C   UNL     1      47.998   9.013  24.189  1.00  0.00     0.000 C 
BRANCH   5   6
ATOM      6  C   UNL     1      47.221   9.412  22.921  1.00  0.00     0.006 C 
BRANCH   6   7
ATOM      7  C   UNL     1      47.135  10.932  22.692  1.00  0.00     0.053 C 
BRANCH   7   8
ATOM      8  C   UNL     1      46.746  11.285  21.288  1.00  0.00     0.041 C 
ATOM      9  O   UNL     1      45.581  11.689  21.034  1.00  0.00    -0.550 OA
ATOM     10  O   UNL     1      47.681  11.201  20.266  1.00  0.00    -0.550 OA
ENDBRANCH   7   8
ENDBRANCH   6   7
ENDBRANCH   5   6
ENDBRANCH   4   5
ENDBRANCH   3   4
ENDBRANCH   2   3
ENDBRANCH   1   2
BRANCH   1  11
ATOM     11  C   UNL     1      49.653   5.066  23.993  1.00  0.00     0.000 C 
BRANCH  11  12
ATOM     12  C   UNL     1      48.185   5.374  23.663  1.00  0.00    -0.000 C 
BRANCH  12  13
ATOM     13  C   UNL     1      48.023   5.770  22.190  1.00  0.00    -0.000 C 
BRANCH  13  14
ATOM     14  C   UNL     1      49.389   5.854  21.491  1.00  0.00    -0.000 C 
BRANCH  14  15
ATOM     15  C   UNL     1      49.771   7.292  21.104  1.00  0.00    -0.000 C 
BRANCH  15  16
ATOM     16  C   UNL     1      48.801   7.905  20.079  1.00  0.00    -0.000 C 
BRANCH  16  17
ATOM     17  C   UNL     1      49.527   8.470  18.848  1.00  0.00    -0.003 C 
ATOM     18  C   UNL     1      51.040   8.570  19.045  1.00  0.00     0.004 C 
ENDBRANCH  16  17
ENDBRANCH  15  16
ENDBRANCH  14  15
ENDBRANCH  13  14
ENDBRANCH  12  13
ENDBRANCH  11  12
ENDBRANCH   1  11
TORSDOF 14
ENDMDL
MODEL 6
REMARK VINA RESULT:    -4.085      1.907      2.782
REMARK INTER + INTRA:          -8.988
REMARK INTER:                  -6.930
REMARK INTRA:                  -2.057
REMARK UNBOUND:                -1.559
REMARK SMILES CCCCCCCCCCCCCCCC(=O)[O-]
REMARK SMILES IDX 9 1 10 2 11 3 12 4 13 5 14 6 15 7 16 8 17 9 18 10 8 11 7 12
REMARK SMILES IDX 6 13 5 14 4 15 3 16 2 17 1 18
REMARK H PARENT
REMARK Flexibility Score: inf
ROOT
ATOM      1  C   UNL     1      45.748   3.589  20.398  1.00  0.00     0.000 C 
ENDROOT
BRANCH   1   2
ATOM      2  C   UNL     1      46.404   4.850  20.993  1.00  0.00     0.000 C 
BRANCH   2   3
ATOM      3  C   UNL     1      47.175   4.566  22.294  1.00  0.00     0.000 C 
BRANCH   3   4
ATOM      4  C   UNL     1      48.404   5.475  22.459  1.00  0.00     0.000 C 
BRANCH   4   5
ATOM      5  C   UNL     1      48.604   6.414  21.257  1.00  0.00     0.000 C 
BRANCH   5   6
ATOM      6  C   UNL     1      49.991   7.080  21.239  1.00  0.00     0.006 C 
BRANCH   6   7
ATOM      7  C   UNL     1      50.109   8.256  20.252  1.00  0.00     0.053 C 
BRANCH   7   8
ATOM      8  C   UNL     1      50.919   7.914  19.038  1.00  0.00     0.041 C 
ATOM      9  O   UNL     1      51.982   7.249  19.150  1.00  0.00    -0.550 OA
ATOM     10  O   UNL     1      50.481   8.301  17.778  1.00  0.00    -0.550 OA
ENDBRANCH   7   8
ENDBRANCH   6   7
ENDBRANCH   5   6
ENDBRANCH   4   5
ENDBRANCH   3   4
ENDBRANCH   2   3
ENDBRANCH   1   2
BRANCH   1  11
ATOM     11  C   UNL     1      45.359   2.510  21.425  1.00  0.00     0.000 C 
BRANCH  11  12
ATOM     12  C   UNL     1      45.875   1.113  21.053  1.00  0.00    -0.000 C 
BRANCH  12  13
ATOM     13  C   UNL     1      47.318   1.178  20.537  1.00  0.00    -0.000 C 
BRANCH  13  14
ATOM     14  C   UNL     1      48.313   0.792  21.642  1.00  0.00    -0.000 C 
BRANCH  14  15
ATOM     15  C   UNL     1      49.576   1.669  21.636  1.00  0.00    -0.000 C 
BRANCH  15  16
ATOM     16  C   UNL     1      49.655   2.581  20.400  1.00  0.00    -0.000 C 
BRANCH  16  17
ATOM     17  C   UNL     1      50.897   3.487  20.416  1.00  0.00    -0.003 C 
ATOM     18  C   UNL     1      51.654   3.480  19.088  1.00  0.00     0.004 C 
ENDBRANCH  16  17
ENDBRANCH  15  16
ENDBRANCH  14  15
ENDBRANCH  13  14
ENDBRANCH  12  13
ENDBRANCH  11  12
ENDBRANCH   1  11
TORSDOF 14
ENDMDL
MODEL 7
REMARK VINA RESULT:    -4.080      4.380      6.649
REMARK INTER + INTRA:          -8.979
REMARK INTER:                  -6.895
REMARK INTRA:                  -2.084
REMARK UNBOUND:                -1.559
REMARK SMILES CCCCCCCCCCCCCCCC(=O)[O-]
REMARK SMILES IDX 9 1 10 2 11 3 12 4 13 5 14 6 15 7 16 8 17 9 18 10 8 11 7 12
REMARK SMILES IDX 6 13 5 14 4 15 3 16 2 17 1 18
REMARK H PARENT
REMARK Flexibility Score: inf
ROOT
ATOM      1  C   UNL     1      44.305   3.084  20.306  1.00  0.00     0.000 C 
ENDROOT
BRANCH   1   2
ATOM      2  C   UNL     1      45.822   3.272  20.497  1.00  0.00     0.000 C 
BRANCH   2   3
ATOM      3  C   UNL     1      46.637   2.038  20.072  1.00  0.00     0.000 C 
BRANCH   3   4
ATOM      4  C   UNL     1      48.121   2.153  20.461  1.00  0.00     0.000 C 
BRANCH   4   5
ATOM      5  C   UNL     1      48.418   3.425  21.272  1.00  0.00     0.000 C 
BRANCH   5   6
ATOM      6  C   UNL     1      49.922   3.735  21.375  1.00  0.00     0.006 C 
BRANCH   6   7
ATOM      7  C   UNL     1      50.819   2.756  20.596  1.00  0.00     0.053 C 
BRANCH   7   8
ATOM      8  C   UNL     1      52.054   2.372  21.355  1.00  0.00     0.041 C 
ATOM      9  O   UNL     1      53.153   2.241  20.755  1.00  0.00    -0.550 OA
ATOM     10  O   UNL     1      51.997   2.195  22.731  1.00  0.00    -0.550 OA
ENDBRANCH   7   8
ENDBRANCH   6   7
ENDBRANCH   5   6
ENDBRANCH   4   5
ENDBRANCH   3   4
ENDBRANCH   2   3
ENDBRANCH   1   2
BRANCH   1  11
ATOM     11  C   UNL     1      43.599   2.309  21.434  1.00  0.00     0.000 C 
BRANCH  11  12
ATOM     12  C   UNL     1      43.410   0.819  21.113  1.00  0.00    -0.000 C 
BRANCH  12  13
ATOM     13  C   UNL     1      43.051   0.026  22.375  1.00  0.00    -0.000 C 
BRANCH  13  14
ATOM     14  C   UNL     1      44.165   0.137  23.428  1.00  0.00    -0.000 C 
BRANCH  14  15
ATOM     15  C   UNL     1      45.519  -0.386  22.917  1.00  0.00    -0.000 C 
BRANCH  15  16
ATOM     16  C   UNL     1      46.709   0.412  23.478  1.00  0.00    -0.000 C 
BRANCH  16  17
ATOM     17  C   UNL     1      46.305   1.820  23.944  1.00  0.00    -0.003 C 
ATOM     18  C   UNL     1      47.412   2.526  24.728  1.00  0.00     0.004 C 
ENDBRANCH  16  17
ENDBRANCH  15  16
ENDBRANCH  14  15
ENDBRANCH  13  14
ENDBRANCH  12  13
ENDBRANCH  11  12
ENDBRANCH   1  11
TORSDOF 14
ENDMDL
MODEL 8
REMARK VINA RESULT:    -4.039      4.315      6.314
REMARK INTER + INTRA:          -8.905
REMARK INTER:                  -6.950
REMARK INTRA:                  -1.954
REMARK UNBOUND:                -1.559
REMARK SMILES CCCCCCCCCCCCCCCC(=O)[O-]
REMARK SMILES IDX 9 1 10 2 11 3 12 4 13 5 14 6 15 7 16 8 17 9 18 10 8 11 7 12
REMARK SMILES IDX 6 13 5 14 4 15 3 16 2 17 1 18
REMARK H PARENT
REMARK Flexibility Score: inf
ROOT
ATOM      1  C   UNL     1      46.996  12.013  22.583  1.00  0.00     0.000 C 
ENDROOT
BRANCH   1   2
ATOM      2  C   UNL     1      46.218  11.219  23.649  1.00  0.00     0.000 C 
BRANCH   2   3
ATOM      3  C   UNL     1      47.133  10.581  24.708  1.00  0.00     0.000 C 
BRANCH   3   4
ATOM      4  C   UNL     1      47.766   9.266  24.222  1.00  0.00     0.000 C 
BRANCH   4   5
ATOM      5  C   UNL     1      49.298   9.355  24.121  1.00  0.00     0.000 C 
BRANCH   5   6
ATOM      6  C   UNL     1      49.980   7.975  24.098  1.00  0.00     0.006 C 
BRANCH   6   7
ATOM      7  C   UNL     1      50.378   7.450  25.489  1.00  0.00     0.053 C 
BRANCH   7   8
ATOM      8  C   UNL     1      49.447   6.390  25.997  1.00  0.00     0.041 C 
ATOM      9  O   UNL     1      49.656   5.178  25.729  1.00  0.00    -0.550 OA
ATOM     10  O   UNL     1      48.366   6.740  26.796  1.00  0.00    -0.550 OA
ENDBRANCH   7   8
ENDBRANCH   6   7
ENDBRANCH   5   6
ENDBRANCH   4   5
ENDBRANCH   3   4
ENDBRANCH   2   3
ENDBRANCH   1   2
BRANCH   1  11
ATOM     11  C   UNL     1      46.714  11.600  21.127  1.00  0.00     0.000 C 
BRANCH  11  12
ATOM     12  C   UNL     1      47.508  10.360  20.690  1.00  0.00    -0.000 C 
BRANCH  12  13
ATOM     13  C   UNL     1      46.602   9.125  20.614  1.00  0.00    -0.000 C 
BRANCH  13  14
ATOM     14  C   UNL     1      47.354   7.928  20.011  1.00  0.00    -0.000 C 
BRANCH  14  15
ATOM     15  C   UNL     1      48.162   7.146  21.060  1.00  0.00    -0.000 C 
BRANCH  15  16
ATOM     16  C   UNL     1      49.616   6.901  20.623  1.00  0.00    -0.000 C 
BRANCH  16  17
ATOM     17  C   UNL     1      50.376   8.209  20.352  1.00  0.00    -0.003 C 
ATOM     18  C   UNL     1      51.036   8.238  18.973  1.00  0.00     0.004 C 
ENDBRANCH  16  17
ENDBRANCH  15  16
ENDBRANCH  14  15
ENDBRANCH  13  14
ENDBRANCH  12  13
ENDBRANCH  11  12
ENDBRANCH   1  11
TORSDOF 14
ENDMDL
MODEL 9
REMARK VINA RESULT:    -3.992      5.977      8.100
REMARK INTER + INTRA:          -8.819
REMARK INTER:                  -6.335
REMARK INTRA:                  -2.484
REMARK UNBOUND:                -1.559
REMARK SMILES CCCCCCCCCCCCCCCC(=O)[O-]
REMARK SMILES IDX 9 1 10 2 11 3 12 4 13 5 14 6 15 7 16 8 17 9 18 10 8 11 7 12
REMARK SMILES IDX 6 13 5 14 4 15 3 16 2 17 1 18
REMARK H PARENT
REMARK Flexibility Score: inf
ROOT
ATOM      1  C   UNL     1      44.653   3.385  20.032  1.00  0.00     0.000 C 
ENDROOT
BRANCH   1   2
ATOM      2  C   UNL     1      45.678   3.735  21.127  1.00  0.00     0.000 C 
BRANCH   2   3
ATOM      3  C   UNL     1      46.927   2.838  21.087  1.00  0.00     0.000 C 
BRANCH   3   4
ATOM      4  C   UNL     1      46.898   1.844  19.914  1.00  0.00     0.000 C 
BRANCH   4   5
ATOM      5  C   UNL     1      47.637   0.534  20.236  1.00  0.00     0.000 C 
BRANCH   5   6
ATOM      6  C   UNL     1      48.039   0.419  21.717  1.00  0.00     0.006 C 
BRANCH   6   7
ATOM      7  C   UNL     1      48.101  -1.028  22.239  1.00  0.00     0.053 C 
BRANCH   7   8
ATOM      8  C   UNL     1      49.463  -1.636  22.098  1.00  0.00     0.041 C 
ATOM      9  O   UNL     1      49.593  -2.882  21.964  1.00  0.00    -0.550 OA
ATOM     10  O   UNL     1      50.589  -0.824  22.081  1.00  0.00    -0.550 OA
ENDBRANCH   7   8
ENDBRANCH   6   7
ENDBRANCH   5   6
ENDBRANCH   4   5
ENDBRANCH   3   4
ENDBRANCH   2   3
ENDBRANCH   1   2
BRANCH   1  11
ATOM     11  C   UNL     1      43.302   2.858  20.550  1.00  0.00     0.000 C 
BRANCH  11  12
ATOM     12  C   UNL     1      43.392   2.255  21.959  1.00  0.00    -0.000 C 
BRANCH  12  13
ATOM     13  C   UNL     1      43.233   0.731  21.917  1.00  0.00    -0.000 C 
BRANCH  13  14
ATOM     14  C   UNL     1      44.451   0.033  22.543  1.00  0.00    -0.000 C 
BRANCH  14  15
ATOM     15  C   UNL     1      44.427   0.064  24.080  1.00  0.00    -0.000 C 
BRANCH  15  16
ATOM     16  C   UNL     1      45.772   0.508  24.682  1.00  0.00    -0.000 C 
BRANCH  16  17
ATOM     17  C   UNL     1      45.986   2.027  24.584  1.00  0.00    -0.003 C 
ATOM     18  C   UNL     1      47.399   2.454  24.982  1.00  0.00     0.004 C 
ENDBRANCH  16  17
ENDBRANCH  15  16
ENDBRANCH  14  15
ENDBRANCH  13  14
ENDBRANCH  12  13
ENDBRANCH  11  12
ENDBRANCH   1  11
TORSDOF 14
ENDMDL
