MODEL 1
REMARK VINA RESULT:    -4.489      0.000      0.000
REMARK INTER + INTRA:          -8.129
REMARK INTER:                  -7.114
REMARK INTRA:                  -1.016
REMARK UNBOUND:                -1.016
REMARK SMILES CCCCCCCCCCCC(=O)[O-]
REMARK SMILES IDX 7 1 8 2 9 3 10 4 11 5 12 6 13 7 14 8 6 9 5 10 4 11 3 12 2 13
REMARK SMILES IDX 1 14
REMARK H PARENT
REMARK Flexibility Score: inf
ROOT
ATOM      1  C   UNL     1      98.945  92.415  88.426  1.00  0.00     0.000 C 
ENDROOT
BRANCH   1   2
ATOM      2  C   UNL     1      99.538  91.351  89.366  1.00  0.00     0.000 C 
BRANCH   2   3
ATOM      3  C   UNL     1      98.494  90.739  90.313  1.00  0.00     0.000 C 
BRANCH   3   4
ATOM      4  C   UNL     1      99.165  89.844  91.365  1.00  0.00     0.006 C 
BRANCH   4   5
ATOM      5  C   UNL     1     100.458  89.204  90.845  1.00  0.00     0.053 C 
BRANCH   5   6
ATOM      6  C   UNL     1     101.397  88.859  91.961  1.00  0.00     0.041 C 
ATOM      7  O   UNL     1     101.145  89.231  93.137  1.00  0.00    -0.550 OA
ATOM      8  O   UNL     1     102.531  88.099  91.708  1.00  0.00    -0.550 OA
ENDBRANCH   5   6
ENDBRANCH   4   5
ENDBRANCH   3   4
ENDBRANCH   2   3
ENDBRANCH   1   2
BRANCH   1   9
ATOM      9  C   UNL     1      98.607  91.917  87.010  1.00  0.00     0.000 C 
BRANCH   9  10
ATOM     10  C   UNL     1      99.779  92.058  86.028  1.00  0.00    -0.000 C 
BRANCH  10  11
ATOM     11  C   UNL     1      99.974  90.770  85.214  1.00  0.00    -0.000 C 
BRANCH  11  12
ATOM     12  C   UNL     1      99.193  89.575  85.787  1.00  0.00    -0.000 C 
BRANCH  12  13
ATOM     13  C   UNL     1     100.060  88.373  86.201  1.00  0.00    -0.003 C 
ATOM     14  C   UNL     1     101.161  88.744  87.195  1.00  0.00     0.004 C 
ENDBRANCH  12  13
ENDBRANCH  11  12
ENDBRANCH  10  11
ENDBRANCH   9  10
ENDBRANCH   1   9
TORSDOF 10
ENDMDL
MODEL 2
REMARK VINA RESULT:    -4.469      1.809      3.407
REMARK INTER + INTRA:          -8.097
REMARK INTER:                  -6.928
REMARK INTRA:                  -1.169
REMARK UNBOUND:                -1.016
REMARK SMILES CCCCCCCCCCCC(=O)[O-]
REMARK SMILES IDX 7 1 8 2 9 3 10 4 11 5 12 6 13 7 14 8 6 9 5 10 4 11 3 12 2 13
REMARK SMILES IDX 1 14
REMARK H PARENT
REMARK Flexibility Score: inf
ROOT
ATOM      1  C   UNL     1      99.411  88.154  87.144  1.00  0.00     0.000 C 
ENDROOT
BRANCH   1   2
ATOM      2  C   UNL     1     100.793  88.061  87.816  1.00  0.00     0.000 C 
BRANCH   2   3
ATOM      3  C   UNL     1     100.720  88.131  89.349  1.00  0.00     0.000 C 
BRANCH   3   4
ATOM      4  C   UNL     1      99.966  89.388  89.806  1.00  0.00     0.006 C 
BRANCH   4   5
ATOM      5  C   UNL     1      99.894  89.500  91.334  1.00  0.00     0.053 C 
BRANCH   5   6
ATOM      6  C   UNL     1      98.709  90.302  91.779  1.00  0.00     0.041 C 
ATOM      7  O   UNL     1      98.614  90.681  92.975  1.00  0.00    -0.550 OA
ATOM      8  O   UNL     1      97.727  90.660  90.864  1.00  0.00    -0.550 OA
ENDBRANCH   5   6
ENDBRANCH   4   5
ENDBRANCH   3   4
ENDBRANCH   2   3
ENDBRANCH   1   2
BRANCH   1   9
ATOM      9  C   UNL     1      99.294  89.221  86.041  1.00  0.00     0.000 C 
BRANCH   9  10
ATOM     10  C   UNL     1     100.502  90.167  85.992  1.00  0.00    -0.000 C 
BRANCH  10  11
ATOM     11  C   UNL     1     100.056  91.634  86.088  1.00  0.00    -0.000 C 
BRANCH  11  12
ATOM     12  C   UNL     1      98.617  91.791  86.610  1.00  0.00    -0.000 C 
BRANCH  12  13
ATOM     13  C   UNL     1      98.490  92.566  87.933  1.00  0.00    -0.003 C 
ATOM     14  C   UNL     1      99.813  92.681  88.689  1.00  0.00     0.004 C 
ENDBRANCH  12  13
ENDBRANCH  11  12
ENDBRANCH  10  11
ENDBRANCH   9  10
ENDBRANCH   1   9
TORSDOF 10
ENDMDL
MODEL 3
REMARK VINA RESULT:    -4.419      2.968      5.785
REMARK INTER + INTRA:          -8.018
REMARK INTER:                  -6.747
REMARK INTRA:                  -1.271
REMARK UNBOUND:                -1.016
REMARK SMILES CCCCCCCCCCCC(=O)[O-]
REMARK SMILES IDX 7 1 8 2 9 3 10 4 11 5 12 6 13 7 14 8 6 9 5 10 4 11 3 12 2 13
REMARK SMILES IDX 1 14
REMARK H PARENT
REMARK Flexibility Score: inf
ROOT
ATOM      1  C   UNL     1     100.757  87.586  89.721  1.00  0.00     0.000 C 
ENDROOT
BRANCH   1   2
ATOM      2  C   UNL     1     100.899  88.088  88.273  1.00  0.00     0.000 C 
BRANCH   2   3
ATOM      3  C   UNL     1      99.589  87.997  87.475  1.00  0.00     0.000 C 
BRANCH   3   4
ATOM      4  C   UNL     1      99.384  89.249  86.611  1.00  0.00     0.006 C 
BRANCH   4   5
ATOM      5  C   UNL     1     100.700  89.766  86.014  1.00  0.00     0.053 C 
BRANCH   5   6
ATOM      6  C   UNL     1     100.781  91.261  86.056  1.00  0.00     0.041 C 
ATOM      7  O   UNL     1      99.730  91.950  86.112  1.00  0.00    -0.550 OA
ATOM      8  O   UNL     1     102.018  91.891  86.068  1.00  0.00    -0.550 OA
ENDBRANCH   5   6
ENDBRANCH   4   5
ENDBRANCH   3   4
ENDBRANCH   2   3
ENDBRANCH   1   2
BRANCH   1   9
ATOM      9  C   UNL     1     101.902  87.991  90.665  1.00  0.00     0.000 C 
BRANCH   9  10
ATOM     10  C   UNL     1     101.451  88.946  91.780  1.00  0.00    -0.000 C 
BRANCH  10  11
ATOM     11  C   UNL     1      99.946  88.799  92.054  1.00  0.00    -0.000 C 
BRANCH  11  12
ATOM     12  C   UNL     1      99.192  90.139  91.991  1.00  0.00    -0.000 C 
BRANCH  12  13
ATOM     13  C   UNL     1      98.505  90.433  90.646  1.00  0.00    -0.003 C 
ATOM     14  C   UNL     1      99.374  91.259  89.698  1.00  0.00     0.004 C 
ENDBRANCH  12  13
ENDBRANCH  11  12
ENDBRANCH  10  11
ENDBRANCH   9  10
ENDBRANCH   1   9
TORSDOF 10
ENDMDL
MODEL 4
REMARK VINA RESULT:    -4.206     10.197     12.410
REMARK INTER + INTRA:          -7.681
REMARK INTER:                  -6.684
REMARK INTRA:                  -0.997
REMARK UNBOUND:                -1.016
REMARK SMILES CCCCCCCCCCCC(=O)[O-]
REMARK SMILES IDX 7 1 8 2 9 3 10 4 11 5 12 6 13 7 14 8 6 9 5 10 4 11 3 12 2 13
REMARK SMILES IDX 1 14
REMARK H PARENT
REMARK Flexibility Score: inf
ROOT
ATOM      1  C   UNL     1     104.146  96.997  97.536  1.00  0.00     0.000 C 
ENDROOT
BRANCH   1   2
ATOM      2  C   UNL     1     105.256  96.981  96.471  1.00  0.00     0.000 C 
BRANCH   2   3
ATOM      3  C   UNL     1     105.022  98.000  95.346  1.00  0.00     0.000 C 
BRANCH   3   4
ATOM      4  C   UNL     1     103.521  98.237  95.123  1.00  0.00     0.006 C 
BRANCH   4   5
ATOM      5  C   UNL     1     103.220  99.669  94.661  1.00  0.00     0.053 C 
BRANCH   5   6
ATOM      6  C   UNL     1     102.363 100.403  95.646  1.00  0.00     0.041 C 
ATOM      7  O   UNL     1     102.176  99.931  96.798  1.00  0.00    -0.550 OA
ATOM      8  O   UNL     1     101.798 101.625  95.303  1.00  0.00    -0.550 OA
ENDBRANCH   5   6
ENDBRANCH   4   5
ENDBRANCH   3   4
ENDBRANCH   2   3
ENDBRANCH   1   2
BRANCH   1   9
ATOM      9  C   UNL     1     103.880  95.644  98.219  1.00  0.00     0.000 C 
BRANCH   9  10
ATOM     10  C   UNL     1     102.577  95.628  99.032  1.00  0.00    -0.000 C 
BRANCH  10  11
ATOM     11  C   UNL     1     101.673  96.809  98.644  1.00  0.00    -0.000 C 
BRANCH  11  12
ATOM     12  C   UNL     1     100.406  96.372  97.888  1.00  0.00    -0.000 C 
BRANCH  12  13
ATOM     13  C   UNL     1     100.246  96.984  96.485  1.00  0.00    -0.003 C 
ATOM     14  C   UNL     1      99.251  96.222  95.610  1.00  0.00     0.004 C 
ENDBRANCH  12  13
ENDBRANCH  11  12
ENDBRANCH  10  11
ENDBRANCH   9  10
ENDBRANCH   1   9
TORSDOF 10
ENDMDL
MODEL 5
REMARK VINA RESULT:    -4.143      1.209      3.223
REMARK INTER + INTRA:          -7.582
REMARK INTER:                  -6.674
REMARK INTRA:                  -0.908
REMARK UNBOUND:                -1.016
REMARK SMILES CCCCCCCCCCCC(=O)[O-]
REMARK SMILES IDX 7 1 8 2 9 3 10 4 11 5 12 6 13 7 14 8 6 9 5 10 4 11 3 12 2 13
REMARK SMILES IDX 1 14
REMARK H PARENT
REMARK Flexibility Score: inf
ROOT
ATOM      1  C   UNL     1     101.074  89.433  86.374  1.00  0.00     0.000 C 
ENDROOT
BRANCH   1   2
ATOM      2  C   UNL     1     100.492  88.048  86.711  1.00  0.00     0.000 C 
BRANCH   2   3
ATOM      3  C   UNL     1     100.069  87.919  88.182  1.00  0.00     0.000 C 
BRANCH   3   4
ATOM      4  C   UNL     1     101.281  88.055  89.116  1.00  0.00     0.006 C 
BRANCH   4   5
ATOM      5  C   UNL     1     101.101  87.270  90.422  1.00  0.00     0.053 C 
BRANCH   5   6
ATOM      6  C   UNL     1     101.965  87.811  91.520  1.00  0.00     0.041 C 
ATOM      7  O   UNL     1     103.142  87.391  91.664  1.00  0.00    -0.550 OA
ATOM      8  O   UNL     1     101.480  88.802  92.364  1.00  0.00    -0.550 OA
ENDBRANCH   5   6
ENDBRANCH   4   5
ENDBRANCH   3   4
ENDBRANCH   2   3
ENDBRANCH   1   2
BRANCH   1   9
ATOM      9  C   UNL     1     100.310  90.213  85.289  1.00  0.00     0.000 C 
BRANCH   9  10
ATOM     10  C   UNL     1      98.794  90.247  85.531  1.00  0.00    -0.000 C 
BRANCH  10  11
ATOM     11  C   UNL     1      98.341  91.642  85.988  1.00  0.00    -0.000 C 
BRANCH  11  12
ATOM     12  C   UNL     1      99.265  92.252  87.056  1.00  0.00    -0.000 C 
BRANCH  12  13
ATOM     13  C   UNL     1      98.671  92.302  88.475  1.00  0.00    -0.003 C 
ATOM     14  C   UNL     1      99.369  91.356  89.450  1.00  0.00     0.004 C 
ENDBRANCH  12  13
ENDBRANCH  11  12
ENDBRANCH  10  11
ENDBRANCH   9  10
ENDBRANCH   1   9
TORSDOF 10
ENDMDL
MODEL 6
REMARK VINA RESULT:    -4.058     10.654     12.198
REMARK INTER + INTRA:          -7.446
REMARK INTER:                  -6.672
REMARK INTRA:                  -0.774
REMARK UNBOUND:                -1.016
REMARK SMILES CCCCCCCCCCCC(=O)[O-]
REMARK SMILES IDX 7 1 8 2 9 3 10 4 11 5 12 6 13 7 14 8 6 9 5 10 4 11 3 12 2 13
REMARK SMILES IDX 1 14
REMARK H PARENT
REMARK Flexibility Score: inf
ROOT
ATOM      1  C   UNL     1     103.527  96.026  98.441  1.00  0.00     0.000 C 
ENDROOT
BRANCH   1   2
ATOM      2  C   UNL     1     103.915  97.206  97.532  1.00  0.00     0.000 C 
BRANCH   2   3
ATOM      3  C   UNL     1     105.134  96.904  96.647  1.00  0.00     0.000 C 
BRANCH   3   4
ATOM      4  C   UNL     1     105.037  97.650  95.308  1.00  0.00     0.006 C 
BRANCH   4   5
ATOM      5  C   UNL     1     103.692  98.369  95.138  1.00  0.00     0.053 C 
BRANCH   5   6
ATOM      6  C   UNL     1     103.872  99.785  94.681  1.00  0.00     0.041 C 
ATOM      7  O   UNL     1     102.868 100.495  94.413  1.00  0.00    -0.550 OA
ATOM      8  O   UNL     1     105.146 100.329  94.586  1.00  0.00    -0.550 OA
ENDBRANCH   5   6
ENDBRANCH   4   5
ENDBRANCH   3   4
ENDBRANCH   2   3
ENDBRANCH   1   2
BRANCH   1   9
ATOM      9  C   UNL     1     102.016  95.863  98.686  1.00  0.00     0.000 C 
BRANCH   9  10
ATOM     10  C   UNL     1     101.199  97.079  98.226  1.00  0.00    -0.000 C 
BRANCH  10  11
ATOM     11  C   UNL     1     100.107  96.663  97.230  1.00  0.00    -0.000 C 
BRANCH  11  12
ATOM     12  C   UNL     1      98.694  96.703  97.837  1.00  0.00    -0.000 C 
BRANCH  12  13
ATOM     13  C   UNL     1      98.126  95.332  98.247  1.00  0.00    -0.003 C 
ATOM     14  C   UNL     1      98.778  94.168  97.501  1.00  0.00     0.004 C 
ENDBRANCH  12  13
ENDBRANCH  11  12
ENDBRANCH  10  11
ENDBRANCH   9  10
ENDBRANCH   1   9
TORSDOF 10
ENDMDL
MODEL 7
REMARK VINA RESULT:    -4.034     10.307     12.250
REMARK INTER + INTRA:          -7.408
REMARK INTER:                  -6.588
REMARK INTRA:                  -0.820
REMARK UNBOUND:                -1.016
REMARK SMILES CCCCCCCCCCCC(=O)[O-]
REMARK SMILES IDX 7 1 8 2 9 3 10 4 11 5 12 6 13 7 14 8 6 9 5 10 4 11 3 12 2 13
REMARK SMILES IDX 1 14
REMARK H PARENT
REMARK Flexibility Score: inf
ROOT
ATOM      1  C   UNL     1     103.287  95.842  98.679  1.00  0.00     0.000 C 
ENDROOT
BRANCH   1   2
ATOM      2  C   UNL     1     104.421  95.899  97.640  1.00  0.00     0.000 C 
BRANCH   2   3
ATOM      3  C   UNL     1     104.816  97.335  97.262  1.00  0.00     0.000 C 
BRANCH   3   4
ATOM      4  C   UNL     1     104.550  97.604  95.774  1.00  0.00     0.006 C 
BRANCH   4   5
ATOM      5  C   UNL     1     105.842  97.619  94.946  1.00  0.00     0.053 C 
BRANCH   5   6
ATOM      6  C   UNL     1     106.499  98.966  94.964  1.00  0.00     0.041 C 
ATOM      7  O   UNL     1     105.845  99.993  94.648  1.00  0.00    -0.550 OA
ATOM      8  O   UNL     1     107.823  99.089  95.363  1.00  0.00    -0.550 OA
ENDBRANCH   5   6
ENDBRANCH   4   5
ENDBRANCH   3   4
ENDBRANCH   2   3
ENDBRANCH   1   2
BRANCH   1   9
ATOM      9  C   UNL     1     102.855  97.206  99.247  1.00  0.00     0.000 C 
BRANCH   9  10
ATOM     10  C   UNL     1     101.441  97.617  98.812  1.00  0.00    -0.000 C 
BRANCH  10  11
ATOM     11  C   UNL     1     100.792  96.524  97.949  1.00  0.00    -0.000 C 
BRANCH  11  12
ATOM     12  C   UNL     1     100.280  97.052  96.598  1.00  0.00    -0.000 C 
BRANCH  12  13
ATOM     13  C   UNL     1      99.228  96.163  95.912  1.00  0.00    -0.003 C 
ATOM     14  C   UNL     1      98.754  95.008  96.794  1.00  0.00     0.004 C 
ENDBRANCH  12  13
ENDBRANCH  11  12
ENDBRANCH  10  11
ENDBRANCH   9  10
ENDBRANCH   1   9
TORSDOF 10
ENDMDL
MODEL 8
REMARK VINA RESULT:    -4.033     11.368     12.626
REMARK INTER + INTRA:          -7.407
REMARK INTER:                  -6.285
REMARK INTRA:                  -1.122
REMARK UNBOUND:                -1.016
REMARK SMILES CCCCCCCCCCCC(=O)[O-]
REMARK SMILES IDX 7 1 8 2 9 3 10 4 11 5 12 6 13 7 14 8 6 9 5 10 4 11 3 12 2 13
REMARK SMILES IDX 1 14
REMARK H PARENT
REMARK Flexibility Score: inf
ROOT
ATOM      1  C   UNL     1     102.964  95.748  98.968  1.00  0.00     0.000 C 
ENDROOT
BRANCH   1   2
ATOM      2  C   UNL     1     104.156  95.706  97.996  1.00  0.00     0.000 C 
BRANCH   2   3
ATOM      3  C   UNL     1     104.372  97.033  97.254  1.00  0.00     0.000 C 
BRANCH   3   4
ATOM      4  C   UNL     1     105.712  97.031  96.503  1.00  0.00     0.006 C 
BRANCH   4   5
ATOM      5  C   UNL     1     105.595  97.647  95.102  1.00  0.00     0.053 C 
BRANCH   5   6
ATOM      6  C   UNL     1     106.158  99.034  95.055  1.00  0.00     0.041 C 
ATOM      7  O   UNL     1     105.391 100.030  95.087  1.00  0.00    -0.550 OA
ATOM      8  O   UNL     1     107.533  99.226  95.010  1.00  0.00    -0.550 OA
ENDBRANCH   5   6
ENDBRANCH   4   5
ENDBRANCH   3   4
ENDBRANCH   2   3
ENDBRANCH   1   2
BRANCH   1   9
ATOM      9  C   UNL     1     102.612  97.148  99.505  1.00  0.00     0.000 C 
BRANCH   9  10
ATOM     10  C   UNL     1     101.235  97.641  99.036  1.00  0.00    -0.000 C 
BRANCH  10  11
ATOM     11  C   UNL     1     100.658  96.714  97.956  1.00  0.00    -0.000 C 
BRANCH  11  12
ATOM     12  C   UNL     1     100.649  97.355  96.557  1.00  0.00    -0.000 C 
BRANCH  12  13
ATOM     13  C   UNL     1     100.734  98.892  96.549  1.00  0.00    -0.003 C 
ATOM     14  C   UNL     1     101.959  99.420  95.804  1.00  0.00     0.004 C 
ENDBRANCH  12  13
ENDBRANCH  11  12
ENDBRANCH  10  11
ENDBRANCH   9  10
ENDBRANCH   1   9
TORSDOF 10
ENDMDL
MODEL 9
REMARK VINA RESULT:    -4.020     11.105     12.322
REMARK INTER + INTRA:          -7.385
REMARK INTER:                  -6.379
REMARK INTRA:                  -1.006
REMARK UNBOUND:                -1.016
REMARK SMILES CCCCCCCCCCCC(=O)[O-]
REMARK SMILES IDX 7 1 8 2 9 3 10 4 11 5 12 6 13 7 14 8 6 9 5 10 4 11 3 12 2 13
REMARK SMILES IDX 1 14
REMARK H PARENT
REMARK Flexibility Score: inf
ROOT
ATOM      1  C   UNL     1     102.495  96.921  99.524  1.00  0.00     0.000 C 
ENDROOT
BRANCH   1   2
ATOM      2  C   UNL     1     101.199  97.517  98.946  1.00  0.00     0.000 C 
BRANCH   2   3
ATOM      3  C   UNL     1     100.464  96.551  98.004  1.00  0.00     0.000 C 
BRANCH   3   4
ATOM      4  C   UNL     1     100.410  97.113  96.575  1.00  0.00     0.006 C 
BRANCH   4   5
ATOM      5  C   UNL     1     100.802  98.595  96.518  1.00  0.00     0.053 C 
BRANCH   5   6
ATOM      6  C   UNL     1      99.738  99.427  95.869  1.00  0.00     0.041 C 
ATOM      7  O   UNL     1      98.616  98.924  95.603  1.00  0.00    -0.550 OA
ATOM      8  O   UNL     1      99.976 100.766  95.589  1.00  0.00    -0.550 OA
ENDBRANCH   5   6
ENDBRANCH   4   5
ENDBRANCH   3   4
ENDBRANCH   2   3
ENDBRANCH   1   2
BRANCH   1   9
ATOM      9  C   UNL     1     102.861  95.523  98.994  1.00  0.00     0.000 C 
BRANCH   9  10
ATOM     10  C   UNL     1     104.117  95.527  98.110  1.00  0.00    -0.000 C 
BRANCH  10  11
ATOM     11  C   UNL     1     104.281  96.876  97.394  1.00  0.00    -0.000 C 
BRANCH  11  12
ATOM     12  C   UNL     1     105.546  96.941  96.520  1.00  0.00    -0.000 C 
BRANCH  12  13
ATOM     13  C   UNL     1     105.343  97.581  95.135  1.00  0.00    -0.003 C 
ATOM     14  C   UNL     1     104.034  98.361  95.022  1.00  0.00     0.004 C 
ENDBRANCH  12  13
ENDBRANCH  11  12
ENDBRANCH  10  11
ENDBRANCH   9  10
ENDBRANCH   1   9
TORSDOF 10
ENDMDL
