MODEL 1
REMARK VINA RESULT:    -4.068      0.000      0.000
REMARK INTER + INTRA:         -13.094
REMARK INTER:                  -9.300
REMARK INTRA:                  -3.794
REMARK UNBOUND:                -3.794
REMARK SMILES CCCCCCCCCCCCCCCCCCCCCCCC(=O)[O-]
REMARK SMILES IDX 13 1 14 2 15 3 16 4 17 5 18 6 19 7 20 8 21 9 22 10 23 11
REMARK SMILES IDX 24 12 25 13 26 14 12 15 11 16 10 17 9 18 8 19 7 20 6 21 5 22
REMARK SMILES IDX 4 23 3 24 2 25 1 26
REMARK H PARENT
REMARK Flexibility Score: inf
ROOT
ATOM      1  C   UNL     1       1.578   4.488   6.536  1.00  0.00     0.000 C 
ENDROOT
BRANCH   1   2
ATOM      2  C   UNL     1       0.539   5.600   6.296  1.00  0.00     0.000 C 
BRANCH   2   3
ATOM      3  C   UNL     1      -0.875   5.105   5.944  1.00  0.00     0.000 C 
BRANCH   3   4
ATOM      4  C   UNL     1      -0.876   3.997   4.877  1.00  0.00     0.000 C 
BRANCH   4   5
ATOM      5  C   UNL     1      -1.501   2.688   5.388  1.00  0.00     0.000 C 
BRANCH   5   6
ATOM      6  C   UNL     1      -1.791   2.712   6.896  1.00  0.00     0.000 C 
BRANCH   6   7
ATOM      7  C   UNL     1      -3.268   2.406   7.173  1.00  0.00     0.000 C 
BRANCH   7   8
ATOM      8  C   UNL     1      -4.158   2.889   6.019  1.00  0.00     0.000 C 
BRANCH   8   9
ATOM      9  C   UNL     1      -4.900   4.193   6.351  1.00  0.00     0.000 C 
BRANCH   9  10
ATOM     10  C   UNL     1      -4.571   5.326   5.364  1.00  0.00     0.006 C 
BRANCH  10  11
ATOM     11  C   UNL     1      -4.668   6.710   6.021  1.00  0.00     0.053 C 
BRANCH  11  12
ATOM     12  C   UNL     1      -5.250   7.727   5.088  1.00  0.00     0.041 C 
ATOM     13  O   UNL     1      -5.694   8.817   5.534  1.00  0.00    -0.550 OA
ATOM     14  O   UNL     1      -5.275   7.481   3.721  1.00  0.00    -0.550 OA
ENDBRANCH  11  12
ENDBRANCH  10  11
ENDBRANCH   9  10
ENDBRANCH   8   9
ENDBRANCH   7   8
ENDBRANCH   6   7
ENDBRANCH   5   6
ENDBRANCH   4   5
ENDBRANCH   3   4
ENDBRANCH   2   3
ENDBRANCH   1   2
BRANCH   1  15
ATOM     15  C   UNL     1       1.576   3.960   7.982  1.00  0.00     0.000 C 
BRANCH  15  16
ATOM     16  C   UNL     1       1.746   2.429   8.049  1.00  0.00     0.000 C 
BRANCH  16  17
ATOM     17  C   UNL     1       2.164   1.784   6.713  1.00  0.00     0.000 C 
BRANCH  17  18
ATOM     18  C   UNL     1       1.396   0.493   6.367  1.00  0.00    -0.000 C 
BRANCH  18  19
ATOM     19  C   UNL     1       2.221  -0.775   6.652  1.00  0.00    -0.000 C 
BRANCH  19  20
ATOM     20  C   UNL     1       2.035  -1.292   8.087  1.00  0.00    -0.000 C 
BRANCH  20  21
ATOM     21  C   UNL     1       3.369  -1.433   8.838  1.00  0.00    -0.000 C 
BRANCH  21  22
ATOM     22  C   UNL     1       4.544  -0.997   7.956  1.00  0.00    -0.000 C 
BRANCH  22  23
ATOM     23  C   UNL     1       5.261   0.221   8.557  1.00  0.00    -0.000 C 
BRANCH  23  24
ATOM     24  C   UNL     1       5.591   1.302   7.511  1.00  0.00    -0.000 C 
BRANCH  24  25
ATOM     25  C   UNL     1       5.615   2.742   8.053  1.00  0.00    -0.003 C 
ATOM     26  C   UNL     1       5.238   3.785   7.002  1.00  0.00     0.004 C 
ENDBRANCH  24  25
ENDBRANCH  23  24
ENDBRANCH  22  23
ENDBRANCH  21  22
ENDBRANCH  20  21
ENDBRANCH  19  20
ENDBRANCH  18  19
ENDBRANCH  17  18
ENDBRANCH  16  17
ENDBRANCH  15  16
ENDBRANCH   1  15
TORSDOF 22
ENDMDL
MODEL 2
REMARK VINA RESULT:    -3.940      1.870      3.799
REMARK INTER + INTRA:         -12.801
REMARK INTER:                  -9.668
REMARK INTRA:                  -3.133
REMARK UNBOUND:                -3.794
REMARK SMILES CCCCCCCCCCCCCCCCCCCCCCCC(=O)[O-]
REMARK SMILES IDX 13 1 14 2 15 3 16 4 17 5 18 6 19 7 20 8 21 9 22 10 23 11
REMARK SMILES IDX 24 12 25 13 26 14 12 15 11 16 10 17 9 18 8 19 7 20 6 21 5 22
REMARK SMILES IDX 4 23 3 24 2 25 1 26
REMARK H PARENT
REMARK Flexibility Score: inf
ROOT
ATOM      1  C   UNL     1       1.344   1.572   7.909  1.00  0.00     0.000 C 
ENDROOT
BRANCH   1   2
ATOM      2  C   UNL     1       1.290   3.110   7.860  1.00  0.00     0.000 C 
BRANCH   2   3
ATOM      3  C   UNL     1       2.135   3.757   6.748  1.00  0.00     0.000 C 
BRANCH   3   4
ATOM      4  C   UNL     1       1.404   4.904   6.030  1.00  0.00     0.000 C 
BRANCH   4   5
ATOM      5  C   UNL     1      -0.122   4.834   6.207  1.00  0.00     0.000 C 
BRANCH   5   6
ATOM      6  C   UNL     1      -0.858   4.470   4.909  1.00  0.00     0.000 C 
BRANCH   6   7
ATOM      7  C   UNL     1      -1.345   3.017   4.946  1.00  0.00     0.000 C 
BRANCH   7   8
ATOM      8  C   UNL     1      -1.965   2.676   6.308  1.00  0.00     0.000 C 
BRANCH   8   9
ATOM      9  C   UNL     1      -3.409   2.163   6.188  1.00  0.00     0.000 C 
BRANCH   9  10
ATOM     10  C   UNL     1      -4.412   3.290   5.889  1.00  0.00     0.006 C 
BRANCH  10  11
ATOM     11  C   UNL     1      -4.344   4.415   6.932  1.00  0.00     0.053 C 
BRANCH  11  12
ATOM     12  C   UNL     1      -3.997   5.730   6.306  1.00  0.00     0.041 C 
ATOM     13  O   UNL     1      -4.421   6.017   5.156  1.00  0.00    -0.550 OA
ATOM     14  O   UNL     1      -3.229   6.652   7.006  1.00  0.00    -0.550 OA
ENDBRANCH  11  12
ENDBRANCH  10  11
ENDBRANCH   9  10
ENDBRANCH   8   9
ENDBRANCH   7   8
ENDBRANCH   6   7
ENDBRANCH   5   6
ENDBRANCH   4   5
ENDBRANCH   3   4
ENDBRANCH   2   3
ENDBRANCH   1   2
BRANCH   1  15
ATOM     15  C   UNL     1       1.457   0.926   6.515  1.00  0.00     0.000 C 
BRANCH  15  16
ATOM     16  C   UNL     1       2.732   0.071   6.365  1.00  0.00     0.000 C 
BRANCH  16  17
ATOM     17  C   UNL     1       3.792   0.327   7.454  1.00  0.00     0.000 C 
BRANCH  17  18
ATOM     18  C   UNL     1       4.900   1.315   7.037  1.00  0.00    -0.000 C 
BRANCH  18  19
ATOM     19  C   UNL     1       5.260   2.302   8.161  1.00  0.00    -0.000 C 
BRANCH  19  20
ATOM     20  C   UNL     1       6.732   2.742   8.114  1.00  0.00    -0.000 C 
BRANCH  20  21
ATOM     21  C   UNL     1       7.605   1.983   9.126  1.00  0.00    -0.000 C 
BRANCH  21  22
ATOM     22  C   UNL     1       8.351   0.828   8.450  1.00  0.00    -0.000 C 
BRANCH  22  23
ATOM     23  C   UNL     1       7.892  -0.527   9.011  1.00  0.00    -0.000 C 
BRANCH  23  24
ATOM     24  C   UNL     1       7.048  -1.338   8.010  1.00  0.00    -0.000 C 
BRANCH  24  25
ATOM     25  C   UNL     1       7.849  -2.314   7.129  1.00  0.00    -0.003 C 
ATOM     26  C   UNL     1       7.651  -3.777   7.521  1.00  0.00     0.004 C 
ENDBRANCH  24  25
ENDBRANCH  23  24
ENDBRANCH  22  23
ENDBRANCH  21  22
ENDBRANCH  20  21
ENDBRANCH  19  20
ENDBRANCH  18  19
ENDBRANCH  17  18
ENDBRANCH  16  17
ENDBRANCH  15  16
ENDBRANCH   1  15
TORSDOF 22
ENDMDL
MODEL 3
REMARK VINA RESULT:    -3.901      2.558      5.020
REMARK INTER + INTRA:         -12.713
REMARK INTER:                  -9.290
REMARK INTRA:                  -3.423
REMARK UNBOUND:                -3.794
REMARK SMILES CCCCCCCCCCCCCCCCCCCCCCCC(=O)[O-]
REMARK SMILES IDX 13 1 14 2 15 3 16 4 17 5 18 6 19 7 20 8 21 9 22 10 23 11
REMARK SMILES IDX 24 12 25 13 26 14 12 15 11 16 10 17 9 18 8 19 7 20 6 21 5 22
REMARK SMILES IDX 4 23 3 24 2 25 1 26
REMARK H PARENT
REMARK Flexibility Score: inf
ROOT
ATOM      1  C   UNL     1       3.010   0.359   6.382  1.00  0.00     0.000 C 
ENDROOT
BRANCH   1   2
ATOM      2  C   UNL     1       1.954  -0.001   7.443  1.00  0.00     0.000 C 
BRANCH   2   3
ATOM      3  C   UNL     1       2.227   0.559   8.850  1.00  0.00     0.000 C 
BRANCH   3   4
ATOM      4  C   UNL     1       1.227   1.651   9.266  1.00  0.00     0.000 C 
BRANCH   4   5
ATOM      5  C   UNL     1       1.807   3.068   9.120  1.00  0.00     0.000 C 
BRANCH   5   6
ATOM      6  C   UNL     1       1.242   3.823   7.908  1.00  0.00     0.000 C 
BRANCH   6   7
ATOM      7  C   UNL     1      -0.076   3.197   7.438  1.00  0.00     0.000 C 
BRANCH   7   8
ATOM      8  C   UNL     1       0.016   2.754   5.970  1.00  0.00     0.000 C 
BRANCH   8   9
ATOM      9  C   UNL     1      -1.136   3.305   5.115  1.00  0.00     0.000 C 
BRANCH   9  10
ATOM     10  C   UNL     1      -2.021   4.299   5.888  1.00  0.00     0.006 C 
BRANCH  10  11
ATOM     11  C   UNL     1      -3.482   3.834   5.962  1.00  0.00     0.053 C 
BRANCH  11  12
ATOM     12  C   UNL     1      -3.582   2.374   6.283  1.00  0.00     0.041 C 
ATOM     13  O   UNL     1      -3.785   1.535   5.367  1.00  0.00    -0.550 OA
ATOM     14  O   UNL     1      -3.421   1.938   7.593  1.00  0.00    -0.550 OA
ENDBRANCH  11  12
ENDBRANCH  10  11
ENDBRANCH   9  10
ENDBRANCH   8   9
ENDBRANCH   7   8
ENDBRANCH   6   7
ENDBRANCH   5   6
ENDBRANCH   4   5
ENDBRANCH   3   4
ENDBRANCH   2   3
ENDBRANCH   1   2
BRANCH   1  15
ATOM     15  C   UNL     1       4.187   1.172   6.951  1.00  0.00     0.000 C 
BRANCH  15  16
ATOM     16  C   UNL     1       4.285   2.579   6.329  1.00  0.00     0.000 C 
BRANCH  16  17
ATOM     17  C   UNL     1       5.078   3.590   7.181  1.00  0.00     0.000 C 
BRANCH  17  18
ATOM     18  C   UNL     1       5.559   3.033   8.536  1.00  0.00    -0.000 C 
BRANCH  18  19
ATOM     19  C   UNL     1       6.998   3.465   8.869  1.00  0.00    -0.000 C 
BRANCH  19  20
ATOM     20  C   UNL     1       8.028   2.360   8.587  1.00  0.00    -0.000 C 
BRANCH  20  21
ATOM     21  C   UNL     1       7.418   0.953   8.674  1.00  0.00    -0.000 C 
BRANCH  21  22
ATOM     22  C   UNL     1       8.463  -0.119   8.343  1.00  0.00    -0.000 C 
BRANCH  22  23
ATOM     23  C   UNL     1       7.874  -1.194   7.417  1.00  0.00    -0.000 C 
BRANCH  23  24
ATOM     24  C   UNL     1       7.408  -2.451   8.175  1.00  0.00    -0.000 C 
BRANCH  24  25
ATOM     25  C   UNL     1       5.980  -2.917   7.840  1.00  0.00    -0.003 C 
ATOM     26  C   UNL     1       4.900  -2.077   8.518  1.00  0.00     0.004 C 
ENDBRANCH  24  25
ENDBRANCH  23  24
ENDBRANCH  22  23
ENDBRANCH  21  22
ENDBRANCH  20  21
ENDBRANCH  19  20
ENDBRANCH  18  19
ENDBRANCH  17  18
ENDBRANCH  16  17
ENDBRANCH  15  16
ENDBRANCH   1  15
TORSDOF 22
ENDMDL
MODEL 4
REMARK VINA RESULT:    -3.882     13.538     15.231
REMARK INTER + INTRA:         -12.669
REMARK INTER:                  -8.866
REMARK INTRA:                  -3.803
REMARK UNBOUND:                -3.794
REMARK SMILES CCCCCCCCCCCCCCCCCCCCCCCC(=O)[O-]
REMARK SMILES IDX 13 1 14 2 15 3 16 4 17 5 18 6 19 7 20 8 21 9 22 10 23 11
REMARK SMILES IDX 24 12 25 13 26 14 12 15 11 16 10 17 9 18 8 19 7 20 6 21 5 22
REMARK SMILES IDX 4 23 3 24 2 25 1 26
REMARK H PARENT
REMARK Flexibility Score: inf
ROOT
ATOM      1  C   UNL     1      -2.001  -1.697  -7.522  1.00  0.00     0.000 C 
ENDROOT
BRANCH   1   2
ATOM      2  C   UNL     1      -2.128  -1.234  -6.059  1.00  0.00     0.000 C 
BRANCH   2   3
ATOM      3  C   UNL     1      -3.454  -0.533  -5.710  1.00  0.00     0.000 C 
BRANCH   3   4
ATOM      4  C   UNL     1      -4.199  -0.008  -6.948  1.00  0.00     0.000 C 
BRANCH   4   5
ATOM      5  C   UNL     1      -5.570  -0.678  -7.139  1.00  0.00     0.000 C 
BRANCH   5   6
ATOM      6  C   UNL     1      -5.647  -1.530  -8.415  1.00  0.00     0.000 C 
BRANCH   6   7
ATOM      7  C   UNL     1      -6.509  -2.778  -8.188  1.00  0.00     0.000 C 
BRANCH   7   8
ATOM      8  C   UNL     1      -6.033  -3.561  -6.956  1.00  0.00     0.000 C 
BRANCH   8   9
ATOM      9  C   UNL     1      -4.697  -4.282  -7.195  1.00  0.00     0.000 C 
BRANCH   9  10
ATOM     10  C   UNL     1      -3.877  -4.448  -5.904  1.00  0.00     0.006 C 
BRANCH  10  11
ATOM     11  C   UNL     1      -4.739  -4.271  -4.646  1.00  0.00     0.053 C 
BRANCH  11  12
ATOM     12  C   UNL     1      -5.043  -5.585  -3.994  1.00  0.00     0.041 C 
ATOM     13  O   UNL     1      -4.579  -5.848  -2.853  1.00  0.00    -0.550 OA
ATOM     14  O   UNL     1      -5.863  -6.506  -4.633  1.00  0.00    -0.550 OA
ENDBRANCH  11  12
ENDBRANCH  10  11
ENDBRANCH   9  10
ENDBRANCH   8   9
ENDBRANCH   7   8
ENDBRANCH   6   7
ENDBRANCH   5   6
ENDBRANCH   4   5
ENDBRANCH   3   4
ENDBRANCH   2   3
ENDBRANCH   1   2
BRANCH   1  15
ATOM     15  C   UNL     1      -0.807  -1.060  -8.256  1.00  0.00     0.000 C 
BRANCH  15  16
ATOM     16  C   UNL     1      -0.589   0.413  -7.858  1.00  0.00     0.000 C 
BRANCH  16  17
ATOM     17  C   UNL     1       0.893   0.813  -7.716  1.00  0.00     0.000 C 
BRANCH  17  18
ATOM     18  C   UNL     1       1.668   0.001  -6.659  1.00  0.00    -0.000 C 
BRANCH  18  19
ATOM     19  C   UNL     1       3.104  -0.325  -7.107  1.00  0.00    -0.000 C 
BRANCH  19  20
ATOM     20  C   UNL     1       3.386  -1.835  -7.135  1.00  0.00    -0.000 C 
BRANCH  20  21
ATOM     21  C   UNL     1       2.108  -2.675  -6.983  1.00  0.00    -0.000 C 
BRANCH  21  22
ATOM     22  C   UNL     1       2.445  -4.156  -6.781  1.00  0.00    -0.000 C 
BRANCH  22  23
ATOM     23  C   UNL     1       1.584  -4.770  -5.667  1.00  0.00    -0.000 C 
BRANCH  23  24
ATOM     24  C   UNL     1       0.140  -4.235  -5.660  1.00  0.00    -0.000 C 
BRANCH  24  25
ATOM     25  C   UNL     1      -0.313  -3.608  -4.329  1.00  0.00    -0.003 C 
ATOM     26  C   UNL     1      -1.188  -4.540  -3.493  1.00  0.00     0.004 C 
ENDBRANCH  24  25
ENDBRANCH  23  24
ENDBRANCH  22  23
ENDBRANCH  21  22
ENDBRANCH  20  21
ENDBRANCH  19  20
ENDBRANCH  18  19
ENDBRANCH  17  18
ENDBRANCH  16  17
ENDBRANCH  15  16
ENDBRANCH   1  15
TORSDOF 22
ENDMDL
MODEL 5
REMARK VINA RESULT:    -3.867      2.532      4.458
REMARK INTER + INTRA:         -12.634
REMARK INTER:                  -8.364
REMARK INTRA:                  -4.270
REMARK UNBOUND:                -3.794
REMARK SMILES CCCCCCCCCCCCCCCCCCCCCCCC(=O)[O-]
REMARK SMILES IDX 13 1 14 2 15 3 16 4 17 5 18 6 19 7 20 8 21 9 22 10 23 11
REMARK SMILES IDX 24 12 25 13 26 14 12 15 11 16 10 17 9 18 8 19 7 20 6 21 5 22
REMARK SMILES IDX 4 23 3 24 2 25 1 26
REMARK H PARENT
REMARK Flexibility Score: inf
ROOT
ATOM      1  C   UNL     1       5.529   2.244   8.019  1.00  0.00     0.000 C 
ENDROOT
BRANCH   1   2
ATOM      2  C   UNL     1       4.540   2.389   9.190  1.00  0.00     0.000 C 
BRANCH   2   3
ATOM      3  C   UNL     1       4.443   3.802   9.791  1.00  0.00     0.000 C 
BRANCH   3   4
ATOM      4  C   UNL     1       3.071   4.459   9.563  1.00  0.00     0.000 C 
BRANCH   4   5
ATOM      5  C   UNL     1       1.913   3.452   9.661  1.00  0.00     0.000 C 
BRANCH   5   6
ATOM      6  C   UNL     1       0.813   3.703   8.619  1.00  0.00     0.000 C 
BRANCH   6   7
ATOM      7  C   UNL     1       1.319   4.621   7.499  1.00  0.00     0.000 C 
BRANCH   7   8
ATOM      8  C   UNL     1       0.966   4.052   6.118  1.00  0.00     0.000 C 
BRANCH   8   9
ATOM      9  C   UNL     1       0.052   2.819   6.203  1.00  0.00     0.000 C 
BRANCH   9  10
ATOM     10  C   UNL     1      -1.103   2.870   5.187  1.00  0.00     0.006 C 
BRANCH  10  11
ATOM     11  C   UNL     1      -2.302   3.669   5.717  1.00  0.00     0.053 C 
BRANCH  11  12
ATOM     12  C   UNL     1      -3.359   2.771   6.281  1.00  0.00     0.041 C 
ATOM     13  O   UNL     1      -4.043   2.038   5.518  1.00  0.00    -0.550 OA
ATOM     14  O   UNL     1      -3.568   2.720   7.653  1.00  0.00    -0.550 OA
ENDBRANCH  11  12
ENDBRANCH  10  11
ENDBRANCH   9  10
ENDBRANCH   8   9
ENDBRANCH   7   8
ENDBRANCH   6   7
ENDBRANCH   5   6
ENDBRANCH   4   5
ENDBRANCH   3   4
ENDBRANCH   2   3
ENDBRANCH   1   2
BRANCH   1  15
ATOM     15  C   UNL     1       4.875   1.692   6.739  1.00  0.00     0.000 C 
BRANCH  15  16
ATOM     16  C   UNL     1       3.364   1.441   6.912  1.00  0.00     0.000 C 
BRANCH  16  17
ATOM     17  C   UNL     1       2.862   0.144   6.250  1.00  0.00     0.000 C 
BRANCH  17  18
ATOM     18  C   UNL     1       1.899  -0.682   7.127  1.00  0.00    -0.000 C 
BRANCH  18  19
ATOM     19  C   UNL     1       1.553   0.028   8.447  1.00  0.00    -0.000 C 
BRANCH  19  20
ATOM     20  C   UNL     1       2.273  -0.587   9.657  1.00  0.00    -0.000 C 
BRANCH  20  21
ATOM     21  C   UNL     1       3.102  -1.825   9.279  1.00  0.00    -0.000 C 
BRANCH  21  22
ATOM     22  C   UNL     1       4.603  -1.538   9.403  1.00  0.00    -0.000 C 
BRANCH  22  23
ATOM     23  C   UNL     1       5.325  -1.798   8.073  1.00  0.00    -0.000 C 
BRANCH  23  24
ATOM     24  C   UNL     1       6.828  -2.083   8.250  1.00  0.00    -0.000 C 
BRANCH  24  25
ATOM     25  C   UNL     1       7.763  -1.107   7.515  1.00  0.00    -0.003 C 
ATOM     26  C   UNL     1       8.420  -0.090   8.446  1.00  0.00     0.004 C 
ENDBRANCH  24  25
ENDBRANCH  23  24
ENDBRANCH  22  23
ENDBRANCH  21  22
ENDBRANCH  20  21
ENDBRANCH  19  20
ENDBRANCH  18  19
ENDBRANCH  17  18
ENDBRANCH  16  17
ENDBRANCH  15  16
ENDBRANCH   1  15
TORSDOF 22
ENDMDL
MODEL 6
REMARK VINA RESULT:    -3.860     13.708     15.017
REMARK INTER + INTRA:         -12.618
REMARK INTER:                  -9.214
REMARK INTRA:                  -3.404
REMARK UNBOUND:                -3.794
REMARK SMILES CCCCCCCCCCCCCCCCCCCCCCCC(=O)[O-]
REMARK SMILES IDX 13 1 14 2 15 3 16 4 17 5 18 6 19 7 20 8 21 9 22 10 23 11
REMARK SMILES IDX 24 12 25 13 26 14 12 15 11 16 10 17 9 18 8 19 7 20 6 21 5 22
REMARK SMILES IDX 4 23 3 24 2 25 1 26
REMARK H PARENT
REMARK Flexibility Score: inf
ROOT
ATOM      1  C   UNL     1      -1.872  -3.577  -6.423  1.00  0.00     0.000 C 
ENDROOT
BRANCH   1   2
ATOM      2  C   UNL     1      -1.890  -2.065  -6.716  1.00  0.00     0.000 C 
BRANCH   2   3
ATOM      3  C   UNL     1      -2.594  -1.203  -5.654  1.00  0.00     0.000 C 
BRANCH   3   4
ATOM      4  C   UNL     1      -3.499  -0.119  -6.264  1.00  0.00     0.000 C 
BRANCH   4   5
ATOM      5  C   UNL     1      -4.392  -0.663  -7.392  1.00  0.00     0.000 C 
BRANCH   5   6
ATOM      6  C   UNL     1      -5.595  -1.463  -6.869  1.00  0.00     0.000 C 
BRANCH   6   7
ATOM      7  C   UNL     1      -5.665  -2.843  -7.534  1.00  0.00     0.000 C 
BRANCH   7   8
ATOM      8  C   UNL     1      -5.434  -3.962  -6.508  1.00  0.00     0.000 C 
BRANCH   8   9
ATOM      9  C   UNL     1      -5.242  -3.423  -5.081  1.00  0.00     0.000 C 
BRANCH   9  10
ATOM     10  C   UNL     1      -4.847  -4.525  -4.083  1.00  0.00     0.006 C 
BRANCH  10  11
ATOM     11  C   UNL     1      -4.768  -5.906  -4.749  1.00  0.00     0.053 C 
BRANCH  11  12
ATOM     12  C   UNL     1      -5.895  -6.793  -4.319  1.00  0.00     0.041 C 
ATOM     13  O   UNL     1      -6.832  -7.060  -5.116  1.00  0.00    -0.550 OA
ATOM     14  O   UNL     1      -5.894  -7.351  -3.047  1.00  0.00    -0.550 OA
ENDBRANCH  11  12
ENDBRANCH  10  11
ENDBRANCH   9  10
ENDBRANCH   8   9
ENDBRANCH   7   8
ENDBRANCH   6   7
ENDBRANCH   5   6
ENDBRANCH   4   5
ENDBRANCH   3   4
ENDBRANCH   2   3
ENDBRANCH   1   2
BRANCH   1  15
ATOM     15  C   UNL     1      -1.346  -3.914  -5.015  1.00  0.00     0.000 C 
BRANCH  15  16
ATOM     16  C   UNL     1       0.156  -3.603  -4.860  1.00  0.00     0.000 C 
BRANCH  16  17
ATOM     17  C   UNL     1       1.078  -4.531  -5.674  1.00  0.00     0.000 C 
BRANCH  17  18
ATOM     18  C   UNL     1       1.590  -3.916  -6.992  1.00  0.00    -0.000 C 
BRANCH  18  19
ATOM     19  C   UNL     1       2.589  -2.771  -6.756  1.00  0.00    -0.000 C 
BRANCH  19  20
ATOM     20  C   UNL     1       2.238  -1.504  -7.553  1.00  0.00    -0.000 C 
BRANCH  20  21
ATOM     21  C   UNL     1       1.382  -0.519  -6.742  1.00  0.00    -0.000 C 
BRANCH  21  22
ATOM     22  C   UNL     1       2.078   0.841  -6.619  1.00  0.00    -0.000 C 
BRANCH  22  23
ATOM     23  C   UNL     1       3.091   1.045  -7.756  1.00  0.00    -0.000 C 
BRANCH  23  24
ATOM     24  C   UNL     1       4.497   1.414  -7.248  1.00  0.00    -0.000 C 
BRANCH  24  25
ATOM     25  C   UNL     1       4.901   0.750  -5.919  1.00  0.00    -0.003 C 
ATOM     26  C   UNL     1       5.623  -0.583  -6.110  1.00  0.00     0.004 C 
ENDBRANCH  24  25
ENDBRANCH  23  24
ENDBRANCH  22  23
ENDBRANCH  21  22
ENDBRANCH  20  21
ENDBRANCH  19  20
ENDBRANCH  18  19
ENDBRANCH  17  18
ENDBRANCH  16  17
ENDBRANCH  15  16
ENDBRANCH   1  15
TORSDOF 22
ENDMDL
MODEL 7
REMARK VINA RESULT:    -3.821      3.364      8.000
REMARK INTER + INTRA:         -12.530
REMARK INTER:                  -8.038
REMARK INTRA:                  -4.492
REMARK UNBOUND:                -3.794
REMARK SMILES CCCCCCCCCCCCCCCCCCCCCCCC(=O)[O-]
REMARK SMILES IDX 13 1 14 2 15 3 16 4 17 5 18 6 19 7 20 8 21 9 22 10 23 11
REMARK SMILES IDX 24 12 25 13 26 14 12 15 11 16 10 17 9 18 8 19 7 20 6 21 5 22
REMARK SMILES IDX 4 23 3 24 2 25 1 26
REMARK H PARENT
REMARK Flexibility Score: inf
ROOT
ATOM      1  C   UNL     1      -3.081   2.371   5.973  1.00  0.00     0.000 C 
ENDROOT
BRANCH   1   2
ATOM      2  C   UNL     1      -3.702   2.631   7.358  1.00  0.00     0.000 C 
BRANCH   2   3
ATOM      3  C   UNL     1      -2.690   2.795   8.506  1.00  0.00     0.000 C 
BRANCH   3   4
ATOM      4  C   UNL     1      -2.499   1.509   9.326  1.00  0.00     0.000 C 
BRANCH   4   5
ATOM      5  C   UNL     1      -1.018   1.201   9.604  1.00  0.00     0.000 C 
BRANCH   5   6
ATOM      6  C   UNL     1      -0.120   2.443   9.504  1.00  0.00     0.000 C 
BRANCH   6   7
ATOM      7  C   UNL     1       1.311   2.054   9.112  1.00  0.00     0.000 C 
BRANCH   7   8
ATOM      8  C   UNL     1       1.318   0.803   8.222  1.00  0.00     0.000 C 
BRANCH   8   9
ATOM      9  C   UNL     1       1.794   1.100   6.791  1.00  0.00     0.000 C 
BRANCH   9  10
ATOM     10  C   UNL     1       3.222   0.594   6.527  1.00  0.00     0.006 C 
BRANCH  10  11
ATOM     11  C   UNL     1       4.283   1.496   7.174  1.00  0.00     0.053 C 
BRANCH  11  12
ATOM     12  C   UNL     1       4.180   2.908   6.687  1.00  0.00     0.041 C 
ATOM     13  O   UNL     1       3.889   3.836   7.487  1.00  0.00    -0.550 OA
ATOM     14  O   UNL     1       4.436   3.204   5.354  1.00  0.00    -0.550 OA
ENDBRANCH  11  12
ENDBRANCH  10  11
ENDBRANCH   9  10
ENDBRANCH   8   9
ENDBRANCH   7   8
ENDBRANCH   6   7
ENDBRANCH   5   6
ENDBRANCH   4   5
ENDBRANCH   3   4
ENDBRANCH   2   3
ENDBRANCH   1   2
BRANCH   1  15
ATOM     15  C   UNL     1      -1.557   2.593   5.942  1.00  0.00     0.000 C 
BRANCH  15  16
ATOM     16  C   UNL     1      -1.113   3.449   4.739  1.00  0.00     0.000 C 
BRANCH  16  17
ATOM     17  C   UNL     1      -0.335   4.722   5.127  1.00  0.00     0.000 C 
BRANCH  17  18
ATOM     18  C   UNL     1       0.581   4.554   6.356  1.00  0.00    -0.000 C 
BRANCH  18  19
ATOM     19  C   UNL     1       0.356   5.653   7.409  1.00  0.00    -0.000 C 
BRANCH  19  20
ATOM     20  C   UNL     1       0.052   7.022   6.780  1.00  0.00    -0.000 C 
BRANCH  20  21
ATOM     21  C   UNL     1      -1.345   7.542   7.153  1.00  0.00    -0.000 C 
BRANCH  21  22
ATOM     22  C   UNL     1      -2.050   6.579   8.115  1.00  0.00    -0.000 C 
BRANCH  22  23
ATOM     23  C   UNL     1      -3.452   6.216   7.601  1.00  0.00    -0.000 C 
BRANCH  23  24
ATOM     24  C   UNL     1      -3.599   6.397   6.079  1.00  0.00    -0.000 C 
BRANCH  24  25
ATOM     25  C   UNL     1      -4.793   5.656   5.451  1.00  0.00    -0.003 C 
ATOM     26  C   UNL     1      -5.923   5.389   6.444  1.00  0.00     0.004 C 
ENDBRANCH  24  25
ENDBRANCH  23  24
ENDBRANCH  22  23
ENDBRANCH  21  22
ENDBRANCH  20  21
ENDBRANCH  19  20
ENDBRANCH  18  19
ENDBRANCH  17  18
ENDBRANCH  16  17
ENDBRANCH  15  16
ENDBRANCH   1  15
TORSDOF 22
ENDMDL
MODEL 8
REMARK VINA RESULT:    -3.809      3.812      9.442
REMARK INTER + INTRA:         -12.502
REMARK INTER:                  -8.241
REMARK INTRA:                  -4.261
REMARK UNBOUND:                -3.794
REMARK SMILES CCCCCCCCCCCCCCCCCCCCCCCC(=O)[O-]
REMARK SMILES IDX 13 1 14 2 15 3 16 4 17 5 18 6 19 7 20 8 21 9 22 10 23 11
REMARK SMILES IDX 24 12 25 13 26 14 12 15 11 16 10 17 9 18 8 19 7 20 6 21 5 22
REMARK SMILES IDX 4 23 3 24 2 25 1 26
REMARK H PARENT
REMARK Flexibility Score: inf
ROOT
ATOM      1  C   UNL     1      -2.706   2.245   5.705  1.00  0.00     0.000 C 
ENDROOT
BRANCH   1   2
ATOM      2  C   UNL     1      -1.264   2.654   5.354  1.00  0.00     0.000 C 
BRANCH   2   3
ATOM      3  C   UNL     1      -1.132   3.975   4.575  1.00  0.00     0.000 C 
BRANCH   3   4
ATOM      4  C   UNL     1      -0.232   5.002   5.283  1.00  0.00     0.000 C 
BRANCH   4   5
ATOM      5  C   UNL     1      -0.137   4.758   6.798  1.00  0.00     0.000 C 
BRANCH   5   6
ATOM      6  C   UNL     1       1.293   4.903   7.338  1.00  0.00     0.000 C 
BRANCH   6   7
ATOM      7  C   UNL     1       1.879   3.536   7.712  1.00  0.00     0.000 C 
BRANCH   7   8
ATOM      8  C   UNL     1       0.813   2.635   8.353  1.00  0.00     0.000 C 
BRANCH   8   9
ATOM      9  C   UNL     1       1.043   1.145   8.056  1.00  0.00     0.000 C 
BRANCH   9  10
ATOM     10  C   UNL     1       1.533   0.899   6.618  1.00  0.00     0.006 C 
BRANCH  10  11
ATOM     11  C   UNL     1       2.665  -0.136   6.564  1.00  0.00     0.053 C 
BRANCH  11  12
ATOM     12  C   UNL     1       3.976   0.456   6.980  1.00  0.00     0.041 C 
ATOM     13  O   UNL     1       4.440   1.459   6.377  1.00  0.00    -0.550 OA
ATOM     14  O   UNL     1       4.672  -0.083   8.056  1.00  0.00    -0.550 OA
ENDBRANCH  11  12
ENDBRANCH  10  11
ENDBRANCH   9  10
ENDBRANCH   8   9
ENDBRANCH   7   8
ENDBRANCH   6   7
ENDBRANCH   5   6
ENDBRANCH   4   5
ENDBRANCH   3   4
ENDBRANCH   2   3
ENDBRANCH   1   2
BRANCH   1  15
ATOM     15  C   UNL     1      -3.074   2.525   7.174  1.00  0.00     0.000 C 
BRANCH  15  16
ATOM     16  C   UNL     1      -3.983   3.760   7.327  1.00  0.00     0.000 C 
BRANCH  16  17
ATOM     17  C   UNL     1      -4.773   4.120   6.053  1.00  0.00     0.000 C 
BRANCH  17  18
ATOM     18  C   UNL     1      -4.460   5.522   5.491  1.00  0.00    -0.000 C 
BRANCH  18  19
ATOM     19  C   UNL     1      -3.560   6.343   6.430  1.00  0.00    -0.000 C 
BRANCH  19  20
ATOM     20  C   UNL     1      -3.878   7.846   6.391  1.00  0.00    -0.000 C 
BRANCH  20  21
ATOM     21  C   UNL     1      -5.168   8.152   5.614  1.00  0.00    -0.000 C 
BRANCH  21  22
ATOM     22  C   UNL     1      -6.055   9.135   6.388  1.00  0.00    -0.000 C 
BRANCH  22  23
ATOM     23  C   UNL     1      -6.810   8.421   7.519  1.00  0.00    -0.000 C 
BRANCH  23  24
ATOM     24  C   UNL     1      -7.554   7.160   7.042  1.00  0.00    -0.000 C 
BRANCH  24  25
ATOM     25  C   UNL     1      -7.324   5.907   7.906  1.00  0.00    -0.003 C 
ATOM     26  C   UNL     1      -6.331   6.137   9.044  1.00  0.00     0.004 C 
ENDBRANCH  24  25
ENDBRANCH  23  24
ENDBRANCH  22  23
ENDBRANCH  21  22
ENDBRANCH  20  21
ENDBRANCH  19  20
ENDBRANCH  18  19
ENDBRANCH  17  18
ENDBRANCH  16  17
ENDBRANCH  15  16
ENDBRANCH   1  15
TORSDOF 22
ENDMDL
MODEL 9
REMARK VINA RESULT:    -3.804     13.347     15.899
REMARK INTER + INTRA:         -12.491
REMARK INTER:                  -8.524
REMARK INTRA:                  -3.967
REMARK UNBOUND:                -3.794
REMARK SMILES CCCCCCCCCCCCCCCCCCCCCCCC(=O)[O-]
REMARK SMILES IDX 13 1 14 2 15 3 16 4 17 5 18 6 19 7 20 8 21 9 22 10 23 11
REMARK SMILES IDX 24 12 25 13 26 14 12 15 11 16 10 17 9 18 8 19 7 20 6 21 5 22
REMARK SMILES IDX 4 23 3 24 2 25 1 26
REMARK H PARENT
REMARK Flexibility Score: inf
ROOT
ATOM      1  C   UNL     1      -1.703  -2.649  -5.620  1.00  0.00     0.000 C 
ENDROOT
BRANCH   1   2
ATOM      2  C   UNL     1      -0.365  -2.871  -4.891  1.00  0.00     0.000 C 
BRANCH   2   3
ATOM      3  C   UNL     1      -0.055  -4.335  -4.529  1.00  0.00     0.000 C 
BRANCH   3   4
ATOM      4  C   UNL     1       1.138  -4.907  -5.314  1.00  0.00     0.000 C 
BRANCH   4   5
ATOM      5  C   UNL     1       0.827  -5.087  -6.810  1.00  0.00     0.000 C 
BRANCH   5   6
ATOM      6  C   UNL     1       1.679  -4.179  -7.710  1.00  0.00     0.000 C 
BRANCH   6   7
ATOM      7  C   UNL     1       2.987  -3.788  -7.013  1.00  0.00     0.000 C 
BRANCH   7   8
ATOM      8  C   UNL     1       3.162  -2.263  -6.984  1.00  0.00     0.000 C 
BRANCH   8   9
ATOM      9  C   UNL     1       1.916  -1.516  -7.485  1.00  0.00     0.000 C 
BRANCH   9  10
ATOM     10  C   UNL     1       2.215  -0.053  -7.855  1.00  0.00     0.006 C 
BRANCH  10  11
ATOM     11  C   UNL     1       1.641   0.931  -6.826  1.00  0.00     0.053 C 
BRANCH  11  12
ATOM     12  C   UNL     1       2.724   1.619  -6.054  1.00  0.00     0.041 C 
ATOM     13  O   UNL     1       2.488   2.702  -5.458  1.00  0.00    -0.550 OA
ATOM     14  O   UNL     1       3.987   1.047  -5.968  1.00  0.00    -0.550 OA
ENDBRANCH  11  12
ENDBRANCH  10  11
ENDBRANCH   9  10
ENDBRANCH   8   9
ENDBRANCH   7   8
ENDBRANCH   6   7
ENDBRANCH   5   6
ENDBRANCH   4   5
ENDBRANCH   3   4
ENDBRANCH   2   3
ENDBRANCH   1   2
BRANCH   1  15
ATOM     15  C   UNL     1      -1.558  -1.832  -6.917  1.00  0.00     0.000 C 
BRANCH  15  16
ATOM     16  C   UNL     1      -1.958  -0.355  -6.729  1.00  0.00     0.000 C 
BRANCH  16  17
ATOM     17  C   UNL     1      -3.384  -0.156  -6.178  1.00  0.00     0.000 C 
BRANCH  17  18
ATOM     18  C   UNL     1      -4.459   0.045  -7.265  1.00  0.00    -0.000 C 
BRANCH  18  19
ATOM     19  C   UNL     1      -5.518  -1.071  -7.256  1.00  0.00    -0.000 C 
BRANCH  19  20
ATOM     20  C   UNL     1      -5.056  -2.332  -8.003  1.00  0.00    -0.000 C 
BRANCH  20  21
ATOM     21  C   UNL     1      -4.862  -3.533  -7.063  1.00  0.00    -0.000 C 
BRANCH  21  22
ATOM     22  C   UNL     1      -5.676  -3.359  -5.776  1.00  0.00    -0.000 C 
BRANCH  22  23
ATOM     23  C   UNL     1      -4.854  -3.771  -4.546  1.00  0.00    -0.000 C 
BRANCH  23  24
ATOM     24  C   UNL     1      -4.787  -5.297  -4.351  1.00  0.00    -0.000 C 
BRANCH  24  25
ATOM     25  C   UNL     1      -3.364  -5.882  -4.300  1.00  0.00    -0.003 C 
ATOM     26  C   UNL     1      -2.896  -6.438  -5.643  1.00  0.00     0.004 C 
ENDBRANCH  24  25
ENDBRANCH  23  24
ENDBRANCH  22  23
ENDBRANCH  21  22
ENDBRANCH  20  21
ENDBRANCH  19  20
ENDBRANCH  18  19
ENDBRANCH  17  18
ENDBRANCH  16  17
ENDBRANCH  15  16
ENDBRANCH   1  15
TORSDOF 22
ENDMDL
