MODEL 1
REMARK VINA RESULT:    -5.836      0.000      0.000
REMARK INTER + INTRA:          -7.581
REMARK INTER:                  -7.201
REMARK INTRA:                  -0.380
REMARK UNBOUND:                -0.380
REMARK SMILES Oc1cc(O)c2cc(O)c(-c3cc(O)c(O)c(O)c3)[o+]c2c1
REMARK SMILES IDX 10 1 20 2 21 3 22 4 2 5 3 6 4 7 6 8 7 9 8 10 11 11 12 12
REMARK SMILES IDX 13 13 19 14 15 15 17 16 14 17 16 19 18 21 9 23 1 25 5 27
REMARK H PARENT 14 18 16 20 18 22 9 24 1 26 5 28
REMARK Flexibility Score: inf
ROOT
ATOM      1  C   UNL     1      -2.871  -1.573  23.330  1.00  0.00     0.402 A 
ATOM      2  O   UNL     1      -1.683  -1.205  22.858  1.00  0.00    -0.202 OA
ATOM      3  C   UNL     1      -0.546  -1.808  23.191  1.00  0.00     0.368 A 
ATOM      4  C   UNL     1       0.655  -1.347  22.646  1.00  0.00     0.162 A 
ATOM      5  C   UNL     1       1.864  -1.961  22.981  1.00  0.00     0.128 A 
ATOM      6  C   UNL     1       1.874  -3.041  23.867  1.00  0.00     0.093 A 
ATOM      7  C   UNL     1       0.685  -3.521  24.429  1.00  0.00     0.136 A 
ATOM      8  C   UNL     1      -0.547  -2.904  24.089  1.00  0.00     0.125 A 
ATOM      9  C   UNL     1      -1.788  -3.326  24.592  1.00  0.00     0.078 A 
ATOM     10  C   UNL     1      -2.960  -2.669  24.207  1.00  0.00     0.223 A 
ENDROOT
BRANCH   1  11
ATOM     11  C   UNL     1      -4.064  -0.815  22.891  1.00  0.00     0.091 A 
ATOM     12  C   UNL     1      -4.792  -1.192  21.751  1.00  0.00     0.068 A 
ATOM     13  C   UNL     1      -5.931  -0.479  21.363  1.00  0.00     0.162 A 
ATOM     14  C   UNL     1      -4.514   0.269  23.660  1.00  0.00     0.068 A 
ATOM     15  C   UNL     1      -6.364   0.620  22.124  1.00  0.00     0.200 A 
ATOM     16  C   UNL     1      -5.653   0.991  23.279  1.00  0.00     0.162 A 
BRANCH  13  17
ATOM     17  O   UNL     1      -6.623  -0.880  20.221  1.00  0.00    -0.504 OA
ATOM     18  H   UNL     1      -6.669  -0.305  19.388  1.00  0.00     0.293 HD
ENDBRANCH  13  17
BRANCH  15  19
ATOM     19  O   UNL     1      -7.499   1.329  21.728  1.00  0.00    -0.502 OA
ATOM     20  H   UNL     1      -7.816   2.159  22.218  1.00  0.00     0.293 HD
ENDBRANCH  15  19
BRANCH  16  21
ATOM     21  O   UNL     1      -6.082   2.075  24.044  1.00  0.00    -0.504 OA
ATOM     22  H   UNL     1      -6.500   2.893  23.618  1.00  0.00     0.293 HD
ENDBRANCH  16  21
ENDBRANCH   1  11
BRANCH  10  23
ATOM     23  O   UNL     1      -4.198  -3.120  24.668  1.00  0.00    -0.500 OA
ATOM     24  H   UNL     1      -4.689  -3.883  24.216  1.00  0.00     0.294 HD
ENDBRANCH  10  23
BRANCH   5  25
ATOM     25  O   UNL     1       3.065  -1.506  22.440  1.00  0.00    -0.507 OA
ATOM     26  H   UNL     1       3.921  -2.043  22.523  1.00  0.00     0.293 HD
ENDBRANCH   5  25
BRANCH   7  27
ATOM     27  O   UNL     1       0.780  -4.604  25.309  1.00  0.00    -0.507 OA
ATOM     28  H   UNL     1       0.172  -4.749  26.101  1.00  0.00     0.293 HD
ENDBRANCH   7  27
TORSDOF 7
ENDMDL
MODEL 2
REMARK VINA RESULT:    -5.818      0.076      1.796
REMARK INTER + INTRA:          -7.558
REMARK INTER:                  -7.175
REMARK INTRA:                  -0.383
REMARK UNBOUND:                -0.380
REMARK SMILES Oc1cc(O)c2cc(O)c(-c3cc(O)c(O)c(O)c3)[o+]c2c1
REMARK SMILES IDX 10 1 20 2 21 3 22 4 2 5 3 6 4 7 6 8 7 9 8 10 11 11 12 12
REMARK SMILES IDX 13 13 19 14 15 15 17 16 14 17 16 19 18 21 9 23 1 25 5 27
REMARK H PARENT 14 18 16 20 18 22 9 24 1 26 5 28
REMARK Flexibility Score: inf
ROOT
ATOM      1  C   UNL     1      -2.866  -1.633  23.397  1.00  0.00     0.402 A 
ATOM      2  O   UNL     1      -1.686  -1.263  22.907  1.00  0.00    -0.202 OA
ATOM      3  C   UNL     1      -0.544  -1.869  23.217  1.00  0.00     0.368 A 
ATOM      4  C   UNL     1       0.648  -1.406  22.654  1.00  0.00     0.162 A 
ATOM      5  C   UNL     1       1.862  -2.023  22.965  1.00  0.00     0.128 A 
ATOM      6  C   UNL     1       1.886  -3.108  23.845  1.00  0.00     0.093 A 
ATOM      7  C   UNL     1       0.706  -3.590  24.424  1.00  0.00     0.136 A 
ATOM      8  C   UNL     1      -0.531  -2.970  24.109  1.00  0.00     0.125 A 
ATOM      9  C   UNL     1      -1.763  -3.394  24.630  1.00  0.00     0.078 A 
ATOM     10  C   UNL     1      -2.941  -2.735  24.269  1.00  0.00     0.223 A 
ENDROOT
BRANCH   1  11
ATOM     11  C   UNL     1      -4.066  -0.872  22.982  1.00  0.00     0.091 A 
ATOM     12  C   UNL     1      -4.500   0.256  23.698  1.00  0.00     0.068 A 
ATOM     13  C   UNL     1      -5.623   0.979  23.279  1.00  0.00     0.162 A 
ATOM     14  C   UNL     1      -4.754  -1.248  21.818  1.00  0.00     0.068 A 
ATOM     15  C   UNL     1      -6.321   0.583  22.126  1.00  0.00     0.200 A 
ATOM     16  C   UNL     1      -5.881  -0.532  21.392  1.00  0.00     0.162 A 
BRANCH  13  17
ATOM     17  O   UNL     1      -6.026   2.089  24.020  1.00  0.00    -0.504 OA
ATOM     18  H   UNL     1      -5.719   2.242  24.973  1.00  0.00     0.293 HD
ENDBRANCH  13  17
BRANCH  15  19
ATOM     19  O   UNL     1      -7.443   1.306  21.717  1.00  0.00    -0.502 OA
ATOM     20  H   UNL     1      -7.367   2.201  21.247  1.00  0.00     0.293 HD
ENDBRANCH  15  19
BRANCH  16  21
ATOM     21  O   UNL     1      -6.563  -0.924  20.242  1.00  0.00    -0.504 OA
ATOM     22  H   UNL     1      -7.438  -0.492  19.970  1.00  0.00     0.293 HD
ENDBRANCH  16  21
ENDBRANCH   1  11
BRANCH  10  23
ATOM     23  O   UNL     1      -4.171  -3.188  24.747  1.00  0.00    -0.500 OA
ATOM     24  H   UNL     1      -4.238  -3.962  25.397  1.00  0.00     0.294 HD
ENDBRANCH  10  23
BRANCH   5  25
ATOM     25  O   UNL     1       3.054  -1.566  22.406  1.00  0.00    -0.507 OA
ATOM     26  H   UNL     1       3.101  -1.249  21.445  1.00  0.00     0.293 HD
ENDBRANCH   5  25
BRANCH   7  27
ATOM     27  O   UNL     1       0.815  -4.678  25.296  1.00  0.00    -0.507 OA
ATOM     28  H   UNL     1       0.233  -5.502  25.255  1.00  0.00     0.293 HD
ENDBRANCH   7  27
TORSDOF 7
ENDMDL
MODEL 3
REMARK VINA RESULT:    -5.561      1.259      7.100
REMARK INTER + INTRA:          -7.241
REMARK INTER:                  -6.859
REMARK INTRA:                  -0.382
REMARK UNBOUND:                -0.380
REMARK SMILES Oc1cc(O)c2cc(O)c(-c3cc(O)c(O)c(O)c3)[o+]c2c1
REMARK SMILES IDX 10 1 20 2 21 3 22 4 2 5 3 6 4 7 6 8 7 9 8 10 11 11 12 12
REMARK SMILES IDX 13 13 19 14 15 15 17 16 14 17 16 19 18 21 9 23 1 25 5 27
REMARK H PARENT 14 18 16 20 18 22 9 24 1 26 5 28
REMARK Flexibility Score: inf
ROOT
ATOM      1  C   UNL     1      -1.756  -1.487  23.627  1.00  0.00     0.402 A 
ATOM      2  O   UNL     1      -2.480  -1.464  22.511  1.00  0.00    -0.202 OA
ATOM      3  C   UNL     1      -3.635  -0.814  22.404  1.00  0.00     0.368 A 
ATOM      4  C   UNL     1      -4.327  -0.851  21.191  1.00  0.00     0.162 A 
ATOM      5  C   UNL     1      -5.545  -0.179  21.052  1.00  0.00     0.128 A 
ATOM      6  C   UNL     1      -6.073   0.533  22.131  1.00  0.00     0.093 A 
ATOM      7  C   UNL     1      -5.400   0.584  23.358  1.00  0.00     0.136 A 
ATOM      8  C   UNL     1      -4.162  -0.093  23.504  1.00  0.00     0.125 A 
ATOM      9  C   UNL     1      -3.412  -0.085  24.690  1.00  0.00     0.078 A 
ATOM     10  C   UNL     1      -2.197  -0.774  24.756  1.00  0.00     0.223 A 
ENDROOT
BRANCH   1  11
ATOM     11  C   UNL     1      -0.490  -2.255  23.624  1.00  0.00     0.091 A 
ATOM     12  C   UNL     1      -0.462  -3.618  23.961  1.00  0.00     0.068 A 
ATOM     13  C   UNL     1       0.739  -4.336  23.931  1.00  0.00     0.162 A 
ATOM     14  C   UNL     1       0.698  -1.626  23.221  1.00  0.00     0.068 A 
ATOM     15  C   UNL     1       1.930  -3.695  23.549  1.00  0.00     0.200 A 
ATOM     16  C   UNL     1       1.906  -2.336  23.190  1.00  0.00     0.162 A 
BRANCH  13  17
ATOM     17  O   UNL     1       0.728  -5.686  24.279  1.00  0.00    -0.504 OA
ATOM     18  H   UNL     1      -0.097  -6.140  24.652  1.00  0.00     0.293 HD
ENDBRANCH  13  17
BRANCH  15  19
ATOM     19  O   UNL     1       3.125  -4.416  23.526  1.00  0.00    -0.502 OA
ATOM     20  H   UNL     1       3.445  -4.956  24.322  1.00  0.00     0.293 HD
ENDBRANCH  15  19
BRANCH  16  21
ATOM     21  O   UNL     1       3.082  -1.696  22.802  1.00  0.00    -0.504 OA
ATOM     22  H   UNL     1       3.479  -1.828  21.879  1.00  0.00     0.293 HD
ENDBRANCH  16  21
ENDBRANCH   1  11
BRANCH  10  23
ATOM     23  O   UNL     1      -1.427  -0.724  25.919  1.00  0.00    -0.500 OA
ATOM     24  H   UNL     1      -0.428  -0.894  25.905  1.00  0.00     0.294 HD
ENDBRANCH  10  23
BRANCH   5  25
ATOM     25  O   UNL     1      -6.239  -0.212  19.844  1.00  0.00    -0.507 OA
ATOM     26  H   UNL     1      -5.830   0.145  18.988  1.00  0.00     0.293 HD
ENDBRANCH   5  25
BRANCH   7  27
ATOM     27  O   UNL     1      -5.998   1.316  24.390  1.00  0.00    -0.507 OA
ATOM     28  H   UNL     1      -5.534   1.572  25.248  1.00  0.00     0.293 HD
ENDBRANCH   7  27
TORSDOF 7
ENDMDL
MODEL 4
REMARK VINA RESULT:    -5.448      1.998      7.427
REMARK INTER + INTRA:          -7.103
REMARK INTER:                  -7.175
REMARK INTRA:                   0.073
REMARK UNBOUND:                -0.380
REMARK SMILES Oc1cc(O)c2cc(O)c(-c3cc(O)c(O)c(O)c3)[o+]c2c1
REMARK SMILES IDX 10 1 20 2 21 3 22 4 2 5 3 6 4 7 6 8 7 9 8 10 11 11 12 12
REMARK SMILES IDX 13 13 19 14 15 15 17 16 14 17 16 19 18 21 9 23 1 25 5 27
REMARK H PARENT 14 18 16 20 18 22 9 24 1 26 5 28
REMARK Flexibility Score: inf
ROOT
ATOM      1  C   UNL     1      -1.566  -1.213  21.443  1.00  0.00     0.402 A 
ATOM      2  O   UNL     1      -2.743  -0.866  21.956  1.00  0.00    -0.202 OA
ATOM      3  C   UNL     1      -3.735  -0.359  21.231  1.00  0.00     0.368 A 
ATOM      4  C   UNL     1      -4.935  -0.020  21.861  1.00  0.00     0.162 A 
ATOM      5  C   UNL     1      -5.994   0.516  21.122  1.00  0.00     0.128 A 
ATOM      6  C   UNL     1      -5.851   0.716  19.747  1.00  0.00     0.093 A 
ATOM      7  C   UNL     1      -4.658   0.386  19.092  1.00  0.00     0.136 A 
ATOM      8  C   UNL     1      -3.582  -0.162  19.836  1.00  0.00     0.125 A 
ATOM      9  C   UNL     1      -2.356  -0.535  19.263  1.00  0.00     0.078 A 
ATOM     10  C   UNL     1      -1.343  -1.073  20.061  1.00  0.00     0.223 A 
ENDROOT
BRANCH   1  11
ATOM     11  C   UNL     1      -0.537  -1.757  22.357  1.00  0.00     0.091 A 
ATOM     12  C   UNL     1       0.824  -1.453  22.189  1.00  0.00     0.068 A 
ATOM     13  C   UNL     1       1.782  -1.957  23.077  1.00  0.00     0.162 A 
ATOM     14  C   UNL     1      -0.931  -2.546  23.449  1.00  0.00     0.068 A 
ATOM     15  C   UNL     1       1.384  -2.766  24.154  1.00  0.00     0.200 A 
ATOM     16  C   UNL     1       0.021  -3.056  24.341  1.00  0.00     0.162 A 
BRANCH  13  17
ATOM     17  O   UNL     1       3.125  -1.639  22.873  1.00  0.00    -0.504 OA
ATOM     18  H   UNL     1       3.569  -1.731  21.968  1.00  0.00     0.293 HD
ENDBRANCH  13  17
BRANCH  15  19
ATOM     19  O   UNL     1       2.346  -3.268  25.032  1.00  0.00    -0.502 OA
ATOM     20  H   UNL     1       3.208  -2.773  25.229  1.00  0.00     0.293 HD
ENDBRANCH  15  19
BRANCH  16  21
ATOM     21  O   UNL     1      -0.382  -3.851  25.414  1.00  0.00    -0.504 OA
ATOM     22  H   UNL     1      -0.747  -3.445  26.267  1.00  0.00     0.293 HD
ENDBRANCH  16  21
ENDBRANCH   1  11
BRANCH  10  23
ATOM     23  O   UNL     1      -0.143  -1.489  19.483  1.00  0.00    -0.500 OA
ATOM     24  H   UNL     1      -0.009  -1.493  18.478  1.00  0.00     0.294 HD
ENDBRANCH  10  23
BRANCH   5  25
ATOM     25  O   UNL     1      -7.193   0.855  21.745  1.00  0.00    -0.507 OA
ATOM     26  H   UNL     1      -7.247   1.615  22.413  1.00  0.00     0.293 HD
ENDBRANCH   5  25
BRANCH   7  27
ATOM     27  O   UNL     1      -4.594   0.620  17.714  1.00  0.00    -0.507 OA
ATOM     28  H   UNL     1      -4.135   0.011  17.054  1.00  0.00     0.293 HD
ENDBRANCH   7  27
TORSDOF 7
ENDMDL
MODEL 5
REMARK VINA RESULT:    -5.427      1.950      7.513
REMARK INTER + INTRA:          -7.076
REMARK INTER:                  -6.693
REMARK INTRA:                  -0.383
REMARK UNBOUND:                -0.380
REMARK SMILES Oc1cc(O)c2cc(O)c(-c3cc(O)c(O)c(O)c3)[o+]c2c1
REMARK SMILES IDX 10 1 20 2 21 3 22 4 2 5 3 6 4 7 6 8 7 9 8 10 11 11 12 12
REMARK SMILES IDX 13 13 19 14 15 15 17 16 14 17 16 19 18 21 9 23 1 25 5 27
REMARK H PARENT 14 18 16 20 18 22 9 24 1 26 5 28
REMARK Flexibility Score: inf
ROOT
ATOM      1  C   UNL     1      -0.809  -1.682  22.299  1.00  0.00     0.402 A 
ATOM      2  O   UNL     1      -1.937  -1.258  22.862  1.00  0.00    -0.202 OA
ATOM      3  C   UNL     1      -2.904  -0.645  22.188  1.00  0.00     0.368 A 
ATOM      4  C   UNL     1      -4.052  -0.233  22.868  1.00  0.00     0.162 A 
ATOM      5  C   UNL     1      -5.084   0.416  22.184  1.00  0.00     0.128 A 
ATOM      6  C   UNL     1      -4.966   0.655  20.813  1.00  0.00     0.093 A 
ATOM      7  C   UNL     1      -3.825   0.253  20.108  1.00  0.00     0.136 A 
ATOM      8  C   UNL     1      -2.776  -0.409  20.796  1.00  0.00     0.125 A 
ATOM      9  C   UNL     1      -1.603  -0.860  20.170  1.00  0.00     0.078 A 
ATOM     10  C   UNL     1      -0.615  -1.509  20.916  1.00  0.00     0.223 A 
ENDROOT
BRANCH   1  11
ATOM     11  C   UNL     1       0.199  -2.343  23.159  1.00  0.00     0.091 A 
ATOM     12  C   UNL     1       1.195  -1.604  23.819  1.00  0.00     0.068 A 
ATOM     13  C   UNL     1       2.125  -2.242  24.647  1.00  0.00     0.162 A 
ATOM     14  C   UNL     1       0.125  -3.729  23.368  1.00  0.00     0.068 A 
ATOM     15  C   UNL     1       2.061  -3.633  24.834  1.00  0.00     0.200 A 
ATOM     16  C   UNL     1       1.054  -4.376  24.194  1.00  0.00     0.162 A 
BRANCH  13  17
ATOM     17  O   UNL     1       3.104  -1.475  25.280  1.00  0.00    -0.504 OA
ATOM     18  H   UNL     1       3.946  -1.886  25.662  1.00  0.00     0.293 HD
ENDBRANCH  13  17
BRANCH  15  19
ATOM     19  O   UNL     1       2.995  -4.262  25.658  1.00  0.00    -0.502 OA
ATOM     20  H   UNL     1       3.869  -4.631  25.300  1.00  0.00     0.293 HD
ENDBRANCH  15  19
BRANCH  16  21
ATOM     21  O   UNL     1       0.978  -5.756  24.382  1.00  0.00    -0.504 OA
ATOM     22  H   UNL     1       1.756  -6.284  24.760  1.00  0.00     0.293 HD
ENDBRANCH  16  21
ENDBRANCH   1  11
BRANCH  10  23
ATOM     23  O   UNL     1       0.528  -2.001  20.284  1.00  0.00    -0.500 OA
ATOM     24  H   UNL     1       1.363  -1.437  20.179  1.00  0.00     0.294 HD
ENDBRANCH  10  23
BRANCH   5  25
ATOM     25  O   UNL     1      -6.232   0.829  22.856  1.00  0.00    -0.507 OA
ATOM     26  H   UNL     1      -6.200   1.130  23.824  1.00  0.00     0.293 HD
ENDBRANCH   5  25
BRANCH   7  27
ATOM     27  O   UNL     1      -3.783   0.532  18.738  1.00  0.00    -0.507 OA
ATOM     28  H   UNL     1      -3.144   1.184  18.309  1.00  0.00     0.293 HD
ENDBRANCH   7  27
TORSDOF 7
ENDMDL
MODEL 6
REMARK VINA RESULT:    -5.380      5.425      6.947
REMARK INTER + INTRA:          -7.018
REMARK INTER:                  -6.767
REMARK INTRA:                  -0.250
REMARK UNBOUND:                -0.380
REMARK SMILES Oc1cc(O)c2cc(O)c(-c3cc(O)c(O)c(O)c3)[o+]c2c1
REMARK SMILES IDX 10 1 20 2 21 3 22 4 2 5 3 6 4 7 6 8 7 9 8 10 11 11 12 12
REMARK SMILES IDX 13 13 19 14 15 15 17 16 14 17 16 19 18 21 9 23 1 25 5 27
REMARK H PARENT 14 18 16 20 18 22 9 24 1 26 5 28
REMARK Flexibility Score: inf
ROOT
ATOM      1  C   UNL     1       1.753  -3.738  22.750  1.00  0.00     0.402 A 
ATOM      2  O   UNL     1       1.454  -3.075  21.637  1.00  0.00    -0.202 OA
ATOM      3  C   UNL     1       1.618  -3.581  20.419  1.00  0.00     0.368 A 
ATOM      4  C   UNL     1       1.279  -2.806  19.307  1.00  0.00     0.162 A 
ATOM      5  C   UNL     1       1.443  -3.313  18.016  1.00  0.00     0.128 A 
ATOM      6  C   UNL     1       1.951  -4.601  17.834  1.00  0.00     0.093 A 
ATOM      7  C   UNL     1       2.301  -5.398  18.931  1.00  0.00     0.136 A 
ATOM      8  C   UNL     1       2.132  -4.890  20.245  1.00  0.00     0.125 A 
ATOM      9  C   UNL     1       2.442  -5.621  21.403  1.00  0.00     0.078 A 
ATOM     10  C   UNL     1       2.245  -5.054  22.664  1.00  0.00     0.223 A 
ENDROOT
BRANCH   1  11
ATOM     11  C   UNL     1       1.535  -3.061  24.049  1.00  0.00     0.091 A 
ATOM     12  C   UNL     1       0.547  -3.500  24.945  1.00  0.00     0.068 A 
ATOM     13  C   UNL     1       0.369  -2.863  26.179  1.00  0.00     0.162 A 
ATOM     14  C   UNL     1       2.368  -1.995  24.420  1.00  0.00     0.068 A 
ATOM     15  C   UNL     1       1.191  -1.781  26.535  1.00  0.00     0.200 A 
ATOM     16  C   UNL     1       2.197  -1.350  25.652  1.00  0.00     0.162 A 
BRANCH  13  17
ATOM     17  O   UNL     1      -0.628  -3.324  27.039  1.00  0.00    -0.504 OA
ATOM     18  H   UNL     1      -1.581  -3.468  26.731  1.00  0.00     0.293 HD
ENDBRANCH  13  17
BRANCH  15  19
ATOM     19  O   UNL     1       1.005  -1.148  27.765  1.00  0.00    -0.502 OA
ATOM     20  H   UNL     1       0.886  -1.668  28.627  1.00  0.00     0.293 HD
ENDBRANCH  15  19
BRANCH  16  21
ATOM     21  O   UNL     1       3.022  -0.282  26.002  1.00  0.00    -0.504 OA
ATOM     22  H   UNL     1       3.667  -0.343  26.781  1.00  0.00     0.293 HD
ENDBRANCH  16  21
ENDBRANCH   1  11
BRANCH  10  23
ATOM     23  O   UNL     1       2.505  -5.798  23.815  1.00  0.00    -0.500 OA
ATOM     24  H   UNL     1       1.918  -6.577  24.090  1.00  0.00     0.294 HD
ENDBRANCH  10  23
BRANCH   5  25
ATOM     25  O   UNL     1       1.106  -2.545  16.903  1.00  0.00    -0.507 OA
ATOM     26  H   UNL     1       0.665  -2.957  16.089  1.00  0.00     0.293 HD
ENDBRANCH   5  25
BRANCH   7  27
ATOM     27  O   UNL     1       2.805  -6.675  18.664  1.00  0.00    -0.507 OA
ATOM     28  H   UNL     1       2.237  -7.473  18.423  1.00  0.00     0.293 HD
ENDBRANCH   7  27
TORSDOF 7
ENDMDL
MODEL 7
REMARK VINA RESULT:    -5.307      1.164      2.576
REMARK INTER + INTRA:          -6.928
REMARK INTER:                  -6.696
REMARK INTRA:                  -0.232
REMARK UNBOUND:                -0.380
REMARK SMILES Oc1cc(O)c2cc(O)c(-c3cc(O)c(O)c(O)c3)[o+]c2c1
REMARK SMILES IDX 10 1 20 2 21 3 22 4 2 5 3 6 4 7 6 8 7 9 8 10 11 11 12 12
REMARK SMILES IDX 13 13 19 14 15 15 17 16 14 17 16 19 18 21 9 23 1 25 5 27
REMARK H PARENT 14 18 16 20 18 22 9 24 1 26 5 28
REMARK Flexibility Score: inf
ROOT
ATOM      1  C   UNL     1      -2.244  -1.042  22.098  1.00  0.00     0.402 A 
ATOM      2  O   UNL     1      -1.929  -1.712  23.204  1.00  0.00    -0.202 OA
ATOM      3  C   UNL     1      -0.740  -2.271  23.406  1.00  0.00     0.368 A 
ATOM      4  C   UNL     1      -0.505  -2.958  24.599  1.00  0.00     0.162 A 
ATOM      5  C   UNL     1       0.736  -3.557  24.836  1.00  0.00     0.128 A 
ATOM      6  C   UNL     1       1.745  -3.470  23.874  1.00  0.00     0.093 A 
ATOM      7  C   UNL     1       1.534  -2.789  22.669  1.00  0.00     0.136 A 
ATOM      8  C   UNL     1       0.278  -2.176  22.425  1.00  0.00     0.125 A 
ATOM      9  C   UNL     1      -0.019  -1.461  21.254  1.00  0.00     0.078 A 
ATOM     10  C   UNL     1      -1.279  -0.880  21.087  1.00  0.00     0.223 A 
ENDROOT
BRANCH   1  11
ATOM     11  C   UNL     1      -3.606  -0.474  21.987  1.00  0.00     0.091 A 
ATOM     12  C   UNL     1      -4.490  -0.885  20.977  1.00  0.00     0.068 A 
ATOM     13  C   UNL     1      -5.783  -0.355  20.901  1.00  0.00     0.162 A 
ATOM     14  C   UNL     1      -4.046   0.454  22.944  1.00  0.00     0.068 A 
ATOM     15  C   UNL     1      -6.210   0.591  21.848  1.00  0.00     0.200 A 
ATOM     16  C   UNL     1      -5.338   0.993  22.874  1.00  0.00     0.162 A 
BRANCH  13  17
ATOM     17  O   UNL     1      -6.630  -0.784  19.879  1.00  0.00    -0.504 OA
ATOM     18  H   UNL     1      -7.344  -0.185  19.483  1.00  0.00     0.293 HD
ENDBRANCH  13  17
BRANCH  15  19
ATOM     19  O   UNL     1      -7.499   1.119  21.762  1.00  0.00    -0.502 OA
ATOM     20  H   UNL     1      -7.817   1.638  20.951  1.00  0.00     0.293 HD
ENDBRANCH  15  19
BRANCH  16  21
ATOM     21  O   UNL     1      -5.758   1.924  23.823  1.00  0.00    -0.504 OA
ATOM     22  H   UNL     1      -6.714   1.949  24.155  1.00  0.00     0.293 HD
ENDBRANCH  16  21
ENDBRANCH   1  11
BRANCH  10  23
ATOM     23  O   UNL     1      -1.557  -0.128  19.945  1.00  0.00    -0.500 OA
ATOM     24  H   UNL     1      -1.513   0.885  19.950  1.00  0.00     0.294 HD
ENDBRANCH  10  23
BRANCH   5  25
ATOM     25  O   UNL     1       0.977  -4.243  26.025  1.00  0.00    -0.507 OA
ATOM     26  H   UNL     1       1.136  -3.752  26.897  1.00  0.00     0.293 HD
ENDBRANCH   5  25
BRANCH   7  27
ATOM     27  O   UNL     1       2.594  -2.750  21.757  1.00  0.00    -0.507 OA
ATOM     28  H   UNL     1       3.512  -3.128  21.935  1.00  0.00     0.293 HD
ENDBRANCH   7  27
TORSDOF 7
ENDMDL
MODEL 8
REMARK VINA RESULT:    -5.276      1.862      6.738
REMARK INTER + INTRA:          -6.889
REMARK INTER:                  -6.541
REMARK INTRA:                  -0.349
REMARK UNBOUND:                -0.380
REMARK SMILES Oc1cc(O)c2cc(O)c(-c3cc(O)c(O)c(O)c3)[o+]c2c1
REMARK SMILES IDX 10 1 20 2 21 3 22 4 2 5 3 6 4 7 6 8 7 9 8 10 11 11 12 12
REMARK SMILES IDX 13 13 19 14 15 15 17 16 14 17 16 19 18 21 9 23 1 25 5 27
REMARK H PARENT 14 18 16 20 18 22 9 24 1 26 5 28
REMARK Flexibility Score: inf
ROOT
ATOM      1  C   UNL     1      -2.841  -1.214  23.385  1.00  0.00     0.402 A 
ATOM      2  O   UNL     1      -2.744  -0.926  22.090  1.00  0.00    -0.202 OA
ATOM      3  C   UNL     1      -3.748  -0.427  21.376  1.00  0.00     0.368 A 
ATOM      4  C   UNL     1      -3.552  -0.161  20.019  1.00  0.00     0.162 A 
ATOM      5  C   UNL     1      -4.591   0.362  19.244  1.00  0.00     0.128 A 
ATOM      6  C   UNL     1      -5.833   0.620  19.830  1.00  0.00     0.093 A 
ATOM      7  C   UNL     1      -6.056   0.360  21.187  1.00  0.00     0.136 A 
ATOM      8  C   UNL     1      -5.003  -0.167  21.980  1.00  0.00     0.125 A 
ATOM      9  C   UNL     1      -5.131  -0.445  23.350  1.00  0.00     0.078 A 
ATOM     10  C   UNL     1      -4.046  -0.960  24.065  1.00  0.00     0.223 A 
ENDROOT
BRANCH   1  11
ATOM     11  C   UNL     1      -1.654  -1.776  24.068  1.00  0.00     0.091 A 
ATOM     12  C   UNL     1      -1.309  -3.131  23.939  1.00  0.00     0.068 A 
ATOM     13  C   UNL     1      -0.170  -3.641  24.572  1.00  0.00     0.162 A 
ATOM     14  C   UNL     1      -0.821  -0.928  24.815  1.00  0.00     0.068 A 
ATOM     15  C   UNL     1       0.647  -2.793  25.338  1.00  0.00     0.200 A 
ATOM     16  C   UNL     1       0.320  -1.430  25.455  1.00  0.00     0.162 A 
BRANCH  13  17
ATOM     17  O   UNL     1       0.136  -4.995  24.425  1.00  0.00    -0.504 OA
ATOM     18  H   UNL     1       0.406  -5.392  23.534  1.00  0.00     0.293 HD
ENDBRANCH  13  17
BRANCH  15  19
ATOM     19  O   UNL     1       1.778  -3.310  25.970  1.00  0.00    -0.502 OA
ATOM     20  H   UNL     1       2.013  -3.081  26.930  1.00  0.00     0.293 HD
ENDBRANCH  15  19
BRANCH  16  21
ATOM     21  O   UNL     1       1.130  -0.581  26.206  1.00  0.00    -0.504 OA
ATOM     22  H   UNL     1       0.828  -0.210  27.099  1.00  0.00     0.293 HD
ENDBRANCH  16  21
ENDBRANCH   1  11
BRANCH  10  23
ATOM     23  O   UNL     1      -4.158  -1.189  25.437  1.00  0.00    -0.500 OA
ATOM     24  H   UNL     1      -5.016  -0.998  25.941  1.00  0.00     0.294 HD
ENDBRANCH  10  23
BRANCH   5  25
ATOM     25  O   UNL     1      -4.401   0.630  17.890  1.00  0.00    -0.507 OA
ATOM     26  H   UNL     1      -3.554   1.072  17.551  1.00  0.00     0.293 HD
ENDBRANCH   5  25
BRANCH   7  27
ATOM     27  O   UNL     1      -7.328   0.643  21.697  1.00  0.00    -0.507 OA
ATOM     28  H   UNL     1      -7.597   0.514  22.661  1.00  0.00     0.293 HD
ENDBRANCH   7  27
TORSDOF 7
ENDMDL
MODEL 9
REMARK VINA RESULT:    -5.275      1.793      6.978
REMARK INTER + INTRA:          -6.888
REMARK INTER:                  -6.531
REMARK INTRA:                  -0.357
REMARK UNBOUND:                -0.380
REMARK SMILES Oc1cc(O)c2cc(O)c(-c3cc(O)c(O)c(O)c3)[o+]c2c1
REMARK SMILES IDX 10 1 20 2 21 3 22 4 2 5 3 6 4 7 6 8 7 9 8 10 11 11 12 12
REMARK SMILES IDX 13 13 19 14 15 15 17 16 14 17 16 19 18 21 9 23 1 25 5 27
REMARK H PARENT 14 18 16 20 18 22 9 24 1 26 5 28
REMARK Flexibility Score: inf
ROOT
ATOM      1  C   UNL     1      -2.489  -1.253  23.379  1.00  0.00     0.402 A 
ATOM      2  O   UNL     1      -2.474  -0.968  22.080  1.00  0.00    -0.202 OA
ATOM      3  C   UNL     1      -3.519  -0.467  21.430  1.00  0.00     0.368 A 
ATOM      4  C   UNL     1      -3.408  -0.203  20.063  1.00  0.00     0.162 A 
ATOM      5  C   UNL     1      -4.493   0.322  19.354  1.00  0.00     0.128 A 
ATOM      6  C   UNL     1      -5.694   0.584  20.016  1.00  0.00     0.093 A 
ATOM      7  C   UNL     1      -5.832   0.328  21.386  1.00  0.00     0.136 A 
ATOM      8  C   UNL     1      -4.734  -0.202  22.111  1.00  0.00     0.125 A 
ATOM      9  C   UNL     1      -4.775  -0.478  23.487  1.00  0.00     0.078 A 
ATOM     10  C   UNL     1      -3.650  -0.995  24.133  1.00  0.00     0.223 A 
ENDROOT
BRANCH   1  11
ATOM     11  C   UNL     1      -1.264  -1.818  23.987  1.00  0.00     0.091 A 
ATOM     12  C   UNL     1      -0.354  -1.008  24.687  1.00  0.00     0.068 A 
ATOM     13  C   UNL     1       0.788  -1.563  25.276  1.00  0.00     0.162 A 
ATOM     14  C   UNL     1      -1.031  -3.200  23.914  1.00  0.00     0.068 A 
ATOM     15  C   UNL     1       1.028  -2.944  25.179  1.00  0.00     0.200 A 
ATOM     16  C   UNL     1       0.111  -3.764  24.499  1.00  0.00     0.162 A 
BRANCH  13  17
ATOM     17  O   UNL     1       1.671  -0.724  25.956  1.00  0.00    -0.504 OA
ATOM     18  H   UNL     1       2.644  -0.634  25.688  1.00  0.00     0.293 HD
ENDBRANCH  13  17
BRANCH  15  19
ATOM     19  O   UNL     1       2.171  -3.488  25.765  1.00  0.00    -0.502 OA
ATOM     20  H   UNL     1       2.852  -2.917  26.253  1.00  0.00     0.293 HD
ENDBRANCH  15  19
BRANCH  16  21
ATOM     21  O   UNL     1       0.337  -5.136  24.407  1.00  0.00    -0.504 OA
ATOM     22  H   UNL     1       0.517  -5.701  25.228  1.00  0.00     0.293 HD
ENDBRANCH  16  21
ENDBRANCH   1  11
BRANCH  10  23
ATOM     23  O   UNL     1      -3.675  -1.222  25.510  1.00  0.00    -0.500 OA
ATOM     24  H   UNL     1      -3.487  -0.481  26.175  1.00  0.00     0.294 HD
ENDBRANCH  10  23
BRANCH   5  25
ATOM     25  O   UNL     1      -4.388   0.588  17.991  1.00  0.00    -0.507 OA
ATOM     26  H   UNL     1      -4.829   1.399  17.573  1.00  0.00     0.293 HD
ENDBRANCH   5  25
BRANCH   7  27
ATOM     27  O   UNL     1      -7.069   0.614  21.974  1.00  0.00    -0.507 OA
ATOM     28  H   UNL     1      -7.202   0.807  22.955  1.00  0.00     0.293 HD
ENDBRANCH   7  27
TORSDOF 7
ENDMDL
