MODEL 1
REMARK VINA RESULT:     4.696      0.000      0.000
REMARK INTER + INTRA:           9.342
REMARK INTER:                  10.186
REMARK INTRA:                  -0.844
REMARK UNBOUND:                -0.844
REMARK SMILES CCCCCCCCCCCCCCCCCCCCCC(=O)[O-]
REMARK SMILES IDX 12 1 11 2 10 3 9 4 8 5 7 6 6 7 5 8 4 9 3 10 2 11 1 12 13 13
REMARK SMILES IDX 14 14 15 15 16 16 17 17 18 18 19 19 20 20 21 21 22 22 23 23
REMARK SMILES IDX 24 24
REMARK H PARENT
REMARK Flexibility Score: inf
ROOT
ATOM      1  C   UNL     1       2.465  63.423  -6.725  1.00  0.00     0.000 C 
ENDROOT
BRANCH   1   2
ATOM      2  C   UNL     1       2.163  64.864  -7.188  1.00  0.00     0.000 C 
BRANCH   2   3
ATOM      3  C   UNL     1       3.041  65.905  -6.474  1.00  0.00     0.000 C 
BRANCH   3   4
ATOM      4  C   UNL     1       2.226  67.068  -5.883  1.00  0.00    -0.000 C 
BRANCH   4   5
ATOM      5  C   UNL     1       0.844  67.289  -6.531  1.00  0.00    -0.000 C 
BRANCH   5   6
ATOM      6  C   UNL     1       0.503  68.755  -6.867  1.00  0.00    -0.000 C 
BRANCH   6   7
ATOM      7  C   UNL     1      -0.987  69.118  -6.737  1.00  0.00    -0.000 C 
BRANCH   7   8
ATOM      8  C   UNL     1      -1.496  69.034  -5.287  1.00  0.00    -0.000 C 
BRANCH   8   9
ATOM      9  C   UNL     1      -2.920  69.590  -5.133  1.00  0.00    -0.000 C 
BRANCH   9  10
ATOM     10  C   UNL     1      -3.593  69.868  -6.489  1.00  0.00    -0.000 C 
BRANCH  10  11
ATOM     11  C   UNL     1      -4.885  70.687  -6.350  1.00  0.00    -0.003 C 
ATOM     12  C   UNL     1      -4.643  72.192  -6.460  1.00  0.00     0.004 C 
ENDBRANCH  10  11
ENDBRANCH   9  10
ENDBRANCH   8   9
ENDBRANCH   7   8
ENDBRANCH   6   7
ENDBRANCH   5   6
ENDBRANCH   4   5
ENDBRANCH   3   4
ENDBRANCH   2   3
ENDBRANCH   1   2
BRANCH   1  13
ATOM     13  C   UNL     1       2.727  62.436  -7.879  1.00  0.00     0.000 C 
BRANCH  13  14
ATOM     14  C   UNL     1       2.507  60.948  -7.540  1.00  0.00     0.000 C 
BRANCH  14  15
ATOM     15  C   UNL     1       2.589  60.606  -6.037  1.00  0.00     0.000 C 
BRANCH  15  16
ATOM     16  C   UNL     1       1.407  59.765  -5.509  1.00  0.00     0.000 C 
BRANCH  16  17
ATOM     17  C   UNL     1       0.605  59.056  -6.616  1.00  0.00     0.000 C 
BRANCH  17  18
ATOM     18  C   UNL     1      -0.877  58.875  -6.238  1.00  0.00     0.000 C 
BRANCH  18  19
ATOM     19  C   UNL     1      -1.291  59.783  -5.068  1.00  0.00     0.000 C 
BRANCH  19  20
ATOM     20  C   UNL     1      -2.222  59.077  -4.054  1.00  0.00     0.006 C 
BRANCH  20  21
ATOM     21  C   UNL     1      -3.696  59.485  -4.192  1.00  0.00     0.053 C 
BRANCH  21  22
ATOM     22  C   UNL     1      -3.902  60.517  -5.257  1.00  0.00     0.041 C 
ATOM     23  O   UNL     1      -3.559  61.712  -5.054  1.00  0.00    -0.550 OA
ATOM     24  O   UNL     1      -4.503  60.167  -6.460  1.00  0.00    -0.550 OA
ENDBRANCH  21  22
ENDBRANCH  20  21
ENDBRANCH  19  20
ENDBRANCH  18  19
ENDBRANCH  17  18
ENDBRANCH  16  17
ENDBRANCH  15  16
ENDBRANCH  14  15
ENDBRANCH  13  14
ENDBRANCH   1  13
TORSDOF 20
ENDMDL
MODEL 2
REMARK VINA RESULT:     4.790      3.099      8.608
REMARK INTER + INTRA:           9.546
REMARK INTER:                  10.762
REMARK INTRA:                  -1.216
REMARK UNBOUND:                -0.844
REMARK SMILES CCCCCCCCCCCCCCCCCCCCCC(=O)[O-]
REMARK SMILES IDX 12 1 11 2 10 3 9 4 8 5 7 6 6 7 5 8 4 9 3 10 2 11 1 12 13 13
REMARK SMILES IDX 14 14 15 15 16 16 17 17 18 18 19 19 20 20 21 21 22 22 23 23
REMARK SMILES IDX 24 24
REMARK H PARENT
REMARK Flexibility Score: inf
ROOT
ATOM      1  C   UNL     1       2.758  61.957  -6.559  1.00  0.00     0.000 C 
ENDROOT
BRANCH   1   2
ATOM      2  C   UNL     1       2.602  60.644  -7.356  1.00  0.00     0.000 C 
BRANCH   2   3
ATOM      3  C   UNL     1       2.051  59.497  -6.492  1.00  0.00     0.000 C 
BRANCH   3   4
ATOM      4  C   UNL     1       0.666  59.013  -6.956  1.00  0.00    -0.000 C 
BRANCH   4   5
ATOM      5  C   UNL     1      -0.405  58.945  -5.849  1.00  0.00    -0.000 C 
BRANCH   5   6
ATOM      6  C   UNL     1      -0.660  60.268  -5.099  1.00  0.00    -0.000 C 
BRANCH   6   7
ATOM      7  C   UNL     1      -1.382  60.118  -3.748  1.00  0.00    -0.000 C 
BRANCH   7   8
ATOM      8  C   UNL     1      -2.734  59.394  -3.873  1.00  0.00    -0.000 C 
BRANCH   8   9
ATOM      9  C   UNL     1      -3.698  60.114  -4.829  1.00  0.00    -0.000 C 
BRANCH   9  10
ATOM     10  C   UNL     1      -4.654  59.139  -5.540  1.00  0.00    -0.000 C 
BRANCH  10  11
ATOM     11  C   UNL     1      -4.828  59.468  -7.031  1.00  0.00    -0.003 C 
ATOM     12  C   UNL     1      -3.496  59.710  -7.740  1.00  0.00     0.004 C 
ENDBRANCH  10  11
ENDBRANCH   9  10
ENDBRANCH   8   9
ENDBRANCH   7   8
ENDBRANCH   6   7
ENDBRANCH   5   6
ENDBRANCH   4   5
ENDBRANCH   3   4
ENDBRANCH   2   3
ENDBRANCH   1   2
BRANCH   1  13
ATOM     13  C   UNL     1       2.209  63.200  -7.288  1.00  0.00     0.000 C 
BRANCH  13  14
ATOM     14  C   UNL     1       3.060  64.477  -7.149  1.00  0.00     0.000 C 
BRANCH  14  15
ATOM     15  C   UNL     1       3.174  65.029  -5.712  1.00  0.00     0.000 C 
BRANCH  15  16
ATOM     16  C   UNL     1       3.896  66.388  -5.606  1.00  0.00     0.000 C 
BRANCH  16  17
ATOM     17  C   UNL     1       2.968  67.559  -5.232  1.00  0.00     0.000 C 
BRANCH  17  18
ATOM     18  C   UNL     1       1.626  67.504  -5.986  1.00  0.00     0.000 C 
BRANCH  18  19
ATOM     19  C   UNL     1       0.718  68.696  -5.639  1.00  0.00     0.000 C 
BRANCH  19  20
ATOM     20  C   UNL     1      -0.358  68.970  -6.715  1.00  0.00     0.006 C 
BRANCH  20  21
ATOM     21  C   UNL     1      -1.796  68.827  -6.192  1.00  0.00     0.053 C 
BRANCH  21  22
ATOM     22  C   UNL     1      -2.277  70.069  -5.510  1.00  0.00     0.041 C 
ATOM     23  O   UNL     1      -1.752  70.441  -4.427  1.00  0.00    -0.550 OA
ATOM     24  O   UNL     1      -3.329  70.798  -6.051  1.00  0.00    -0.550 OA
ENDBRANCH  21  22
ENDBRANCH  20  21
ENDBRANCH  19  20
ENDBRANCH  18  19
ENDBRANCH  17  18
ENDBRANCH  16  17
ENDBRANCH  15  16
ENDBRANCH  14  15
ENDBRANCH  13  14
ENDBRANCH   1  13
TORSDOF 20
ENDMDL
MODEL 3
REMARK VINA RESULT:     4.903      2.925      8.919
REMARK INTER + INTRA:           9.791
REMARK INTER:                  11.008
REMARK INTRA:                  -1.217
REMARK UNBOUND:                -0.844
REMARK SMILES CCCCCCCCCCCCCCCCCCCCCC(=O)[O-]
REMARK SMILES IDX 12 1 11 2 10 3 9 4 8 5 7 6 6 7 5 8 4 9 3 10 2 11 1 12 13 13
REMARK SMILES IDX 14 14 15 15 16 16 17 17 18 18 19 19 20 20 21 21 22 22 23 23
REMARK SMILES IDX 24 24
REMARK H PARENT
REMARK Flexibility Score: inf
ROOT
ATOM      1  C   UNL     1       2.541  64.484  -7.011  1.00  0.00     0.000 C 
ENDROOT
BRANCH   1   2
ATOM      2  C   UNL     1       2.674  62.966  -6.763  1.00  0.00     0.000 C 
BRANCH   2   3
ATOM      3  C   UNL     1       2.450  62.142  -8.042  1.00  0.00     0.000 C 
BRANCH   3   4
ATOM      4  C   UNL     1       3.006  60.711  -7.934  1.00  0.00    -0.000 C 
BRANCH   4   5
ATOM      5  C   UNL     1       3.512  60.313  -6.533  1.00  0.00    -0.000 C 
BRANCH   5   6
ATOM      6  C   UNL     1       2.788  59.114  -5.888  1.00  0.00    -0.000 C 
BRANCH   6   7
ATOM      7  C   UNL     1       1.948  59.458  -4.645  1.00  0.00    -0.000 C 
BRANCH   7   8
ATOM      8  C   UNL     1       0.744  60.359  -4.970  1.00  0.00    -0.000 C 
BRANCH   8   9
ATOM      9  C   UNL     1      -0.285  60.397  -3.830  1.00  0.00    -0.000 C 
BRANCH   9  10
ATOM     10  C   UNL     1      -1.735  60.392  -4.347  1.00  0.00    -0.000 C 
BRANCH  10  11
ATOM     11  C   UNL     1      -2.508  59.134  -3.921  1.00  0.00    -0.003 C 
ATOM     12  C   UNL     1      -3.986  59.192  -4.308  1.00  0.00     0.004 C 
ENDBRANCH  10  11
ENDBRANCH   9  10
ENDBRANCH   8   9
ENDBRANCH   7   8
ENDBRANCH   6   7
ENDBRANCH   5   6
ENDBRANCH   4   5
ENDBRANCH   3   4
ENDBRANCH   2   3
ENDBRANCH   1   2
BRANCH   1  13
ATOM     13  C   UNL     1       3.667  65.322  -6.375  1.00  0.00     0.000 C 
BRANCH  13  14
ATOM     14  C   UNL     1       3.252  66.173  -5.159  1.00  0.00     0.000 C 
BRANCH  14  15
ATOM     15  C   UNL     1       2.970  67.659  -5.470  1.00  0.00     0.000 C 
BRANCH  15  16
ATOM     16  C   UNL     1       1.484  68.061  -5.376  1.00  0.00     0.000 C 
BRANCH  16  17
ATOM     17  C   UNL     1       0.700  67.855  -6.686  1.00  0.00     0.000 C 
BRANCH  17  18
ATOM     18  C   UNL     1      -0.371  68.941  -6.902  1.00  0.00     0.000 C 
BRANCH  18  19
ATOM     19  C   UNL     1      -1.127  69.275  -5.605  1.00  0.00     0.000 C 
BRANCH  19  20
ATOM     20  C   UNL     1      -2.660  69.340  -5.797  1.00  0.00     0.006 C 
BRANCH  20  21
ATOM     21  C   UNL     1      -3.226  70.766  -5.711  1.00  0.00     0.053 C 
BRANCH  21  22
ATOM     22  C   UNL     1      -4.444  70.945  -6.561  1.00  0.00     0.041 C 
ATOM     23  O   UNL     1      -4.917  72.096  -6.756  1.00  0.00    -0.550 OA
ATOM     24  O   UNL     1      -5.079  69.838  -7.112  1.00  0.00    -0.550 OA
ENDBRANCH  21  22
ENDBRANCH  20  21
ENDBRANCH  19  20
ENDBRANCH  18  19
ENDBRANCH  17  18
ENDBRANCH  16  17
ENDBRANCH  15  16
ENDBRANCH  14  15
ENDBRANCH  13  14
ENDBRANCH   1  13
TORSDOF 20
ENDMDL
MODEL 4
REMARK VINA RESULT:     4.920      5.983      8.272
REMARK INTER + INTRA:           9.828
REMARK INTER:                   8.652
REMARK INTRA:                   1.175
REMARK UNBOUND:                -0.844
REMARK SMILES CCCCCCCCCCCCCCCCCCCCCC(=O)[O-]
REMARK SMILES IDX 12 1 11 2 10 3 9 4 8 5 7 6 6 7 5 8 4 9 3 10 2 11 1 12 13 13
REMARK SMILES IDX 14 14 15 15 16 16 17 17 18 18 19 19 20 20 21 21 22 22 23 23
REMARK SMILES IDX 24 24
REMARK H PARENT
REMARK Flexibility Score: inf
ROOT
ATOM      1  C   UNL     1       1.595  61.834  -1.907  1.00  0.00     0.000 C 
ENDROOT
BRANCH   1   2
ATOM      2  C   UNL     1       0.306  61.325  -2.586  1.00  0.00     0.000 C 
BRANCH   2   3
ATOM      3  C   UNL     1       0.489  61.101  -4.097  1.00  0.00     0.000 C 
BRANCH   3   4
ATOM      4  C   UNL     1       1.690  60.197  -4.425  1.00  0.00    -0.000 C 
BRANCH   4   5
ATOM      5  C   UNL     1       1.355  58.951  -5.270  1.00  0.00    -0.000 C 
BRANCH   5   6
ATOM      6  C   UNL     1       0.046  59.040  -6.080  1.00  0.00    -0.000 C 
BRANCH   6   7
ATOM      7  C   UNL     1       0.217  58.898  -7.603  1.00  0.00    -0.000 C 
BRANCH   7   8
ATOM      8  C   UNL     1       1.501  59.568  -8.122  1.00  0.00    -0.000 C 
BRANCH   8   9
ATOM      9  C   UNL     1       2.773  58.906  -7.570  1.00  0.00    -0.000 C 
BRANCH   9  10
ATOM     10  C   UNL     1       4.055  59.629  -8.022  1.00  0.00    -0.000 C 
BRANCH  10  11
ATOM     11  C   UNL     1       5.330  58.954  -7.493  1.00  0.00    -0.003 C 
ATOM     12  C   UNL     1       6.601  59.520  -8.125  1.00  0.00     0.004 C 
ENDBRANCH  10  11
ENDBRANCH   9  10
ENDBRANCH   8   9
ENDBRANCH   7   8
ENDBRANCH   6   7
ENDBRANCH   5   6
ENDBRANCH   4   5
ENDBRANCH   3   4
ENDBRANCH   2   3
ENDBRANCH   1   2
BRANCH   1  13
ATOM     13  C   UNL     1       1.522  61.861  -0.367  1.00  0.00     0.000 C 
BRANCH  13  14
ATOM     14  C   UNL     1       0.374  61.042   0.254  1.00  0.00     0.000 C 
BRANCH  14  15
ATOM     15  C   UNL     1       0.147  59.653  -0.381  1.00  0.00     0.000 C 
BRANCH  15  16
ATOM     16  C   UNL     1      -1.219  59.016  -0.052  1.00  0.00     0.000 C 
BRANCH  16  17
ATOM     17  C   UNL     1      -2.150  58.875  -1.271  1.00  0.00     0.000 C 
BRANCH  17  18
ATOM     18  C   UNL     1      -1.474  59.331  -2.577  1.00  0.00     0.000 C 
BRANCH  18  19
ATOM     19  C   UNL     1      -2.380  59.121  -3.802  1.00  0.00     0.000 C 
BRANCH  19  20
ATOM     20  C   UNL     1      -3.885  59.124  -3.449  1.00  0.00     0.006 C 
BRANCH  20  21
ATOM     21  C   UNL     1      -4.800  59.003  -4.677  1.00  0.00     0.053 C 
BRANCH  21  22
ATOM     22  C   UNL     1      -4.234  59.697  -5.877  1.00  0.00     0.041 C 
ATOM     23  O   UNL     1      -4.092  60.948  -5.876  1.00  0.00    -0.550 OA
ATOM     24  O   UNL     1      -3.895  58.966  -7.009  1.00  0.00    -0.550 OA
ENDBRANCH  21  22
ENDBRANCH  20  21
ENDBRANCH  19  20
ENDBRANCH  18  19
ENDBRANCH  17  18
ENDBRANCH  16  17
ENDBRANCH  15  16
ENDBRANCH  14  15
ENDBRANCH  13  14
ENDBRANCH   1  13
TORSDOF 20
ENDMDL
MODEL 5
REMARK VINA RESULT:     4.973      1.140      2.478
REMARK INTER + INTRA:           9.943
REMARK INTER:                  11.045
REMARK INTRA:                  -1.102
REMARK UNBOUND:                -0.844
REMARK SMILES CCCCCCCCCCCCCCCCCCCCCC(=O)[O-]
REMARK SMILES IDX 12 1 11 2 10 3 9 4 8 5 7 6 6 7 5 8 4 9 3 10 2 11 1 12 13 13
REMARK SMILES IDX 14 14 15 15 16 16 17 17 18 18 19 19 20 20 21 21 22 22 23 23
REMARK SMILES IDX 24 24
REMARK H PARENT
REMARK Flexibility Score: inf
ROOT
ATOM      1  C   UNL     1       3.436  61.113  -7.559  1.00  0.00     0.000 C 
ENDROOT
BRANCH   1   2
ATOM      2  C   UNL     1       2.495  62.308  -7.822  1.00  0.00     0.000 C 
BRANCH   2   3
ATOM      3  C   UNL     1       2.436  63.280  -6.631  1.00  0.00     0.000 C 
BRANCH   3   4
ATOM      4  C   UNL     1       2.731  64.735  -7.033  1.00  0.00    -0.000 C 
BRANCH   4   5
ATOM      5  C   UNL     1       3.362  65.601  -5.924  1.00  0.00    -0.000 C 
BRANCH   5   6
ATOM      6  C   UNL     1       2.722  66.991  -5.731  1.00  0.00    -0.000 C 
BRANCH   6   7
ATOM      7  C   UNL     1       1.384  67.194  -6.463  1.00  0.00    -0.000 C 
BRANCH   7   8
ATOM      8  C   UNL     1       0.805  68.605  -6.266  1.00  0.00    -0.000 C 
BRANCH   8   9
ATOM      9  C   UNL     1      -0.673  68.696  -6.678  1.00  0.00    -0.000 C 
BRANCH   9  10
ATOM     10  C   UNL     1      -1.494  69.584  -5.725  1.00  0.00    -0.000 C 
BRANCH  10  11
ATOM     11  C   UNL     1      -3.008  69.372  -5.883  1.00  0.00    -0.003 C 
ATOM     12  C   UNL     1      -3.744  70.654  -6.270  1.00  0.00     0.004 C 
ENDBRANCH  10  11
ENDBRANCH   9  10
ENDBRANCH   8   9
ENDBRANCH   7   8
ENDBRANCH   6   7
ENDBRANCH   5   6
ENDBRANCH   4   5
ENDBRANCH   3   4
ENDBRANCH   2   3
ENDBRANCH   1   2
BRANCH   1  13
ATOM     13  C   UNL     1       3.142  60.363  -6.244  1.00  0.00     0.000 C 
BRANCH  13  14
ATOM     14  C   UNL     1       2.292  59.085  -6.388  1.00  0.00     0.000 C 
BRANCH  14  15
ATOM     15  C   UNL     1       0.771  59.295  -6.230  1.00  0.00     0.000 C 
BRANCH  15  16
ATOM     16  C   UNL     1       0.380  60.559  -5.436  1.00  0.00     0.000 C 
BRANCH  16  17
ATOM     17  C   UNL     1       0.412  60.367  -3.908  1.00  0.00     0.000 C 
BRANCH  17  18
ATOM     18  C   UNL     1      -0.995  60.422  -3.283  1.00  0.00     0.000 C 
BRANCH  18  19
ATOM     19  C   UNL     1      -2.061  59.797  -4.200  1.00  0.00     0.000 C 
BRANCH  19  20
ATOM     20  C   UNL     1      -3.093  60.826  -4.716  1.00  0.00     0.006 C 
BRANCH  20  21
ATOM     21  C   UNL     1      -4.282  60.184  -5.447  1.00  0.00     0.053 C 
BRANCH  21  22
ATOM     22  C   UNL     1      -4.004  59.965  -6.901  1.00  0.00     0.041 C 
ATOM     23  O   UNL     1      -2.891  59.505  -7.270  1.00  0.00    -0.550 OA
ATOM     24  O   UNL     1      -4.960  60.300  -7.852  1.00  0.00    -0.550 OA
ENDBRANCH  21  22
ENDBRANCH  20  21
ENDBRANCH  19  20
ENDBRANCH  18  19
ENDBRANCH  17  18
ENDBRANCH  16  17
ENDBRANCH  15  16
ENDBRANCH  14  15
ENDBRANCH  13  14
ENDBRANCH   1  13
TORSDOF 20
ENDMDL
MODEL 6
REMARK VINA RESULT:     5.266      6.773      9.299
REMARK INTER + INTRA:          10.580
REMARK INTER:                  10.846
REMARK INTRA:                  -0.266
REMARK UNBOUND:                -0.844
REMARK SMILES CCCCCCCCCCCCCCCCCCCCCC(=O)[O-]
REMARK SMILES IDX 12 1 11 2 10 3 9 4 8 5 7 6 6 7 5 8 4 9 3 10 2 11 1 12 13 13
REMARK SMILES IDX 14 14 15 15 16 16 17 17 18 18 19 19 20 20 21 21 22 22 23 23
REMARK SMILES IDX 24 24
REMARK H PARENT
REMARK Flexibility Score: inf
ROOT
ATOM      1  C   UNL     1      -0.720  60.767  -6.353  1.00  0.00     0.000 C 
ENDROOT
BRANCH   1   2
ATOM      2  C   UNL     1      -2.213  61.008  -6.042  1.00  0.00     0.000 C 
BRANCH   2   3
ATOM      3  C   UNL     1      -3.136  60.446  -7.136  1.00  0.00     0.000 C 
BRANCH   3   4
ATOM      4  C   UNL     1      -4.626  60.706  -6.850  1.00  0.00    -0.000 C 
BRANCH   4   5
ATOM      5  C   UNL     1      -5.044  60.539  -5.375  1.00  0.00    -0.000 C 
BRANCH   5   6
ATOM      6  C   UNL     1      -4.660  59.191  -4.732  1.00  0.00    -0.000 C 
BRANCH   6   7
ATOM      7  C   UNL     1      -4.721  59.167  -3.194  1.00  0.00    -0.000 C 
BRANCH   7   8
ATOM      8  C   UNL     1      -3.346  58.927  -2.547  1.00  0.00    -0.000 C 
BRANCH   8   9
ATOM      9  C   UNL     1      -2.202  59.573  -3.345  1.00  0.00    -0.000 C 
BRANCH   9  10
ATOM     10  C   UNL     1      -1.468  60.662  -2.541  1.00  0.00    -0.000 C 
BRANCH  10  11
ATOM     11  C   UNL     1      -0.452  60.077  -1.548  1.00  0.00    -0.003 C 
ATOM     12  C   UNL     1       0.754  60.990  -1.331  1.00  0.00     0.004 C 
ENDBRANCH  10  11
ENDBRANCH   9  10
ENDBRANCH   8   9
ENDBRANCH   7   8
ENDBRANCH   6   7
ENDBRANCH   5   6
ENDBRANCH   4   5
ENDBRANCH   3   4
ENDBRANCH   2   3
ENDBRANCH   1   2
BRANCH   1  13
ATOM     13  C   UNL     1       0.001  59.885  -5.315  1.00  0.00     0.000 C 
BRANCH  13  14
ATOM     14  C   UNL     1       1.421  60.345  -4.929  1.00  0.00     0.000 C 
BRANCH  14  15
ATOM     15  C   UNL     1       2.559  59.432  -5.434  1.00  0.00     0.000 C 
BRANCH  15  16
ATOM     16  C   UNL     1       2.348  58.875  -6.857  1.00  0.00     0.000 C 
BRANCH  16  17
ATOM     17  C   UNL     1       2.584  59.910  -7.972  1.00  0.00     0.000 C 
BRANCH  17  18
ATOM     18  C   UNL     1       3.829  60.779  -7.708  1.00  0.00     0.000 C 
BRANCH  18  19
ATOM     19  C   UNL     1       4.999  59.957  -7.141  1.00  0.00     0.000 C 
BRANCH  19  20
ATOM     20  C   UNL     1       6.301  60.114  -7.960  1.00  0.00     0.006 C 
BRANCH  20  21
ATOM     21  C   UNL     1       7.414  59.147  -7.527  1.00  0.00     0.053 C 
BRANCH  21  22
ATOM     22  C   UNL     1       8.777  59.747  -7.680  1.00  0.00     0.041 C 
ATOM     23  O   UNL     1       9.801  59.071  -7.395  1.00  0.00    -0.550 OA
ATOM     24  O   UNL     1       8.916  61.063  -8.104  1.00  0.00    -0.550 OA
ENDBRANCH  21  22
ENDBRANCH  20  21
ENDBRANCH  19  20
ENDBRANCH  18  19
ENDBRANCH  17  18
ENDBRANCH  16  17
ENDBRANCH  15  16
ENDBRANCH  14  15
ENDBRANCH  13  14
ENDBRANCH   1  13
TORSDOF 20
ENDMDL
MODEL 7
REMARK VINA RESULT:     5.277      1.179      2.137
REMARK INTER + INTRA:          10.603
REMARK INTER:                  11.837
REMARK INTRA:                  -1.234
REMARK UNBOUND:                -0.844
REMARK SMILES CCCCCCCCCCCCCCCCCCCCCC(=O)[O-]
REMARK SMILES IDX 12 1 11 2 10 3 9 4 8 5 7 6 6 7 5 8 4 9 3 10 2 11 1 12 13 13
REMARK SMILES IDX 14 14 15 15 16 16 17 17 18 18 19 19 20 20 21 21 22 22 23 23
REMARK SMILES IDX 24 24
REMARK H PARENT
REMARK Flexibility Score: inf
ROOT
ATOM      1  C   UNL     1       3.798  65.812  -5.509  1.00  0.00     0.000 C 
ENDROOT
BRANCH   1   2
ATOM      2  C   UNL     1       3.033  67.152  -5.449  1.00  0.00     0.000 C 
BRANCH   2   3
ATOM      3  C   UNL     1       1.760  67.138  -6.312  1.00  0.00     0.000 C 
BRANCH   3   4
ATOM      4  C   UNL     1       0.796  68.288  -5.971  1.00  0.00    -0.000 C 
BRANCH   4   5
ATOM      5  C   UNL     1      -0.225  68.629  -7.075  1.00  0.00    -0.000 C 
BRANCH   5   6
ATOM      6  C   UNL     1      -1.628  69.025  -6.573  1.00  0.00    -0.000 C 
BRANCH   6   7
ATOM      7  C   UNL     1      -1.691  69.446  -5.094  1.00  0.00    -0.000 C 
BRANCH   7   8
ATOM      8  C   UNL     1      -2.424  70.782  -4.885  1.00  0.00    -0.000 C 
BRANCH   8   9
ATOM      9  C   UNL     1      -3.896  70.718  -5.322  1.00  0.00    -0.000 C 
BRANCH   9  10
ATOM     10  C   UNL     1      -4.205  71.676  -6.486  1.00  0.00    -0.000 C 
BRANCH  10  11
ATOM     11  C   UNL     1      -5.123  71.042  -7.543  1.00  0.00    -0.003 C 
ATOM     12  C   UNL     1      -5.125  69.515  -7.482  1.00  0.00     0.004 C 
ENDBRANCH  10  11
ENDBRANCH   9  10
ENDBRANCH   8   9
ENDBRANCH   7   8
ENDBRANCH   6   7
ENDBRANCH   5   6
ENDBRANCH   4   5
ENDBRANCH   3   4
ENDBRANCH   2   3
ENDBRANCH   1   2
BRANCH   1  13
ATOM     13  C   UNL     1       3.142  64.758  -6.422  1.00  0.00     0.000 C 
BRANCH  13  14
ATOM     14  C   UNL     1       3.152  63.315  -5.878  1.00  0.00     0.000 C 
BRANCH  14  15
ATOM     15  C   UNL     1       2.361  62.295  -6.725  1.00  0.00     0.000 C 
BRANCH  15  16
ATOM     16  C   UNL     1       2.857  60.840  -6.599  1.00  0.00     0.000 C 
BRANCH  16  17
ATOM     17  C   UNL     1       2.197  60.055  -5.450  1.00  0.00     0.000 C 
BRANCH  17  18
ATOM     18  C   UNL     1       0.676  60.287  -5.383  1.00  0.00     0.000 C 
BRANCH  18  19
ATOM     19  C   UNL     1       0.203  60.623  -3.958  1.00  0.00     0.000 C 
BRANCH  19  20
ATOM     20  C   UNL     1      -1.278  60.253  -3.709  1.00  0.00     0.006 C 
BRANCH  20  21
ATOM     21  C   UNL     1      -1.861  59.316  -4.778  1.00  0.00     0.053 C 
BRANCH  21  22
ATOM     22  C   UNL     1      -3.255  59.697  -5.167  1.00  0.00     0.041 C 
ATOM     23  O   UNL     1      -4.236  59.280  -4.497  1.00  0.00    -0.550 OA
ATOM     24  O   UNL     1      -3.474  60.487  -6.289  1.00  0.00    -0.550 OA
ENDBRANCH  21  22
ENDBRANCH  20  21
ENDBRANCH  19  20
ENDBRANCH  18  19
ENDBRANCH  17  18
ENDBRANCH  16  17
ENDBRANCH  15  16
ENDBRANCH  14  15
ENDBRANCH  13  14
ENDBRANCH   1  13
TORSDOF 20
ENDMDL
MODEL 8
REMARK VINA RESULT:     5.639      1.306      1.894
REMARK INTER + INTRA:          11.389
REMARK INTER:                  12.668
REMARK INTRA:                  -1.279
REMARK UNBOUND:                -0.844
REMARK SMILES CCCCCCCCCCCCCCCCCCCCCC(=O)[O-]
REMARK SMILES IDX 12 1 11 2 10 3 9 4 8 5 7 6 6 7 5 8 4 9 3 10 2 11 1 12 13 13
REMARK SMILES IDX 14 14 15 15 16 16 17 17 18 18 19 19 20 20 21 21 22 22 23 23
REMARK SMILES IDX 24 24
REMARK H PARENT
REMARK Flexibility Score: inf
ROOT
ATOM      1  C   UNL     1       2.339  64.236  -7.388  1.00  0.00     0.000 C 
ENDROOT
BRANCH   1   2
ATOM      2  C   UNL     1       3.464  65.193  -6.939  1.00  0.00     0.000 C 
BRANCH   2   3
ATOM      3  C   UNL     1       3.331  65.602  -5.463  1.00  0.00     0.000 C 
BRANCH   3   4
ATOM      4  C   UNL     1       3.899  67.004  -5.178  1.00  0.00    -0.000 C 
BRANCH   4   5
ATOM      5  C   UNL     1       2.845  68.125  -5.083  1.00  0.00    -0.000 C 
BRANCH   5   6
ATOM      6  C   UNL     1       1.508  67.834  -5.795  1.00  0.00    -0.000 C 
BRANCH   6   7
ATOM      7  C   UNL     1       0.854  69.054  -6.468  1.00  0.00    -0.000 C 
BRANCH   7   8
ATOM      8  C   UNL     1      -0.507  68.724  -7.104  1.00  0.00    -0.000 C 
BRANCH   8   9
ATOM      9  C   UNL     1      -1.603  68.484  -6.053  1.00  0.00    -0.000 C 
BRANCH   9  10
ATOM     10  C   UNL     1      -2.527  69.703  -5.880  1.00  0.00    -0.000 C 
BRANCH  10  11
ATOM     11  C   UNL     1      -2.061  70.642  -4.756  1.00  0.00    -0.003 C 
ATOM     12  C   UNL     1      -1.426  69.890  -3.587  1.00  0.00     0.004 C 
ENDBRANCH  10  11
ENDBRANCH   9  10
ENDBRANCH   8   9
ENDBRANCH   7   8
ENDBRANCH   6   7
ENDBRANCH   5   6
ENDBRANCH   4   5
ENDBRANCH   3   4
ENDBRANCH   2   3
ENDBRANCH   1   2
BRANCH   1  13
ATOM     13  C   UNL     1       2.750  62.751  -7.406  1.00  0.00     0.000 C 
BRANCH  13  14
ATOM     14  C   UNL     1       2.087  61.869  -6.330  1.00  0.00     0.000 C 
BRANCH  14  15
ATOM     15  C   UNL     1       2.705  60.463  -6.170  1.00  0.00     0.000 C 
BRANCH  15  16
ATOM     16  C   UNL     1       1.899  59.511  -5.262  1.00  0.00     0.000 C 
BRANCH  16  17
ATOM     17  C   UNL     1       0.380  59.762  -5.290  1.00  0.00     0.000 C 
BRANCH  17  18
ATOM     18  C   UNL     1      -0.147  60.306  -3.950  1.00  0.00     0.000 C 
BRANCH  18  19
ATOM     19  C   UNL     1      -1.678  60.456  -3.947  1.00  0.00     0.000 C 
BRANCH  19  20
ATOM     20  C   UNL     1      -2.419  59.100  -3.898  1.00  0.00     0.006 C 
BRANCH  20  21
ATOM     21  C   UNL     1      -3.776  59.120  -4.619  1.00  0.00     0.053 C 
BRANCH  21  22
ATOM     22  C   UNL     1      -3.731  59.908  -5.891  1.00  0.00     0.041 C 
ATOM     23  O   UNL     1      -4.318  61.020  -5.967  1.00  0.00    -0.550 OA
ATOM     24  O   UNL     1      -3.070  59.401  -7.002  1.00  0.00    -0.550 OA
ENDBRANCH  21  22
ENDBRANCH  20  21
ENDBRANCH  19  20
ENDBRANCH  18  19
ENDBRANCH  17  18
ENDBRANCH  16  17
ENDBRANCH  15  16
ENDBRANCH  14  15
ENDBRANCH  13  14
ENDBRANCH   1  13
TORSDOF 20
ENDMDL
