MODEL 1
REMARK VINA RESULT:    -4.708      0.000      0.000
REMARK INTER + INTRA:         -10.060
REMARK INTER:                  -8.837
REMARK INTRA:                  -1.223
REMARK UNBOUND:                -1.223
REMARK SMILES CCCCCCCCC=CCCCCCCCC(=O)[O-]
REMARK SMILES IDX 10 1 9 2 11 3 12 4 13 5 14 6 15 7 16 8 17 9 18 10 19 11
REMARK SMILES IDX 20 12 8 13 7 14 6 15 5 16 4 17 3 18 2 19 1 20
REMARK H PARENT
REMARK Flexibility Score: inf
ROOT
ATOM      1  C   UNL     1      44.259  27.243   2.631  1.00  0.00    -0.031 C 
ATOM      2  C   UNL     1      44.533  26.502   3.722  1.00  0.00    -0.031 C 
ENDROOT
BRANCH   1   3
ATOM      3  C   UNL     1      45.242  27.589   1.538  1.00  0.00     0.027 C 
BRANCH   3   4
ATOM      4  C   UNL     1      45.493  29.102   1.391  1.00  0.00     0.004 C 
BRANCH   4   5
ATOM      5  C   UNL     1      45.558  29.594  -0.067  1.00  0.00     0.000 C 
BRANCH   5   6
ATOM      6  C   UNL     1      45.737  28.459  -1.097  1.00  0.00     0.000 C 
BRANCH   6   7
ATOM      7  C   UNL     1      44.829  28.647  -2.325  1.00  0.00     0.000 C 
BRANCH   7   8
ATOM      8  C   UNL     1      44.995  27.526  -3.363  1.00  0.00     0.006 C 
BRANCH   8   9
ATOM      9  C   UNL     1      43.671  26.823  -3.690  1.00  0.00     0.053 C 
BRANCH   9  10
ATOM     10  C   UNL     1      42.835  27.678  -4.588  1.00  0.00     0.041 C 
ATOM     11  O   UNL     1      41.773  28.203  -4.156  1.00  0.00    -0.550 OA
ATOM     12  O   UNL     1      43.255  27.944  -5.885  1.00  0.00    -0.550 OA
ENDBRANCH   9  10
ENDBRANCH   8   9
ENDBRANCH   7   8
ENDBRANCH   6   7
ENDBRANCH   5   6
ENDBRANCH   4   5
ENDBRANCH   3   4
ENDBRANCH   1   3
BRANCH   2  13
ATOM     13  C   UNL     1      45.864  25.857   4.030  1.00  0.00     0.027 C 
BRANCH  13  14
ATOM     14  C   UNL     1      46.536  26.501   5.252  1.00  0.00     0.004 C 
BRANCH  14  15
ATOM     15  C   UNL     1      46.889  27.978   5.020  1.00  0.00     0.000 C 
BRANCH  15  16
ATOM     16  C   UNL     1      46.065  28.889   5.943  1.00  0.00     0.000 C 
BRANCH  16  17
ATOM     17  C   UNL     1      45.688  28.204   7.267  1.00  0.00    -0.000 C 
BRANCH  17  18
ATOM     18  C   UNL     1      45.167  29.195   8.318  1.00  0.00    -0.000 C 
BRANCH  18  19
ATOM     19  C   UNL     1      44.984  28.508   9.676  1.00  0.00    -0.003 C 
ATOM     20  C   UNL     1      45.126  26.994   9.549  1.00  0.00     0.004 C 
ENDBRANCH  18  19
ENDBRANCH  17  18
ENDBRANCH  16  17
ENDBRANCH  15  16
ENDBRANCH  14  15
ENDBRANCH  13  14
ENDBRANCH   2  13
TORSDOF 15
ENDMDL
MODEL 2
REMARK VINA RESULT:    -4.614      0.984      1.415
REMARK INTER + INTRA:          -9.884
REMARK INTER:                  -8.611
REMARK INTRA:                  -1.273
REMARK UNBOUND:                -1.223
REMARK SMILES CCCCCCCCC=CCCCCCCCC(=O)[O-]
REMARK SMILES IDX 10 1 9 2 11 3 12 4 13 5 14 6 15 7 16 8 17 9 18 10 19 11
REMARK SMILES IDX 20 12 8 13 7 14 6 15 5 16 4 17 3 18 2 19 1 20
REMARK H PARENT
REMARK Flexibility Score: inf
ROOT
ATOM      1  C   UNL     1      44.138  26.669   3.212  1.00  0.00    -0.031 C 
ATOM      2  C   UNL     1      44.902  26.022   4.113  1.00  0.00    -0.031 C 
ENDROOT
BRANCH   1   3
ATOM      3  C   UNL     1      44.651  27.418   2.005  1.00  0.00     0.027 C 
BRANCH   3   4
ATOM      4  C   UNL     1      45.040  28.878   2.305  1.00  0.00     0.004 C 
BRANCH   4   5
ATOM      5  C   UNL     1      45.823  29.569   1.172  1.00  0.00     0.000 C 
BRANCH   5   6
ATOM      6  C   UNL     1      45.939  28.718  -0.110  1.00  0.00     0.000 C 
BRANCH   6   7
ATOM      7  C   UNL     1      45.197  29.360  -1.297  1.00  0.00     0.000 C 
BRANCH   7   8
ATOM      8  C   UNL     1      44.892  28.355  -2.419  1.00  0.00     0.006 C 
BRANCH   8   9
ATOM      9  C   UNL     1      43.911  28.913  -3.458  1.00  0.00     0.053 C 
BRANCH   9  10
ATOM     10  C   UNL     1      42.980  27.838  -3.925  1.00  0.00     0.041 C 
ATOM     11  O   UNL     1      43.278  26.625  -3.759  1.00  0.00    -0.550 OA
ATOM     12  O   UNL     1      41.757  28.175  -4.491  1.00  0.00    -0.550 OA
ENDBRANCH   9  10
ENDBRANCH   8   9
ENDBRANCH   7   8
ENDBRANCH   6   7
ENDBRANCH   5   6
ENDBRANCH   4   5
ENDBRANCH   3   4
ENDBRANCH   1   3
BRANCH   2  13
ATOM     13  C   UNL     1      46.408  25.902   4.058  1.00  0.00     0.027 C 
BRANCH  13  14
ATOM     14  C   UNL     1      47.068  26.474   5.321  1.00  0.00     0.004 C 
BRANCH  14  15
ATOM     15  C   UNL     1      46.659  27.929   5.591  1.00  0.00     0.000 C 
BRANCH  15  16
ATOM     16  C   UNL     1      46.003  28.065   6.974  1.00  0.00     0.000 C 
BRANCH  16  17
ATOM     17  C   UNL     1      46.167  26.801   7.833  1.00  0.00    -0.000 C 
BRANCH  17  18
ATOM     18  C   UNL     1      45.204  26.771   9.030  1.00  0.00    -0.000 C 
BRANCH  18  19
ATOM     19  C   UNL     1      45.605  27.812  10.081  1.00  0.00    -0.003 C 
ATOM     20  C   UNL     1      44.564  28.923  10.179  1.00  0.00     0.004 C 
ENDBRANCH  18  19
ENDBRANCH  17  18
ENDBRANCH  16  17
ENDBRANCH  15  16
ENDBRANCH  14  15
ENDBRANCH  13  14
ENDBRANCH   2  13
TORSDOF 15
ENDMDL
MODEL 3
REMARK VINA RESULT:    -4.520      2.063      2.679
REMARK INTER + INTRA:          -9.708
REMARK INTER:                  -7.671
REMARK INTRA:                  -2.037
REMARK UNBOUND:                -1.223
REMARK SMILES CCCCCCCCC=CCCCCCCCC(=O)[O-]
REMARK SMILES IDX 10 1 9 2 11 3 12 4 13 5 14 6 15 7 16 8 17 9 18 10 19 11
REMARK SMILES IDX 20 12 8 13 7 14 6 15 5 16 4 17 3 18 2 19 1 20
REMARK H PARENT
REMARK Flexibility Score: inf
ROOT
ATOM      1  C   UNL     1      44.131  26.677   3.375  1.00  0.00    -0.031 C 
ATOM      2  C   UNL     1      45.031  25.966   4.082  1.00  0.00    -0.031 C 
ENDROOT
BRANCH   1   3
ATOM      3  C   UNL     1      44.462  27.712   2.326  1.00  0.00     0.027 C 
BRANCH   3   4
ATOM      4  C   UNL     1      44.529  29.149   2.876  1.00  0.00     0.004 C 
BRANCH   4   5
ATOM      5  C   UNL     1      45.842  29.888   2.557  1.00  0.00     0.000 C 
BRANCH   5   6
ATOM      6  C   UNL     1      46.677  29.218   1.446  1.00  0.00     0.000 C 
BRANCH   6   7
ATOM      7  C   UNL     1      46.644  30.024   0.135  1.00  0.00     0.000 C 
BRANCH   7   8
ATOM      8  C   UNL     1      45.291  29.929  -0.587  1.00  0.00     0.006 C 
BRANCH   8   9
ATOM      9  C   UNL     1      45.417  29.348  -2.001  1.00  0.00     0.053 C 
BRANCH   9  10
ATOM     10  C   UNL     1      45.827  27.911  -1.939  1.00  0.00     0.041 C 
ATOM     11  O   UNL     1      46.813  27.503  -2.610  1.00  0.00    -0.550 OA
ATOM     12  O   UNL     1      45.157  27.031  -1.097  1.00  0.00    -0.550 OA
ENDBRANCH   9  10
ENDBRANCH   8   9
ENDBRANCH   7   8
ENDBRANCH   6   7
ENDBRANCH   5   6
ENDBRANCH   4   5
ENDBRANCH   3   4
ENDBRANCH   1   3
BRANCH   2  13
ATOM     13  C   UNL     1      46.531  26.053   3.928  1.00  0.00     0.027 C 
BRANCH  13  14
ATOM     14  C   UNL     1      47.125  27.176   4.792  1.00  0.00     0.004 C 
BRANCH  14  15
ATOM     15  C   UNL     1      46.402  27.327   6.139  1.00  0.00     0.000 C 
BRANCH  15  16
ATOM     16  C   UNL     1      45.889  28.764   6.326  1.00  0.00     0.000 C 
BRANCH  16  17
ATOM     17  C   UNL     1      45.451  29.052   7.771  1.00  0.00    -0.000 C 
BRANCH  17  18
ATOM     18  C   UNL     1      45.253  27.771   8.595  1.00  0.00    -0.000 C 
BRANCH  18  19
ATOM     19  C   UNL     1      45.230  28.083  10.095  1.00  0.00    -0.003 C 
ATOM     20  C   UNL     1      44.421  29.344  10.383  1.00  0.00     0.004 C 
ENDBRANCH  18  19
ENDBRANCH  17  18
ENDBRANCH  16  17
ENDBRANCH  15  16
ENDBRANCH  14  15
ENDBRANCH  13  14
ENDBRANCH   2  13
TORSDOF 15
ENDMDL
MODEL 4
REMARK VINA RESULT:    -4.501      4.884      9.852
REMARK INTER + INTRA:          -9.671
REMARK INTER:                  -8.262
REMARK INTRA:                  -1.408
REMARK UNBOUND:                -1.223
REMARK SMILES CCCCCCCCC=CCCCCCCCC(=O)[O-]
REMARK SMILES IDX 10 1 9 2 11 3 12 4 13 5 14 6 15 7 16 8 17 9 18 10 19 11
REMARK SMILES IDX 20 12 8 13 7 14 6 15 5 16 4 17 3 18 2 19 1 20
REMARK H PARENT
REMARK Flexibility Score: inf
ROOT
ATOM      1  C   UNL     1      44.462  28.594   2.872  1.00  0.00    -0.031 C 
ATOM      2  C   UNL     1      45.332  29.297   2.120  1.00  0.00    -0.031 C 
ENDROOT
BRANCH   1   3
ATOM      3  C   UNL     1      44.159  27.123   2.715  1.00  0.00     0.027 C 
BRANCH   3   4
ATOM      4  C   UNL     1      44.768  26.246   3.826  1.00  0.00     0.004 C 
BRANCH   4   5
ATOM      5  C   UNL     1      46.288  26.031   3.699  1.00  0.00     0.000 C 
BRANCH   5   6
ATOM      6  C   UNL     1      47.077  26.414   4.969  1.00  0.00     0.000 C 
BRANCH   6   7
ATOM      7  C   UNL     1      46.365  27.511   5.781  1.00  0.00     0.000 C 
BRANCH   7   8
ATOM      8  C   UNL     1      45.987  27.050   7.197  1.00  0.00     0.006 C 
BRANCH   8   9
ATOM      9  C   UNL     1      45.609  28.218   8.116  1.00  0.00     0.053 C 
BRANCH   9  10
ATOM     10  C   UNL     1      45.089  27.707   9.422  1.00  0.00     0.041 C 
ATOM     11  O   UNL     1      44.464  28.476  10.201  1.00  0.00    -0.550 OA
ATOM     12  O   UNL     1      45.243  26.367   9.756  1.00  0.00    -0.550 OA
ENDBRANCH   9  10
ENDBRANCH   8   9
ENDBRANCH   7   8
ENDBRANCH   6   7
ENDBRANCH   5   6
ENDBRANCH   4   5
ENDBRANCH   3   4
ENDBRANCH   1   3
BRANCH   2  13
ATOM     13  C   UNL     1      46.184  28.731   1.008  1.00  0.00     0.027 C 
BRANCH  13  14
ATOM     14  C   UNL     1      45.539  28.955  -0.368  1.00  0.00     0.004 C 
BRANCH  14  15
ATOM     15  C   UNL     1      45.258  27.638  -1.108  1.00  0.00     0.000 C 
BRANCH  15  16
ATOM     16  C   UNL     1      45.011  27.894  -2.603  1.00  0.00     0.000 C 
BRANCH  16  17
ATOM     17  C   UNL     1      44.653  29.359  -2.902  1.00  0.00    -0.000 C 
BRANCH  17  18
ATOM     18  C   UNL     1      43.179  29.539  -3.294  1.00  0.00    -0.000 C 
BRANCH  18  19
ATOM     19  C   UNL     1      42.665  28.319  -4.067  1.00  0.00    -0.003 C 
ATOM     20  C   UNL     1      42.642  28.589  -5.569  1.00  0.00     0.004 C 
ENDBRANCH  18  19
ENDBRANCH  17  18
ENDBRANCH  16  17
ENDBRANCH  15  16
ENDBRANCH  14  15
ENDBRANCH  13  14
ENDBRANCH   2  13
TORSDOF 15
ENDMDL
MODEL 5
REMARK VINA RESULT:    -4.481      1.076      1.925
REMARK INTER + INTRA:          -9.634
REMARK INTER:                  -8.416
REMARK INTRA:                  -1.218
REMARK UNBOUND:                -1.223
REMARK SMILES CCCCCCCCC=CCCCCCCCC(=O)[O-]
REMARK SMILES IDX 10 1 9 2 11 3 12 4 13 5 14 6 15 7 16 8 17 9 18 10 19 11
REMARK SMILES IDX 20 12 8 13 7 14 6 15 5 16 4 17 3 18 2 19 1 20
REMARK H PARENT
REMARK Flexibility Score: inf
ROOT
ATOM      1  C   UNL     1      45.273  28.650   1.731  1.00  0.00    -0.031 C 
ATOM      2  C   UNL     1      44.705  28.173   2.856  1.00  0.00    -0.031 C 
ENDROOT
BRANCH   1   3
ATOM      3  C   UNL     1      45.511  27.859   0.467  1.00  0.00     0.027 C 
BRANCH   3   4
ATOM      4  C   UNL     1      46.263  28.648  -0.622  1.00  0.00     0.004 C 
BRANCH   4   5
ATOM      5  C   UNL     1      45.365  29.162  -1.764  1.00  0.00     0.000 C 
BRANCH   5   6
ATOM      6  C   UNL     1      45.970  28.957  -3.168  1.00  0.00     0.000 C 
BRANCH   6   7
ATOM      7  C   UNL     1      45.523  27.625  -3.799  1.00  0.00     0.000 C 
BRANCH   7   8
ATOM      8  C   UNL     1      44.151  27.158  -3.289  1.00  0.00     0.006 C 
BRANCH   8   9
ATOM      9  C   UNL     1      43.106  27.068  -4.407  1.00  0.00     0.053 C 
BRANCH   9  10
ATOM     10  C   UNL     1      42.491  28.409  -4.655  1.00  0.00     0.041 C 
ATOM     11  O   UNL     1      42.074  28.713  -5.805  1.00  0.00    -0.550 OA
ATOM     12  O   UNL     1      42.326  29.304  -3.605  1.00  0.00    -0.550 OA
ENDBRANCH   9  10
ENDBRANCH   8   9
ENDBRANCH   7   8
ENDBRANCH   6   7
ENDBRANCH   5   6
ENDBRANCH   4   5
ENDBRANCH   3   4
ENDBRANCH   1   3
BRANCH   2  13
ATOM     13  C   UNL     1      44.175  26.771   3.041  1.00  0.00     0.027 C 
BRANCH  13  14
ATOM     14  C   UNL     1      44.890  26.043   4.190  1.00  0.00     0.004 C 
BRANCH  14  15
ATOM     15  C   UNL     1      46.418  26.161   4.100  1.00  0.00     0.000 C 
BRANCH  15  16
ATOM     16  C   UNL     1      47.017  26.543   5.463  1.00  0.00     0.000 C 
BRANCH  16  17
ATOM     17  C   UNL     1      45.941  26.864   6.513  1.00  0.00    -0.000 C 
BRANCH  17  18
ATOM     18  C   UNL     1      46.423  26.613   7.950  1.00  0.00    -0.000 C 
BRANCH  18  19
ATOM     19  C   UNL     1      45.275  26.783   8.951  1.00  0.00    -0.003 C 
ATOM     20  C   UNL     1      45.052  28.254   9.288  1.00  0.00     0.004 C 
ENDBRANCH  18  19
ENDBRANCH  17  18
ENDBRANCH  16  17
ENDBRANCH  15  16
ENDBRANCH  14  15
ENDBRANCH  13  14
ENDBRANCH   2  13
TORSDOF 15
ENDMDL
MODEL 6
REMARK VINA RESULT:    -4.341      0.924      1.492
REMARK INTER + INTRA:          -9.371
REMARK INTER:                  -8.488
REMARK INTRA:                  -0.883
REMARK UNBOUND:                -1.223
REMARK SMILES CCCCCCCCC=CCCCCCCCC(=O)[O-]
REMARK SMILES IDX 10 1 9 2 11 3 12 4 13 5 14 6 15 7 16 8 17 9 18 10 19 11
REMARK SMILES IDX 20 12 8 13 7 14 6 15 5 16 4 17 3 18 2 19 1 20
REMARK H PARENT
REMARK Flexibility Score: inf
ROOT
ATOM      1  C   UNL     1      44.604  27.504   2.538  1.00  0.00    -0.031 C 
ATOM      2  C   UNL     1      44.538  26.683   3.605  1.00  0.00    -0.031 C 
ENDROOT
BRANCH   1   3
ATOM      3  C   UNL     1      45.804  27.674   1.637  1.00  0.00     0.027 C 
BRANCH   3   4
ATOM      4  C   UNL     1      45.449  27.715   0.139  1.00  0.00     0.004 C 
BRANCH   4   5
ATOM      5  C   UNL     1      45.555  29.114  -0.498  1.00  0.00     0.000 C 
BRANCH   5   6
ATOM      6  C   UNL     1      45.256  29.131  -2.011  1.00  0.00     0.000 C 
BRANCH   6   7
ATOM      7  C   UNL     1      45.281  27.718  -2.620  1.00  0.00     0.000 C 
BRANCH   7   8
ATOM      8  C   UNL     1      44.102  27.461  -3.572  1.00  0.00     0.006 C 
BRANCH   8   9
ATOM      9  C   UNL     1      44.016  28.501  -4.697  1.00  0.00     0.053 C 
BRANCH   9  10
ATOM     10  C   UNL     1      42.613  28.603  -5.205  1.00  0.00     0.041 C 
ATOM     11  O   UNL     1      42.393  28.975  -6.389  1.00  0.00    -0.550 OA
ATOM     12  O   UNL     1      41.549  28.232  -4.392  1.00  0.00    -0.550 OA
ENDBRANCH   9  10
ENDBRANCH   8   9
ENDBRANCH   7   8
ENDBRANCH   6   7
ENDBRANCH   5   6
ENDBRANCH   4   5
ENDBRANCH   3   4
ENDBRANCH   1   3
BRANCH   2  13
ATOM     13  C   UNL     1      45.643  25.764   4.071  1.00  0.00     0.027 C 
BRANCH  13  14
ATOM     14  C   UNL     1      46.634  26.491   4.993  1.00  0.00     0.004 C 
BRANCH  14  15
ATOM     15  C   UNL     1      45.995  27.684   5.719  1.00  0.00     0.000 C 
BRANCH  15  16
ATOM     16  C   UNL     1      46.378  27.685   7.208  1.00  0.00     0.000 C 
BRANCH  16  17
ATOM     17  C   UNL     1      45.506  26.734   8.044  1.00  0.00    -0.000 C 
BRANCH  17  18
ATOM     18  C   UNL     1      45.356  27.196   9.500  1.00  0.00    -0.000 C 
BRANCH  18  19
ATOM     19  C   UNL     1      45.554  28.712   9.617  1.00  0.00    -0.003 C 
ATOM     20  C   UNL     1      44.381  29.366  10.342  1.00  0.00     0.004 C 
ENDBRANCH  18  19
ENDBRANCH  17  18
ENDBRANCH  16  17
ENDBRANCH  15  16
ENDBRANCH  14  15
ENDBRANCH  13  14
ENDBRANCH   2  13
TORSDOF 15
ENDMDL
MODEL 7
REMARK VINA RESULT:    -4.245      5.176     10.126
REMARK INTER + INTRA:          -9.191
REMARK INTER:                  -7.980
REMARK INTRA:                  -1.211
REMARK UNBOUND:                -1.223
REMARK SMILES CCCCCCCCC=CCCCCCCCC(=O)[O-]
REMARK SMILES IDX 10 1 9 2 11 3 12 4 13 5 14 6 15 7 16 8 17 9 18 10 19 11
REMARK SMILES IDX 20 12 8 13 7 14 6 15 5 16 4 17 3 18 2 19 1 20
REMARK H PARENT
REMARK Flexibility Score: inf
ROOT
ATOM      1  C   UNL     1      44.413  26.690   3.422  1.00  0.00    -0.031 C 
ATOM      2  C   UNL     1      44.443  27.488   2.337  1.00  0.00    -0.031 C 
ENDROOT
BRANCH   1   3
ATOM      3  C   UNL     1      45.603  25.969   4.011  1.00  0.00     0.027 C 
BRANCH   3   4
ATOM      4  C   UNL     1      45.994  26.471   5.414  1.00  0.00     0.004 C 
BRANCH   4   5
ATOM      5  C   UNL     1      46.568  27.901   5.436  1.00  0.00     0.000 C 
BRANCH   5   6
ATOM      6  C   UNL     1      45.703  28.905   6.227  1.00  0.00     0.000 C 
BRANCH   6   7
ATOM      7  C   UNL     1      46.192  29.069   7.677  1.00  0.00     0.000 C 
BRANCH   7   8
ATOM      8  C   UNL     1      45.163  28.580   8.709  1.00  0.00     0.006 C 
BRANCH   8   9
ATOM      9  C   UNL     1      45.249  27.068   8.955  1.00  0.00     0.053 C 
BRANCH   9  10
ATOM     10  C   UNL     1      45.965  26.788  10.237  1.00  0.00     0.041 C 
ATOM     11  O   UNL     1      46.357  25.620  10.504  1.00  0.00    -0.550 OA
ATOM     12  O   UNL     1      46.253  27.827  11.115  1.00  0.00    -0.550 OA
ENDBRANCH   9  10
ENDBRANCH   8   9
ENDBRANCH   7   8
ENDBRANCH   6   7
ENDBRANCH   5   6
ENDBRANCH   4   5
ENDBRANCH   3   4
ENDBRANCH   1   3
BRANCH   2  13
ATOM     13  C   UNL     1      45.677  27.831   1.536  1.00  0.00     0.027 C 
BRANCH  13  14
ATOM     14  C   UNL     1      45.595  29.249   0.950  1.00  0.00     0.004 C 
BRANCH  14  15
ATOM     15  C   UNL     1      45.909  29.283  -0.553  1.00  0.00     0.000 C 
BRANCH  15  16
ATOM     16  C   UNL     1      45.343  28.040  -1.258  1.00  0.00     0.000 C 
BRANCH  16  17
ATOM     17  C   UNL     1      46.155  27.645  -2.502  1.00  0.00    -0.000 C 
BRANCH  17  18
ATOM     18  C   UNL     1      45.277  27.469  -3.750  1.00  0.00    -0.000 C 
BRANCH  18  19
ATOM     19  C   UNL     1      44.074  28.419  -3.711  1.00  0.00    -0.003 C 
ATOM     20  C   UNL     1      42.814  27.731  -4.227  1.00  0.00     0.004 C 
ENDBRANCH  18  19
ENDBRANCH  17  18
ENDBRANCH  16  17
ENDBRANCH  15  16
ENDBRANCH  14  15
ENDBRANCH  13  14
ENDBRANCH   2  13
TORSDOF 15
ENDMDL
MODEL 8
REMARK VINA RESULT:    -4.187      4.592     10.026
REMARK INTER + INTRA:          -9.081
REMARK INTER:                  -7.998
REMARK INTRA:                  -1.084
REMARK UNBOUND:                -1.223
REMARK SMILES CCCCCCCCC=CCCCCCCCC(=O)[O-]
REMARK SMILES IDX 10 1 9 2 11 3 12 4 13 5 14 6 15 7 16 8 17 9 18 10 19 11
REMARK SMILES IDX 20 12 8 13 7 14 6 15 5 16 4 17 3 18 2 19 1 20
REMARK H PARENT
REMARK Flexibility Score: inf
ROOT
ATOM      1  C   UNL     1      44.650  26.435   3.680  1.00  0.00    -0.031 C 
ATOM      2  C   UNL     1      44.408  27.238   2.624  1.00  0.00    -0.031 C 
ENDROOT
BRANCH   1   3
ATOM      3  C   UNL     1      45.976  25.788   4.001  1.00  0.00     0.027 C 
BRANCH   3   4
ATOM      4  C   UNL     1      46.882  26.651   4.898  1.00  0.00     0.004 C 
BRANCH   4   5
ATOM      5  C   UNL     1      46.120  27.512   5.924  1.00  0.00     0.000 C 
BRANCH   5   6
ATOM      6  C   UNL     1      45.712  26.743   7.198  1.00  0.00     0.000 C 
BRANCH   6   7
ATOM      7  C   UNL     1      46.822  26.765   8.264  1.00  0.00     0.000 C 
BRANCH   7   8
ATOM      8  C   UNL     1      46.642  27.899   9.285  1.00  0.00     0.006 C 
BRANCH   8   9
ATOM      9  C   UNL     1      45.237  27.921   9.900  1.00  0.00     0.053 C 
BRANCH   9  10
ATOM     10  C   UNL     1      44.651  29.295   9.814  1.00  0.00     0.041 C 
ATOM     11  O   UNL     1      44.054  29.794  10.806  1.00  0.00    -0.550 OA
ATOM     12  O   UNL     1      44.814  30.050   8.659  1.00  0.00    -0.550 OA
ENDBRANCH   9  10
ENDBRANCH   8   9
ENDBRANCH   7   8
ENDBRANCH   6   7
ENDBRANCH   5   6
ENDBRANCH   4   5
ENDBRANCH   3   4
ENDBRANCH   1   3
BRANCH   2  13
ATOM     13  C   UNL     1      45.428  27.658   1.592  1.00  0.00     0.027 C 
BRANCH  13  14
ATOM     14  C   UNL     1      45.448  29.183   1.405  1.00  0.00     0.004 C 
BRANCH  14  15
ATOM     15  C   UNL     1      45.471  29.593  -0.075  1.00  0.00     0.000 C 
BRANCH  15  16
ATOM     16  C   UNL     1      45.416  28.357  -0.986  1.00  0.00     0.000 C 
BRANCH  16  17
ATOM     17  C   UNL     1      44.753  28.650  -2.342  1.00  0.00    -0.000 C 
BRANCH  17  18
ATOM     18  C   UNL     1      44.973  27.524  -3.363  1.00  0.00    -0.000 C 
BRANCH  18  19
ATOM     19  C   UNL     1      43.634  26.945  -3.836  1.00  0.00    -0.003 C 
ATOM     20  C   UNL     1      42.692  28.050  -4.306  1.00  0.00     0.004 C 
ENDBRANCH  18  19
ENDBRANCH  17  18
ENDBRANCH  16  17
ENDBRANCH  15  16
ENDBRANCH  14  15
ENDBRANCH  13  14
ENDBRANCH   2  13
TORSDOF 15
ENDMDL
MODEL 9
REMARK VINA RESULT:    -3.591      1.989      3.502
REMARK INTER + INTRA:          -7.964
REMARK INTER:                  -6.381
REMARK INTRA:                  -1.583
REMARK UNBOUND:                -1.223
REMARK SMILES CCCCCCCCC=CCCCCCCCC(=O)[O-]
REMARK SMILES IDX 10 1 9 2 11 3 12 4 13 5 14 6 15 7 16 8 17 9 18 10 19 11
REMARK SMILES IDX 20 12 8 13 7 14 6 15 5 16 4 17 3 18 2 19 1 20
REMARK H PARENT
REMARK Flexibility Score: inf
ROOT
ATOM      1  C   UNL     1      45.669  27.801  -0.143  1.00  0.00    -0.031 C 
ATOM      2  C   UNL     1      45.656  28.361   1.083  1.00  0.00    -0.031 C 
ENDROOT
BRANCH   1   3
ATOM      3  C   UNL     1      45.248  28.485  -1.422  1.00  0.00     0.027 C 
BRANCH   3   4
ATOM      4  C   UNL     1      46.419  28.778  -2.378  1.00  0.00     0.004 C 
BRANCH   4   5
ATOM      5  C   UNL     1      46.823  27.587  -3.267  1.00  0.00     0.000 C 
BRANCH   5   6
ATOM      6  C   UNL     1      46.809  27.906  -4.777  1.00  0.00     0.000 C 
BRANCH   6   7
ATOM      7  C   UNL     1      45.570  28.726  -5.180  1.00  0.00     0.000 C 
BRANCH   7   8
ATOM      8  C   UNL     1      44.419  27.848  -5.695  1.00  0.00     0.006 C 
BRANCH   8   9
ATOM      9  C   UNL     1      43.385  27.533  -4.607  1.00  0.00     0.053 C 
BRANCH   9  10
ATOM     10  C   UNL     1      42.368  28.627  -4.522  1.00  0.00     0.041 C 
ATOM     11  O   UNL     1      41.521  28.778  -5.444  1.00  0.00    -0.550 OA
ATOM     12  O   UNL     1      42.315  29.444  -3.400  1.00  0.00    -0.550 OA
ENDBRANCH   9  10
ENDBRANCH   8   9
ENDBRANCH   7   8
ENDBRANCH   6   7
ENDBRANCH   5   6
ENDBRANCH   4   5
ENDBRANCH   3   4
ENDBRANCH   1   3
BRANCH   2  13
ATOM     13  C   UNL     1      45.249  29.783   1.391  1.00  0.00     0.027 C 
BRANCH  13  14
ATOM     14  C   UNL     1      45.142  30.026   2.904  1.00  0.00     0.004 C 
BRANCH  14  15
ATOM     15  C   UNL     1      46.515  30.125   3.583  1.00  0.00     0.000 C 
BRANCH  15  16
ATOM     16  C   UNL     1      46.467  29.534   5.002  1.00  0.00     0.000 C 
BRANCH  16  17
ATOM     17  C   UNL     1      45.628  28.248   5.079  1.00  0.00    -0.000 C 
BRANCH  17  18
ATOM     18  C   UNL     1      46.466  27.019   5.460  1.00  0.00    -0.000 C 
BRANCH  18  19
ATOM     19  C   UNL     1      46.104  25.816   4.582  1.00  0.00    -0.003 C 
ATOM     20  C   UNL     1      44.877  26.111   3.723  1.00  0.00     0.004 C 
ENDBRANCH  18  19
ENDBRANCH  17  18
ENDBRANCH  16  17
ENDBRANCH  15  16
ENDBRANCH  14  15
ENDBRANCH  13  14
ENDBRANCH   2  13
TORSDOF 15
ENDMDL
