MODEL 1
REMARK VINA RESULT:    -7.043      0.000      0.000
REMARK INTER + INTRA:          -8.677
REMARK INTER:                  -8.484
REMARK INTRA:                  -0.193
REMARK UNBOUND:                -0.193
REMARK SMILES O=c1c(O)c(-c2ccc(O)c(O)c2)oc2cc(O)cc(O)c12
REMARK SMILES IDX 5 1 3 2 2 3 1 4 22 5 20 6 19 7 17 8 16 9 15 10 14 11 6 12
REMARK SMILES IDX 7 13 8 14 9 15 13 16 11 17 10 18 12 20 4 22 21 24 18 26
REMARK H PARENT 10 19 12 21 4 23 21 25 18 27
REMARK Flexibility Score: inf
ROOT
ATOM      1  C   UNL     1       6.026 -13.160  13.293  1.00  0.00     0.180 A 
ATOM      2  C   UNL     1       6.112 -11.797  12.964  1.00  0.00     0.208 A 
ATOM      3  C   UNL     1       7.033 -10.987  13.647  1.00  0.00     0.238 A 
ATOM      4  O   UNL     1       7.143  -9.779  13.310  1.00  0.00    -0.285 OA
ATOM      5  C   UNL     1       7.846 -11.547  14.662  1.00  0.00     0.111 A 
ATOM      6  C   UNL     1       8.785 -10.812  15.446  1.00  0.00     0.134 A 
ATOM      7  C   UNL     1       9.628 -11.493  16.333  1.00  0.00     0.093 A 
ATOM      8  C   UNL     1       9.521 -12.875  16.510  1.00  0.00     0.123 A 
ATOM      9  C   UNL     1       8.567 -13.593  15.793  1.00  0.00     0.094 A 
ATOM     10  C   UNL     1       7.736 -12.946  14.874  1.00  0.00     0.146 A 
ATOM     11  O   UNL     1       6.848 -13.670  14.204  1.00  0.00    -0.452 OA
ENDROOT
BRANCH   1  12
ATOM     12  C   UNL     1       5.062 -14.071  12.634  1.00  0.00     0.025 A 
ATOM     13  C   UNL     1       5.492 -15.079  11.755  1.00  0.00     0.016 A 
ATOM     14  C   UNL     1       4.562 -15.911  11.125  1.00  0.00     0.051 A 
ATOM     15  C   UNL     1       3.191 -15.739  11.355  1.00  0.00     0.157 A 
ATOM     16  C   UNL     1       3.685 -13.890  12.845  1.00  0.00     0.062 A 
ATOM     17  C   UNL     1       2.751 -14.721  12.218  1.00  0.00     0.158 A 
BRANCH  15  18
ATOM     18  O   UNL     1       2.266 -16.573  10.727  1.00  0.00    -0.504 OA
ATOM     19  H   UNL     1       1.370 -16.785  11.149  1.00  0.00     0.293 HD
ENDBRANCH  15  18
BRANCH  17  20
ATOM     20  O   UNL     1       1.393 -14.520  12.461  1.00  0.00    -0.504 OA
ATOM     21  H   UNL     1       0.782 -14.083  11.780  1.00  0.00     0.293 HD
ENDBRANCH  17  20
ENDBRANCH   1  12
BRANCH   2  22
ATOM     22  O   UNL     1       5.315 -11.268  11.943  1.00  0.00    -0.502 OA
ATOM     23  H   UNL     1       4.811 -11.853  11.288  1.00  0.00     0.293 HD
ENDBRANCH   2  22
BRANCH   6  24
ATOM     24  O   UNL     1       8.909  -9.419  15.413  1.00  0.00    -0.507 OA
ATOM     25  H   UNL     1       8.994  -8.870  14.571  1.00  0.00     0.293 HD
ENDBRANCH   6  24
BRANCH   8  26
ATOM     26  O   UNL     1      10.354 -13.543  17.405  1.00  0.00    -0.508 OA
ATOM     27  H   UNL     1      10.674 -14.487  17.228  1.00  0.00     0.293 HD
ENDBRANCH   8  26
TORSDOF 6
ENDMDL
MODEL 2
REMARK VINA RESULT:    -6.985      1.164      1.733
REMARK INTER + INTRA:          -8.607
REMARK INTER:                  -8.471
REMARK INTRA:                  -0.135
REMARK UNBOUND:                -0.193
REMARK SMILES O=c1c(O)c(-c2ccc(O)c(O)c2)oc2cc(O)cc(O)c12
REMARK SMILES IDX 5 1 3 2 2 3 1 4 22 5 20 6 19 7 17 8 16 9 15 10 14 11 6 12
REMARK SMILES IDX 7 13 8 14 9 15 13 16 11 17 10 18 12 20 4 22 21 24 18 26
REMARK H PARENT 10 19 12 21 4 23 21 25 18 27
REMARK Flexibility Score: inf
ROOT
ATOM      1  C   UNL     1       6.216 -12.216  13.274  1.00  0.00     0.180 A 
ATOM      2  C   UNL     1       6.463 -10.983  12.646  1.00  0.00     0.208 A 
ATOM      3  C   UNL     1       7.470 -10.148  13.156  1.00  0.00     0.238 A 
ATOM      4  O   UNL     1       7.721  -9.070  12.557  1.00  0.00    -0.285 OA
ATOM      5  C   UNL     1       8.205 -10.548  14.297  1.00  0.00     0.111 A 
ATOM      6  C   UNL     1       9.221  -9.763  14.923  1.00  0.00     0.134 A 
ATOM      7  C   UNL     1       9.973 -10.313  15.967  1.00  0.00     0.093 A 
ATOM      8  C   UNL     1       9.704 -11.596  16.451  1.00  0.00     0.123 A 
ATOM      9  C   UNL     1       8.676 -12.347  15.886  1.00  0.00     0.094 A 
ATOM     10  C   UNL     1       7.931 -11.839  14.818  1.00  0.00     0.146 A 
ATOM     11  O   UNL     1       6.968 -12.592  14.302  1.00  0.00    -0.452 OA
ENDROOT
BRANCH   1  12
ATOM     12  C   UNL     1       5.156 -13.139  12.809  1.00  0.00     0.025 A 
ATOM     13  C   UNL     1       3.808 -12.743  12.766  1.00  0.00     0.016 A 
ATOM     14  C   UNL     1       2.821 -13.638  12.347  1.00  0.00     0.051 A 
ATOM     15  C   UNL     1       3.164 -14.946  11.979  1.00  0.00     0.157 A 
ATOM     16  C   UNL     1       5.491 -14.457  12.459  1.00  0.00     0.062 A 
ATOM     17  C   UNL     1       4.506 -15.357  12.038  1.00  0.00     0.158 A 
BRANCH  15  18
ATOM     18  O   UNL     1       2.177 -15.837  11.559  1.00  0.00    -0.504 OA
ATOM     19  H   UNL     1       1.201 -15.697  11.792  1.00  0.00     0.293 HD
ENDBRANCH  15  18
BRANCH  17  20
ATOM     20  O   UNL     1       4.879 -16.654  11.685  1.00  0.00    -0.504 OA
ATOM     21  H   UNL     1       5.709 -17.097  12.061  1.00  0.00     0.293 HD
ENDBRANCH  17  20
ENDBRANCH   1  12
BRANCH   2  22
ATOM     22  O   UNL     1       5.739 -10.617  11.507  1.00  0.00    -0.502 OA
ATOM     23  H   UNL     1       5.771  -9.682  11.119  1.00  0.00     0.293 HD
ENDBRANCH   2  22
BRANCH   6  24
ATOM     24  O   UNL     1       9.507  -8.439  14.578  1.00  0.00    -0.507 OA
ATOM     25  H   UNL     1      10.424  -8.092  14.341  1.00  0.00     0.293 HD
ENDBRANCH   6  24
BRANCH   8  26
ATOM     26  O   UNL     1      10.448 -12.130  17.501  1.00  0.00    -0.508 OA
ATOM     27  H   UNL     1      11.352 -11.750  17.757  1.00  0.00     0.293 HD
ENDBRANCH   8  26
TORSDOF 6
ENDMDL
MODEL 3
REMARK VINA RESULT:    -6.820      5.809      7.158
REMARK INTER + INTRA:          -8.408
REMARK INTER:                  -8.164
REMARK INTRA:                  -0.244
REMARK UNBOUND:                -0.193
REMARK SMILES O=c1c(O)c(-c2ccc(O)c(O)c2)oc2cc(O)cc(O)c12
REMARK SMILES IDX 5 1 3 2 2 3 1 4 22 5 20 6 19 7 17 8 16 9 15 10 14 11 6 12
REMARK SMILES IDX 7 13 8 14 9 15 13 16 11 17 10 18 12 20 4 22 21 24 18 26
REMARK H PARENT 10 19 12 21 4 23 21 25 18 27
REMARK Flexibility Score: inf
ROOT
ATOM      1  C   UNL     1      10.157 -10.396  16.098  1.00  0.00     0.180 A 
ATOM      2  C   UNL     1       9.831  -9.974  14.797  1.00  0.00     0.208 A 
ATOM      3  C   UNL     1      10.733 -10.227  13.752  1.00  0.00     0.238 A 
ATOM      4  O   UNL     1      10.411  -9.894  12.582  1.00  0.00    -0.285 OA
ATOM      5  C   UNL     1      11.958 -10.884  14.023  1.00  0.00     0.111 A 
ATOM      6  C   UNL     1      12.965 -11.156  13.048  1.00  0.00     0.134 A 
ATOM      7  C   UNL     1      14.078 -11.927  13.402  1.00  0.00     0.093 A 
ATOM      8  C   UNL     1      14.253 -12.381  14.711  1.00  0.00     0.123 A 
ATOM      9  C   UNL     1      13.306 -12.070  15.684  1.00  0.00     0.094 A 
ATOM     10  C   UNL     1      12.166 -11.333  15.353  1.00  0.00     0.146 A 
ATOM     11  O   UNL     1      11.283 -11.069  16.308  1.00  0.00    -0.452 OA
ENDROOT
BRANCH   1  12
ATOM     12  C   UNL     1       9.268 -10.144  17.255  1.00  0.00     0.025 A 
ATOM     13  C   UNL     1       9.088  -8.849  17.771  1.00  0.00     0.016 A 
ATOM     14  C   UNL     1       8.263  -8.638  18.879  1.00  0.00     0.051 A 
ATOM     15  C   UNL     1       7.617  -9.718  19.495  1.00  0.00     0.157 A 
ATOM     16  C   UNL     1       8.634 -11.226  17.888  1.00  0.00     0.062 A 
ATOM     17  C   UNL     1       7.806 -11.018  18.997  1.00  0.00     0.158 A 
BRANCH  15  18
ATOM     18  O   UNL     1       6.793  -9.503  20.598  1.00  0.00    -0.504 OA
ATOM     19  H   UNL     1       6.246 -10.252  21.007  1.00  0.00     0.293 HD
ENDBRANCH  15  18
BRANCH  17  20
ATOM     20  O   UNL     1       7.183 -12.115  19.592  1.00  0.00    -0.504 OA
ATOM     21  H   UNL     1       7.562 -12.568  20.416  1.00  0.00     0.293 HD
ENDBRANCH  17  20
ENDBRANCH   1  12
BRANCH   2  22
ATOM     22  O   UNL     1       8.607  -9.346  14.548  1.00  0.00    -0.502 OA
ATOM     23  H   UNL     1       7.967  -9.666  13.832  1.00  0.00     0.293 HD
ENDBRANCH   2  22
BRANCH   6  24
ATOM     24  O   UNL     1      12.932 -10.672  11.737  1.00  0.00    -0.507 OA
ATOM     25  H   UNL     1      13.628 -10.869  11.033  1.00  0.00     0.293 HD
ENDBRANCH   6  24
BRANCH   8  26
ATOM     26  O   UNL     1      15.373 -13.135  15.058  1.00  0.00    -0.508 OA
ATOM     27  H   UNL     1      15.302 -14.124  15.266  1.00  0.00     0.293 HD
ENDBRANCH   8  26
TORSDOF 6
ENDMDL
MODEL 4
REMARK VINA RESULT:    -6.728      5.836      8.169
REMARK INTER + INTRA:          -8.297
REMARK INTER:                  -8.271
REMARK INTRA:                  -0.027
REMARK UNBOUND:                -0.193
REMARK SMILES O=c1c(O)c(-c2ccc(O)c(O)c2)oc2cc(O)cc(O)c12
REMARK SMILES IDX 5 1 3 2 2 3 1 4 22 5 20 6 19 7 17 8 16 9 15 10 14 11 6 12
REMARK SMILES IDX 7 13 8 14 9 15 13 16 11 17 10 18 12 20 4 22 21 24 18 26
REMARK H PARENT 10 19 12 21 4 23 21 25 18 27
REMARK Flexibility Score: inf
ROOT
ATOM      1  C   UNL     1      11.827 -13.016  15.475  1.00  0.00     0.180 A 
ATOM      2  C   UNL     1      12.506 -13.941  16.286  1.00  0.00     0.208 A 
ATOM      3  C   UNL     1      13.472 -14.777  15.703  1.00  0.00     0.238 A 
ATOM      4  O   UNL     1      14.114 -15.566  16.444  1.00  0.00    -0.285 OA
ATOM      5  C   UNL     1      13.734 -14.689  14.314  1.00  0.00     0.111 A 
ATOM      6  C   UNL     1      14.663 -15.514  13.611  1.00  0.00     0.134 A 
ATOM      7  C   UNL     1      14.938 -15.251  12.264  1.00  0.00     0.093 A 
ATOM      8  C   UNL     1      14.270 -14.234  11.578  1.00  0.00     0.123 A 
ATOM      9  C   UNL     1      13.318 -13.462  12.240  1.00  0.00     0.094 A 
ATOM     10  C   UNL     1      13.048 -13.677  13.594  1.00  0.00     0.146 A 
ATOM     11  O   UNL     1      12.143 -12.911  14.190  1.00  0.00    -0.452 OA
ENDROOT
BRANCH   1  12
ATOM     12  C   UNL     1      10.778 -12.118  16.013  1.00  0.00     0.025 A 
ATOM     13  C   UNL     1       9.716 -12.615  16.787  1.00  0.00     0.016 A 
ATOM     14  C   UNL     1       8.724 -11.754  17.263  1.00  0.00     0.051 A 
ATOM     15  C   UNL     1       8.772 -10.386  16.961  1.00  0.00     0.157 A 
ATOM     16  C   UNL     1      10.811 -10.750  15.696  1.00  0.00     0.062 A 
ATOM     17  C   UNL     1       9.820  -9.883  16.171  1.00  0.00     0.158 A 
BRANCH  15  18
ATOM     18  O   UNL     1       7.783  -9.528  17.439  1.00  0.00    -0.504 OA
ATOM     19  H   UNL     1       7.060  -9.851  18.071  1.00  0.00     0.293 HD
ENDBRANCH  15  18
BRANCH  17  20
ATOM     20  O   UNL     1       9.893  -8.529  15.847  1.00  0.00    -0.504 OA
ATOM     21  H   UNL     1      10.435  -7.872  16.396  1.00  0.00     0.293 HD
ENDBRANCH  17  20
ENDBRANCH   1  12
BRANCH   2  22
ATOM     22  O   UNL     1      12.247 -13.997  17.658  1.00  0.00    -0.502 OA
ATOM     23  H   UNL     1      12.542 -14.774  18.237  1.00  0.00     0.293 HD
ENDBRANCH   2  22
BRANCH   6  24
ATOM     24  O   UNL     1      15.316 -16.613  14.178  1.00  0.00    -0.507 OA
ATOM     25  H   UNL     1      15.895 -17.263  13.669  1.00  0.00     0.293 HD
ENDBRANCH   6  24
BRANCH   8  26
ATOM     26  O   UNL     1      14.538 -13.989  10.233  1.00  0.00    -0.508 OA
ATOM     27  H   UNL     1      14.788 -13.065   9.902  1.00  0.00     0.293 HD
ENDBRANCH   8  26
TORSDOF 6
ENDMDL
MODEL 5
REMARK VINA RESULT:    -6.706      1.417      3.226
REMARK INTER + INTRA:          -8.271
REMARK INTER:                  -8.187
REMARK INTRA:                  -0.084
REMARK UNBOUND:                -0.193
REMARK SMILES O=c1c(O)c(-c2ccc(O)c(O)c2)oc2cc(O)cc(O)c12
REMARK SMILES IDX 5 1 3 2 2 3 1 4 22 5 20 6 19 7 17 8 16 9 15 10 14 11 6 12
REMARK SMILES IDX 7 13 8 14 9 15 13 16 11 17 10 18 12 20 4 22 21 24 18 26
REMARK H PARENT 10 19 12 21 4 23 21 25 18 27
REMARK Flexibility Score: inf
ROOT
ATOM      1  C   UNL     1       6.731 -13.310  13.978  1.00  0.00     0.180 A 
ATOM      2  C   UNL     1       7.354 -14.249  14.818  1.00  0.00     0.208 A 
ATOM      3  C   UNL     1       8.421 -13.834  15.631  1.00  0.00     0.238 A 
ATOM      4  O   UNL     1       8.939 -14.667  16.420  1.00  0.00    -0.285 OA
ATOM      5  C   UNL     1       8.862 -12.490  15.582  1.00  0.00     0.111 A 
ATOM      6  C   UNL     1       9.960 -11.969  16.332  1.00  0.00     0.134 A 
ATOM      7  C   UNL     1      10.225 -10.595  16.304  1.00  0.00     0.093 A 
ATOM      8  C   UNL     1       9.473  -9.732  15.503  1.00  0.00     0.123 A 
ATOM      9  C   UNL     1       8.438 -10.240  14.721  1.00  0.00     0.094 A 
ATOM     10  C   UNL     1       8.126 -11.601  14.755  1.00  0.00     0.146 A 
ATOM     11  O   UNL     1       7.125 -12.042  14.004  1.00  0.00    -0.452 OA
ENDROOT
BRANCH   1  12
ATOM     12  C   UNL     1       5.617 -13.678  13.074  1.00  0.00     0.025 A 
ATOM     13  C   UNL     1       4.353 -13.074  13.188  1.00  0.00     0.016 A 
ATOM     14  C   UNL     1       3.309 -13.454  12.341  1.00  0.00     0.051 A 
ATOM     15  C   UNL     1       3.509 -14.452  11.378  1.00  0.00     0.157 A 
ATOM     16  C   UNL     1       5.806 -14.692  12.122  1.00  0.00     0.062 A 
ATOM     17  C   UNL     1       4.764 -15.075  11.270  1.00  0.00     0.158 A 
BRANCH  15  18
ATOM     18  O   UNL     1       2.466 -14.828  10.532  1.00  0.00    -0.504 OA
ATOM     19  H   UNL     1       2.018 -14.163   9.913  1.00  0.00     0.293 HD
ENDBRANCH  15  18
BRANCH  17  20
ATOM     20  O   UNL     1       4.993 -16.077  10.327  1.00  0.00    -0.504 OA
ATOM     21  H   UNL     1       5.917 -16.456  10.157  1.00  0.00     0.293 HD
ENDBRANCH  17  20
ENDBRANCH   1  12
BRANCH   2  22
ATOM     22  O   UNL     1       6.889 -15.566  14.867  1.00  0.00    -0.502 OA
ATOM     23  H   UNL     1       6.160 -15.909  14.253  1.00  0.00     0.293 HD
ENDBRANCH   2  22
BRANCH   6  24
ATOM     24  O   UNL     1      10.829 -12.757  17.092  1.00  0.00    -0.507 OA
ATOM     25  H   UNL     1      10.679 -13.013  18.057  1.00  0.00     0.293 HD
ENDBRANCH   6  24
BRANCH   8  26
ATOM     26  O   UNL     1       9.754  -8.368  15.469  1.00  0.00    -0.508 OA
ATOM     27  H   UNL     1       9.034  -7.674  15.632  1.00  0.00     0.293 HD
ENDBRANCH   8  26
TORSDOF 6
ENDMDL
MODEL 6
REMARK VINA RESULT:    -6.608      5.751      8.131
REMARK INTER + INTRA:          -8.153
REMARK INTER:                  -8.101
REMARK INTRA:                  -0.051
REMARK UNBOUND:                -0.193
REMARK SMILES O=c1c(O)c(-c2ccc(O)c(O)c2)oc2cc(O)cc(O)c12
REMARK SMILES IDX 5 1 3 2 2 3 1 4 22 5 20 6 19 7 17 8 16 9 15 10 14 11 6 12
REMARK SMILES IDX 7 13 8 14 9 15 13 16 11 17 10 18 12 20 4 22 21 24 18 26
REMARK H PARENT 10 19 12 21 4 23 21 25 18 27
REMARK Flexibility Score: inf
ROOT
ATOM      1  C   UNL     1      12.501 -13.706  14.469  1.00  0.00     0.180 A 
ATOM      2  C   UNL     1      11.813 -14.554  15.354  1.00  0.00     0.208 A 
ATOM      3  C   UNL     1      10.804 -14.016  16.168  1.00  0.00     0.238 A 
ATOM      4  O   UNL     1      10.156 -14.791  16.919  1.00  0.00    -0.285 OA
ATOM      5  C   UNL     1      10.506 -12.633  16.098  1.00  0.00     0.111 A 
ATOM      6  C   UNL     1       9.530 -11.973  16.905  1.00  0.00     0.134 A 
ATOM      7  C   UNL     1       9.228 -10.628  16.660  1.00  0.00     0.093 A 
ATOM      8  C   UNL     1       9.911  -9.903  15.680  1.00  0.00     0.123 A 
ATOM      9  C   UNL     1      10.906 -10.523  14.929  1.00  0.00     0.094 A 
ATOM     10  C   UNL     1      11.206 -11.873  15.125  1.00  0.00     0.146 A 
ATOM     11  O   UNL     1      12.154 -12.428  14.380  1.00  0.00    -0.452 OA
ENDROOT
BRANCH   1  12
ATOM     12  C   UNL     1      13.594 -14.196  13.598  1.00  0.00     0.025 A 
ATOM     13  C   UNL     1      14.682 -14.916  14.123  1.00  0.00     0.016 A 
ATOM     14  C   UNL     1      15.714 -15.346  13.286  1.00  0.00     0.051 A 
ATOM     15  C   UNL     1      15.682 -15.053  11.916  1.00  0.00     0.157 A 
ATOM     16  C   UNL     1      13.577 -13.887  12.228  1.00  0.00     0.062 A 
ATOM     17  C   UNL     1      14.609 -14.318  11.386  1.00  0.00     0.158 A 
BRANCH  15  18
ATOM     18  O   UNL     1      16.713 -15.487  11.083  1.00  0.00    -0.504 OA
ATOM     19  H   UNL     1      17.240 -16.328  11.284  1.00  0.00     0.293 HD
ENDBRANCH  15  18
BRANCH  17  20
ATOM     20  O   UNL     1      14.551 -14.003  10.029  1.00  0.00    -0.504 OA
ATOM     21  H   UNL     1      15.241 -14.342   9.368  1.00  0.00     0.293 HD
ENDBRANCH  17  20
ENDBRANCH   1  12
BRANCH   2  22
ATOM     22  O   UNL     1      12.109 -15.920  15.392  1.00  0.00    -0.502 OA
ATOM     23  H   UNL     1      11.805 -16.523  16.147  1.00  0.00     0.293 HD
ENDBRANCH   2  22
BRANCH   6  24
ATOM     24  O   UNL     1       8.857 -12.581  17.969  1.00  0.00    -0.507 OA
ATOM     25  H   UNL     1       8.909 -13.563  18.196  1.00  0.00     0.293 HD
ENDBRANCH   6  24
BRANCH   8  26
ATOM     26  O   UNL     1       9.614  -8.561  15.453  1.00  0.00    -0.508 OA
ATOM     27  H   UNL     1       8.807  -8.118  15.877  1.00  0.00     0.293 HD
ENDBRANCH   8  26
TORSDOF 6
ENDMDL
MODEL 7
REMARK VINA RESULT:    -6.535      5.559      8.324
REMARK INTER + INTRA:          -8.065
REMARK INTER:                  -7.816
REMARK INTRA:                  -0.250
REMARK UNBOUND:                -0.193
REMARK SMILES O=c1c(O)c(-c2ccc(O)c(O)c2)oc2cc(O)cc(O)c12
REMARK SMILES IDX 5 1 3 2 2 3 1 4 22 5 20 6 19 7 17 8 16 9 15 10 14 11 6 12
REMARK SMILES IDX 7 13 8 14 9 15 13 16 11 17 10 18 12 20 4 22 21 24 18 26
REMARK H PARENT 10 19 12 21 4 23 21 25 18 27
REMARK Flexibility Score: inf
ROOT
ATOM      1  C   UNL     1      12.710 -12.013  14.744  1.00  0.00     0.180 A 
ATOM      2  C   UNL     1      13.884 -11.815  15.491  1.00  0.00     0.208 A 
ATOM      3  C   UNL     1      15.101 -12.304  14.992  1.00  0.00     0.238 A 
ATOM      4  O   UNL     1      16.156 -12.076  15.640  1.00  0.00    -0.285 OA
ATOM      5  C   UNL     1      15.128 -13.001  13.759  1.00  0.00     0.111 A 
ATOM      6  C   UNL     1      16.299 -13.574  13.178  1.00  0.00     0.134 A 
ATOM      7  C   UNL     1      16.231 -14.127  11.893  1.00  0.00     0.093 A 
ATOM      8  C   UNL     1      15.022 -14.183  11.196  1.00  0.00     0.123 A 
ATOM      9  C   UNL     1      13.862 -13.680  11.779  1.00  0.00     0.094 A 
ATOM     10  C   UNL     1      13.904 -13.090  13.046  1.00  0.00     0.146 A 
ATOM     11  O   UNL     1      12.778 -12.612  13.560  1.00  0.00    -0.452 OA
ENDROOT
BRANCH   1  12
ATOM     12  C   UNL     1      11.386 -11.548  15.217  1.00  0.00     0.025 A 
ATOM     13  C   UNL     1      10.772 -10.409  14.669  1.00  0.00     0.016 A 
ATOM     14  C   UNL     1       9.534  -9.974  15.148  1.00  0.00     0.051 A 
ATOM     15  C   UNL     1       8.898 -10.662  16.190  1.00  0.00     0.157 A 
ATOM     16  C   UNL     1      10.755 -12.222  16.275  1.00  0.00     0.062 A 
ATOM     17  C   UNL     1       9.514 -11.791  16.757  1.00  0.00     0.158 A 
BRANCH  15  18
ATOM     18  O   UNL     1       7.661 -10.227  16.664  1.00  0.00    -0.504 OA
ATOM     19  H   UNL     1       6.996  -9.759  16.060  1.00  0.00     0.293 HD
ENDBRANCH  15  18
BRANCH  17  20
ATOM     20  O   UNL     1       8.911 -12.493  17.800  1.00  0.00    -0.504 OA
ATOM     21  H   UNL     1       8.309 -12.039  18.478  1.00  0.00     0.293 HD
ENDBRANCH  17  20
ENDBRANCH   1  12
BRANCH   2  22
ATOM     22  O   UNL     1      13.839 -11.106  16.695  1.00  0.00    -0.502 OA
ATOM     23  H   UNL     1      13.884 -10.095  16.734  1.00  0.00     0.293 HD
ENDBRANCH   2  22
BRANCH   6  24
ATOM     24  O   UNL     1      17.534 -13.652  13.827  1.00  0.00    -0.507 OA
ATOM     25  H   UNL     1      17.999 -12.875  14.273  1.00  0.00     0.293 HD
ENDBRANCH   6  24
BRANCH   8  26
ATOM     26  O   UNL     1      14.962 -14.748   9.924  1.00  0.00    -0.508 OA
ATOM     27  H   UNL     1      15.672 -15.392   9.595  1.00  0.00     0.293 HD
ENDBRANCH   8  26
TORSDOF 6
ENDMDL
MODEL 8
REMARK VINA RESULT:    -6.527      1.508      2.334
REMARK INTER + INTRA:          -8.055
REMARK INTER:                  -7.862
REMARK INTRA:                  -0.194
REMARK UNBOUND:                -0.193
REMARK SMILES O=c1c(O)c(-c2ccc(O)c(O)c2)oc2cc(O)cc(O)c12
REMARK SMILES IDX 5 1 3 2 2 3 1 4 22 5 20 6 19 7 17 8 16 9 15 10 14 11 6 12
REMARK SMILES IDX 7 13 8 14 9 15 13 16 11 17 10 18 12 20 4 22 21 24 18 26
REMARK H PARENT 10 19 12 21 4 23 21 25 18 27
REMARK Flexibility Score: inf
ROOT
ATOM      1  C   UNL     1       6.649 -13.573  13.945  1.00  0.00     0.180 A 
ATOM      2  C   UNL     1       6.987 -12.235  14.210  1.00  0.00     0.208 A 
ATOM      3  C   UNL     1       8.021 -11.960  15.118  1.00  0.00     0.238 A 
ATOM      4  O   UNL     1       8.354 -10.762  15.311  1.00  0.00    -0.285 OA
ATOM      5  C   UNL     1       8.694 -13.027  15.762  1.00  0.00     0.111 A 
ATOM      6  C   UNL     1       9.731 -12.864  16.731  1.00  0.00     0.134 A 
ATOM      7  C   UNL     1      10.415 -13.990  17.205  1.00  0.00     0.093 A 
ATOM      8  C   UNL     1      10.057 -15.276  16.795  1.00  0.00     0.123 A 
ATOM      9  C   UNL     1       9.007 -15.449  15.896  1.00  0.00     0.094 A 
ATOM     10  C   UNL     1       8.329 -14.343  15.377  1.00  0.00     0.146 A 
ATOM     11  O   UNL     1       7.343 -14.552  14.514  1.00  0.00    -0.452 OA
ENDROOT
BRANCH   1  12
ATOM     12  C   UNL     1       5.553 -13.941  13.018  1.00  0.00     0.025 A 
ATOM     13  C   UNL     1       4.216 -13.613  13.300  1.00  0.00     0.016 A 
ATOM     14  C   UNL     1       3.196 -13.992  12.423  1.00  0.00     0.051 A 
ATOM     15  C   UNL     1       3.495 -14.714  11.260  1.00  0.00     0.157 A 
ATOM     16  C   UNL     1       5.846 -14.682  11.862  1.00  0.00     0.062 A 
ATOM     17  C   UNL     1       4.827 -15.062  10.981  1.00  0.00     0.158 A 
BRANCH  15  18
ATOM     18  O   UNL     1       2.475 -15.088  10.386  1.00  0.00    -0.504 OA
ATOM     19  H   UNL     1       1.610 -15.493  10.722  1.00  0.00     0.293 HD
ENDBRANCH  15  18
BRANCH  17  20
ATOM     20  O   UNL     1       5.157 -15.787   9.836  1.00  0.00    -0.504 OA
ATOM     21  H   UNL     1       5.471 -16.749   9.879  1.00  0.00     0.293 HD
ENDBRANCH  17  20
ENDBRANCH   1  12
BRANCH   2  22
ATOM     22  O   UNL     1       6.324 -11.198  13.547  1.00  0.00    -0.502 OA
ATOM     23  H   UNL     1       6.676 -10.784  12.693  1.00  0.00     0.293 HD
ENDBRANCH   2  22
BRANCH   6  24
ATOM     24  O   UNL     1      10.104 -11.632  17.275  1.00  0.00    -0.507 OA
ATOM     25  H   UNL     1      10.471 -10.856  16.743  1.00  0.00     0.293 HD
ENDBRANCH   6  24
BRANCH   8  26
ATOM     26  O   UNL     1      10.734 -16.392  17.284  1.00  0.00    -0.508 OA
ATOM     27  H   UNL     1      10.657 -17.297  16.836  1.00  0.00     0.293 HD
ENDBRANCH   8  26
TORSDOF 6
ENDMDL
MODEL 9
REMARK VINA RESULT:    -6.409      5.613      7.346
REMARK INTER + INTRA:          -7.913
REMARK INTER:                  -7.702
REMARK INTRA:                  -0.211
REMARK UNBOUND:                -0.193
REMARK SMILES O=c1c(O)c(-c2ccc(O)c(O)c2)oc2cc(O)cc(O)c12
REMARK SMILES IDX 5 1 3 2 2 3 1 4 22 5 20 6 19 7 17 8 16 9 15 10 14 11 6 12
REMARK SMILES IDX 7 13 8 14 9 15 13 16 11 17 10 18 12 20 4 22 21 24 18 26
REMARK H PARENT 10 19 12 21 4 23 21 25 18 27
REMARK Flexibility Score: inf
ROOT
ATOM      1  C   UNL     1      11.015 -13.851  16.628  1.00  0.00     0.180 A 
ATOM      2  C   UNL     1       9.918 -13.079  17.047  1.00  0.00     0.208 A 
ATOM      3  C   UNL     1       9.652 -11.863  16.398  1.00  0.00     0.238 A 
ATOM      4  O   UNL     1       8.638 -11.203  16.742  1.00  0.00    -0.285 OA
ATOM      5  C   UNL     1      10.496 -11.427  15.348  1.00  0.00     0.111 A 
ATOM      6  C   UNL     1      10.344 -10.193  14.646  1.00  0.00     0.134 A 
ATOM      7  C   UNL     1      11.158  -9.924  13.538  1.00  0.00     0.093 A 
ATOM      8  C   UNL     1      12.160 -10.815  13.147  1.00  0.00     0.123 A 
ATOM      9  C   UNL     1      12.355 -11.994  13.862  1.00  0.00     0.094 A 
ATOM     10  C   UNL     1      11.536 -12.308  14.950  1.00  0.00     0.146 A 
ATOM     11  O   UNL     1      11.748 -13.447  15.597  1.00  0.00    -0.452 OA
ENDROOT
BRANCH   1  12
ATOM     12  C   UNL     1      11.373 -15.132  17.281  1.00  0.00     0.025 A 
ATOM     13  C   UNL     1      12.546 -15.261  18.044  1.00  0.00     0.016 A 
ATOM     14  C   UNL     1      12.876 -16.485  18.631  1.00  0.00     0.051 A 
ATOM     15  C   UNL     1      12.048 -17.601  18.451  1.00  0.00     0.157 A 
ATOM     16  C   UNL     1      10.557 -16.258  17.086  1.00  0.00     0.062 A 
ATOM     17  C   UNL     1      10.884 -17.486  17.672  1.00  0.00     0.158 A 
BRANCH  15  18
ATOM     18  O   UNL     1      12.379 -18.821  19.039  1.00  0.00    -0.504 OA
ATOM     19  H   UNL     1      11.893 -19.676  18.797  1.00  0.00     0.293 HD
ENDBRANCH  15  18
BRANCH  17  20
ATOM     20  O   UNL     1      10.042 -18.579  17.469  1.00  0.00    -0.504 OA
ATOM     21  H   UNL     1       9.052 -18.470  17.285  1.00  0.00     0.293 HD
ENDBRANCH  17  20
ENDBRANCH   1  12
BRANCH   2  22
ATOM     22  O   UNL     1       9.086 -13.539  18.072  1.00  0.00    -0.502 OA
ATOM     23  H   UNL     1       9.064 -13.111  18.990  1.00  0.00     0.293 HD
ENDBRANCH   2  22
BRANCH   6  24
ATOM     24  O   UNL     1       9.436  -9.194  15.011  1.00  0.00    -0.507 OA
ATOM     25  H   UNL     1       8.437  -9.320  15.072  1.00  0.00     0.293 HD
ENDBRANCH   6  24
BRANCH   8  26
ATOM     26  O   UNL     1      12.975 -10.532  12.053  1.00  0.00    -0.508 OA
ATOM     27  H   UNL     1      13.982 -10.474  12.144  1.00  0.00     0.293 HD
ENDBRANCH   8  26
TORSDOF 6
ENDMDL
