MODEL 1
REMARK VINA RESULT:    -5.732      0.000      0.000
REMARK INTER + INTRA:          -7.003
REMARK INTER:                  -6.737
REMARK INTRA:                  -0.266
REMARK UNBOUND:                -0.266
REMARK SMILES O=c1cc(-c2ccc(O)c(O)c2)oc2cc(O)cc(O)c12
REMARK SMILES IDX 4 1 3 2 2 3 1 4 21 5 19 6 18 7 16 8 15 9 14 10 13 11 5 12
REMARK SMILES IDX 6 13 7 14 8 15 12 16 10 17 9 18 11 20 20 22 17 24
REMARK H PARENT 9 19 11 21 20 23 17 25
REMARK Flexibility Score: inf
ROOT
ATOM      1  C   UNL     1      33.507 -37.952   9.837  1.00  0.00     0.138 A 
ATOM      2  C   UNL     1      32.133 -37.704   9.715  1.00  0.00     0.100 A 
ATOM      3  C   UNL     1      31.606 -37.331   8.479  1.00  0.00     0.197 A 
ATOM      4  O   UNL     1      30.361 -37.175   8.386  1.00  0.00    -0.289 OA
ATOM      5  C   UNL     1      32.465 -37.175   7.366  1.00  0.00     0.107 A 
ATOM      6  C   UNL     1      32.046 -36.759   6.066  1.00  0.00     0.134 A 
ATOM      7  C   UNL     1      32.968 -36.752   5.013  1.00  0.00     0.093 A 
ATOM      8  C   UNL     1      34.308 -37.090   5.225  1.00  0.00     0.123 A 
ATOM      9  C   UNL     1      34.738 -37.445   6.500  1.00  0.00     0.094 A 
ATOM     10  C   UNL     1      33.835 -37.494   7.565  1.00  0.00     0.146 A 
ATOM     11  O   UNL     1      34.284 -37.852   8.763  1.00  0.00    -0.456 OA
ENDROOT
BRANCH   1  12
ATOM     12  C   UNL     1      34.121 -38.350  11.129  1.00  0.00     0.021 A 
ATOM     13  C   UNL     1      34.429 -39.702  11.360  1.00  0.00     0.016 A 
ATOM     14  C   UNL     1      35.014 -40.101  12.564  1.00  0.00     0.051 A 
ATOM     15  C   UNL     1      35.309 -39.161  13.554  1.00  0.00     0.157 A 
ATOM     16  C   UNL     1      34.432 -37.403  12.124  1.00  0.00     0.062 A 
ATOM     17  C   UNL     1      35.021 -37.804  13.333  1.00  0.00     0.158 A 
BRANCH  15  18
ATOM     18  O   UNL     1      35.890 -39.590  14.746  1.00  0.00    -0.504 OA
ATOM     19  H   UNL     1      36.029 -38.966  15.533  1.00  0.00     0.293 HD
ENDBRANCH  15  18
BRANCH  17  20
ATOM     20  O   UNL     1      35.323 -36.858  14.312  1.00  0.00    -0.504 OA
ATOM     21  H   UNL     1      35.938 -36.075  14.123  1.00  0.00     0.293 HD
ENDBRANCH  17  20
ENDBRANCH   1  12
BRANCH   6  22
ATOM     22  O   UNL     1      30.752 -36.321   5.766  1.00  0.00    -0.507 OA
ATOM     23  H   UNL     1      30.425 -35.373   5.872  1.00  0.00     0.293 HD
ENDBRANCH   6  22
BRANCH   8  24
ATOM     24  O   UNL     1      35.221 -37.067   4.173  1.00  0.00    -0.508 OA
ATOM     25  H   UNL     1      36.218 -37.149   4.334  1.00  0.00     0.293 HD
ENDBRANCH   8  24
TORSDOF 5
ENDMDL
MODEL 2
REMARK VINA RESULT:    -5.309      1.965      7.071
REMARK INTER + INTRA:          -6.506
REMARK INTER:                  -6.220
REMARK INTRA:                  -0.287
REMARK UNBOUND:                -0.266
REMARK SMILES O=c1cc(-c2ccc(O)c(O)c2)oc2cc(O)cc(O)c12
REMARK SMILES IDX 4 1 3 2 2 3 1 4 21 5 19 6 18 7 16 8 15 9 14 10 13 11 5 12
REMARK SMILES IDX 6 13 7 14 8 15 12 16 10 17 9 18 11 20 20 22 17 24
REMARK H PARENT 9 19 11 21 20 23 17 25
REMARK Flexibility Score: inf
ROOT
ATOM      1  C   UNL     1      33.121 -36.775   6.732  1.00  0.00     0.138 A 
ATOM      2  C   UNL     1      31.740 -36.590   6.885  1.00  0.00     0.100 A 
ATOM      3  C   UNL     1      31.181 -36.592   8.163  1.00  0.00     0.197 A 
ATOM      4  O   UNL     1      29.949 -36.361   8.273  1.00  0.00    -0.289 OA
ATOM      5  C   UNL     1      32.006 -36.812   9.292  1.00  0.00     0.107 A 
ATOM      6  C   UNL     1      31.540 -36.876  10.639  1.00  0.00     0.134 A 
ATOM      7  C   UNL     1      32.465 -36.982  11.685  1.00  0.00     0.093 A 
ATOM      8  C   UNL     1      33.836 -37.088  11.428  1.00  0.00     0.123 A 
ATOM      9  C   UNL     1      34.295 -37.081  10.114  1.00  0.00     0.094 A 
ATOM     10  C   UNL     1      33.400 -36.941   9.051  1.00  0.00     0.146 A 
ATOM     11  O   UNL     1      33.882 -36.925   7.812  1.00  0.00    -0.456 OA
ENDROOT
BRANCH   1  12
ATOM     12  C   UNL     1      33.768 -36.783   5.396  1.00  0.00     0.021 A 
ATOM     13  C   UNL     1      35.087 -36.313   5.263  1.00  0.00     0.016 A 
ATOM     14  C   UNL     1      35.720 -36.318   4.018  1.00  0.00     0.051 A 
ATOM     15  C   UNL     1      35.055 -36.798   2.887  1.00  0.00     0.157 A 
ATOM     16  C   UNL     1      33.106 -37.278   4.255  1.00  0.00     0.062 A 
ATOM     17  C   UNL     1      33.742 -37.284   3.005  1.00  0.00     0.158 A 
BRANCH  15  18
ATOM     18  O   UNL     1      35.712 -36.787   1.657  1.00  0.00    -0.504 OA
ATOM     19  H   UNL     1      36.148 -37.617   1.273  1.00  0.00     0.293 HD
ENDBRANCH  15  18
BRANCH  17  20
ATOM     20  O   UNL     1      33.076 -37.775   1.882  1.00  0.00    -0.504 OA
ATOM     21  H   UNL     1      33.044 -38.766   1.675  1.00  0.00     0.293 HD
ENDBRANCH  17  20
ENDBRANCH   1  12
BRANCH   6  22
ATOM     22  O   UNL     1      30.189 -36.864  11.000  1.00  0.00    -0.507 OA
ATOM     23  H   UNL     1      29.825 -37.196  11.879  1.00  0.00     0.293 HD
ENDBRANCH   6  22
BRANCH   8  24
ATOM     24  O   UNL     1      34.747 -37.208  12.474  1.00  0.00    -0.508 OA
ATOM     25  H   UNL     1      34.784 -38.039  13.053  1.00  0.00     0.293 HD
ENDBRANCH   8  24
TORSDOF 5
ENDMDL
MODEL 3
REMARK VINA RESULT:    -5.287      1.149      2.666
REMARK INTER + INTRA:          -6.481
REMARK INTER:                  -6.217
REMARK INTRA:                  -0.264
REMARK UNBOUND:                -0.266
REMARK SMILES O=c1cc(-c2ccc(O)c(O)c2)oc2cc(O)cc(O)c12
REMARK SMILES IDX 4 1 3 2 2 3 1 4 21 5 19 6 18 7 16 8 15 9 14 10 13 11 5 12
REMARK SMILES IDX 6 13 7 14 8 15 12 16 10 17 9 18 11 20 20 22 17 24
REMARK H PARENT 9 19 11 21 20 23 17 25
REMARK Flexibility Score: inf
ROOT
ATOM      1  C   UNL     1      34.318 -38.417   9.543  1.00  0.00     0.138 A 
ATOM      2  C   UNL     1      35.431 -38.672   8.730  1.00  0.00     0.100 A 
ATOM      3  C   UNL     1      35.362 -38.405   7.363  1.00  0.00     0.197 A 
ATOM      4  O   UNL     1      36.397 -38.586   6.669  1.00  0.00    -0.289 OA
ATOM      5  C   UNL     1      34.161 -37.910   6.802  1.00  0.00     0.107 A 
ATOM      6  C   UNL     1      33.962 -37.640   5.414  1.00  0.00     0.134 A 
ATOM      7  C   UNL     1      32.769 -37.042   4.992  1.00  0.00     0.093 A 
ATOM      8  C   UNL     1      31.743 -36.759   5.899  1.00  0.00     0.123 A 
ATOM      9  C   UNL     1      31.907 -37.068   7.246  1.00  0.00     0.094 A 
ATOM     10  C   UNL     1      33.100 -37.634   7.704  1.00  0.00     0.146 A 
ATOM     11  O   UNL     1      33.220 -37.900   9.001  1.00  0.00    -0.456 OA
ENDROOT
BRANCH   1  12
ATOM     12  C   UNL     1      34.336 -38.684  11.004  1.00  0.00     0.021 A 
ATOM     13  C   UNL     1      33.938 -39.945  11.481  1.00  0.00     0.016 A 
ATOM     14  C   UNL     1      33.953 -40.223  12.850  1.00  0.00     0.051 A 
ATOM     15  C   UNL     1      34.373 -39.254  13.765  1.00  0.00     0.157 A 
ATOM     16  C   UNL     1      34.770 -37.714  11.928  1.00  0.00     0.062 A 
ATOM     17  C   UNL     1      34.787 -37.993  13.303  1.00  0.00     0.158 A 
BRANCH  15  18
ATOM     18  O   UNL     1      34.375 -39.560  15.125  1.00  0.00    -0.504 OA
ATOM     19  H   UNL     1      34.150 -38.870  15.833  1.00  0.00     0.293 HD
ENDBRANCH  15  18
BRANCH  17  20
ATOM     20  O   UNL     1      35.218 -37.025  14.209  1.00  0.00    -0.504 OA
ATOM     21  H   UNL     1      34.562 -36.488  14.764  1.00  0.00     0.293 HD
ENDBRANCH  17  20
ENDBRANCH   1  12
BRANCH   6  22
ATOM     22  O   UNL     1      34.887 -37.961   4.416  1.00  0.00    -0.507 OA
ATOM     23  H   UNL     1      35.304 -37.298   3.782  1.00  0.00     0.293 HD
ENDBRANCH   6  22
BRANCH   8  24
ATOM     24  O   UNL     1      30.554 -36.177   5.467  1.00  0.00    -0.508 OA
ATOM     25  H   UNL     1      29.981 -35.617   6.087  1.00  0.00     0.293 HD
ENDBRANCH   8  24
TORSDOF 5
ENDMDL
MODEL 4
REMARK VINA RESULT:    -5.214      4.637      9.618
REMARK INTER + INTRA:          -6.395
REMARK INTER:                  -6.077
REMARK INTRA:                  -0.318
REMARK UNBOUND:                -0.266
REMARK SMILES O=c1cc(-c2ccc(O)c(O)c2)oc2cc(O)cc(O)c12
REMARK SMILES IDX 4 1 3 2 2 3 1 4 21 5 19 6 18 7 16 8 15 9 14 10 13 11 5 12
REMARK SMILES IDX 6 13 7 14 8 15 12 16 10 17 9 18 11 20 20 22 17 24
REMARK H PARENT 9 19 11 21 20 23 17 25
REMARK Flexibility Score: inf
ROOT
ATOM      1  C   UNL     1      34.414 -38.360   2.249  1.00  0.00     0.138 A 
ATOM      2  C   UNL     1      35.632 -38.167   2.917  1.00  0.00     0.100 A 
ATOM      3  C   UNL     1      35.637 -37.594   4.189  1.00  0.00     0.197 A 
ATOM      4  O   UNL     1      36.738 -37.490   4.789  1.00  0.00    -0.289 OA
ATOM      5  C   UNL     1      34.419 -37.184   4.781  1.00  0.00     0.107 A 
ATOM      6  C   UNL     1      34.307 -36.551   6.056  1.00  0.00     0.134 A 
ATOM      7  C   UNL     1      33.038 -36.296   6.590  1.00  0.00     0.093 A 
ATOM      8  C   UNL     1      31.878 -36.596   5.870  1.00  0.00     0.123 A 
ATOM      9  C   UNL     1      31.979 -37.164   4.603  1.00  0.00     0.094 A 
ATOM     10  C   UNL     1      33.230 -37.462   4.057  1.00  0.00     0.146 A 
ATOM     11  O   UNL     1      33.280 -38.017   2.850  1.00  0.00    -0.456 OA
ENDROOT
BRANCH   1  12
ATOM     12  C   UNL     1      34.351 -38.964   0.894  1.00  0.00     0.021 A 
ATOM     13  C   UNL     1      35.539 -39.376   0.264  1.00  0.00     0.016 A 
ATOM     14  C   UNL     1      35.505 -39.953  -1.007  1.00  0.00     0.051 A 
ATOM     15  C   UNL     1      34.288 -40.139  -1.668  1.00  0.00     0.157 A 
ATOM     16  C   UNL     1      33.125 -39.164   0.229  1.00  0.00     0.062 A 
ATOM     17  C   UNL     1      33.091 -39.746  -1.047  1.00  0.00     0.158 A 
BRANCH  15  18
ATOM     18  O   UNL     1      34.287 -40.716  -2.938  1.00  0.00    -0.504 OA
ATOM     19  H   UNL     1      34.766 -40.291  -3.723  1.00  0.00     0.293 HD
ENDBRANCH  15  18
BRANCH  17  20
ATOM     20  O   UNL     1      31.872 -39.939  -1.697  1.00  0.00    -0.504 OA
ATOM     21  H   UNL     1      31.725 -40.715  -2.331  1.00  0.00     0.293 HD
ENDBRANCH  17  20
ENDBRANCH   1  12
BRANCH   6  22
ATOM     22  O   UNL     1      35.402 -36.134   6.819  1.00  0.00    -0.507 OA
ATOM     23  H   UNL     1      36.341 -36.026   6.469  1.00  0.00     0.293 HD
ENDBRANCH   6  22
BRANCH   8  24
ATOM     24  O   UNL     1      30.621 -36.325   6.404  1.00  0.00    -0.508 OA
ATOM     25  H   UNL     1      29.773 -36.491   5.876  1.00  0.00     0.293 HD
ENDBRANCH   8  24
TORSDOF 5
ENDMDL
MODEL 5
REMARK VINA RESULT:    -5.186      6.238     11.104
REMARK INTER + INTRA:          -6.362
REMARK INTER:                  -6.082
REMARK INTRA:                  -0.280
REMARK UNBOUND:                -0.266
REMARK SMILES O=c1cc(-c2ccc(O)c(O)c2)oc2cc(O)cc(O)c12
REMARK SMILES IDX 4 1 3 2 2 3 1 4 21 5 19 6 18 7 16 8 15 9 14 10 13 11 5 12
REMARK SMILES IDX 6 13 7 14 8 15 12 16 10 17 9 18 11 20 20 22 17 24
REMARK H PARENT 9 19 11 21 20 23 17 25
REMARK Flexibility Score: inf
ROOT
ATOM      1  C   UNL     1      33.619 -39.795   0.177  1.00  0.00     0.138 A 
ATOM      2  C   UNL     1      32.553 -40.377   0.876  1.00  0.00     0.100 A 
ATOM      3  C   UNL     1      32.278 -39.969   2.181  1.00  0.00     0.197 A 
ATOM      4  O   UNL     1      31.278 -40.464   2.761  1.00  0.00    -0.289 OA
ATOM      5  C   UNL     1      33.096 -38.994   2.800  1.00  0.00     0.107 A 
ATOM      6  C   UNL     1      32.937 -38.531   4.141  1.00  0.00     0.134 A 
ATOM      7  C   UNL     1      33.734 -37.479   4.607  1.00  0.00     0.093 A 
ATOM      8  C   UNL     1      34.727 -36.914   3.800  1.00  0.00     0.123 A 
ATOM      9  C   UNL     1      34.926 -37.396   2.510  1.00  0.00     0.094 A 
ATOM     10  C   UNL     1      34.123 -38.421   2.004  1.00  0.00     0.146 A 
ATOM     11  O   UNL     1      34.338 -38.842   0.762  1.00  0.00    -0.456 OA
ENDROOT
BRANCH   1  12
ATOM     12  C   UNL     1      33.956 -40.193  -1.214  1.00  0.00     0.021 A 
ATOM     13  C   UNL     1      35.304 -40.349  -1.580  1.00  0.00     0.016 A 
ATOM     14  C   UNL     1      35.647 -40.730  -2.879  1.00  0.00     0.051 A 
ATOM     15  C   UNL     1      34.654 -40.971  -3.832  1.00  0.00     0.157 A 
ATOM     16  C   UNL     1      32.957 -40.449  -2.173  1.00  0.00     0.062 A 
ATOM     17  C   UNL     1      33.301 -40.834  -3.478  1.00  0.00     0.158 A 
BRANCH  15  18
ATOM     18  O   UNL     1      35.027 -41.348  -5.122  1.00  0.00    -0.504 OA
ATOM     19  H   UNL     1      34.369 -41.758  -5.774  1.00  0.00     0.293 HD
ENDBRANCH  15  18
BRANCH  17  20
ATOM     20  O   UNL     1      32.304 -41.083  -4.420  1.00  0.00    -0.504 OA
ATOM     21  H   UNL     1      32.430 -40.855  -5.399  1.00  0.00     0.293 HD
ENDBRANCH  17  20
ENDBRANCH   1  12
BRANCH   6  22
ATOM     22  O   UNL     1      32.034 -39.082   5.055  1.00  0.00    -0.507 OA
ATOM     23  H   UNL     1      31.773 -40.055   5.092  1.00  0.00     0.293 HD
ENDBRANCH   6  22
BRANCH   8  24
ATOM     24  O   UNL     1      35.525 -35.877   4.278  1.00  0.00    -0.508 OA
ATOM     25  H   UNL     1      35.135 -35.112   4.816  1.00  0.00     0.293 HD
ENDBRANCH   8  24
TORSDOF 5
ENDMDL
MODEL 6
REMARK VINA RESULT:    -5.145     12.741     14.997
REMARK INTER + INTRA:          -6.314
REMARK INTER:                  -6.006
REMARK INTRA:                  -0.308
REMARK UNBOUND:                -0.266
REMARK SMILES O=c1cc(-c2ccc(O)c(O)c2)oc2cc(O)cc(O)c12
REMARK SMILES IDX 4 1 3 2 2 3 1 4 21 5 19 6 18 7 16 8 15 9 14 10 13 11 5 12
REMARK SMILES IDX 6 13 7 14 8 15 12 16 10 17 9 18 11 20 20 22 17 24
REMARK H PARENT 9 19 11 21 20 23 17 25
REMARK Flexibility Score: inf
ROOT
ATOM      1  C   UNL     1      37.696 -40.318  -3.886  1.00  0.00     0.138 A 
ATOM      2  C   UNL     1      38.608 -41.298  -4.302  1.00  0.00     0.100 A 
ATOM      3  C   UNL     1      39.972 -41.005  -4.325  1.00  0.00     0.197 A 
ATOM      4  O   UNL     1      40.771 -41.924  -4.644  1.00  0.00    -0.289 OA
ATOM      5  C   UNL     1      40.420 -39.714  -3.960  1.00  0.00     0.107 A 
ATOM      6  C   UNL     1      41.783 -39.290  -3.985  1.00  0.00     0.134 A 
ATOM      7  C   UNL     1      42.121 -38.024  -3.490  1.00  0.00     0.093 A 
ATOM      8  C   UNL     1      41.138 -37.145  -3.027  1.00  0.00     0.123 A 
ATOM      9  C   UNL     1      39.800 -37.530  -3.049  1.00  0.00     0.094 A 
ATOM     10  C   UNL     1      39.435 -38.799  -3.504  1.00  0.00     0.146 A 
ATOM     11  O   UNL     1      38.148 -39.131  -3.495  1.00  0.00    -0.456 OA
ENDROOT
BRANCH   1  12
ATOM     12  C   UNL     1      36.234 -40.576  -3.843  1.00  0.00     0.021 A 
ATOM     13  C   UNL     1      35.675 -41.533  -4.708  1.00  0.00     0.016 A 
ATOM     14  C   UNL     1      34.304 -41.799  -4.681  1.00  0.00     0.051 A 
ATOM     15  C   UNL     1      33.469 -41.123  -3.789  1.00  0.00     0.157 A 
ATOM     16  C   UNL     1      35.390 -39.905  -2.936  1.00  0.00     0.062 A 
ATOM     17  C   UNL     1      34.013 -40.173  -2.908  1.00  0.00     0.158 A 
BRANCH  15  18
ATOM     18  O   UNL     1      32.104 -41.408  -3.788  1.00  0.00    -0.504 OA
ATOM     19  H   UNL     1      31.534 -41.312  -2.955  1.00  0.00     0.293 HD
ENDBRANCH  15  18
BRANCH  17  20
ATOM     20  O   UNL     1      33.187 -39.503  -2.007  1.00  0.00    -0.504 OA
ATOM     21  H   UNL     1      32.379 -38.976  -2.318  1.00  0.00     0.293 HD
ENDBRANCH  17  20
ENDBRANCH   1  12
BRANCH   6  22
ATOM     22  O   UNL     1      42.830 -40.057  -4.504  1.00  0.00    -0.507 OA
ATOM     23  H   UNL     1      42.743 -41.007  -4.828  1.00  0.00     0.293 HD
ENDBRANCH   6  22
BRANCH   8  24
ATOM     24  O   UNL     1      41.482 -35.882  -2.550  1.00  0.00    -0.508 OA
ATOM     25  H   UNL     1      42.220 -35.756  -1.867  1.00  0.00     0.293 HD
ENDBRANCH   8  24
TORSDOF 5
ENDMDL
MODEL 7
REMARK VINA RESULT:    -5.123      1.969      2.864
REMARK INTER + INTRA:          -6.288
REMARK INTER:                  -6.005
REMARK INTRA:                  -0.283
REMARK UNBOUND:                -0.266
REMARK SMILES O=c1cc(-c2ccc(O)c(O)c2)oc2cc(O)cc(O)c12
REMARK SMILES IDX 4 1 3 2 2 3 1 4 21 5 19 6 18 7 16 8 15 9 14 10 13 11 5 12
REMARK SMILES IDX 6 13 7 14 8 15 12 16 10 17 9 18 11 20 20 22 17 24
REMARK H PARENT 9 19 11 21 20 23 17 25
REMARK Flexibility Score: inf
ROOT
ATOM      1  C   UNL     1      33.487 -37.759   7.478  1.00  0.00     0.138 A 
ATOM      2  C   UNL     1      32.339 -37.589   6.692  1.00  0.00     0.100 A 
ATOM      3  C   UNL     1      32.468 -37.392   5.317  1.00  0.00     0.197 A 
ATOM      4  O   UNL     1      31.418 -37.303   4.628  1.00  0.00    -0.289 OA
ATOM      5  C   UNL     1      33.755 -37.333   4.732  1.00  0.00     0.107 A 
ATOM      6  C   UNL     1      34.009 -37.096   3.347  1.00  0.00     0.134 A 
ATOM      7  C   UNL     1      35.320 -37.176   2.862  1.00  0.00     0.093 A 
ATOM      8  C   UNL     1      36.393 -37.425   3.723  1.00  0.00     0.123 A 
ATOM      9  C   UNL     1      36.161 -37.605   5.084  1.00  0.00     0.094 A 
ATOM     10  C   UNL     1      34.861 -37.565   5.592  1.00  0.00     0.146 A 
ATOM     11  O   UNL     1      34.682 -37.755   6.896  1.00  0.00    -0.456 OA
ENDROOT
BRANCH   1  12
ATOM     12  C   UNL     1      33.408 -37.971   8.946  1.00  0.00     0.021 A 
ATOM     13  C   UNL     1      32.624 -39.023   9.451  1.00  0.00     0.016 A 
ATOM     14  C   UNL     1      32.539 -39.248  10.826  1.00  0.00     0.051 A 
ATOM     15  C   UNL     1      33.240 -38.436  11.721  1.00  0.00     0.157 A 
ATOM     16  C   UNL     1      34.123 -37.162   9.850  1.00  0.00     0.062 A 
ATOM     17  C   UNL     1      34.040 -37.389  11.232  1.00  0.00     0.158 A 
BRANCH  15  18
ATOM     18  O   UNL     1      33.134 -38.683  13.089  1.00  0.00    -0.504 OA
ATOM     19  H   UNL     1      33.940 -38.915  13.659  1.00  0.00     0.293 HD
ENDBRANCH  15  18
BRANCH  17  20
ATOM     20  O   UNL     1      34.751 -36.581  12.119  1.00  0.00    -0.504 OA
ATOM     21  H   UNL     1      34.457 -35.635  12.327  1.00  0.00     0.293 HD
ENDBRANCH  17  20
ENDBRANCH   1  12
BRANCH   6  22
ATOM     22  O   UNL     1      33.020 -36.755   2.419  1.00  0.00    -0.507 OA
ATOM     23  H   UNL     1      33.174 -36.207   1.587  1.00  0.00     0.293 HD
ENDBRANCH   6  22
BRANCH   8  24
ATOM     24  O   UNL     1      37.696 -37.489   3.233  1.00  0.00    -0.508 OA
ATOM     25  H   UNL     1      38.279 -38.304   3.380  1.00  0.00     0.293 HD
ENDBRANCH   8  24
TORSDOF 5
ENDMDL
MODEL 8
REMARK VINA RESULT:    -5.106     13.037     14.918
REMARK INTER + INTRA:          -6.268
REMARK INTER:                  -5.976
REMARK INTRA:                  -0.292
REMARK UNBOUND:                -0.266
REMARK SMILES O=c1cc(-c2ccc(O)c(O)c2)oc2cc(O)cc(O)c12
REMARK SMILES IDX 4 1 3 2 2 3 1 4 21 5 19 6 18 7 16 8 15 9 14 10 13 11 5 12
REMARK SMILES IDX 6 13 7 14 8 15 12 16 10 17 9 18 11 20 20 22 17 24
REMARK H PARENT 9 19 11 21 20 23 17 25
REMARK Flexibility Score: inf
ROOT
ATOM      1  C   UNL     1      38.231 -39.005  -3.491  1.00  0.00     0.138 A 
ATOM      2  C   UNL     1      38.183 -37.759  -2.849  1.00  0.00     0.100 A 
ATOM      3  C   UNL     1      39.367 -37.065  -2.601  1.00  0.00     0.197 A 
ATOM      4  O   UNL     1      39.289 -35.923  -2.080  1.00  0.00    -0.289 OA
ATOM      5  C   UNL     1      40.608 -37.636  -2.971  1.00  0.00     0.107 A 
ATOM      6  C   UNL     1      41.882 -37.038  -2.731  1.00  0.00     0.134 A 
ATOM      7  C   UNL     1      43.036 -37.642  -3.246  1.00  0.00     0.093 A 
ATOM      8  C   UNL     1      42.967 -38.854  -3.940  1.00  0.00     0.123 A 
ATOM      9  C   UNL     1      41.734 -39.472  -4.132  1.00  0.00     0.094 A 
ATOM     10  C   UNL     1      40.562 -38.877  -3.660  1.00  0.00     0.146 A 
ATOM     11  O   UNL     1      39.405 -39.494  -3.877  1.00  0.00    -0.456 OA
ENDROOT
BRANCH   1  12
ATOM     12  C   UNL     1      37.001 -39.787  -3.777  1.00  0.00     0.021 A 
ATOM     13  C   UNL     1      37.018 -40.750  -4.802  1.00  0.00     0.016 A 
ATOM     14  C   UNL     1      35.877 -41.503  -5.086  1.00  0.00     0.051 A 
ATOM     15  C   UNL     1      34.704 -41.317  -4.350  1.00  0.00     0.157 A 
ATOM     16  C   UNL     1      35.821 -39.611  -3.029  1.00  0.00     0.062 A 
ATOM     17  C   UNL     1      34.675 -40.369  -3.313  1.00  0.00     0.158 A 
BRANCH  15  18
ATOM     18  O   UNL     1      33.580 -42.083  -4.658  1.00  0.00    -0.504 OA
ATOM     19  H   UNL     1      32.886 -41.775  -5.330  1.00  0.00     0.293 HD
ENDBRANCH  15  18
BRANCH  17  20
ATOM     20  O   UNL     1      33.511 -40.187  -2.567  1.00  0.00    -0.504 OA
ATOM     21  H   UNL     1      33.375 -40.646  -1.674  1.00  0.00     0.293 HD
ENDBRANCH  17  20
ENDBRANCH   1  12
BRANCH   6  22
ATOM     22  O   UNL     1      42.069 -35.875  -1.978  1.00  0.00    -0.507 OA
ATOM     23  H   UNL     1      42.965 -35.516  -1.685  1.00  0.00     0.293 HD
ENDBRANCH   6  22
BRANCH   8  24
ATOM     24  O   UNL     1      44.122 -39.455  -4.436  1.00  0.00    -0.508 OA
ATOM     25  H   UNL     1      44.079 -40.222  -5.096  1.00  0.00     0.293 HD
ENDBRANCH   8  24
TORSDOF 5
ENDMDL
MODEL 9
REMARK VINA RESULT:    -5.092     12.681     14.730
REMARK INTER + INTRA:          -6.251
REMARK INTER:                  -5.960
REMARK INTRA:                  -0.292
REMARK UNBOUND:                -0.266
REMARK SMILES O=c1cc(-c2ccc(O)c(O)c2)oc2cc(O)cc(O)c12
REMARK SMILES IDX 4 1 3 2 2 3 1 4 21 5 19 6 18 7 16 8 15 9 14 10 13 11 5 12
REMARK SMILES IDX 6 13 7 14 8 15 12 16 10 17 9 18 11 20 20 22 17 24
REMARK H PARENT 9 19 11 21 20 23 17 25
REMARK Flexibility Score: inf
ROOT
ATOM      1  C   UNL     1      36.794 -40.181  -3.586  1.00  0.00     0.138 A 
ATOM      2  C   UNL     1      37.101 -38.872  -3.190  1.00  0.00     0.100 A 
ATOM      3  C   UNL     1      38.426 -38.436  -3.215  1.00  0.00     0.197 A 
ATOM      4  O   UNL     1      38.663 -37.238  -2.913  1.00  0.00    -0.289 OA
ATOM      5  C   UNL     1      39.452 -39.326  -3.610  1.00  0.00     0.107 A 
ATOM      6  C   UNL     1      40.843 -39.005  -3.635  1.00  0.00     0.134 A 
ATOM      7  C   UNL     1      41.756 -39.931  -4.156  1.00  0.00     0.093 A 
ATOM      8  C   UNL     1      41.335 -41.189  -4.596  1.00  0.00     0.123 A 
ATOM      9  C   UNL     1      39.988 -41.532  -4.525  1.00  0.00     0.094 A 
ATOM     10  C   UNL     1      39.048 -40.617  -4.043  1.00  0.00     0.146 A 
ATOM     11  O   UNL     1      37.770 -40.980  -4.005  1.00  0.00    -0.456 OA
ENDROOT
BRANCH   1  12
ATOM     12  C   UNL     1      35.402 -40.697  -3.577  1.00  0.00     0.021 A 
ATOM     13  C   UNL     1      35.069 -41.801  -4.381  1.00  0.00     0.016 A 
ATOM     14  C   UNL     1      33.768 -42.310  -4.385  1.00  0.00     0.051 A 
ATOM     15  C   UNL     1      32.780 -41.734  -3.582  1.00  0.00     0.157 A 
ATOM     16  C   UNL     1      34.406 -40.127  -2.760  1.00  0.00     0.062 A 
ATOM     17  C   UNL     1      33.100 -40.639  -2.762  1.00  0.00     0.158 A 
BRANCH  15  18
ATOM     18  O   UNL     1      31.490 -42.263  -3.609  1.00  0.00    -0.504 OA
ATOM     19  H   UNL     1      30.798 -41.960  -4.285  1.00  0.00     0.293 HD
ENDBRANCH  15  18
BRANCH  17  20
ATOM     20  O   UNL     1      32.122 -40.067  -1.950  1.00  0.00    -0.504 OA
ATOM     21  H   UNL     1      32.309 -39.824  -0.984  1.00  0.00     0.293 HD
ENDBRANCH  17  20
ENDBRANCH   1  12
BRANCH   6  22
ATOM     22  O   UNL     1      41.377 -37.811  -3.142  1.00  0.00    -0.507 OA
ATOM     23  H   UNL     1      42.190 -37.346  -3.515  1.00  0.00     0.293 HD
ENDBRANCH   6  22
BRANCH   8  24
ATOM     24  O   UNL     1      42.253 -42.108  -5.098  1.00  0.00    -0.508 OA
ATOM     25  H   UNL     1      42.358 -42.263  -6.094  1.00  0.00     0.293 HD
ENDBRANCH   8  24
TORSDOF 5
ENDMDL
