MODEL 1
REMARK VINA RESULT:    -6.287      0.000      0.000
REMARK INTER + INTRA:          -7.477
REMARK INTER:                  -7.390
REMARK INTRA:                  -0.088
REMARK UNBOUND:                -0.088
REMARK SMILES O=c1c(O)c(-c2ccc(O)cc2)oc2cc(O)cc(O)c12
REMARK SMILES IDX 5 1 3 2 2 3 1 4 21 5 19 6 18 7 16 8 15 9 14 10 13 11 6 12
REMARK SMILES IDX 7 13 8 14 9 15 12 16 11 17 10 18 4 20 20 22 17 24
REMARK H PARENT 10 19 4 21 20 23 17 25
REMARK Flexibility Score: inf
ROOT
ATOM      1  C   UNL     1      15.448  15.125  11.718  1.00  0.00     0.180 A 
ATOM      2  C   UNL     1      15.789  15.554  10.424  1.00  0.00     0.208 A 
ATOM      3  C   UNL     1      14.815  16.192   9.640  1.00  0.00     0.238 A 
ATOM      4  O   UNL     1      15.111  16.525   8.463  1.00  0.00    -0.285 OA
ATOM      5  C   UNL     1      13.520  16.411  10.165  1.00  0.00     0.111 A 
ATOM      6  C   UNL     1      12.467  17.084   9.474  1.00  0.00     0.134 A 
ATOM      7  C   UNL     1      11.187  17.127  10.039  1.00  0.00     0.093 A 
ATOM      8  C   UNL     1      10.937  16.579  11.299  1.00  0.00     0.123 A 
ATOM      9  C   UNL     1      11.971  15.972  12.007  1.00  0.00     0.094 A 
ATOM     10  C   UNL     1      13.250  15.881  11.454  1.00  0.00     0.146 A 
ATOM     11  O   UNL     1      14.205  15.285  12.158  1.00  0.00    -0.452 OA
ENDROOT
BRANCH   1  12
ATOM     12  C   UNL     1      16.427  14.466  12.613  1.00  0.00     0.021 A 
ATOM     13  C   UNL     1      16.976  13.227  12.244  1.00  0.00     0.016 A 
ATOM     14  C   UNL     1      17.885  12.576  13.085  1.00  0.00     0.047 A 
ATOM     15  C   UNL     1      18.244  13.147  14.309  1.00  0.00     0.115 A 
ATOM     16  C   UNL     1      16.776  15.026  13.855  1.00  0.00     0.016 A 
ATOM     17  C   UNL     1      17.685  14.373  14.694  1.00  0.00     0.047 A 
BRANCH  15  18
ATOM     18  O   UNL     1      19.151  12.488  15.136  1.00  0.00    -0.508 OA
ATOM     19  H   UNL     1      18.844  11.962  15.946  1.00  0.00     0.293 HD
ENDBRANCH  15  18
ENDBRANCH   1  12
BRANCH   2  20
ATOM     20  O   UNL     1      17.068  15.309   9.916  1.00  0.00    -0.502 OA
ATOM     21  H   UNL     1      17.235  14.673   9.146  1.00  0.00     0.293 HD
ENDBRANCH   2  20
BRANCH   6  22
ATOM     22  O   UNL     1      12.634  17.746   8.254  1.00  0.00    -0.507 OA
ATOM     23  H   UNL     1      12.491  18.734   8.112  1.00  0.00     0.293 HD
ENDBRANCH   6  22
BRANCH   8  24
ATOM     24  O   UNL     1       9.663  16.639  11.861  1.00  0.00    -0.508 OA
ATOM     25  H   UNL     1       8.919  16.022  11.554  1.00  0.00     0.293 HD
ENDBRANCH   8  24
TORSDOF 5
ENDMDL
MODEL 2
REMARK VINA RESULT:    -6.285      4.745      9.595
REMARK INTER + INTRA:          -7.475
REMARK INTER:                  -7.224
REMARK INTRA:                  -0.251
REMARK UNBOUND:                -0.088
REMARK SMILES O=c1c(O)c(-c2ccc(O)cc2)oc2cc(O)cc(O)c12
REMARK SMILES IDX 5 1 3 2 2 3 1 4 21 5 19 6 18 7 16 8 15 9 14 10 13 11 6 12
REMARK SMILES IDX 7 13 8 14 9 15 12 16 11 17 10 18 4 20 20 22 17 24
REMARK H PARENT 10 19 4 21 20 23 17 25
REMARK Flexibility Score: inf
ROOT
ATOM      1  C   UNL     1      17.132  13.529  17.622  1.00  0.00     0.180 A 
ATOM      2  C   UNL     1      18.059  13.842  18.631  1.00  0.00     0.208 A 
ATOM      3  C   UNL     1      18.320  12.896  19.633  1.00  0.00     0.238 A 
ATOM      4  O   UNL     1      19.110  13.204  20.564  1.00  0.00    -0.285 OA
ATOM      5  C   UNL     1      17.667  11.641  19.606  1.00  0.00     0.111 A 
ATOM      6  C   UNL     1      17.886  10.591  20.548  1.00  0.00     0.134 A 
ATOM      7  C   UNL     1      17.087   9.442  20.500  1.00  0.00     0.093 A 
ATOM      8  C   UNL     1      16.122   9.277  19.504  1.00  0.00     0.123 A 
ATOM      9  C   UNL     1      15.941  10.270  18.544  1.00  0.00     0.094 A 
ATOM     10  C   UNL     1      16.698  11.443  18.587  1.00  0.00     0.146 A 
ATOM     11  O   UNL     1      16.486  12.369  17.660  1.00  0.00    -0.452 OA
ENDROOT
BRANCH   1  12
ATOM     12  C   UNL     1      16.822  14.465  16.517  1.00  0.00     0.021 A 
ATOM     13  C   UNL     1      15.931  15.528  16.741  1.00  0.00     0.016 A 
ATOM     14  C   UNL     1      15.606  16.411  15.706  1.00  0.00     0.047 A 
ATOM     15  C   UNL     1      16.155  16.234  14.433  1.00  0.00     0.115 A 
ATOM     16  C   UNL     1      17.356  14.282  15.229  1.00  0.00     0.016 A 
ATOM     17  C   UNL     1      17.030  15.166  14.196  1.00  0.00     0.047 A 
BRANCH  15  18
ATOM     18  O   UNL     1      15.824  17.123  13.412  1.00  0.00    -0.508 OA
ATOM     19  H   UNL     1      16.177  17.001  12.469  1.00  0.00     0.293 HD
ENDBRANCH  15  18
ENDBRANCH   1  12
BRANCH   2  20
ATOM     20  O   UNL     1      18.678  15.096  18.651  1.00  0.00    -0.502 OA
ATOM     21  H   UNL     1      19.566  15.256  19.111  1.00  0.00     0.293 HD
ENDBRANCH   2  20
BRANCH   6  22
ATOM     22  O   UNL     1      18.886  10.616  21.524  1.00  0.00    -0.507 OA
ATOM     23  H   UNL     1      19.872  10.505  21.341  1.00  0.00     0.293 HD
ENDBRANCH   6  22
BRANCH   8  24
ATOM     24  O   UNL     1      15.341   8.123  19.454  1.00  0.00    -0.508 OA
ATOM     25  H   UNL     1      15.294   7.482  20.238  1.00  0.00     0.293 HD
ENDBRANCH   8  24
TORSDOF 5
ENDMDL
MODEL 3
REMARK VINA RESULT:    -6.275      2.298      2.765
REMARK INTER + INTRA:          -7.463
REMARK INTER:                  -7.237
REMARK INTRA:                  -0.226
REMARK UNBOUND:                -0.088
REMARK SMILES O=c1c(O)c(-c2ccc(O)cc2)oc2cc(O)cc(O)c12
REMARK SMILES IDX 5 1 3 2 2 3 1 4 21 5 19 6 18 7 16 8 15 9 14 10 13 11 6 12
REMARK SMILES IDX 7 13 8 14 9 15 12 16 11 17 10 18 4 20 20 22 17 24
REMARK H PARENT 10 19 4 21 20 23 17 25
REMARK Flexibility Score: inf
ROOT
ATOM      1  C   UNL     1      15.317  15.619  13.512  1.00  0.00     0.180 A 
ATOM      2  C   UNL     1      15.472  16.837  12.830  1.00  0.00     0.208 A 
ATOM      3  C   UNL     1      14.744  17.054  11.650  1.00  0.00     0.238 A 
ATOM      4  O   UNL     1      14.928  18.125  11.014  1.00  0.00    -0.285 OA
ATOM      5  C   UNL     1      13.857  16.059  11.176  1.00  0.00     0.111 A 
ATOM      6  C   UNL     1      13.038  16.189  10.013  1.00  0.00     0.134 A 
ATOM      7  C   UNL     1      12.296  15.089   9.565  1.00  0.00     0.093 A 
ATOM      8  C   UNL     1      12.292  13.886  10.273  1.00  0.00     0.123 A 
ATOM      9  C   UNL     1      13.041  13.769  11.442  1.00  0.00     0.094 A 
ATOM     10  C   UNL     1      13.819  14.836  11.895  1.00  0.00     0.146 A 
ATOM     11  O   UNL     1      14.527  14.678  13.007  1.00  0.00    -0.452 OA
ENDROOT
BRANCH   1  12
ATOM     12  C   UNL     1      16.032  15.326  14.776  1.00  0.00     0.021 A 
ATOM     13  C   UNL     1      17.050  14.357  14.786  1.00  0.00     0.016 A 
ATOM     14  C   UNL     1      17.722  14.049  15.973  1.00  0.00     0.047 A 
ATOM     15  C   UNL     1      17.377  14.692  17.165  1.00  0.00     0.115 A 
ATOM     16  C   UNL     1      15.676  15.956  15.982  1.00  0.00     0.016 A 
ATOM     17  C   UNL     1      16.350  15.645  17.167  1.00  0.00     0.047 A 
BRANCH  15  18
ATOM     18  O   UNL     1      18.057  14.376  18.339  1.00  0.00    -0.508 OA
ATOM     19  H   UNL     1      17.694  13.692  18.993  1.00  0.00     0.293 HD
ENDBRANCH  15  18
ENDBRANCH   1  12
BRANCH   2  20
ATOM     20  O   UNL     1      16.370  17.798  13.303  1.00  0.00    -0.502 OA
ATOM     21  H   UNL     1      16.624  18.618  12.764  1.00  0.00     0.293 HD
ENDBRANCH   2  20
BRANCH   6  22
ATOM     22  O   UNL     1      12.899  17.375   9.286  1.00  0.00    -0.507 OA
ATOM     23  H   UNL     1      13.606  17.766   8.683  1.00  0.00     0.293 HD
ENDBRANCH   6  22
BRANCH   8  24
ATOM     24  O   UNL     1      11.539  12.801   9.829  1.00  0.00    -0.508 OA
ATOM     25  H   UNL     1      11.586  11.899  10.290  1.00  0.00     0.293 HD
ENDBRANCH   8  24
TORSDOF 5
ENDMDL
MODEL 4
REMARK VINA RESULT:    -6.259      2.592      3.654
REMARK INTER + INTRA:          -7.445
REMARK INTER:                  -7.342
REMARK INTRA:                  -0.103
REMARK UNBOUND:                -0.088
REMARK SMILES O=c1c(O)c(-c2ccc(O)cc2)oc2cc(O)cc(O)c12
REMARK SMILES IDX 5 1 3 2 2 3 1 4 21 5 19 6 18 7 16 8 15 9 14 10 13 11 6 12
REMARK SMILES IDX 7 13 8 14 9 15 12 16 11 17 10 18 4 20 20 22 17 24
REMARK H PARENT 10 19 4 21 20 23 17 25
REMARK Flexibility Score: inf
ROOT
ATOM      1  C   UNL     1      16.385  16.316  12.046  1.00  0.00     0.180 A 
ATOM      2  C   UNL     1      17.634  16.507  11.432  1.00  0.00     0.208 A 
ATOM      3  C   UNL     1      17.680  16.831  10.067  1.00  0.00     0.238 A 
ATOM      4  O   UNL     1      18.803  16.947   9.511  1.00  0.00    -0.285 OA
ATOM      5  C   UNL     1      16.477  16.977   9.337  1.00  0.00     0.111 A 
ATOM      6  C   UNL     1      16.403  17.342   7.958  1.00  0.00     0.134 A 
ATOM      7  C   UNL     1      15.165  17.329   7.305  1.00  0.00     0.093 A 
ATOM      8  C   UNL     1      13.989  17.027   7.996  1.00  0.00     0.123 A 
ATOM      9  C   UNL     1      14.044  16.727   9.356  1.00  0.00     0.094 A 
ATOM     10  C   UNL     1      15.268  16.697  10.026  1.00  0.00     0.146 A 
ATOM     11  O   UNL     1      15.276  16.396  11.319  1.00  0.00    -0.452 OA
ENDROOT
BRANCH   1  12
ATOM     12  C   UNL     1      16.255  15.998  13.486  1.00  0.00     0.021 A 
ATOM     13  C   UNL     1      15.637  16.922  14.346  1.00  0.00     0.016 A 
ATOM     14  C   UNL     1      15.524  16.652  15.713  1.00  0.00     0.047 A 
ATOM     15  C   UNL     1      16.039  15.464  16.241  1.00  0.00     0.115 A 
ATOM     16  C   UNL     1      16.788  14.814  14.026  1.00  0.00     0.016 A 
ATOM     17  C   UNL     1      16.674  14.546  15.394  1.00  0.00     0.047 A 
BRANCH  15  18
ATOM     18  O   UNL     1      15.917  15.208  17.605  1.00  0.00    -0.508 OA
ATOM     19  H   UNL     1      16.716  14.932  18.165  1.00  0.00     0.293 HD
ENDBRANCH  15  18
ENDBRANCH   1  12
BRANCH   2  20
ATOM     20  O   UNL     1      18.811  16.337  12.167  1.00  0.00    -0.502 OA
ATOM     21  H   UNL     1      19.303  15.453  12.209  1.00  0.00     0.293 HD
ENDBRANCH   2  20
BRANCH   6  22
ATOM     22  O   UNL     1      17.505  17.751   7.201  1.00  0.00    -0.507 OA
ATOM     23  H   UNL     1      18.328  18.195   7.577  1.00  0.00     0.293 HD
ENDBRANCH   6  22
BRANCH   8  24
ATOM     24  O   UNL     1      12.759  17.031   7.342  1.00  0.00    -0.508 OA
ATOM     25  H   UNL     1      12.513  17.760   6.683  1.00  0.00     0.293 HD
ENDBRANCH   8  24
TORSDOF 5
ENDMDL
MODEL 5
REMARK VINA RESULT:    -6.204      1.920      6.547
REMARK INTER + INTRA:          -7.379
REMARK INTER:                  -7.148
REMARK INTRA:                  -0.231
REMARK UNBOUND:                -0.088
REMARK SMILES O=c1c(O)c(-c2ccc(O)cc2)oc2cc(O)cc(O)c12
REMARK SMILES IDX 5 1 3 2 2 3 1 4 21 5 19 6 18 7 16 8 15 9 14 10 13 11 6 12
REMARK SMILES IDX 7 13 8 14 9 15 12 16 11 17 10 18 4 20 20 22 17 24
REMARK H PARENT 10 19 4 21 20 23 17 25
REMARK Flexibility Score: inf
ROOT
ATOM      1  C   UNL     1      15.932  15.445  11.784  1.00  0.00     0.180 A 
ATOM      2  C   UNL     1      17.007  14.565  11.574  1.00  0.00     0.208 A 
ATOM      3  C   UNL     1      17.691  14.047  12.684  1.00  0.00     0.238 A 
ATOM      4  O   UNL     1      18.687  13.303  12.488  1.00  0.00    -0.285 OA
ATOM      5  C   UNL     1      17.281  14.401  13.992  1.00  0.00     0.111 A 
ATOM      6  C   UNL     1      17.876  13.904  15.191  1.00  0.00     0.134 A 
ATOM      7  C   UNL     1      17.475  14.424  16.428  1.00  0.00     0.093 A 
ATOM      8  C   UNL     1      16.455  15.374  16.513  1.00  0.00     0.123 A 
ATOM      9  C   UNL     1      15.828  15.822  15.353  1.00  0.00     0.094 A 
ATOM     10  C   UNL     1      16.230  15.349  14.102  1.00  0.00     0.146 A 
ATOM     11  O   UNL     1      15.613  15.809  13.021  1.00  0.00    -0.452 OA
ENDROOT
BRANCH   1  12
ATOM     12  C   UNL     1      15.147  16.012  10.664  1.00  0.00     0.021 A 
ATOM     13  C   UNL     1      15.682  17.070   9.910  1.00  0.00     0.016 A 
ATOM     14  C   UNL     1      14.949  17.636   8.863  1.00  0.00     0.047 A 
ATOM     15  C   UNL     1      13.668  17.164   8.565  1.00  0.00     0.115 A 
ATOM     16  C   UNL     1      13.850  15.554  10.372  1.00  0.00     0.016 A 
ATOM     17  C   UNL     1      13.118  16.122   9.324  1.00  0.00     0.047 A 
BRANCH  15  18
ATOM     18  O   UNL     1      12.949  17.736   7.518  1.00  0.00    -0.508 OA
ATOM     19  H   UNL     1      12.286  17.196   6.973  1.00  0.00     0.293 HD
ENDBRANCH  15  18
ENDBRANCH   1  12
BRANCH   2  20
ATOM     20  O   UNL     1      17.409  14.245  10.274  1.00  0.00    -0.502 OA
ATOM     21  H   UNL     1      18.369  14.337   9.963  1.00  0.00     0.293 HD
ENDBRANCH   2  20
BRANCH   6  22
ATOM     22  O   UNL     1      18.836  12.889  15.222  1.00  0.00    -0.507 OA
ATOM     23  H   UNL     1      19.229  12.494  16.063  1.00  0.00     0.293 HD
ENDBRANCH   6  22
BRANCH   8  24
ATOM     24  O   UNL     1      16.051  15.875  17.749  1.00  0.00    -0.508 OA
ATOM     25  H   UNL     1      16.194  15.351  18.605  1.00  0.00     0.293 HD
ENDBRANCH   8  24
TORSDOF 5
ENDMDL
MODEL 6
REMARK VINA RESULT:    -6.124      1.727      2.373
REMARK INTER + INTRA:          -7.286
REMARK INTER:                  -7.234
REMARK INTRA:                  -0.052
REMARK UNBOUND:                -0.088
REMARK SMILES O=c1c(O)c(-c2ccc(O)cc2)oc2cc(O)cc(O)c12
REMARK SMILES IDX 5 1 3 2 2 3 1 4 21 5 19 6 18 7 16 8 15 9 14 10 13 11 6 12
REMARK SMILES IDX 7 13 8 14 9 15 12 16 11 17 10 18 4 20 20 22 17 24
REMARK H PARENT 10 19 4 21 20 23 17 25
REMARK Flexibility Score: inf
ROOT
ATOM      1  C   UNL     1      15.754  15.714  13.338  1.00  0.00     0.180 A 
ATOM      2  C   UNL     1      16.581  16.147  12.287  1.00  0.00     0.208 A 
ATOM      3  C   UNL     1      15.990  16.607  11.100  1.00  0.00     0.238 A 
ATOM      4  O   UNL     1      16.736  16.942  10.143  1.00  0.00    -0.285 OA
ATOM      5  C   UNL     1      14.580  16.646  10.984  1.00  0.00     0.111 A 
ATOM      6  C   UNL     1      13.873  17.131   9.843  1.00  0.00     0.134 A 
ATOM      7  C   UNL     1      12.480  17.000   9.787  1.00  0.00     0.093 A 
ATOM      8  C   UNL     1      11.763  16.461  10.858  1.00  0.00     0.123 A 
ATOM      9  C   UNL     1      12.439  16.039  12.000  1.00  0.00     0.094 A 
ATOM     10  C   UNL     1      13.831  16.124  12.071  1.00  0.00     0.146 A 
ATOM     11  O   UNL     1      14.436  15.701  13.175  1.00  0.00    -0.452 OA
ENDROOT
BRANCH   1  12
ATOM     12  C   UNL     1      16.304  15.239  14.628  1.00  0.00     0.021 A 
ATOM     13  C   UNL     1      15.971  15.917  15.813  1.00  0.00     0.016 A 
ATOM     14  C   UNL     1      16.496  15.500  17.040  1.00  0.00     0.047 A 
ATOM     15  C   UNL     1      17.371  14.412  17.097  1.00  0.00     0.115 A 
ATOM     16  C   UNL     1      17.200  14.158  14.690  1.00  0.00     0.016 A 
ATOM     17  C   UNL     1      17.724  13.742  15.918  1.00  0.00     0.047 A 
BRANCH  15  18
ATOM     18  O   UNL     1      17.885  14.006  18.327  1.00  0.00    -0.508 OA
ATOM     19  H   UNL     1      18.454  13.171  18.413  1.00  0.00     0.293 HD
ENDBRANCH  15  18
ENDBRANCH   1  12
BRANCH   2  20
ATOM     20  O   UNL     1      17.972  16.081  12.414  1.00  0.00    -0.502 OA
ATOM     21  H   UNL     1      18.531  16.877  12.694  1.00  0.00     0.293 HD
ENDBRANCH   2  20
BRANCH   6  22
ATOM     22  O   UNL     1      14.484  17.770   8.760  1.00  0.00    -0.507 OA
ATOM     23  H   UNL     1      14.421  17.464   7.801  1.00  0.00     0.293 HD
ENDBRANCH   6  22
BRANCH   8  24
ATOM     24  O   UNL     1      10.375  16.348  10.800  1.00  0.00    -0.508 OA
ATOM     25  H   UNL     1       9.803  17.071  10.377  1.00  0.00     0.293 HD
ENDBRANCH   8  24
TORSDOF 5
ENDMDL
MODEL 7
REMARK VINA RESULT:    -5.968      2.779      4.380
REMARK INTER + INTRA:          -7.103
REMARK INTER:                  -6.805
REMARK INTRA:                  -0.298
REMARK UNBOUND:                -0.088
REMARK SMILES O=c1c(O)c(-c2ccc(O)cc2)oc2cc(O)cc(O)c12
REMARK SMILES IDX 5 1 3 2 2 3 1 4 21 5 19 6 18 7 16 8 15 9 14 10 13 11 6 12
REMARK SMILES IDX 7 13 8 14 9 15 12 16 11 17 10 18 4 20 20 22 17 24
REMARK H PARENT 10 19 4 21 20 23 17 25
REMARK Flexibility Score: inf
ROOT
ATOM      1  C   UNL     1      13.849  13.821  11.050  1.00  0.00     0.180 A 
ATOM      2  C   UNL     1      12.632  14.504  10.886  1.00  0.00     0.208 A 
ATOM      3  C   UNL     1      12.581  15.607  10.020  1.00  0.00     0.238 A 
ATOM      4  O   UNL     1      11.503  16.247   9.919  1.00  0.00    -0.285 OA
ATOM      5  C   UNL     1      13.742  16.002   9.313  1.00  0.00     0.111 A 
ATOM      6  C   UNL     1      13.796  17.080   8.379  1.00  0.00     0.134 A 
ATOM      7  C   UNL     1      15.028  17.465   7.838  1.00  0.00     0.093 A 
ATOM      8  C   UNL     1      16.200  16.770   8.148  1.00  0.00     0.123 A 
ATOM      9  C   UNL     1      16.148  15.679   9.014  1.00  0.00     0.094 A 
ATOM     10  C   UNL     1      14.940  15.294   9.597  1.00  0.00     0.146 A 
ATOM     11  O   UNL     1      14.937  14.256  10.424  1.00  0.00    -0.452 OA
ENDROOT
BRANCH   1  12
ATOM     12  C   UNL     1      13.975  12.634  11.927  1.00  0.00     0.021 A 
ATOM     13  C   UNL     1      14.442  12.793  13.243  1.00  0.00     0.016 A 
ATOM     14  C   UNL     1      14.591  11.684  14.081  1.00  0.00     0.047 A 
ATOM     15  C   UNL     1      14.289  10.402  13.611  1.00  0.00     0.115 A 
ATOM     16  C   UNL     1      13.692  11.340  11.454  1.00  0.00     0.016 A 
ATOM     17  C   UNL     1      13.842  10.232  12.295  1.00  0.00     0.047 A 
BRANCH  15  18
ATOM     18  O   UNL     1      14.440   9.306  14.458  1.00  0.00    -0.508 OA
ATOM     19  H   UNL     1      14.285   9.383  15.457  1.00  0.00     0.293 HD
ENDBRANCH  15  18
ENDBRANCH   1  12
BRANCH   2  20
ATOM     20  O   UNL     1      11.502  14.110  11.609  1.00  0.00    -0.502 OA
ATOM     21  H   UNL     1      10.566  14.403  11.358  1.00  0.00     0.293 HD
ENDBRANCH   2  20
BRANCH   6  22
ATOM     22  O   UNL     1      12.671  17.780   7.930  1.00  0.00    -0.507 OA
ATOM     23  H   UNL     1      12.459  18.737   8.165  1.00  0.00     0.293 HD
ENDBRANCH   6  22
BRANCH   8  24
ATOM     24  O   UNL     1      17.420  17.150   7.594  1.00  0.00    -0.508 OA
ATOM     25  H   UNL     1      18.300  16.811   7.968  1.00  0.00     0.293 HD
ENDBRANCH   8  24
TORSDOF 5
ENDMDL
MODEL 8
REMARK VINA RESULT:    -5.936      3.831      5.751
REMARK INTER + INTRA:          -7.065
REMARK INTER:                  -6.772
REMARK INTRA:                  -0.293
REMARK UNBOUND:                -0.088
REMARK SMILES O=c1c(O)c(-c2ccc(O)cc2)oc2cc(O)cc(O)c12
REMARK SMILES IDX 5 1 3 2 2 3 1 4 21 5 19 6 18 7 16 8 15 9 14 10 13 11 6 12
REMARK SMILES IDX 7 13 8 14 9 15 12 16 11 17 10 18 4 20 20 22 17 24
REMARK H PARENT 10 19 4 21 20 23 17 25
REMARK Flexibility Score: inf
ROOT
ATOM      1  C   UNL     1      13.732  13.070  10.136  1.00  0.00     0.180 A 
ATOM      2  C   UNL     1      13.040  14.166  10.680  1.00  0.00     0.208 A 
ATOM      3  C   UNL     1      13.579  15.453  10.532  1.00  0.00     0.238 A 
ATOM      4  O   UNL     1      12.983  16.423  11.068  1.00  0.00    -0.285 OA
ATOM      5  C   UNL     1      14.793  15.632   9.827  1.00  0.00     0.111 A 
ATOM      6  C   UNL     1      15.411  16.896   9.582  1.00  0.00     0.134 A 
ATOM      7  C   UNL     1      16.678  16.942   8.987  1.00  0.00     0.093 A 
ATOM      8  C   UNL     1      17.321  15.774   8.570  1.00  0.00     0.123 A 
ATOM      9  C   UNL     1      16.700  14.540   8.752  1.00  0.00     0.094 A 
ATOM     10  C   UNL     1      15.453  14.459   9.374  1.00  0.00     0.146 A 
ATOM     11  O   UNL     1      14.902  13.262   9.537  1.00  0.00    -0.452 OA
ENDROOT
BRANCH   1  12
ATOM     12  C   UNL     1      13.214  11.686  10.230  1.00  0.00     0.021 A 
ATOM     13  C   UNL     1      13.704  10.830  11.231  1.00  0.00     0.016 A 
ATOM     14  C   UNL     1      13.246   9.513  11.324  1.00  0.00     0.047 A 
ATOM     15  C   UNL     1      12.306   9.028  10.410  1.00  0.00     0.115 A 
ATOM     16  C   UNL     1      12.283  11.187   9.302  1.00  0.00     0.016 A 
ATOM     17  C   UNL     1      11.826   9.868   9.396  1.00  0.00     0.047 A 
BRANCH  15  18
ATOM     18  O   UNL     1      11.857   7.714  10.516  1.00  0.00    -0.508 OA
ATOM     19  H   UNL     1      12.432   6.933  10.219  1.00  0.00     0.293 HD
ENDBRANCH  15  18
ENDBRANCH   1  12
BRANCH   2  20
ATOM     20  O   UNL     1      11.853  13.965  11.390  1.00  0.00    -0.502 OA
ATOM     21  H   UNL     1      10.949  13.913  10.937  1.00  0.00     0.293 HD
ENDBRANCH   2  20
BRANCH   6  22
ATOM     22  O   UNL     1      14.813  18.125   9.874  1.00  0.00    -0.507 OA
ATOM     23  H   UNL     1      14.597  18.836   9.192  1.00  0.00     0.293 HD
ENDBRANCH   6  22
BRANCH   8  24
ATOM     24  O   UNL     1      18.575  15.829   7.966  1.00  0.00    -0.508 OA
ATOM     25  H   UNL     1      18.724  15.486   7.024  1.00  0.00     0.293 HD
ENDBRANCH   8  24
TORSDOF 5
ENDMDL
MODEL 9
REMARK VINA RESULT:    -5.878      1.818      7.013
REMARK INTER + INTRA:          -6.997
REMARK INTER:                  -6.731
REMARK INTRA:                  -0.266
REMARK UNBOUND:                -0.088
REMARK SMILES O=c1c(O)c(-c2ccc(O)cc2)oc2cc(O)cc(O)c12
REMARK SMILES IDX 5 1 3 2 2 3 1 4 21 5 19 6 18 7 16 8 15 9 14 10 13 11 6 12
REMARK SMILES IDX 7 13 8 14 9 15 12 16 11 17 10 18 4 20 20 22 17 24
REMARK H PARENT 10 19 4 21 20 23 17 25
REMARK Flexibility Score: inf
ROOT
ATOM      1  C   UNL     1      15.345  15.654  12.208  1.00  0.00     0.180 A 
ATOM      2  C   UNL     1      15.176  16.270  13.460  1.00  0.00     0.208 A 
ATOM      3  C   UNL     1      15.883  15.771  14.565  1.00  0.00     0.238 A 
ATOM      4  O   UNL     1      15.687  16.292  15.694  1.00  0.00    -0.285 OA
ATOM      5  C   UNL     1      16.763  14.675  14.402  1.00  0.00     0.111 A 
ATOM      6  C   UNL     1      17.560  14.113  15.445  1.00  0.00     0.134 A 
ATOM      7  C   UNL     1      18.296  12.947  15.199  1.00  0.00     0.093 A 
ATOM      8  C   UNL     1      18.314  12.359  13.932  1.00  0.00     0.123 A 
ATOM      9  C   UNL     1      17.585  12.934  12.893  1.00  0.00     0.094 A 
ATOM     10  C   UNL     1      16.814  14.077  13.116  1.00  0.00     0.146 A 
ATOM     11  O   UNL     1      16.127  14.586  12.101  1.00  0.00    -0.452 OA
ENDROOT
BRANCH   1  12
ATOM     12  C   UNL     1      14.652  16.139  10.992  1.00  0.00     0.021 A 
ATOM     13  C   UNL     1      13.326  15.743  10.747  1.00  0.00     0.016 A 
ATOM     14  C   UNL     1      12.661  16.171   9.594  1.00  0.00     0.047 A 
ATOM     15  C   UNL     1      13.316  16.984   8.664  1.00  0.00     0.115 A 
ATOM     16  C   UNL     1      15.312  16.941  10.044  1.00  0.00     0.016 A 
ATOM     17  C   UNL     1      14.644  17.366   8.891  1.00  0.00     0.047 A 
BRANCH  15  18
ATOM     18  O   UNL     1      12.640  17.403   7.520  1.00  0.00    -0.508 OA
ATOM     19  H   UNL     1      12.207  18.318   7.467  1.00  0.00     0.293 HD
ENDBRANCH  15  18
ENDBRANCH   1  12
BRANCH   2  20
ATOM     20  O   UNL     1      14.286  17.338  13.604  1.00  0.00    -0.502 OA
ATOM     21  H   UNL     1      13.843  17.562  14.487  1.00  0.00     0.293 HD
ENDBRANCH   2  20
BRANCH   6  22
ATOM     22  O   UNL     1      17.686  14.674  16.719  1.00  0.00    -0.507 OA
ATOM     23  H   UNL     1      18.525  15.105  17.077  1.00  0.00     0.293 HD
ENDBRANCH   6  22
BRANCH   8  24
ATOM     24  O   UNL     1      19.060  11.207  13.692  1.00  0.00    -0.508 OA
ATOM     25  H   UNL     1      20.011  11.256  13.345  1.00  0.00     0.293 HD
ENDBRANCH   8  24
TORSDOF 5
ENDMDL
