MODEL 1
REMARK VINA RESULT:     4.392      0.000      0.000
REMARK INTER + INTRA:           8.683
REMARK INTER:                   8.243
REMARK INTRA:                   0.440
REMARK UNBOUND:                 0.440
REMARK SMILES CCCCCCCCC=CCCCCCCCC(=O)[O-]
REMARK SMILES IDX 10 1 9 2 11 3 12 4 13 5 14 6 15 7 16 8 17 9 18 10 19 11
REMARK SMILES IDX 20 12 8 13 7 14 6 15 5 16 4 17 3 18 2 19 1 20
REMARK H PARENT
REMARK Flexibility Score: inf
ROOT
ATOM      1  C   UNL     1     -36.050  22.457   7.545  1.00  0.00    -0.031 C 
ATOM      2  C   UNL     1     -35.120  21.492   7.500  1.00  0.00    -0.031 C 
ENDROOT
BRANCH   1   3
ATOM      3  C   UNL     1     -37.454  22.176   8.006  1.00  0.00     0.027 C 
BRANCH   3   4
ATOM      4  C   UNL     1     -37.933  20.804   7.506  1.00  0.00     0.004 C 
BRANCH   4   5
ATOM      5  C   UNL     1     -37.549  20.532   6.040  1.00  0.00     0.000 C 
BRANCH   5   6
ATOM      6  C   UNL     1     -38.084  21.559   5.025  1.00  0.00     0.000 C 
BRANCH   6   7
ATOM      7  C   UNL     1     -37.192  22.807   4.908  1.00  0.00     0.000 C 
BRANCH   7   8
ATOM      8  C   UNL     1     -37.870  23.942   4.121  1.00  0.00     0.006 C 
BRANCH   8   9
ATOM      9  C   UNL     1     -38.123  25.186   4.983  1.00  0.00     0.053 C 
BRANCH   9  10
ATOM     10  C   UNL     1     -38.114  26.419   4.135  1.00  0.00     0.041 C 
ATOM     11  O   UNL     1     -38.125  26.324   2.879  1.00  0.00    -0.550 OA
ATOM     12  O   UNL     1     -38.050  27.673   4.730  1.00  0.00    -0.550 OA
ENDBRANCH   9  10
ENDBRANCH   8   9
ENDBRANCH   7   8
ENDBRANCH   6   7
ENDBRANCH   5   6
ENDBRANCH   4   5
ENDBRANCH   3   4
ENDBRANCH   1   3
BRANCH   2  13
ATOM     13  C   UNL     1     -33.714  21.773   7.047  1.00  0.00     0.027 C 
BRANCH  13  14
ATOM     14  C   UNL     1     -33.476  23.282   6.891  1.00  0.00     0.004 C 
BRANCH  14  15
ATOM     15  C   UNL     1     -32.141  23.608   6.195  1.00  0.00     0.000 C 
BRANCH  15  16
ATOM     16  C   UNL     1     -31.210  24.547   6.983  1.00  0.00     0.000 C 
BRANCH  16  17
ATOM     17  C   UNL     1     -29.720  24.302   6.685  1.00  0.00    -0.000 C 
BRANCH  17  18
ATOM     18  C   UNL     1     -28.923  23.937   7.954  1.00  0.00    -0.000 C 
BRANCH  18  19
ATOM     19  C   UNL     1     -27.813  22.901   7.706  1.00  0.00    -0.003 C 
ATOM     20  C   UNL     1     -26.611  23.476   6.960  1.00  0.00     0.004 C 
ENDBRANCH  18  19
ENDBRANCH  17  18
ENDBRANCH  16  17
ENDBRANCH  15  16
ENDBRANCH  14  15
ENDBRANCH  13  14
ENDBRANCH   2  13
TORSDOF 15
ENDMDL
MODEL 2
REMARK VINA RESULT:     4.591      1.504      2.230
REMARK INTER + INTRA:           9.056
REMARK INTER:                   9.677
REMARK INTRA:                  -0.621
REMARK UNBOUND:                 0.440
REMARK SMILES CCCCCCCCC=CCCCCCCCC(=O)[O-]
REMARK SMILES IDX 10 1 9 2 11 3 12 4 13 5 14 6 15 7 16 8 17 9 18 10 19 11
REMARK SMILES IDX 20 12 8 13 7 14 6 15 5 16 4 17 3 18 2 19 1 20
REMARK H PARENT
REMARK Flexibility Score: inf
ROOT
ATOM      1  C   UNL     1     -34.495  22.000   7.085  1.00  0.00    -0.031 C 
ATOM      2  C   UNL     1     -33.221  22.218   6.725  1.00  0.00    -0.031 C 
ENDROOT
BRANCH   1   3
ATOM      3  C   UNL     1     -34.845  21.442   8.438  1.00  0.00     0.027 C 
BRANCH   3   4
ATOM      4  C   UNL     1     -36.036  20.476   8.343  1.00  0.00     0.004 C 
BRANCH   4   5
ATOM      5  C   UNL     1     -37.264  21.103   7.659  1.00  0.00     0.000 C 
BRANCH   5   6
ATOM      6  C   UNL     1     -37.866  20.271   6.511  1.00  0.00     0.000 C 
BRANCH   6   7
ATOM      7  C   UNL     1     -38.113  21.099   5.237  1.00  0.00     0.000 C 
BRANCH   7   8
ATOM      8  C   UNL     1     -37.015  22.149   4.997  1.00  0.00     0.006 C 
BRANCH   8   9
ATOM      9  C   UNL     1     -37.584  23.562   4.809  1.00  0.00     0.053 C 
BRANCH   9  10
ATOM     10  C   UNL     1     -37.422  24.361   6.064  1.00  0.00     0.041 C 
ATOM     11  O   UNL     1     -36.679  23.941   6.991  1.00  0.00    -0.550 OA
ATOM     12  O   UNL     1     -38.125  25.548   6.230  1.00  0.00    -0.550 OA
ENDBRANCH   9  10
ENDBRANCH   8   9
ENDBRANCH   7   8
ENDBRANCH   6   7
ENDBRANCH   5   6
ENDBRANCH   4   5
ENDBRANCH   3   4
ENDBRANCH   1   3
BRANCH   2  13
ATOM     13  C   UNL     1     -32.870  22.783   5.376  1.00  0.00     0.027 C 
BRANCH  13  14
ATOM     14  C   UNL     1     -31.497  23.471   5.407  1.00  0.00     0.004 C 
BRANCH  14  15
ATOM     15  C   UNL     1     -31.360  24.485   6.558  1.00  0.00     0.000 C 
BRANCH  15  16
ATOM     16  C   UNL     1     -30.145  24.264   7.477  1.00  0.00     0.000 C 
BRANCH  16  17
ATOM     17  C   UNL     1     -29.061  23.380   6.836  1.00  0.00    -0.000 C 
BRANCH  17  18
ATOM     18  C   UNL     1     -27.916  23.056   7.817  1.00  0.00    -0.000 C 
BRANCH  18  19
ATOM     19  C   UNL     1     -26.559  23.648   7.397  1.00  0.00    -0.003 C 
ATOM     20  C   UNL     1     -26.672  25.064   6.836  1.00  0.00     0.004 C 
ENDBRANCH  18  19
ENDBRANCH  17  18
ENDBRANCH  16  17
ENDBRANCH  15  16
ENDBRANCH  14  15
ENDBRANCH  13  14
ENDBRANCH   2  13
TORSDOF 15
ENDMDL
MODEL 3
REMARK VINA RESULT:     4.846      4.034      8.618
REMARK INTER + INTRA:           9.536
REMARK INTER:                  10.695
REMARK INTRA:                  -1.159
REMARK UNBOUND:                 0.440
REMARK SMILES CCCCCCCCC=CCCCCCCCC(=O)[O-]
REMARK SMILES IDX 10 1 9 2 11 3 12 4 13 5 14 6 15 7 16 8 17 9 18 10 19 11
REMARK SMILES IDX 20 12 8 13 7 14 6 15 5 16 4 17 3 18 2 19 1 20
REMARK H PARENT
REMARK Flexibility Score: inf
ROOT
ATOM      1  C   UNL     1     -34.526  21.551   7.277  1.00  0.00    -0.031 C 
ATOM      2  C   UNL     1     -35.692  22.065   7.695  1.00  0.00    -0.031 C 
ENDROOT
BRANCH   1   3
ATOM      3  C   UNL     1     -33.527  22.382   6.519  1.00  0.00     0.027 C 
BRANCH   3   4
ATOM      4  C   UNL     1     -33.244  23.704   7.249  1.00  0.00     0.004 C 
BRANCH   4   5
ATOM      5  C   UNL     1     -32.067  24.487   6.640  1.00  0.00     0.000 C 
BRANCH   5   6
ATOM      6  C   UNL     1     -30.824  24.601   7.542  1.00  0.00     0.000 C 
BRANCH   6   7
ATOM      7  C   UNL     1     -29.547  24.065   6.873  1.00  0.00     0.000 C 
BRANCH   7   8
ATOM      8  C   UNL     1     -28.691  23.221   7.832  1.00  0.00     0.006 C 
BRANCH   8   9
ATOM      9  C   UNL     1     -27.235  23.093   7.363  1.00  0.00     0.053 C 
BRANCH   9  10
ATOM     10  C   UNL     1     -26.517  24.396   7.529  1.00  0.00     0.041 C 
ATOM     11  O   UNL     1     -26.252  24.831   8.681  1.00  0.00    -0.550 OA
ATOM     12  O   UNL     1     -26.179  25.152   6.414  1.00  0.00    -0.550 OA
ENDBRANCH   9  10
ENDBRANCH   8   9
ENDBRANCH   7   8
ENDBRANCH   6   7
ENDBRANCH   5   6
ENDBRANCH   4   5
ENDBRANCH   3   4
ENDBRANCH   1   3
BRANCH   2  13
ATOM     13  C   UNL     1     -36.689  21.238   8.460  1.00  0.00     0.027 C 
BRANCH  13  14
ATOM     14  C   UNL     1     -37.169  20.041   7.626  1.00  0.00     0.004 C 
BRANCH  14  15
ATOM     15  C   UNL     1     -38.112  20.450   6.480  1.00  0.00     0.000 C 
BRANCH  15  16
ATOM     16  C   UNL     1     -37.408  20.879   5.180  1.00  0.00     0.000 C 
BRANCH  16  17
ATOM     17  C   UNL     1     -38.117  22.046   4.471  1.00  0.00    -0.000 C 
BRANCH  17  18
ATOM     18  C   UNL     1     -37.392  23.391   4.691  1.00  0.00    -0.000 C 
BRANCH  18  19
ATOM     19  C   UNL     1     -38.060  24.283   5.751  1.00  0.00    -0.003 C 
ATOM     20  C   UNL     1     -38.125  25.753   5.343  1.00  0.00     0.004 C 
ENDBRANCH  18  19
ENDBRANCH  17  18
ENDBRANCH  16  17
ENDBRANCH  15  16
ENDBRANCH  14  15
ENDBRANCH  13  14
ENDBRANCH   2  13
TORSDOF 15
ENDMDL
MODEL 4
REMARK VINA RESULT:     5.666      3.094      3.988
REMARK INTER + INTRA:          11.074
REMARK INTER:                   9.098
REMARK INTRA:                   1.975
REMARK UNBOUND:                 0.440
REMARK SMILES CCCCCCCCC=CCCCCCCCC(=O)[O-]
REMARK SMILES IDX 10 1 9 2 11 3 12 4 13 5 14 6 15 7 16 8 17 9 18 10 19 11
REMARK SMILES IDX 20 12 8 13 7 14 6 15 5 16 4 17 3 18 2 19 1 20
REMARK H PARENT
REMARK Flexibility Score: inf
ROOT
ATOM      1  C   UNL     1     -35.978  23.905   7.521  1.00  0.00    -0.031 C 
ATOM      2  C   UNL     1     -35.411  22.903   6.833  1.00  0.00    -0.031 C 
ENDROOT
BRANCH   1   3
ATOM      3  C   UNL     1     -37.324  24.458   7.139  1.00  0.00     0.027 C 
BRANCH   3   4
ATOM      4  C   UNL     1     -38.097  23.466   6.258  1.00  0.00     0.004 C 
BRANCH   4   5
ATOM      5  C   UNL     1     -37.637  23.482   4.789  1.00  0.00     0.000 C 
BRANCH   5   6
ATOM      6  C   UNL     1     -36.999  22.171   4.292  1.00  0.00     0.000 C 
BRANCH   6   7
ATOM      7  C   UNL     1     -36.797  21.139   5.415  1.00  0.00     0.000 C 
BRANCH   7   8
ATOM      8  C   UNL     1     -38.118  20.749   6.099  1.00  0.00     0.006 C 
BRANCH   8   9
ATOM      9  C   UNL     1     -38.071  20.943   7.622  1.00  0.00     0.053 C 
BRANCH   9  10
ATOM     10  C   UNL     1     -37.381  19.786   8.273  1.00  0.00     0.041 C 
ATOM     11  O   UNL     1     -36.177  19.884   8.629  1.00  0.00    -0.550 OA
ATOM     12  O   UNL     1     -38.054  18.583   8.448  1.00  0.00    -0.550 OA
ENDBRANCH   9  10
ENDBRANCH   8   9
ENDBRANCH   7   8
ENDBRANCH   6   7
ENDBRANCH   5   6
ENDBRANCH   4   5
ENDBRANCH   3   4
ENDBRANCH   1   3
BRANCH   2  13
ATOM     13  C   UNL     1     -34.070  22.343   7.217  1.00  0.00     0.027 C 
BRANCH  13  14
ATOM     14  C   UNL     1     -33.212  22.061   5.975  1.00  0.00     0.004 C 
BRANCH  14  15
ATOM     15  C   UNL     1     -32.157  23.153   5.715  1.00  0.00     0.000 C 
BRANCH  15  16
ATOM     16  C   UNL     1     -31.878  24.083   6.909  1.00  0.00     0.000 C 
BRANCH  16  17
ATOM     17  C   UNL     1     -30.469  24.701   6.871  1.00  0.00    -0.000 C 
BRANCH  17  18
ATOM     18  C   UNL     1     -29.360  23.628   6.885  1.00  0.00    -0.000 C 
BRANCH  18  19
ATOM     19  C   UNL     1     -28.187  23.968   7.821  1.00  0.00    -0.003 C 
ATOM     20  C   UNL     1     -26.824  23.635   7.219  1.00  0.00     0.004 C 
ENDBRANCH  18  19
ENDBRANCH  17  18
ENDBRANCH  16  17
ENDBRANCH  15  16
ENDBRANCH  14  15
ENDBRANCH  13  14
ENDBRANCH   2  13
TORSDOF 15
ENDMDL
MODEL 5
REMARK VINA RESULT:     5.949      4.159      8.484
REMARK INTER + INTRA:          11.605
REMARK INTER:                  12.784
REMARK INTRA:                  -1.179
REMARK UNBOUND:                 0.440
REMARK SMILES CCCCCCCCC=CCCCCCCCC(=O)[O-]
REMARK SMILES IDX 10 1 9 2 11 3 12 4 13 5 14 6 15 7 16 8 17 9 18 10 19 11
REMARK SMILES IDX 20 12 8 13 7 14 6 15 5 16 4 17 3 18 2 19 1 20
REMARK H PARENT
REMARK Flexibility Score: inf
ROOT
ATOM      1  C   UNL     1     -33.626  22.584   6.565  1.00  0.00    -0.031 C 
ATOM      2  C   UNL     1     -34.339  21.527   6.983  1.00  0.00    -0.031 C 
ENDROOT
BRANCH   1   3
ATOM      3  C   UNL     1     -32.857  22.551   5.272  1.00  0.00     0.027 C 
BRANCH   3   4
ATOM      4  C   UNL     1     -31.521  23.298   5.408  1.00  0.00     0.004 C 
BRANCH   4   5
ATOM      5  C   UNL     1     -31.565  24.423   6.457  1.00  0.00     0.000 C 
BRANCH   5   6
ATOM      6  C   UNL     1     -30.238  24.677   7.196  1.00  0.00     0.000 C 
BRANCH   6   7
ATOM      7  C   UNL     1     -30.200  24.043   8.597  1.00  0.00     0.000 C 
BRANCH   7   8
ATOM      8  C   UNL     1     -28.784  23.603   9.004  1.00  0.00     0.006 C 
BRANCH   8   9
ATOM      9  C   UNL     1     -27.936  23.164   7.802  1.00  0.00     0.053 C 
BRANCH   9  10
ATOM     10  C   UNL     1     -26.755  24.069   7.640  1.00  0.00     0.041 C 
ATOM     11  O   UNL     1     -26.112  24.085   6.557  1.00  0.00    -0.550 OA
ATOM     12  O   UNL     1     -26.336  24.864   8.700  1.00  0.00    -0.550 OA
ENDBRANCH   9  10
ENDBRANCH   8   9
ENDBRANCH   7   8
ENDBRANCH   6   7
ENDBRANCH   5   6
ENDBRANCH   4   5
ENDBRANCH   3   4
ENDBRANCH   1   3
BRANCH   2  13
ATOM     13  C   UNL     1     -35.115  21.561   8.271  1.00  0.00     0.027 C 
BRANCH  13  14
ATOM     14  C   UNL     1     -36.548  21.048   8.066  1.00  0.00     0.004 C 
BRANCH  14  15
ATOM     15  C   UNL     1     -37.567  22.185   7.864  1.00  0.00     0.000 C 
BRANCH  15  16
ATOM     16  C   UNL     1     -37.010  23.443   7.175  1.00  0.00     0.000 C 
BRANCH  16  17
ATOM     17  C   UNL     1     -38.001  24.070   6.179  1.00  0.00    -0.000 C 
BRANCH  17  18
ATOM     18  C   UNL     1     -37.638  23.751   4.714  1.00  0.00    -0.000 C 
BRANCH  18  19
ATOM     19  C   UNL     1     -36.798  22.472   4.553  1.00  0.00    -0.003 C 
ATOM     20  C   UNL     1     -37.642  21.199   4.536  1.00  0.00     0.004 C 
ENDBRANCH  18  19
ENDBRANCH  17  18
ENDBRANCH  16  17
ENDBRANCH  15  16
ENDBRANCH  14  15
ENDBRANCH  13  14
ENDBRANCH   2  13
TORSDOF 15
ENDMDL
MODEL 6
REMARK VINA RESULT:     6.003      3.899      7.951
REMARK INTER + INTRA:          11.707
REMARK INTER:                  12.064
REMARK INTRA:                  -0.357
REMARK UNBOUND:                 0.440
REMARK SMILES CCCCCCCCC=CCCCCCCCC(=O)[O-]
REMARK SMILES IDX 10 1 9 2 11 3 12 4 13 5 14 6 15 7 16 8 17 9 18 10 19 11
REMARK SMILES IDX 20 12 8 13 7 14 6 15 5 16 4 17 3 18 2 19 1 20
REMARK H PARENT
REMARK Flexibility Score: inf
ROOT
ATOM      1  C   UNL     1     -36.230  22.826   7.337  1.00  0.00    -0.031 C 
ATOM      2  C   UNL     1     -36.827  24.024   7.268  1.00  0.00    -0.031 C 
ENDROOT
BRANCH   1   3
ATOM      3  C   UNL     1     -34.985  22.614   8.156  1.00  0.00     0.027 C 
BRANCH   3   4
ATOM      4  C   UNL     1     -33.896  21.911   7.332  1.00  0.00     0.004 C 
BRANCH   4   5
ATOM      5  C   UNL     1     -33.208  22.847   6.322  1.00  0.00     0.000 C 
BRANCH   5   6
ATOM      6  C   UNL     1     -32.869  24.249   6.861  1.00  0.00     0.000 C 
BRANCH   6   7
ATOM      7  C   UNL     1     -31.424  24.678   6.550  1.00  0.00     0.000 C 
BRANCH   7   8
ATOM      8  C   UNL     1     -30.391  23.924   7.403  1.00  0.00     0.006 C 
BRANCH   8   9
ATOM      9  C   UNL     1     -29.017  23.838   6.724  1.00  0.00     0.053 C 
BRANCH   9  10
ATOM     10  C   UNL     1     -27.963  23.475   7.723  1.00  0.00     0.041 C 
ATOM     11  O   UNL     1     -26.806  23.160   7.337  1.00  0.00    -0.550 OA
ATOM     12  O   UNL     1     -28.270  23.442   9.078  1.00  0.00    -0.550 OA
ENDBRANCH   9  10
ENDBRANCH   8   9
ENDBRANCH   7   8
ENDBRANCH   6   7
ENDBRANCH   5   6
ENDBRANCH   4   5
ENDBRANCH   3   4
ENDBRANCH   1   3
BRANCH   2  13
ATOM     13  C   UNL     1     -38.076  24.235   6.456  1.00  0.00     0.027 C 
BRANCH  13  14
ATOM     14  C   UNL     1     -37.741  24.765   5.054  1.00  0.00     0.004 C 
BRANCH  14  15
ATOM     15  C   UNL     1     -37.556  23.642   4.018  1.00  0.00     0.000 C 
BRANCH  15  16
ATOM     16  C   UNL     1     -38.125  22.273   4.435  1.00  0.00     0.000 C 
BRANCH  16  17
ATOM     17  C   UNL     1     -37.055  21.332   5.015  1.00  0.00    -0.000 C 
BRANCH  17  18
ATOM     18  C   UNL     1     -37.676  20.132   5.762  1.00  0.00    -0.000 C 
BRANCH  18  19
ATOM     19  C   UNL     1     -38.108  20.461   7.202  1.00  0.00    -0.003 C 
ATOM     20  C   UNL     1     -37.788  19.344   8.193  1.00  0.00     0.004 C 
ENDBRANCH  18  19
ENDBRANCH  17  18
ENDBRANCH  16  17
ENDBRANCH  15  16
ENDBRANCH  14  15
ENDBRANCH  13  14
ENDBRANCH   2  13
TORSDOF 15
ENDMDL
MODEL 7
REMARK VINA RESULT:     6.978      3.015      4.238
REMARK INTER + INTRA:          13.536
REMARK INTER:                  12.016
REMARK INTRA:                   1.520
REMARK UNBOUND:                 0.440
REMARK SMILES CCCCCCCCC=CCCCCCCCC(=O)[O-]
REMARK SMILES IDX 10 1 9 2 11 3 12 4 13 5 14 6 15 7 16 8 17 9 18 10 19 11
REMARK SMILES IDX 20 12 8 13 7 14 6 15 5 16 4 17 3 18 2 19 1 20
REMARK H PARENT
REMARK Flexibility Score: inf
ROOT
ATOM      1  C   UNL     1     -35.820  23.710   7.277  1.00  0.00    -0.031 C 
ATOM      2  C   UNL     1     -35.573  22.423   7.562  1.00  0.00    -0.031 C 
ENDROOT
BRANCH   1   3
ATOM      3  C   UNL     1     -37.226  24.240   7.196  1.00  0.00     0.027 C 
BRANCH   3   4
ATOM      4  C   UNL     1     -38.053  23.454   6.167  1.00  0.00     0.004 C 
BRANCH   4   5
ATOM      5  C   UNL     1     -37.556  23.648   4.723  1.00  0.00     0.000 C 
BRANCH   5   6
ATOM      6  C   UNL     1     -36.597  22.556   4.212  1.00  0.00     0.000 C 
BRANCH   6   7
ATOM      7  C   UNL     1     -36.669  21.261   5.039  1.00  0.00     0.000 C 
BRANCH   7   8
ATOM      8  C   UNL     1     -38.046  21.057   5.694  1.00  0.00     0.006 C 
BRANCH   8   9
ATOM      9  C   UNL     1     -38.125  19.756   6.505  1.00  0.00     0.053 C 
BRANCH   9  10
ATOM     10  C   UNL     1     -37.913  20.035   7.960  1.00  0.00     0.041 C 
ATOM     11  O   UNL     1     -37.582  19.105   8.742  1.00  0.00    -0.550 OA
ATOM     12  O   UNL     1     -38.125  21.314   8.462  1.00  0.00    -0.550 OA
ENDBRANCH   9  10
ENDBRANCH   8   9
ENDBRANCH   7   8
ENDBRANCH   6   7
ENDBRANCH   5   6
ENDBRANCH   4   5
ENDBRANCH   3   4
ENDBRANCH   1   3
BRANCH   2  13
ATOM     13  C   UNL     1     -34.168  21.892   7.652  1.00  0.00     0.027 C 
BRANCH  13  14
ATOM     14  C   UNL     1     -33.467  21.954   6.287  1.00  0.00     0.004 C 
BRANCH  14  15
ATOM     15  C   UNL     1     -32.985  23.371   5.924  1.00  0.00     0.000 C 
BRANCH  15  16
ATOM     16  C   UNL     1     -31.597  23.746   6.474  1.00  0.00     0.000 C 
BRANCH  16  17
ATOM     17  C   UNL     1     -31.492  25.227   6.876  1.00  0.00    -0.000 C 
BRANCH  17  18
ATOM     18  C   UNL     1     -30.283  25.926   6.220  1.00  0.00    -0.000 C 
BRANCH  18  19
ATOM     19  C   UNL     1     -30.373  26.000   4.686  1.00  0.00    -0.003 C 
ATOM     20  C   UNL     1     -31.757  26.409   4.186  1.00  0.00     0.004 C 
ENDBRANCH  18  19
ENDBRANCH  17  18
ENDBRANCH  16  17
ENDBRANCH  15  16
ENDBRANCH  14  15
ENDBRANCH  13  14
ENDBRANCH   2  13
TORSDOF 15
ENDMDL
