MODEL 1
REMARK VINA RESULT:    -6.140      0.000      0.000
REMARK INTER + INTRA:         -10.249
REMARK INTER:                  -9.729
REMARK INTRA:                  -0.520
REMARK UNBOUND:                -0.520
REMARK SMILES CCCCCCCCCCCC(=O)[O-]
REMARK SMILES IDX 7 1 8 2 9 3 10 4 11 5 12 6 13 7 14 8 6 9 5 10 4 11 3 12 2 13
REMARK SMILES IDX 1 14
REMARK H PARENT
REMARK Flexibility Score: inf
ROOT
ATOM      1  C   UNL     1      92.821 121.944 122.251  1.00  0.00     0.000 C 
ENDROOT
BRANCH   1   2
ATOM      2  C   UNL     1      93.534 123.081 122.999  1.00  0.00     0.000 C 
BRANCH   2   3
ATOM      3  C   UNL     1      93.336 123.005 124.520  1.00  0.00     0.000 C 
BRANCH   3   4
ATOM      4  C   UNL     1      94.664 122.951 125.290  1.00  0.00     0.006 C 
BRANCH   4   5
ATOM      5  C   UNL     1      95.667 123.959 124.721  1.00  0.00     0.053 C 
BRANCH   5   6
ATOM      6  C   UNL     1      96.840 124.105 125.640  1.00  0.00     0.041 C 
ATOM      7  O   UNL     1      97.186 125.243 126.050  1.00  0.00    -0.550 OA
ATOM      8  O   UNL     1      97.581 122.987 126.004  1.00  0.00    -0.550 OA
ENDBRANCH   5   6
ENDBRANCH   4   5
ENDBRANCH   3   4
ENDBRANCH   2   3
ENDBRANCH   1   2
BRANCH   1   9
ATOM      9  C   UNL     1      92.807 122.205 120.740  1.00  0.00     0.000 C 
BRANCH   9  10
ATOM     10  C   UNL     1      94.135 121.787 120.096  1.00  0.00    -0.000 C 
BRANCH  10  11
ATOM     11  C   UNL     1      94.211 122.258 118.637  1.00  0.00    -0.000 C 
BRANCH  11  12
ATOM     12  C   UNL     1      92.979 123.074 118.213  1.00  0.00    -0.000 C 
BRANCH  12  13
ATOM     13  C   UNL     1      92.195 122.410 117.072  1.00  0.00    -0.003 C 
ATOM     14  C   UNL     1      92.880 121.126 116.610  1.00  0.00     0.004 C 
ENDBRANCH  12  13
ENDBRANCH  11  12
ENDBRANCH  10  11
ENDBRANCH   9  10
ENDBRANCH   1   9
TORSDOF 10
ENDMDL
MODEL 2
REMARK VINA RESULT:    -6.091      4.104      7.543
REMARK INTER + INTRA:         -10.171
REMARK INTER:                  -9.652
REMARK INTRA:                  -0.519
REMARK UNBOUND:                -0.520
REMARK SMILES CCCCCCCCCCCC(=O)[O-]
REMARK SMILES IDX 7 1 8 2 9 3 10 4 11 5 12 6 13 7 14 8 6 9 5 10 4 11 3 12 2 13
REMARK SMILES IDX 1 14
REMARK H PARENT
REMARK Flexibility Score: inf
ROOT
ATOM      1  C   UNL     1      93.070 122.114 122.477  1.00  0.00     0.000 C 
ENDROOT
BRANCH   1   2
ATOM      2  C   UNL     1      93.082 122.534 120.998  1.00  0.00     0.000 C 
BRANCH   2   3
ATOM      3  C   UNL     1      94.444 122.297 120.327  1.00  0.00     0.000 C 
BRANCH   3   4
ATOM      4  C   UNL     1      94.388 122.457 118.800  1.00  0.00     0.006 C 
BRANCH   4   5
ATOM      5  C   UNL     1      93.923 121.160 118.131  1.00  0.00     0.053 C 
BRANCH   5   6
ATOM      6  C   UNL     1      92.669 121.397 117.347  1.00  0.00     0.041 C 
ATOM      7  O   UNL     1      91.589 121.650 117.942  1.00  0.00    -0.550 OA
ATOM      8  O   UNL     1      92.685 121.289 115.962  1.00  0.00    -0.550 OA
ENDBRANCH   5   6
ENDBRANCH   4   5
ENDBRANCH   3   4
ENDBRANCH   2   3
ENDBRANCH   1   2
BRANCH   1   9
ATOM      9  C   UNL     1      93.420 123.298 123.386  1.00  0.00     0.000 C 
BRANCH   9  10
ATOM     10  C   UNL     1      93.440 122.874 124.860  1.00  0.00    -0.000 C 
BRANCH  10  11
ATOM     11  C   UNL     1      94.877 122.833 125.401  1.00  0.00    -0.000 C 
BRANCH  11  12
ATOM     12  C   UNL     1      95.846 123.696 124.577  1.00  0.00    -0.000 C 
BRANCH  12  13
ATOM     13  C   UNL     1      96.840 124.470 125.454  1.00  0.00    -0.003 C 
ATOM     14  C   UNL     1      97.891 123.535 126.048  1.00  0.00     0.004 C 
ENDBRANCH  12  13
ENDBRANCH  11  12
ENDBRANCH  10  11
ENDBRANCH   9  10
ENDBRANCH   1   9
TORSDOF 10
ENDMDL
MODEL 3
REMARK VINA RESULT:    -5.685      3.666      7.373
REMARK INTER + INTRA:          -9.528
REMARK INTER:                  -9.050
REMARK INTRA:                  -0.478
REMARK UNBOUND:                -0.520
REMARK SMILES CCCCCCCCCCCC(=O)[O-]
REMARK SMILES IDX 7 1 8 2 9 3 10 4 11 5 12 6 13 7 14 8 6 9 5 10 4 11 3 12 2 13
REMARK SMILES IDX 1 14
REMARK H PARENT
REMARK Flexibility Score: inf
ROOT
ATOM      1  C   UNL     1      93.738 123.422 123.642  1.00  0.00     0.000 C 
ENDROOT
BRANCH   1   2
ATOM      2  C   UNL     1      92.871 122.696 122.601  1.00  0.00     0.000 C 
BRANCH   2   3
ATOM      3  C   UNL     1      93.613 122.457 121.276  1.00  0.00     0.000 C 
BRANCH   3   4
ATOM      4  C   UNL     1      92.659 122.302 120.082  1.00  0.00     0.006 C 
BRANCH   4   5
ATOM      5  C   UNL     1      93.345 122.714 118.777  1.00  0.00     0.053 C 
BRANCH   5   6
ATOM      6  C   UNL     1      93.811 121.506 118.026  1.00  0.00     0.041 C 
ATOM      7  O   UNL     1      94.783 120.830 118.453  1.00  0.00    -0.550 OA
ATOM      8  O   UNL     1      93.201 121.155 116.827  1.00  0.00    -0.550 OA
ENDBRANCH   5   6
ENDBRANCH   4   5
ENDBRANCH   3   4
ENDBRANCH   2   3
ENDBRANCH   1   2
BRANCH   1   9
ATOM      9  C   UNL     1      93.577 122.786 125.028  1.00  0.00     0.000 C 
BRANCH   9  10
ATOM     10  C   UNL     1      94.927 122.679 125.746  1.00  0.00    -0.000 C 
BRANCH  10  11
ATOM     11  C   UNL     1      96.031 123.393 124.951  1.00  0.00    -0.000 C 
BRANCH  11  12
ATOM     12  C   UNL     1      97.349 123.502 125.735  1.00  0.00    -0.000 C 
BRANCH  12  13
ATOM     13  C   UNL     1      97.652 124.938 126.185  1.00  0.00    -0.003 C 
ATOM     14  C   UNL     1      97.383 125.934 125.059  1.00  0.00     0.004 C 
ENDBRANCH  12  13
ENDBRANCH  11  12
ENDBRANCH  10  11
ENDBRANCH   9  10
ENDBRANCH   1   9
TORSDOF 10
ENDMDL
MODEL 4
REMARK VINA RESULT:    -4.962      3.960      7.311
REMARK INTER + INTRA:          -8.382
REMARK INTER:                  -7.748
REMARK INTRA:                  -0.634
REMARK UNBOUND:                -0.520
REMARK SMILES CCCCCCCCCCCC(=O)[O-]
REMARK SMILES IDX 7 1 8 2 9 3 10 4 11 5 12 6 13 7 14 8 6 9 5 10 4 11 3 12 2 13
REMARK SMILES IDX 1 14
REMARK H PARENT
REMARK Flexibility Score: inf
ROOT
ATOM      1  C   UNL     1      94.586 120.465 119.484  1.00  0.00     0.000 C 
ENDROOT
BRANCH   1   2
ATOM      2  C   UNL     1      94.545 121.124 118.097  1.00  0.00     0.000 C 
BRANCH   2   3
ATOM      3  C   UNL     1      93.296 120.734 117.293  1.00  0.00     0.000 C 
BRANCH   3   4
ATOM      4  C   UNL     1      92.125 121.704 117.509  1.00  0.00     0.006 C 
BRANCH   4   5
ATOM      5  C   UNL     1      92.016 122.697 116.347  1.00  0.00     0.053 C 
BRANCH   5   6
ATOM      6  C   UNL     1      92.499 124.050 116.767  1.00  0.00     0.041 C 
ATOM      7  O   UNL     1      92.321 125.046 116.020  1.00  0.00    -0.550 OA
ATOM      8  O   UNL     1      93.191 124.200 117.963  1.00  0.00    -0.550 OA
ENDBRANCH   5   6
ENDBRANCH   4   5
ENDBRANCH   3   4
ENDBRANCH   2   3
ENDBRANCH   1   2
BRANCH   1   9
ATOM      9  C   UNL     1      94.554 121.522 120.595  1.00  0.00     0.000 C 
BRANCH   9  10
ATOM     10  C   UNL     1      93.119 121.783 121.067  1.00  0.00    -0.000 C 
BRANCH  10  11
ATOM     11  C   UNL     1      93.066 122.975 122.034  1.00  0.00    -0.000 C 
BRANCH  11  12
ATOM     12  C   UNL     1      93.319 122.565 123.494  1.00  0.00    -0.000 C 
BRANCH  12  13
ATOM     13  C   UNL     1      94.107 123.625 124.276  1.00  0.00    -0.003 C 
ATOM     14  C   UNL     1      94.996 122.978 125.335  1.00  0.00     0.004 C 
ENDBRANCH  12  13
ENDBRANCH  11  12
ENDBRANCH  10  11
ENDBRANCH   9  10
ENDBRANCH   1   9
TORSDOF 10
ENDMDL
MODEL 5
REMARK VINA RESULT:    -4.457      1.931      3.144
REMARK INTER + INTRA:          -7.582
REMARK INTER:                  -7.051
REMARK INTRA:                  -0.531
REMARK UNBOUND:                -0.520
REMARK SMILES CCCCCCCCCCCC(=O)[O-]
REMARK SMILES IDX 7 1 8 2 9 3 10 4 11 5 12 6 13 7 14 8 6 9 5 10 4 11 3 12 2 13
REMARK SMILES IDX 1 14
REMARK H PARENT
REMARK Flexibility Score: inf
ROOT
ATOM      1  C   UNL     1      93.711 121.691 119.727  1.00  0.00     0.000 C 
ENDROOT
BRANCH   1   2
ATOM      2  C   UNL     1      94.935 122.277 120.448  1.00  0.00     0.000 C 
BRANCH   2   3
ATOM      3  C   UNL     1      94.632 122.678 121.900  1.00  0.00     0.000 C 
BRANCH   3   4
ATOM      4  C   UNL     1      93.233 122.239 122.356  1.00  0.00     0.006 C 
BRANCH   4   5
ATOM      5  C   UNL     1      92.982 122.638 123.814  1.00  0.00     0.053 C 
BRANCH   5   6
ATOM      6  C   UNL     1      93.524 124.007 124.082  1.00  0.00     0.041 C 
ATOM      7  O   UNL     1      92.891 125.025 123.697  1.00  0.00    -0.550 OA
ATOM      8  O   UNL     1      94.752 124.157 124.715  1.00  0.00    -0.550 OA
ENDBRANCH   5   6
ENDBRANCH   4   5
ENDBRANCH   3   4
ENDBRANCH   2   3
ENDBRANCH   1   2
BRANCH   1   9
ATOM      9  C   UNL     1      94.137 120.680 118.656  1.00  0.00     0.000 C 
BRANCH   9  10
ATOM     10  C   UNL     1      93.534 121.036 117.291  1.00  0.00    -0.000 C 
BRANCH  10  11
ATOM     11  C   UNL     1      92.304 121.941 117.453  1.00  0.00    -0.000 C 
BRANCH  11  12
ATOM     12  C   UNL     1      91.961 122.710 116.167  1.00  0.00    -0.000 C 
BRANCH  12  13
ATOM     13  C   UNL     1      92.337 124.196 116.251  1.00  0.00    -0.003 C 
ATOM     14  C   UNL     1      93.087 124.501 117.545  1.00  0.00     0.004 C 
ENDBRANCH  12  13
ENDBRANCH  11  12
ENDBRANCH  10  11
ENDBRANCH   9  10
ENDBRANCH   1   9
TORSDOF 10
ENDMDL
MODEL 6
REMARK VINA RESULT:    -4.444     10.978     13.411
REMARK INTER + INTRA:          -7.561
REMARK INTER:                  -5.931
REMARK INTRA:                  -1.630
REMARK UNBOUND:                -0.520
REMARK SMILES CCCCCCCCCCCC(=O)[O-]
REMARK SMILES IDX 7 1 8 2 9 3 10 4 11 5 12 6 13 7 14 8 6 9 5 10 4 11 3 12 2 13
REMARK SMILES IDX 1 14
REMARK H PARENT
REMARK Flexibility Score: inf
ROOT
ATOM      1  C   UNL     1      83.935 126.921 129.910  1.00  0.00     0.000 C 
ENDROOT
BRANCH   1   2
ATOM      2  C   UNL     1      85.372 127.045 129.380  1.00  0.00     0.000 C 
BRANCH   2   3
ATOM      3  C   UNL     1      85.674 126.051 128.249  1.00  0.00     0.000 C 
BRANCH   3   4
ATOM      4  C   UNL     1      84.473 125.154 127.911  1.00  0.00     0.006 C 
BRANCH   4   5
ATOM      5  C   UNL     1      84.937 123.783 127.411  1.00  0.00     0.053 C 
BRANCH   5   6
ATOM      6  C   UNL     1      84.358 123.494 126.062  1.00  0.00     0.041 C 
ATOM      7  O   UNL     1      84.602 122.401 125.488  1.00  0.00    -0.550 OA
ATOM      8  O   UNL     1      83.588 124.454 125.416  1.00  0.00    -0.550 OA
ENDBRANCH   5   6
ENDBRANCH   4   5
ENDBRANCH   3   4
ENDBRANCH   2   3
ENDBRANCH   1   2
BRANCH   1   9
ATOM      9  C   UNL     1      83.926 126.755 131.435  1.00  0.00     0.000 C 
BRANCH   9  10
ATOM     10  C   UNL     1      84.893 125.650 131.876  1.00  0.00    -0.000 C 
BRANCH  10  11
ATOM     11  C   UNL     1      84.261 124.262 131.696  1.00  0.00    -0.000 C 
BRANCH  11  12
ATOM     12  C   UNL     1      85.249 123.229 131.129  1.00  0.00    -0.000 C 
BRANCH  12  13
ATOM     13  C   UNL     1      86.675 123.785 131.001  1.00  0.00    -0.003 C 
ATOM     14  C   UNL     1      87.492 122.975 129.997  1.00  0.00     0.004 C 
ENDBRANCH  12  13
ENDBRANCH  11  12
ENDBRANCH  10  11
ENDBRANCH   9  10
ENDBRANCH   1   9
TORSDOF 10
ENDMDL
MODEL 7
REMARK VINA RESULT:    -4.440     11.233     12.975
REMARK INTER + INTRA:          -7.555
REMARK INTER:                  -6.352
REMARK INTRA:                  -1.204
REMARK UNBOUND:                -0.520
REMARK SMILES CCCCCCCCCCCC(=O)[O-]
REMARK SMILES IDX 7 1 8 2 9 3 10 4 11 5 12 6 13 7 14 8 6 9 5 10 4 11 3 12 2 13
REMARK SMILES IDX 1 14
REMARK H PARENT
REMARK Flexibility Score: inf
ROOT
ATOM      1  C   UNL     1      85.040 126.018 131.622  1.00  0.00     0.000 C 
ENDROOT
BRANCH   1   2
ATOM      2  C   UNL     1      84.396 126.529 130.324  1.00  0.00     0.000 C 
BRANCH   2   3
ATOM      3  C   UNL     1      85.435 126.960 129.278  1.00  0.00     0.000 C 
BRANCH   3   4
ATOM      4  C   UNL     1      85.449 126.046 128.044  1.00  0.00     0.006 C 
BRANCH   4   5
ATOM      5  C   UNL     1      84.368 124.965 128.151  1.00  0.00     0.053 C 
BRANCH   5   6
ATOM      6  C   UNL     1      84.411 124.063 126.957  1.00  0.00     0.041 C 
ATOM      7  O   UNL     1      84.951 122.929 127.040  1.00  0.00    -0.550 OA
ATOM      8  O   UNL     1      83.896 124.494 125.741  1.00  0.00    -0.550 OA
ENDBRANCH   5   6
ENDBRANCH   4   5
ENDBRANCH   3   4
ENDBRANCH   2   3
ENDBRANCH   1   2
BRANCH   1   9
ATOM      9  C   UNL     1      84.749 124.526 131.828  1.00  0.00     0.000 C 
BRANCH   9  10
ATOM     10  C   UNL     1      86.045 123.738 132.056  1.00  0.00    -0.000 C 
BRANCH  10  11
ATOM     11  C   UNL     1      87.137 124.178 131.070  1.00  0.00    -0.000 C 
BRANCH  11  12
ATOM     12  C   UNL     1      87.302 123.201 129.894  1.00  0.00    -0.000 C 
BRANCH  12  13
ATOM     13  C   UNL     1      87.709 121.793 130.350  1.00  0.00    -0.003 C 
ATOM     14  C   UNL     1      86.632 120.770 129.998  1.00  0.00     0.004 C 
ENDBRANCH  12  13
ENDBRANCH  11  12
ENDBRANCH  10  11
ENDBRANCH   9  10
ENDBRANCH   1   9
TORSDOF 10
ENDMDL
MODEL 8
REMARK VINA RESULT:    -4.325     11.045     13.100
REMARK INTER + INTRA:          -7.374
REMARK INTER:                  -6.075
REMARK INTRA:                  -1.299
REMARK UNBOUND:                -0.520
REMARK SMILES CCCCCCCCCCCC(=O)[O-]
REMARK SMILES IDX 7 1 8 2 9 3 10 4 11 5 12 6 13 7 14 8 6 9 5 10 4 11 3 12 2 13
REMARK SMILES IDX 1 14
REMARK H PARENT
REMARK Flexibility Score: inf
ROOT
ATOM      1  C   UNL     1      85.531 126.380 128.514  1.00  0.00     0.000 C 
ENDROOT
BRANCH   1   2
ATOM      2  C   UNL     1      84.619 125.185 128.196  1.00  0.00     0.000 C 
BRANCH   2   3
ATOM      3  C   UNL     1      85.404 123.948 127.735  1.00  0.00     0.000 C 
BRANCH   3   4
ATOM      4  C   UNL     1      84.571 122.659 127.802  1.00  0.00     0.006 C 
BRANCH   4   5
ATOM      5  C   UNL     1      83.376 122.729 126.846  1.00  0.00     0.053 C 
BRANCH   5   6
ATOM      6  C   UNL     1      83.844 122.907 125.436  1.00  0.00     0.041 C 
ATOM      7  O   UNL     1      83.520 123.935 124.786  1.00  0.00    -0.550 OA
ATOM      8  O   UNL     1      84.597 121.913 124.823  1.00  0.00    -0.550 OA
ENDBRANCH   5   6
ENDBRANCH   4   5
ENDBRANCH   3   4
ENDBRANCH   2   3
ENDBRANCH   1   2
BRANCH   1   9
ATOM      9  C   UNL     1      85.172 126.998 129.871  1.00  0.00     0.000 C 
BRANCH   9  10
ATOM     10  C   UNL     1      84.566 125.950 130.812  1.00  0.00    -0.000 C 
BRANCH  10  11
ATOM     11  C   UNL     1      85.611 125.442 131.816  1.00  0.00    -0.000 C 
BRANCH  11  12
ATOM     12  C   UNL     1      85.997 123.973 131.579  1.00  0.00    -0.000 C 
BRANCH  12  13
ATOM     13  C   UNL     1      87.338 123.826 130.844  1.00  0.00    -0.003 C 
ATOM     14  C   UNL     1      87.539 122.396 130.351  1.00  0.00     0.004 C 
ENDBRANCH  12  13
ENDBRANCH  11  12
ENDBRANCH  10  11
ENDBRANCH   9  10
ENDBRANCH   1   9
TORSDOF 10
ENDMDL
MODEL 9
REMARK VINA RESULT:    -4.313     11.034     12.978
REMARK INTER + INTRA:          -7.354
REMARK INTER:                  -5.911
REMARK INTRA:                  -1.443
REMARK UNBOUND:                -0.520
REMARK SMILES CCCCCCCCCCCC(=O)[O-]
REMARK SMILES IDX 7 1 8 2 9 3 10 4 11 5 12 6 13 7 14 8 6 9 5 10 4 11 3 12 2 13
REMARK SMILES IDX 1 14
REMARK H PARENT
REMARK Flexibility Score: inf
ROOT
ATOM      1  C   UNL     1      87.120 123.369 129.850  1.00  0.00     0.000 C 
ENDROOT
BRANCH   1   2
ATOM      2  C   UNL     1      85.996 122.337 130.028  1.00  0.00     0.000 C 
BRANCH   2   3
ATOM      3  C   UNL     1      84.892 122.476 128.969  1.00  0.00     0.000 C 
BRANCH   3   4
ATOM      4  C   UNL     1      85.319 123.345 127.777  1.00  0.00     0.006 C 
BRANCH   4   5
ATOM      5  C   UNL     1      84.104 124.001 127.115  1.00  0.00     0.053 C 
BRANCH   5   6
ATOM      6  C   UNL     1      84.054 123.660 125.658  1.00  0.00     0.041 C 
ATOM      7  O   UNL     1      83.435 124.404 124.854  1.00  0.00    -0.550 OA
ATOM      8  O   UNL     1      84.652 122.494 125.197  1.00  0.00    -0.550 OA
ENDBRANCH   5   6
ENDBRANCH   4   5
ENDBRANCH   3   4
ENDBRANCH   2   3
ENDBRANCH   1   2
BRANCH   1   9
ATOM      9  C   UNL     1      87.256 124.252 131.097  1.00  0.00     0.000 C 
BRANCH   9  10
ATOM     10  C   UNL     1      85.961 124.249 131.918  1.00  0.00    -0.000 C 
BRANCH  10  11
ATOM     11  C   UNL     1      85.261 125.615 131.847  1.00  0.00    -0.000 C 
BRANCH  11  12
ATOM     12  C   UNL     1      84.583 125.862 130.490  1.00  0.00    -0.000 C 
BRANCH  12  13
ATOM     13  C   UNL     1      85.046 127.168 129.827  1.00  0.00    -0.003 C 
ATOM     14  C   UNL     1      85.877 126.884 128.578  1.00  0.00     0.004 C 
ENDBRANCH  12  13
ENDBRANCH  11  12
ENDBRANCH  10  11
ENDBRANCH   9  10
ENDBRANCH   1   9
TORSDOF 10
ENDMDL
