MODEL 1
REMARK VINA RESULT:    -4.497      0.000      0.000
REMARK INTER + INTRA:          -8.267
REMARK INTER:                  -7.653
REMARK INTRA:                  -0.614
REMARK UNBOUND:                -0.614
REMARK SMILES CCCCCCCCCCCCCC(=O)[O-]
REMARK SMILES IDX 8 1 9 2 10 3 11 4 12 5 13 6 14 7 15 8 16 9 7 10 6 11 5 12
REMARK SMILES IDX 4 13 3 14 2 15 1 16
REMARK H PARENT
REMARK Flexibility Score: inf
ROOT
ATOM      1  C   UNL     1      39.565  -6.169   9.016  1.00  0.00     0.000 C 
ENDROOT
BRANCH   1   2
ATOM      2  C   UNL     1      40.187  -7.069  10.105  1.00  0.00     0.000 C 
BRANCH   2   3
ATOM      3  C   UNL     1      39.161  -8.042  10.711  1.00  0.00     0.000 C 
BRANCH   3   4
ATOM      4  C   UNL     1      37.928  -7.311  11.285  1.00  0.00     0.000 C 
BRANCH   4   5
ATOM      5  C   UNL     1      37.613  -7.686  12.743  1.00  0.00     0.006 C 
BRANCH   5   6
ATOM      6  C   UNL     1      37.100  -6.500  13.567  1.00  0.00     0.053 C 
BRANCH   6   7
ATOM      7  C   UNL     1      35.766  -6.816  14.164  1.00  0.00     0.041 C 
ATOM      8  O   UNL     1      35.598  -6.757  15.410  1.00  0.00    -0.550 OA
ATOM      9  O   UNL     1      34.718  -7.223  13.347  1.00  0.00    -0.550 OA
ENDBRANCH   6   7
ENDBRANCH   5   6
ENDBRANCH   4   5
ENDBRANCH   3   4
ENDBRANCH   2   3
ENDBRANCH   1   2
BRANCH   1  10
ATOM     10  C   UNL     1      39.718  -6.727   7.591  1.00  0.00     0.000 C 
BRANCH  10  11
ATOM     11  C   UNL     1      41.078  -7.406   7.361  1.00  0.00    -0.000 C 
BRANCH  11  12
ATOM     12  C   UNL     1      41.541  -7.326   5.898  1.00  0.00    -0.000 C 
BRANCH  12  13
ATOM     13  C   UNL     1      40.586  -6.503   5.014  1.00  0.00    -0.000 C 
BRANCH  13  14
ATOM     14  C   UNL     1      41.001  -6.528   3.528  1.00  0.00    -0.000 C 
BRANCH  14  15
ATOM     15  C   UNL     1      40.745  -5.199   2.795  1.00  0.00    -0.003 C 
ATOM     16  C   UNL     1      41.269  -3.984   3.559  1.00  0.00     0.004 C 
ENDBRANCH  14  15
ENDBRANCH  13  14
ENDBRANCH  12  13
ENDBRANCH  11  12
ENDBRANCH  10  11
ENDBRANCH   1  10
TORSDOF 12
ENDMDL
MODEL 2
REMARK VINA RESULT:    -4.497      4.630      8.306
REMARK INTER + INTRA:          -8.267
REMARK INTER:                  -6.962
REMARK INTRA:                  -1.304
REMARK UNBOUND:                -0.614
REMARK SMILES CCCCCCCCCCCCCC(=O)[O-]
REMARK SMILES IDX 8 1 9 2 10 3 11 4 12 5 13 6 14 7 15 8 16 9 7 10 6 11 5 12
REMARK SMILES IDX 4 13 3 14 2 15 1 16
REMARK H PARENT
REMARK Flexibility Score: inf
ROOT
ATOM      1  C   UNL     1      37.974  -7.494  10.273  1.00  0.00     0.000 C 
ENDROOT
BRANCH   1   2
ATOM      2  C   UNL     1      39.449  -7.333  10.701  1.00  0.00     0.000 C 
BRANCH   2   3
ATOM      3  C   UNL     1      40.289  -6.615   9.631  1.00  0.00     0.000 C 
BRANCH   3   4
ATOM      4  C   UNL     1      39.880  -7.019   8.198  1.00  0.00     0.000 C 
BRANCH   4   5
ATOM      5  C   UNL     1      41.058  -7.498   7.332  1.00  0.00     0.006 C 
BRANCH   5   6
ATOM      6  C   UNL     1      41.962  -8.501   8.058  1.00  0.00     0.053 C 
BRANCH   6   7
ATOM      7  C   UNL     1      43.396  -8.266   7.699  1.00  0.00     0.041 C 
ATOM      8  O   UNL     1      43.707  -7.340   6.904  1.00  0.00    -0.550 OA
ATOM      9  O   UNL     1      44.384  -9.101   8.204  1.00  0.00    -0.550 OA
ENDBRANCH   6   7
ENDBRANCH   5   6
ENDBRANCH   4   5
ENDBRANCH   3   4
ENDBRANCH   2   3
ENDBRANCH   1   2
BRANCH   1  10
ATOM     10  C   UNL     1      37.469  -8.946  10.328  1.00  0.00     0.000 C 
BRANCH  10  11
ATOM     11  C   UNL     1      38.003  -9.715  11.548  1.00  0.00    -0.000 C 
BRANCH  11  12
ATOM     12  C   UNL     1      36.882 -10.185  12.488  1.00  0.00    -0.000 C 
BRANCH  12  13
ATOM     13  C   UNL     1      36.605  -9.191  13.630  1.00  0.00    -0.000 C 
BRANCH  13  14
ATOM     14  C   UNL     1      35.269  -8.441  13.438  1.00  0.00    -0.000 C 
BRANCH  14  15
ATOM     15  C   UNL     1      35.440  -7.009  12.902  1.00  0.00    -0.003 C 
ATOM     16  C   UNL     1      36.582  -6.250  13.573  1.00  0.00     0.004 C 
ENDBRANCH  14  15
ENDBRANCH  13  14
ENDBRANCH  12  13
ENDBRANCH  11  12
ENDBRANCH  10  11
ENDBRANCH   1  10
TORSDOF 12
ENDMDL
MODEL 3
REMARK VINA RESULT:    -4.444      2.295      3.337
REMARK INTER + INTRA:          -8.176
REMARK INTER:                  -7.459
REMARK INTRA:                  -0.717
REMARK UNBOUND:                -0.614
REMARK SMILES CCCCCCCCCCCCCC(=O)[O-]
REMARK SMILES IDX 8 1 9 2 10 3 11 4 12 5 13 6 14 7 15 8 16 9 7 10 6 11 5 12
REMARK SMILES IDX 4 13 3 14 2 15 1 16
REMARK H PARENT
REMARK Flexibility Score: inf
ROOT
ATOM      1  C   UNL     1      39.195  -7.645  11.127  1.00  0.00     0.000 C 
ENDROOT
BRANCH   1   2
ATOM      2  C   UNL     1      37.790  -7.583  10.490  1.00  0.00     0.000 C 
BRANCH   2   3
ATOM      3  C   UNL     1      36.672  -7.601  11.547  1.00  0.00     0.000 C 
BRANCH   3   4
ATOM      4  C   UNL     1      37.121  -6.973  12.884  1.00  0.00     0.000 C 
BRANCH   4   5
ATOM      5  C   UNL     1      35.985  -6.276  13.651  1.00  0.00     0.006 C 
BRANCH   5   6
ATOM      6  C   UNL     1      35.604  -7.004  14.945  1.00  0.00     0.053 C 
BRANCH   6   7
ATOM      7  C   UNL     1      34.621  -8.095  14.661  1.00  0.00     0.041 C 
ATOM      8  O   UNL     1      33.388  -7.843  14.617  1.00  0.00    -0.550 OA
ATOM      9  O   UNL     1      35.062  -9.401  14.492  1.00  0.00    -0.550 OA
ENDBRANCH   6   7
ENDBRANCH   5   6
ENDBRANCH   4   5
ENDBRANCH   3   4
ENDBRANCH   2   3
ENDBRANCH   1   2
BRANCH   1  10
ATOM     10  C   UNL     1      40.287  -6.966  10.283  1.00  0.00     0.000 C 
BRANCH  10  11
ATOM     11  C   UNL     1      39.751  -6.408   8.954  1.00  0.00    -0.000 C 
BRANCH  11  12
ATOM     12  C   UNL     1      40.203  -7.235   7.740  1.00  0.00    -0.000 C 
BRANCH  12  13
ATOM     13  C   UNL     1      41.626  -7.800   7.898  1.00  0.00    -0.000 C 
BRANCH  13  14
ATOM     14  C   UNL     1      42.457  -7.655   6.605  1.00  0.00    -0.000 C 
BRANCH  14  15
ATOM     15  C   UNL     1      43.925  -8.085   6.766  1.00  0.00    -0.003 C 
ATOM     16  C   UNL     1      44.171  -8.917   8.023  1.00  0.00     0.004 C 
ENDBRANCH  14  15
ENDBRANCH  13  14
ENDBRANCH  12  13
ENDBRANCH  11  12
ENDBRANCH  10  11
ENDBRANCH   1  10
TORSDOF 12
ENDMDL
MODEL 4
REMARK VINA RESULT:    -4.406      3.104      4.480
REMARK INTER + INTRA:          -8.111
REMARK INTER:                  -6.839
REMARK INTRA:                  -1.272
REMARK UNBOUND:                -0.614
REMARK SMILES CCCCCCCCCCCCCC(=O)[O-]
REMARK SMILES IDX 8 1 9 2 10 3 11 4 12 5 13 6 14 7 15 8 16 9 7 10 6 11 5 12
REMARK SMILES IDX 4 13 3 14 2 15 1 16
REMARK H PARENT
REMARK Flexibility Score: inf
ROOT
ATOM      1  C   UNL     1      37.878  -7.827  12.029  1.00  0.00     0.000 C 
ENDROOT
BRANCH   1   2
ATOM      2  C   UNL     1      36.424  -7.805  11.511  1.00  0.00     0.000 C 
BRANCH   2   3
ATOM      3  C   UNL     1      35.483  -7.035  12.453  1.00  0.00     0.000 C 
BRANCH   3   4
ATOM      4  C   UNL     1      36.237  -6.397  13.640  1.00  0.00     0.000 C 
BRANCH   4   5
ATOM      5  C   UNL     1      35.715  -6.846  15.015  1.00  0.00     0.006 C 
BRANCH   5   6
ATOM      6  C   UNL     1      34.548  -7.834  14.917  1.00  0.00     0.053 C 
BRANCH   6   7
ATOM      7  C   UNL     1      33.583  -7.616  16.040  1.00  0.00     0.041 C 
ATOM      8  O   UNL     1      34.005  -7.419  17.209  1.00  0.00    -0.550 OA
ATOM      9  O   UNL     1      32.216  -7.680  15.803  1.00  0.00    -0.550 OA
ENDBRANCH   6   7
ENDBRANCH   5   6
ENDBRANCH   4   5
ENDBRANCH   3   4
ENDBRANCH   2   3
ENDBRANCH   1   2
BRANCH   1  10
ATOM     10  C   UNL     1      38.615  -9.147  11.748  1.00  0.00     0.000 C 
BRANCH  10  11
ATOM     11  C   UNL     1      37.903 -10.014  10.697  1.00  0.00    -0.000 C 
BRANCH  11  12
ATOM     12  C   UNL     1      38.503  -9.855   9.291  1.00  0.00    -0.000 C 
BRANCH  12  13
ATOM     13  C   UNL     1      40.031  -9.664   9.313  1.00  0.00    -0.000 C 
BRANCH  13  14
ATOM     14  C   UNL     1      40.487  -8.523   8.379  1.00  0.00    -0.000 C 
BRANCH  14  15
ATOM     15  C   UNL     1      39.617  -7.259   8.480  1.00  0.00    -0.003 C 
ATOM     16  C   UNL     1      40.133  -6.258   9.512  1.00  0.00     0.004 C 
ENDBRANCH  14  15
ENDBRANCH  13  14
ENDBRANCH  12  13
ENDBRANCH  11  12
ENDBRANCH  10  11
ENDBRANCH   1  10
TORSDOF 12
ENDMDL
MODEL 5
REMARK VINA RESULT:    -4.405      3.777      8.543
REMARK INTER + INTRA:          -8.109
REMARK INTER:                  -6.535
REMARK INTRA:                  -1.574
REMARK UNBOUND:                -0.614
REMARK SMILES CCCCCCCCCCCCCC(=O)[O-]
REMARK SMILES IDX 8 1 9 2 10 3 11 4 12 5 13 6 14 7 15 8 16 9 7 10 6 11 5 12
REMARK SMILES IDX 4 13 3 14 2 15 1 16
REMARK H PARENT
REMARK Flexibility Score: inf
ROOT
ATOM      1  C   UNL     1      37.263  -9.936  12.967  1.00  0.00     0.000 C 
ENDROOT
BRANCH   1   2
ATOM      2  C   UNL     1      36.599  -9.574  11.621  1.00  0.00     0.000 C 
BRANCH   2   3
ATOM      3  C   UNL     1      36.994  -8.167  11.138  1.00  0.00     0.000 C 
BRANCH   3   4
ATOM      4  C   UNL     1      38.428  -7.783  11.566  1.00  0.00     0.000 C 
BRANCH   4   5
ATOM      5  C   UNL     1      39.504  -8.175  10.539  1.00  0.00     0.006 C 
BRANCH   5   6
ATOM      6  C   UNL     1      40.196  -6.962   9.907  1.00  0.00     0.053 C 
BRANCH   6   7
ATOM      7  C   UNL     1      39.553  -6.616   8.602  1.00  0.00     0.041 C 
ATOM      8  O   UNL     1      38.375  -6.172   8.572  1.00  0.00    -0.550 OA
ATOM      9  O   UNL     1      40.238  -6.829   7.412  1.00  0.00    -0.550 OA
ENDBRANCH   6   7
ENDBRANCH   5   6
ENDBRANCH   4   5
ENDBRANCH   3   4
ENDBRANCH   2   3
ENDBRANCH   1   2
BRANCH   1  10
ATOM     10  C   UNL     1      36.387 -10.821  13.870  1.00  0.00     0.000 C 
BRANCH  10  11
ATOM     11  C   UNL     1      34.885 -10.546  13.696  1.00  0.00    -0.000 C 
BRANCH  11  12
ATOM     12  C   UNL     1      34.254  -9.897  14.938  1.00  0.00    -0.000 C 
BRANCH  12  13
ATOM     13  C   UNL     1      33.569  -8.554  14.626  1.00  0.00    -0.000 C 
BRANCH  13  14
ATOM     14  C   UNL     1      34.526  -7.559  13.936  1.00  0.00    -0.000 C 
BRANCH  14  15
ATOM     15  C   UNL     1      35.674  -7.081  14.842  1.00  0.00    -0.003 C 
ATOM     16  C   UNL     1      36.556  -6.022  14.183  1.00  0.00     0.004 C 
ENDBRANCH  14  15
ENDBRANCH  13  14
ENDBRANCH  12  13
ENDBRANCH  11  12
ENDBRANCH  10  11
ENDBRANCH   1  10
TORSDOF 12
ENDMDL
MODEL 6
REMARK VINA RESULT:    -4.391      3.898      9.577
REMARK INTER + INTRA:          -8.085
REMARK INTER:                  -7.205
REMARK INTRA:                  -0.881
REMARK UNBOUND:                -0.614
REMARK SMILES CCCCCCCCCCCCCC(=O)[O-]
REMARK SMILES IDX 8 1 9 2 10 3 11 4 12 5 13 6 14 7 15 8 16 9 7 10 6 11 5 12
REMARK SMILES IDX 4 13 3 14 2 15 1 16
REMARK H PARENT
REMARK Flexibility Score: inf
ROOT
ATOM      1  C   UNL     1      35.360  -7.012  12.763  1.00  0.00     0.000 C 
ENDROOT
BRANCH   1   2
ATOM      2  C   UNL     1      36.386  -7.456  11.699  1.00  0.00     0.000 C 
BRANCH   2   3
ATOM      3  C   UNL     1      37.816  -7.525  12.263  1.00  0.00     0.000 C 
BRANCH   3   4
ATOM      4  C   UNL     1      38.537  -8.833  11.872  1.00  0.00     0.000 C 
BRANCH   4   5
ATOM      5  C   UNL     1      39.322  -8.734  10.554  1.00  0.00     0.006 C 
BRANCH   5   6
ATOM      6  C   UNL     1      39.897  -7.335  10.305  1.00  0.00     0.053 C 
BRANCH   6   7
ATOM      7  C   UNL     1      39.491  -6.835   8.955  1.00  0.00     0.041 C 
ATOM      8  O   UNL     1      38.356  -6.318   8.786  1.00  0.00    -0.550 OA
ATOM      9  O   UNL     1      40.348  -6.985   7.872  1.00  0.00    -0.550 OA
ENDBRANCH   6   7
ENDBRANCH   5   6
ENDBRANCH   4   5
ENDBRANCH   3   4
ENDBRANCH   2   3
ENDBRANCH   1   2
BRANCH   1  10
ATOM     10  C   UNL     1      35.999  -6.402  14.022  1.00  0.00     0.000 C 
BRANCH  10  11
ATOM     11  C   UNL     1      35.450  -7.011  15.322  1.00  0.00    -0.000 C 
BRANCH  11  12
ATOM     12  C   UNL     1      34.517  -8.206  15.069  1.00  0.00    -0.000 C 
BRANCH  12  13
ATOM     13  C   UNL     1      33.266  -8.186  15.967  1.00  0.00    -0.000 C 
BRANCH  13  14
ATOM     14  C   UNL     1      31.981  -7.887  15.168  1.00  0.00    -0.000 C 
BRANCH  14  15
ATOM     15  C   UNL     1      31.201  -9.150  14.761  1.00  0.00    -0.003 C 
ATOM     16  C   UNL     1      30.868 -10.055  15.945  1.00  0.00     0.004 C 
ENDBRANCH  14  15
ENDBRANCH  13  14
ENDBRANCH  12  13
ENDBRANCH  11  12
ENDBRANCH  10  11
ENDBRANCH   1  10
TORSDOF 12
ENDMDL
MODEL 7
REMARK VINA RESULT:    -4.375      2.558      4.239
REMARK INTER + INTRA:          -8.058
REMARK INTER:                  -6.669
REMARK INTRA:                  -1.390
REMARK UNBOUND:                -0.614
REMARK SMILES CCCCCCCCCCCCCC(=O)[O-]
REMARK SMILES IDX 8 1 9 2 10 3 11 4 12 5 13 6 14 7 15 8 16 9 7 10 6 11 5 12
REMARK SMILES IDX 4 13 3 14 2 15 1 16
REMARK H PARENT
REMARK Flexibility Score: inf
ROOT
ATOM      1  C   UNL     1      38.087 -10.667  11.556  1.00  0.00     0.000 C 
ENDROOT
BRANCH   1   2
ATOM      2  C   UNL     1      37.185  -9.812  12.472  1.00  0.00     0.000 C 
BRANCH   2   3
ATOM      3  C   UNL     1      36.917  -8.416  11.885  1.00  0.00     0.000 C 
BRANCH   3   4
ATOM      4  C   UNL     1      37.569  -7.294  12.723  1.00  0.00     0.000 C 
BRANCH   4   5
ATOM      5  C   UNL     1      36.554  -6.421  13.479  1.00  0.00     0.006 C 
BRANCH   5   6
ATOM      6  C   UNL     1      35.105  -6.872  13.270  1.00  0.00     0.053 C 
BRANCH   6   7
ATOM      7  C   UNL     1      34.552  -7.456  14.531  1.00  0.00     0.041 C 
ATOM      8  O   UNL     1      33.592  -8.269  14.486  1.00  0.00    -0.550 OA
ATOM      9  O   UNL     1      35.064  -7.064  15.762  1.00  0.00    -0.550 OA
ENDBRANCH   6   7
ENDBRANCH   5   6
ENDBRANCH   4   5
ENDBRANCH   3   4
ENDBRANCH   2   3
ENDBRANCH   1   2
BRANCH   1  10
ATOM     10  C   UNL     1      37.636 -10.684  10.086  1.00  0.00     0.000 C 
BRANCH  10  11
ATOM     11  C   UNL     1      38.696 -10.111   9.132  1.00  0.00    -0.000 C 
BRANCH  11  12
ATOM     12  C   UNL     1      40.023  -9.796   9.841  1.00  0.00    -0.000 C 
BRANCH  12  13
ATOM     13  C   UNL     1      40.661  -8.481   9.358  1.00  0.00    -0.000 C 
BRANCH  13  14
ATOM     14  C   UNL     1      40.115  -7.255  10.120  1.00  0.00    -0.000 C 
BRANCH  14  15
ATOM     15  C   UNL     1      39.403  -6.235   9.215  1.00  0.00    -0.003 C 
ATOM     16  C   UNL     1      39.517  -6.570   7.730  1.00  0.00     0.004 C 
ENDBRANCH  14  15
ENDBRANCH  13  14
ENDBRANCH  12  13
ENDBRANCH  11  12
ENDBRANCH  10  11
ENDBRANCH   1  10
TORSDOF 12
ENDMDL
MODEL 8
REMARK VINA RESULT:    -4.366      3.988      7.946
REMARK INTER + INTRA:          -8.044
REMARK INTER:                  -6.387
REMARK INTRA:                  -1.657
REMARK UNBOUND:                -0.614
REMARK SMILES CCCCCCCCCCCCCC(=O)[O-]
REMARK SMILES IDX 8 1 9 2 10 3 11 4 12 5 13 6 14 7 15 8 16 9 7 10 6 11 5 12
REMARK SMILES IDX 4 13 3 14 2 15 1 16
REMARK H PARENT
REMARK Flexibility Score: inf
ROOT
ATOM      1  C   UNL     1      38.819  -9.345  11.569  1.00  0.00     0.000 C 
ENDROOT
BRANCH   1   2
ATOM      2  C   UNL     1      38.984  -7.842  11.256  1.00  0.00     0.000 C 
BRANCH   2   3
ATOM      3  C   UNL     1      37.927  -7.337  10.258  1.00  0.00     0.000 C 
BRANCH   3   4
ATOM      4  C   UNL     1      38.542  -6.452   9.152  1.00  0.00     0.000 C 
BRANCH   4   5
ATOM      5  C   UNL     1      40.074  -6.552   9.063  1.00  0.00     0.006 C 
BRANCH   5   6
ATOM      6  C   UNL     1      40.550  -7.393   7.873  1.00  0.00     0.053 C 
BRANCH   6   7
ATOM      7  C   UNL     1      41.606  -8.360   8.305  1.00  0.00     0.041 C 
ATOM      8  O   UNL     1      42.813  -8.150   8.018  1.00  0.00    -0.550 OA
ATOM      9  O   UNL     1      41.251  -9.520   8.983  1.00  0.00    -0.550 OA
ENDBRANCH   6   7
ENDBRANCH   5   6
ENDBRANCH   4   5
ENDBRANCH   3   4
ENDBRANCH   2   3
ENDBRANCH   1   2
BRANCH   1  10
ATOM     10  C   UNL     1      38.133 -10.140  10.445  1.00  0.00     0.000 C 
BRANCH  10  11
ATOM     11  C   UNL     1      36.837 -10.825  10.907  1.00  0.00    -0.000 C 
BRANCH  11  12
ATOM     12  C   UNL     1      36.672 -10.812  12.435  1.00  0.00    -0.000 C 
BRANCH  12  13
ATOM     13  C   UNL     1      35.383 -10.104  12.890  1.00  0.00    -0.000 C 
BRANCH  13  14
ATOM     14  C   UNL     1      35.630  -9.151  14.078  1.00  0.00    -0.000 C 
BRANCH  14  15
ATOM     15  C   UNL     1      36.247  -7.803  13.668  1.00  0.00    -0.003 C 
ATOM     16  C   UNL     1      35.272  -6.906  12.907  1.00  0.00     0.004 C 
ENDBRANCH  14  15
ENDBRANCH  13  14
ENDBRANCH  12  13
ENDBRANCH  11  12
ENDBRANCH  10  11
ENDBRANCH   1  10
TORSDOF 12
ENDMDL
MODEL 9
REMARK VINA RESULT:    -4.349      2.463      3.545
REMARK INTER + INTRA:          -8.013
REMARK INTER:                  -6.883
REMARK INTRA:                  -1.130
REMARK UNBOUND:                -0.614
REMARK SMILES CCCCCCCCCCCCCC(=O)[O-]
REMARK SMILES IDX 8 1 9 2 10 3 11 4 12 5 13 6 14 7 15 8 16 9 7 10 6 11 5 12
REMARK SMILES IDX 4 13 3 14 2 15 1 16
REMARK H PARENT
REMARK Flexibility Score: inf
ROOT
ATOM      1  C   UNL     1      39.076  -8.086  11.372  1.00  0.00     0.000 C 
ENDROOT
BRANCH   1   2
ATOM      2  C   UNL     1      38.813  -9.603  11.491  1.00  0.00     0.000 C 
BRANCH   2   3
ATOM      3  C   UNL     1      37.335  -9.915  11.786  1.00  0.00     0.000 C 
BRANCH   3   4
ATOM      4  C   UNL     1      36.948  -9.586  13.244  1.00  0.00     0.000 C 
BRANCH   4   5
ATOM      5  C   UNL     1      35.532  -9.005  13.390  1.00  0.00     0.006 C 
BRANCH   5   6
ATOM      6  C   UNL     1      35.472  -7.499  13.107  1.00  0.00     0.053 C 
BRANCH   6   7
ATOM      7  C   UNL     1      36.220  -6.740  14.157  1.00  0.00     0.041 C 
ATOM      8  O   UNL     1      37.331  -6.212  13.888  1.00  0.00    -0.550 OA
ATOM      9  O   UNL     1      35.714  -6.658  15.448  1.00  0.00    -0.550 OA
ENDBRANCH   6   7
ENDBRANCH   5   6
ENDBRANCH   4   5
ENDBRANCH   3   4
ENDBRANCH   2   3
ENDBRANCH   1   2
BRANCH   1  10
ATOM     10  C   UNL     1      38.046  -7.346  10.502  1.00  0.00     0.000 C 
BRANCH  10  11
ATOM     11  C   UNL     1      38.692  -6.590   9.329  1.00  0.00    -0.000 C 
BRANCH  11  12
ATOM     12  C   UNL     1      40.226  -6.692   9.332  1.00  0.00    -0.000 C 
BRANCH  12  13
ATOM     13  C   UNL     1      40.783  -7.341   8.052  1.00  0.00    -0.000 C 
BRANCH  13  14
ATOM     14  C   UNL     1      41.715  -8.531   8.362  1.00  0.00    -0.000 C 
BRANCH  14  15
ATOM     15  C   UNL     1      43.147  -8.346   7.829  1.00  0.00    -0.003 C 
ATOM     16  C   UNL     1      43.189  -7.894   6.371  1.00  0.00     0.004 C 
ENDBRANCH  14  15
ENDBRANCH  13  14
ENDBRANCH  12  13
ENDBRANCH  11  12
ENDBRANCH  10  11
ENDBRANCH   1  10
TORSDOF 12
ENDMDL
