MODEL 1
REMARK VINA RESULT:    -6.799      0.000      0.000
REMARK INTER + INTRA:          -8.264
REMARK INTER:                  -8.190
REMARK INTRA:                  -0.074
REMARK UNBOUND:                -0.074
REMARK SMILES O=c1c(O)c(-c2ccc(O)c(O)c2)oc2cc(O)cc(O)c12
REMARK SMILES IDX 5 1 3 2 2 3 1 4 22 5 20 6 19 7 17 8 16 9 15 10 14 11 6 12
REMARK SMILES IDX 7 13 8 14 9 15 13 16 11 17 10 18 12 20 4 22 21 24 18 26
REMARK H PARENT 10 19 12 21 4 23 21 25 18 27
REMARK Flexibility Score: inf
ROOT
ATOM      1  C   UNL     1      -6.904  25.237  34.532  1.00  0.00     0.180 A 
ATOM      2  C   UNL     1      -7.457  24.654  33.379  1.00  0.00     0.208 A 
ATOM      3  C   UNL     1      -8.277  23.522  33.513  1.00  0.00     0.238 A 
ATOM      4  O   UNL     1      -8.724  22.972  32.473  1.00  0.00    -0.285 OA
ATOM      5  C   UNL     1      -8.546  22.996  34.800  1.00  0.00     0.111 A 
ATOM      6  C   UNL     1      -9.395  21.878  35.057  1.00  0.00     0.134 A 
ATOM      7  C   UNL     1      -9.486  21.365  36.356  1.00  0.00     0.093 A 
ATOM      8  C   UNL     1      -8.812  21.967  37.417  1.00  0.00     0.123 A 
ATOM      9  C   UNL     1      -8.027  23.098  37.188  1.00  0.00     0.094 A 
ATOM     10  C   UNL     1      -7.888  23.612  35.896  1.00  0.00     0.146 A 
ATOM     11  O   UNL     1      -7.123  24.683  35.719  1.00  0.00    -0.452 OA
ENDROOT
BRANCH   1  12
ATOM     12  C   UNL     1      -6.052  26.446  34.473  1.00  0.00     0.025 A 
ATOM     13  C   UNL     1      -6.380  27.610  35.189  1.00  0.00     0.016 A 
ATOM     14  C   UNL     1      -5.548  28.731  35.137  1.00  0.00     0.051 A 
ATOM     15  C   UNL     1      -4.370  28.702  34.379  1.00  0.00     0.157 A 
ATOM     16  C   UNL     1      -4.859  26.415  33.732  1.00  0.00     0.062 A 
ATOM     17  C   UNL     1      -4.023  27.537  33.676  1.00  0.00     0.158 A 
BRANCH  15  18
ATOM     18  O   UNL     1      -3.543  29.824  34.327  1.00  0.00    -0.504 OA
ATOM     19  H   UNL     1      -2.979  30.104  35.120  1.00  0.00     0.293 HD
ENDBRANCH  15  18
BRANCH  17  20
ATOM     20  O   UNL     1      -2.854  27.474  32.918  1.00  0.00    -0.504 OA
ATOM     21  H   UNL     1      -2.101  28.142  33.033  1.00  0.00     0.293 HD
ENDBRANCH  17  20
ENDBRANCH   1  12
BRANCH   2  22
ATOM     22  O   UNL     1      -7.160  25.175  32.117  1.00  0.00    -0.502 OA
ATOM     23  H   UNL     1      -6.568  24.691  31.453  1.00  0.00     0.293 HD
ENDBRANCH   2  22
BRANCH   6  24
ATOM     24  O   UNL     1     -10.185  21.258  34.084  1.00  0.00    -0.507 OA
ATOM     25  H   UNL     1     -11.067  21.613  33.749  1.00  0.00     0.293 HD
ENDBRANCH   6  24
BRANCH   8  26
ATOM     26  O   UNL     1      -8.938  21.439  38.701  1.00  0.00    -0.508 OA
ATOM     27  H   UNL     1      -9.801  21.522  39.227  1.00  0.00     0.293 HD
ENDBRANCH   8  26
TORSDOF 6
ENDMDL
MODEL 2
REMARK VINA RESULT:    -6.124      1.769      7.233
REMARK INTER + INTRA:          -7.451
REMARK INTER:                  -7.231
REMARK INTRA:                  -0.220
REMARK UNBOUND:                -0.074
REMARK SMILES O=c1c(O)c(-c2ccc(O)c(O)c2)oc2cc(O)cc(O)c12
REMARK SMILES IDX 5 1 3 2 2 3 1 4 22 5 20 6 19 7 17 8 16 9 15 10 14 11 6 12
REMARK SMILES IDX 7 13 8 14 9 15 13 16 11 17 10 18 12 20 4 22 21 24 18 26
REMARK H PARENT 10 19 12 21 4 23 21 25 18 27
REMARK Flexibility Score: inf
ROOT
ATOM      1  C   UNL     1      -6.073  25.638  33.966  1.00  0.00     0.180 A 
ATOM      2  C   UNL     1      -6.327  26.975  34.317  1.00  0.00     0.208 A 
ATOM      3  C   UNL     1      -5.270  27.899  34.291  1.00  0.00     0.238 A 
ATOM      4  O   UNL     1      -5.492  29.082  34.659  1.00  0.00    -0.285 OA
ATOM      5  C   UNL     1      -3.976  27.479  33.900  1.00  0.00     0.111 A 
ATOM      6  C   UNL     1      -2.841  28.338  33.799  1.00  0.00     0.134 A 
ATOM      7  C   UNL     1      -1.581  27.789  33.528  1.00  0.00     0.093 A 
ATOM      8  C   UNL     1      -1.427  26.424  33.291  1.00  0.00     0.123 A 
ATOM      9  C   UNL     1      -2.540  25.583  33.328  1.00  0.00     0.094 A 
ATOM     10  C   UNL     1      -3.804  26.096  33.631  1.00  0.00     0.146 A 
ATOM     11  O   UNL     1      -4.835  25.261  33.666  1.00  0.00    -0.452 OA
ENDROOT
BRANCH   1  12
ATOM     12  C   UNL     1      -7.140  24.613  33.944  1.00  0.00     0.025 A 
ATOM     13  C   UNL     1      -7.606  24.065  32.736  1.00  0.00     0.016 A 
ATOM     14  C   UNL     1      -8.598  23.081  32.741  1.00  0.00     0.051 A 
ATOM     15  C   UNL     1      -9.129  22.620  33.954  1.00  0.00     0.157 A 
ATOM     16  C   UNL     1      -7.661  24.131  35.157  1.00  0.00     0.062 A 
ATOM     17  C   UNL     1      -8.656  23.146  35.166  1.00  0.00     0.158 A 
BRANCH  15  18
ATOM     18  O   UNL     1     -10.121  21.640  33.955  1.00  0.00    -0.504 OA
ATOM     19  H   UNL     1     -10.754  21.525  33.173  1.00  0.00     0.293 HD
ENDBRANCH  15  18
BRANCH  17  20
ATOM     20  O   UNL     1      -9.159  22.703  36.390  1.00  0.00    -0.504 OA
ATOM     21  H   UNL     1      -8.948  23.176  37.261  1.00  0.00     0.293 HD
ENDBRANCH  17  20
ENDBRANCH   1  12
BRANCH   2  22
ATOM     22  O   UNL     1      -7.607  27.364  34.721  1.00  0.00    -0.502 OA
ATOM     23  H   UNL     1      -7.766  27.968  35.518  1.00  0.00     0.293 HD
ENDBRANCH   2  22
BRANCH   6  24
ATOM     24  O   UNL     1      -2.901  29.729  33.927  1.00  0.00    -0.507 OA
ATOM     25  H   UNL     1      -2.718  30.382  33.182  1.00  0.00     0.293 HD
ENDBRANCH   6  24
BRANCH   8  26
ATOM     26  O   UNL     1      -0.161  25.914  33.009  1.00  0.00    -0.508 OA
ATOM     27  H   UNL     1       0.501  26.425  32.436  1.00  0.00     0.293 HD
ENDBRANCH   8  26
TORSDOF 6
ENDMDL
MODEL 3
REMARK VINA RESULT:    -5.989      1.275      2.994
REMARK INTER + INTRA:          -7.289
REMARK INTER:                  -7.681
REMARK INTRA:                   0.392
REMARK UNBOUND:                -0.074
REMARK SMILES O=c1c(O)c(-c2ccc(O)c(O)c2)oc2cc(O)cc(O)c12
REMARK SMILES IDX 5 1 3 2 2 3 1 4 22 5 20 6 19 7 17 8 16 9 15 10 14 11 6 12
REMARK SMILES IDX 7 13 8 14 9 15 13 16 11 17 10 18 12 20 4 22 21 24 18 26
REMARK H PARENT 10 19 12 21 4 23 21 25 18 27
REMARK Flexibility Score: inf
ROOT
ATOM      1  C   UNL     1      -6.967  25.609  35.961  1.00  0.00     0.180 A 
ATOM      2  C   UNL     1      -7.246  25.409  37.324  1.00  0.00     0.208 A 
ATOM      3  C   UNL     1      -7.991  24.283  37.709  1.00  0.00     0.238 A 
ATOM      4  O   UNL     1      -8.286  24.139  38.924  1.00  0.00    -0.285 OA
ATOM      5  C   UNL     1      -8.434  23.362  36.729  1.00  0.00     0.111 A 
ATOM      6  C   UNL     1      -9.161  22.167  37.010  1.00  0.00     0.134 A 
ATOM      7  C   UNL     1      -9.660  21.398  35.952  1.00  0.00     0.093 A 
ATOM      8  C   UNL     1      -9.404  21.744  34.626  1.00  0.00     0.123 A 
ATOM      9  C   UNL     1      -8.642  22.879  34.341  1.00  0.00     0.094 A 
ATOM     10  C   UNL     1      -8.161  23.686  35.374  1.00  0.00     0.146 A 
ATOM     11  O   UNL     1      -7.450  24.762  35.060  1.00  0.00    -0.452 OA
ENDROOT
BRANCH   1  12
ATOM     12  C   UNL     1      -6.165  26.757  35.481  1.00  0.00     0.025 A 
ATOM     13  C   UNL     1      -5.985  27.907  36.270  1.00  0.00     0.016 A 
ATOM     14  C   UNL     1      -5.205  28.968  35.806  1.00  0.00     0.051 A 
ATOM     15  C   UNL     1      -4.583  28.893  34.552  1.00  0.00     0.157 A 
ATOM     16  C   UNL     1      -5.522  26.678  34.235  1.00  0.00     0.062 A 
ATOM     17  C   UNL     1      -4.741  27.740  33.766  1.00  0.00     0.158 A 
BRANCH  15  18
ATOM     18  O   UNL     1      -3.807  29.956  34.091  1.00  0.00    -0.504 OA
ATOM     19  H   UNL     1      -4.061  30.918  34.278  1.00  0.00     0.293 HD
ENDBRANCH  15  18
BRANCH  17  20
ATOM     20  O   UNL     1      -4.129  27.631  32.516  1.00  0.00    -0.504 OA
ATOM     21  H   UNL     1      -3.143  27.421  32.417  1.00  0.00     0.293 HD
ENDBRANCH  17  20
ENDBRANCH   1  12
BRANCH   2  22
ATOM     22  O   UNL     1      -6.819  26.342  38.273  1.00  0.00    -0.502 OA
ATOM     23  H   UNL     1      -5.920  26.806  38.214  1.00  0.00     0.293 HD
ENDBRANCH   2  22
BRANCH   6  24
ATOM     24  O   UNL     1      -9.394  21.680  38.300  1.00  0.00    -0.507 OA
ATOM     25  H   UNL     1     -10.033  22.093  38.963  1.00  0.00     0.293 HD
ENDBRANCH   6  24
BRANCH   8  26
ATOM     26  O   UNL     1      -9.903  20.947  33.598  1.00  0.00    -0.508 OA
ATOM     27  H   UNL     1     -10.722  20.363  33.729  1.00  0.00     0.293 HD
ENDBRANCH   8  26
TORSDOF 6
ENDMDL
MODEL 4
REMARK VINA RESULT:    -5.813      3.686      6.333
REMARK INTER + INTRA:          -7.077
REMARK INTER:                  -6.784
REMARK INTRA:                  -0.292
REMARK UNBOUND:                -0.074
REMARK SMILES O=c1c(O)c(-c2ccc(O)c(O)c2)oc2cc(O)cc(O)c12
REMARK SMILES IDX 5 1 3 2 2 3 1 4 22 5 20 6 19 7 17 8 16 9 15 10 14 11 6 12
REMARK SMILES IDX 7 13 8 14 9 15 13 16 11 17 10 18 12 20 4 22 21 24 18 26
REMARK H PARENT 10 19 12 21 4 23 21 25 18 27
REMARK Flexibility Score: inf
ROOT
ATOM      1  C   UNL     1      -4.057  24.927  32.111  1.00  0.00     0.180 A 
ATOM      2  C   UNL     1      -3.396  26.135  32.392  1.00  0.00     0.208 A 
ATOM      3  C   UNL     1      -3.961  27.020  33.325  1.00  0.00     0.238 A 
ATOM      4  O   UNL     1      -3.393  28.124  33.531  1.00  0.00    -0.285 OA
ATOM      5  C   UNL     1      -5.171  26.679  33.976  1.00  0.00     0.111 A 
ATOM      6  C   UNL     1      -5.811  27.482  34.967  1.00  0.00     0.134 A 
ATOM      7  C   UNL     1      -7.072  27.108  35.449  1.00  0.00     0.093 A 
ATOM      8  C   UNL     1      -7.684  25.930  35.025  1.00  0.00     0.123 A 
ATOM      9  C   UNL     1      -7.039  25.106  34.101  1.00  0.00     0.094 A 
ATOM     10  C   UNL     1      -5.798  25.471  33.575  1.00  0.00     0.146 A 
ATOM     11  O   UNL     1      -5.223  24.665  32.690  1.00  0.00    -0.452 OA
ENDROOT
BRANCH   1  12
ATOM     12  C   UNL     1      -3.511  23.933  31.160  1.00  0.00     0.025 A 
ATOM     13  C   UNL     1      -2.449  23.084  31.517  1.00  0.00     0.016 A 
ATOM     14  C   UNL     1      -1.965  22.136  30.611  1.00  0.00     0.051 A 
ATOM     15  C   UNL     1      -2.543  22.015  29.340  1.00  0.00     0.157 A 
ATOM     16  C   UNL     1      -4.100  23.792  29.893  1.00  0.00     0.062 A 
ATOM     17  C   UNL     1      -3.618  22.845  28.982  1.00  0.00     0.158 A 
BRANCH  15  18
ATOM     18  O   UNL     1      -2.057  21.070  28.437  1.00  0.00    -0.504 OA
ATOM     19  H   UNL     1      -1.224  20.527  28.634  1.00  0.00     0.293 HD
ENDBRANCH  15  18
BRANCH  17  20
ATOM     20  O   UNL     1      -4.220  22.743  27.727  1.00  0.00    -0.504 OA
ATOM     21  H   UNL     1      -4.107  23.457  27.017  1.00  0.00     0.293 HD
ENDBRANCH  17  20
ENDBRANCH   1  12
BRANCH   2  22
ATOM     22  O   UNL     1      -2.214  26.462  31.722  1.00  0.00    -0.502 OA
ATOM     23  H   UNL     1      -1.307  26.126  32.022  1.00  0.00     0.293 HD
ENDBRANCH   2  22
BRANCH   6  24
ATOM     24  O   UNL     1      -5.244  28.630  35.527  1.00  0.00    -0.507 OA
ATOM     25  H   UNL     1      -4.355  29.021  35.258  1.00  0.00     0.293 HD
ENDBRANCH   6  24
BRANCH   8  26
ATOM     26  O   UNL     1      -8.932  25.580  35.538  1.00  0.00    -0.508 OA
ATOM     27  H   UNL     1      -9.032  24.865  36.250  1.00  0.00     0.293 HD
ENDBRANCH   8  26
TORSDOF 6
ENDMDL
MODEL 5
REMARK VINA RESULT:    -5.751      6.411     10.155
REMARK INTER + INTRA:          -7.002
REMARK INTER:                  -6.725
REMARK INTRA:                  -0.277
REMARK UNBOUND:                -0.074
REMARK SMILES O=c1c(O)c(-c2ccc(O)c(O)c2)oc2cc(O)cc(O)c12
REMARK SMILES IDX 5 1 3 2 2 3 1 4 22 5 20 6 19 7 17 8 16 9 15 10 14 11 6 12
REMARK SMILES IDX 7 13 8 14 9 15 13 16 11 17 10 18 12 20 4 22 21 24 18 26
REMARK H PARENT 10 19 12 21 4 23 21 25 18 27
REMARK Flexibility Score: inf
ROOT
ATOM      1  C   UNL     1       0.221  31.902  35.588  1.00  0.00     0.180 A 
ATOM      2  C   UNL     1       1.168  30.865  35.545  1.00  0.00     0.208 A 
ATOM      3  C   UNL     1       0.758  29.584  35.142  1.00  0.00     0.238 A 
ATOM      4  O   UNL     1       1.598  28.647  35.158  1.00  0.00    -0.285 OA
ATOM      5  C   UNL     1      -0.590  29.359  34.772  1.00  0.00     0.111 A 
ATOM      6  C   UNL     1      -1.107  28.112  34.310  1.00  0.00     0.134 A 
ATOM      7  C   UNL     1      -2.484  27.971  34.096  1.00  0.00     0.093 A 
ATOM      8  C   UNL     1      -3.352  29.049  34.265  1.00  0.00     0.123 A 
ATOM      9  C   UNL     1      -2.849  30.290  34.658  1.00  0.00     0.094 A 
ATOM     10  C   UNL     1      -1.486  30.452  34.914  1.00  0.00     0.146 A 
ATOM     11  O   UNL     1      -1.049  31.646  35.297  1.00  0.00    -0.452 OA
ENDROOT
BRANCH   1  12
ATOM     12  C   UNL     1       0.582  33.284  35.977  1.00  0.00     0.025 A 
ATOM     13  C   UNL     1       1.292  34.129  35.106  1.00  0.00     0.016 A 
ATOM     14  C   UNL     1       1.602  35.437  35.486  1.00  0.00     0.051 A 
ATOM     15  C   UNL     1       1.196  35.925  36.735  1.00  0.00     0.157 A 
ATOM     16  C   UNL     1       0.160  33.785  37.220  1.00  0.00     0.062 A 
ATOM     17  C   UNL     1       0.469  35.095  37.604  1.00  0.00     0.158 A 
BRANCH  15  18
ATOM     18  O   UNL     1       1.509  37.231  37.112  1.00  0.00    -0.504 OA
ATOM     19  H   UNL     1       1.338  37.568  38.052  1.00  0.00     0.293 HD
ENDBRANCH  15  18
BRANCH  17  20
ATOM     20  O   UNL     1       0.045  35.553  38.852  1.00  0.00    -0.504 OA
ATOM     21  H   UNL     1      -0.936  35.672  39.076  1.00  0.00     0.293 HD
ENDBRANCH  17  20
ENDBRANCH   1  12
BRANCH   2  22
ATOM     22  O   UNL     1       2.489  31.103  35.935  1.00  0.00    -0.502 OA
ATOM     23  H   UNL     1       2.743  31.848  36.572  1.00  0.00     0.293 HD
ENDBRANCH   2  22
BRANCH   6  24
ATOM     24  O   UNL     1      -0.313  26.998  34.021  1.00  0.00    -0.507 OA
ATOM     25  H   UNL     1       0.690  26.966  34.119  1.00  0.00     0.293 HD
ENDBRANCH   6  24
BRANCH   8  26
ATOM     26  O   UNL     1      -4.714  28.877  34.028  1.00  0.00    -0.508 OA
ATOM     27  H   UNL     1      -5.394  29.574  34.313  1.00  0.00     0.293 HD
ENDBRANCH   8  26
TORSDOF 6
ENDMDL
MODEL 6
REMARK VINA RESULT:    -5.702      6.320     11.924
REMARK INTER + INTRA:          -6.943
REMARK INTER:                  -6.647
REMARK INTRA:                  -0.296
REMARK UNBOUND:                -0.074
REMARK SMILES O=c1c(O)c(-c2ccc(O)c(O)c2)oc2cc(O)cc(O)c12
REMARK SMILES IDX 5 1 3 2 2 3 1 4 22 5 20 6 19 7 17 8 16 9 15 10 14 11 6 12
REMARK SMILES IDX 7 13 8 14 9 15 13 16 11 17 10 18 12 20 4 22 21 24 18 26
REMARK H PARENT 10 19 12 21 4 23 21 25 18 27
REMARK Flexibility Score: inf
ROOT
ATOM      1  C   UNL     1      -0.314  31.728  34.951  1.00  0.00     0.180 A 
ATOM      2  C   UNL     1       0.457  32.303  33.926  1.00  0.00     0.208 A 
ATOM      3  C   UNL     1       1.131  33.510  34.174  1.00  0.00     0.238 A 
ATOM      4  O   UNL     1       1.774  34.047  33.235  1.00  0.00    -0.285 OA
ATOM      5  C   UNL     1       1.039  34.118  35.449  1.00  0.00     0.111 A 
ATOM      6  C   UNL     1       1.712  35.319  35.823  1.00  0.00     0.134 A 
ATOM      7  C   UNL     1       1.446  35.901  37.069  1.00  0.00     0.093 A 
ATOM      8  C   UNL     1       0.582  35.291  37.978  1.00  0.00     0.123 A 
ATOM      9  C   UNL     1      -0.036  34.084  37.646  1.00  0.00     0.094 A 
ATOM     10  C   UNL     1       0.183  33.499  36.396  1.00  0.00     0.146 A 
ATOM     11  O   UNL     1      -0.432  32.356  36.115  1.00  0.00    -0.452 OA
ENDROOT
BRANCH   1  12
ATOM     12  C   UNL     1      -1.031  30.446  34.774  1.00  0.00     0.025 A 
ATOM     13  C   UNL     1      -0.355  29.214  34.827  1.00  0.00     0.016 A 
ATOM     14  C   UNL     1      -1.057  28.015  34.680  1.00  0.00     0.051 A 
ATOM     15  C   UNL     1      -2.446  28.028  34.491  1.00  0.00     0.157 A 
ATOM     16  C   UNL     1      -2.425  30.451  34.605  1.00  0.00     0.062 A 
ATOM     17  C   UNL     1      -3.132  29.252  34.457  1.00  0.00     0.158 A 
BRANCH  15  18
ATOM     18  O   UNL     1      -3.142  26.829  34.342  1.00  0.00    -0.504 OA
ATOM     19  H   UNL     1      -3.896  26.733  33.672  1.00  0.00     0.293 HD
ENDBRANCH  15  18
BRANCH  17  20
ATOM     20  O   UNL     1      -4.515  29.298  34.277  1.00  0.00    -0.504 OA
ATOM     21  H   UNL     1      -4.967  28.880  33.473  1.00  0.00     0.293 HD
ENDBRANCH  17  20
ENDBRANCH   1  12
BRANCH   2  22
ATOM     22  O   UNL     1       0.516  31.697  32.668  1.00  0.00    -0.502 OA
ATOM     23  H   UNL     1      -0.121  31.936  31.918  1.00  0.00     0.293 HD
ENDBRANCH   2  22
BRANCH   6  24
ATOM     24  O   UNL     1       2.665  35.961  35.027  1.00  0.00    -0.507 OA
ATOM     25  H   UNL     1       2.819  35.769  34.049  1.00  0.00     0.293 HD
ENDBRANCH   6  24
BRANCH   8  26
ATOM     26  O   UNL     1       0.352  35.889  39.215  1.00  0.00    -0.508 OA
ATOM     27  H   UNL     1       1.043  36.489  39.652  1.00  0.00     0.293 HD
ENDBRANCH   8  26
TORSDOF 6
ENDMDL
MODEL 7
REMARK VINA RESULT:    -5.690      2.758      4.511
REMARK INTER + INTRA:          -6.929
REMARK INTER:                  -6.808
REMARK INTRA:                  -0.121
REMARK UNBOUND:                -0.074
REMARK SMILES O=c1c(O)c(-c2ccc(O)c(O)c2)oc2cc(O)cc(O)c12
REMARK SMILES IDX 5 1 3 2 2 3 1 4 22 5 20 6 19 7 17 8 16 9 15 10 14 11 6 12
REMARK SMILES IDX 7 13 8 14 9 15 13 16 11 17 10 18 12 20 4 22 21 24 18 26
REMARK H PARENT 10 19 12 21 4 23 21 25 18 27
REMARK Flexibility Score: inf
ROOT
ATOM      1  C   UNL     1      -3.607  27.638  33.887  1.00  0.00     0.180 A 
ATOM      2  C   UNL     1      -3.423  26.779  32.790  1.00  0.00     0.208 A 
ATOM      3  C   UNL     1      -4.447  25.881  32.448  1.00  0.00     0.238 A 
ATOM      4  O   UNL     1      -4.254  25.077  31.499  1.00  0.00    -0.285 OA
ATOM      5  C   UNL     1      -5.648  25.863  33.198  1.00  0.00     0.111 A 
ATOM      6  C   UNL     1      -6.766  25.023  32.917  1.00  0.00     0.134 A 
ATOM      7  C   UNL     1      -7.851  24.997  33.803  1.00  0.00     0.093 A 
ATOM      8  C   UNL     1      -7.886  25.827  34.922  1.00  0.00     0.123 A 
ATOM      9  C   UNL     1      -6.824  26.697  35.174  1.00  0.00     0.094 A 
ATOM     10  C   UNL     1      -5.712  26.719  34.328  1.00  0.00     0.146 A 
ATOM     11  O   UNL     1      -4.718  27.554  34.609  1.00  0.00    -0.452 OA
ENDROOT
BRANCH   1  12
ATOM     12  C   UNL     1      -2.585  28.630  34.291  1.00  0.00     0.025 A 
ATOM     13  C   UNL     1      -2.865  30.007  34.304  1.00  0.00     0.016 A 
ATOM     14  C   UNL     1      -1.893  30.923  34.713  1.00  0.00     0.051 A 
ATOM     15  C   UNL     1      -0.630  30.476  35.126  1.00  0.00     0.157 A 
ATOM     16  C   UNL     1      -1.326  28.186  34.726  1.00  0.00     0.062 A 
ATOM     17  C   UNL     1      -0.348  29.100  35.135  1.00  0.00     0.158 A 
BRANCH  15  18
ATOM     18  O   UNL     1       0.339  31.393  35.530  1.00  0.00    -0.504 OA
ATOM     19  H   UNL     1       0.410  32.311  35.109  1.00  0.00     0.293 HD
ENDBRANCH  15  18
BRANCH  17  20
ATOM     20  O   UNL     1       0.896  28.623  35.547  1.00  0.00    -0.504 OA
ATOM     21  H   UNL     1       1.446  29.095  36.255  1.00  0.00     0.293 HD
ENDBRANCH  17  20
ENDBRANCH   1  12
BRANCH   2  22
ATOM     22  O   UNL     1      -2.222  26.798  32.076  1.00  0.00    -0.502 OA
ATOM     23  H   UNL     1      -1.736  27.657  31.850  1.00  0.00     0.293 HD
ENDBRANCH   2  22
BRANCH   6  24
ATOM     24  O   UNL     1      -6.873  24.222  31.776  1.00  0.00    -0.507 OA
ATOM     25  H   UNL     1      -6.481  24.450  30.875  1.00  0.00     0.293 HD
ENDBRANCH   6  24
BRANCH   8  26
ATOM     26  O   UNL     1      -8.988  25.786  35.774  1.00  0.00    -0.508 OA
ATOM     27  H   UNL     1      -9.036  25.133  36.548  1.00  0.00     0.293 HD
ENDBRANCH   8  26
TORSDOF 6
ENDMDL
MODEL 8
REMARK VINA RESULT:    -5.611     11.731     12.974
REMARK INTER + INTRA:          -6.833
REMARK INTER:                  -6.510
REMARK INTRA:                  -0.323
REMARK UNBOUND:                -0.074
REMARK SMILES O=c1c(O)c(-c2ccc(O)c(O)c2)oc2cc(O)cc(O)c12
REMARK SMILES IDX 5 1 3 2 2 3 1 4 22 5 20 6 19 7 17 8 16 9 15 10 14 11 6 12
REMARK SMILES IDX 7 13 8 14 9 15 13 16 11 17 10 18 12 20 4 22 21 24 18 26
REMARK H PARENT 10 19 12 21 4 23 21 25 18 27
REMARK Flexibility Score: inf
ROOT
ATOM      1  C   UNL     1       3.022  32.013  38.572  1.00  0.00     0.180 A 
ATOM      2  C   UNL     1       3.460  31.664  37.283  1.00  0.00     0.208 A 
ATOM      3  C   UNL     1       3.659  30.309  36.973  1.00  0.00     0.238 A 
ATOM      4  O   UNL     1       4.104  30.007  35.836  1.00  0.00    -0.285 OA
ATOM      5  C   UNL     1       3.401  29.318  37.951  1.00  0.00     0.111 A 
ATOM      6  C   UNL     1       3.529  27.914  37.735  1.00  0.00     0.134 A 
ATOM      7  C   UNL     1       3.374  27.032  38.811  1.00  0.00     0.093 A 
ATOM      8  C   UNL     1       3.031  27.498  40.080  1.00  0.00     0.123 A 
ATOM      9  C   UNL     1       2.844  28.865  40.289  1.00  0.00     0.094 A 
ATOM     10  C   UNL     1       3.027  29.772  39.243  1.00  0.00     0.146 A 
ATOM     11  O   UNL     1       2.850  31.065  39.487  1.00  0.00    -0.452 OA
ENDROOT
BRANCH   1  12
ATOM     12  C   UNL     1       2.765  33.416  38.964  1.00  0.00     0.025 A 
ATOM     13  C   UNL     1       3.780  34.223  39.510  1.00  0.00     0.016 A 
ATOM     14  C   UNL     1       3.521  35.552  39.851  1.00  0.00     0.051 A 
ATOM     15  C   UNL     1       2.248  36.100  39.641  1.00  0.00     0.157 A 
ATOM     16  C   UNL     1       1.498  33.977  38.737  1.00  0.00     0.062 A 
ATOM     17  C   UNL     1       1.233  35.309  39.078  1.00  0.00     0.158 A 
BRANCH  15  18
ATOM     18  O   UNL     1       1.992  37.427  39.985  1.00  0.00    -0.504 OA
ATOM     19  H   UNL     1       1.431  37.667  40.793  1.00  0.00     0.293 HD
ENDBRANCH  15  18
BRANCH  17  20
ATOM     20  O   UNL     1      -0.042  35.827  38.849  1.00  0.00    -0.504 OA
ATOM     21  H   UNL     1      -0.235  36.820  38.899  1.00  0.00     0.293 HD
ENDBRANCH  17  20
ENDBRANCH   1  12
BRANCH   2  22
ATOM     22  O   UNL     1       3.730  32.659  36.340  1.00  0.00    -0.502 OA
ATOM     23  H   UNL     1       3.018  33.295  36.000  1.00  0.00     0.293 HD
ENDBRANCH   2  22
BRANCH   6  24
ATOM     24  O   UNL     1       3.779  27.336  36.486  1.00  0.00    -0.507 OA
ATOM     25  H   UNL     1       4.029  27.850  35.655  1.00  0.00     0.293 HD
ENDBRANCH   6  24
BRANCH   8  26
ATOM     26  O   UNL     1       2.869  26.591  41.125  1.00  0.00    -0.508 OA
ATOM     27  H   UNL     1       1.953  26.248  41.393  1.00  0.00     0.293 HD
ENDBRANCH   8  26
TORSDOF 6
ENDMDL
MODEL 9
REMARK VINA RESULT:    -5.542      3.517      6.494
REMARK INTER + INTRA:          -6.751
REMARK INTER:                  -6.427
REMARK INTRA:                  -0.324
REMARK UNBOUND:                -0.074
REMARK SMILES O=c1c(O)c(-c2ccc(O)c(O)c2)oc2cc(O)cc(O)c12
REMARK SMILES IDX 5 1 3 2 2 3 1 4 22 5 20 6 19 7 17 8 16 9 15 10 14 11 6 12
REMARK SMILES IDX 7 13 8 14 9 15 13 16 11 17 10 18 12 20 4 22 21 24 18 26
REMARK H PARENT 10 19 12 21 4 23 21 25 18 27
REMARK Flexibility Score: inf
ROOT
ATOM      1  C   UNL     1      -2.426  26.354  33.011  1.00  0.00     0.180 A 
ATOM      2  C   UNL     1      -2.370  27.592  33.675  1.00  0.00     0.208 A 
ATOM      3  C   UNL     1      -3.531  28.089  34.289  1.00  0.00     0.238 A 
ATOM      4  O   UNL     1      -3.489  29.223  34.834  1.00  0.00    -0.285 OA
ATOM      5  C   UNL     1      -4.728  27.335  34.247  1.00  0.00     0.111 A 
ATOM      6  C   UNL     1      -5.953  27.723  34.868  1.00  0.00     0.134 A 
ATOM      7  C   UNL     1      -7.109  26.963  34.652  1.00  0.00     0.093 A 
ATOM      8  C   UNL     1      -7.071  25.796  33.889  1.00  0.00     0.123 A 
ATOM      9  C   UNL     1      -5.865  25.375  33.326  1.00  0.00     0.094 A 
ATOM     10  C   UNL     1      -4.703  26.131  33.495  1.00  0.00     0.146 A 
ATOM     11  O   UNL     1      -3.580  25.701  32.933  1.00  0.00    -0.452 OA
ENDROOT
BRANCH   1  12
ATOM     12  C   UNL     1      -1.239  25.754  32.363  1.00  0.00     0.025 A 
ATOM     13  C   UNL     1      -0.923  26.021  31.019  1.00  0.00     0.016 A 
ATOM     14  C   UNL     1       0.216  25.461  30.435  1.00  0.00     0.051 A 
ATOM     15  C   UNL     1       1.064  24.637  31.188  1.00  0.00     0.157 A 
ATOM     16  C   UNL     1      -0.374  24.944  33.118  1.00  0.00     0.062 A 
ATOM     17  C   UNL     1       0.768  24.381  32.537  1.00  0.00     0.158 A 
BRANCH  15  18
ATOM     18  O   UNL     1       2.199  24.078  30.601  1.00  0.00    -0.504 OA
ATOM     19  H   UNL     1       2.297  23.077  30.485  1.00  0.00     0.293 HD
ENDBRANCH  15  18
BRANCH  17  20
ATOM     20  O   UNL     1       1.595  23.571  33.315  1.00  0.00    -0.504 OA
ATOM     21  H   UNL     1       2.459  23.182  32.956  1.00  0.00     0.293 HD
ENDBRANCH  17  20
ENDBRANCH   1  12
BRANCH   2  22
ATOM     22  O   UNL     1      -1.184  28.330  33.686  1.00  0.00    -0.502 OA
ATOM     23  H   UNL     1      -0.270  27.893  33.707  1.00  0.00     0.293 HD
ENDBRANCH   2  22
BRANCH   6  24
ATOM     24  O   UNL     1      -6.079  28.821  35.725  1.00  0.00    -0.507 OA
ATOM     25  H   UNL     1      -6.776  28.907  36.449  1.00  0.00     0.293 HD
ENDBRANCH   6  24
BRANCH   8  26
ATOM     26  O   UNL     1      -8.237  25.056  33.707  1.00  0.00    -0.508 OA
ATOM     27  H   UNL     1      -8.968  25.035  34.410  1.00  0.00     0.293 HD
ENDBRANCH   8  26
TORSDOF 6
ENDMDL
