MODEL 1
REMARK VINA RESULT:    -3.591      0.000      0.000
REMARK INTER + INTRA:          -8.687
REMARK INTER:                  -6.530
REMARK INTRA:                  -2.157
REMARK UNBOUND:                -2.157
REMARK SMILES CCCCCCCCCCCCCCCC(=O)[O-]
REMARK SMILES IDX 9 1 10 2 11 3 12 4 13 5 14 6 15 7 16 8 17 9 18 10 8 11 7 12
REMARK SMILES IDX 6 13 5 14 4 15 3 16 2 17 1 18
REMARK H PARENT
REMARK Flexibility Score: inf
ROOT
ATOM      1  C   UNL     1      -3.190  -8.154 -41.172  1.00  0.00     0.000 C 
ENDROOT
BRANCH   1   2
ATOM      2  C   UNL     1      -2.153  -8.292 -40.035  1.00  0.00     0.000 C 
BRANCH   2   3
ATOM      3  C   UNL     1      -1.791  -9.752 -39.705  1.00  0.00     0.000 C 
BRANCH   3   4
ATOM      4  C   UNL     1      -0.294 -10.091 -39.837  1.00  0.00     0.000 C 
BRANCH   4   5
ATOM      5  C   UNL     1       0.154 -10.536 -41.245  1.00  0.00     0.000 C 
BRANCH   5   6
ATOM      6  C   UNL     1       0.990  -9.502 -42.022  1.00  0.00     0.006 C 
BRANCH   6   7
ATOM      7  C   UNL     1       1.498 -10.034 -43.367  1.00  0.00     0.053 C 
BRANCH   7   8
ATOM      8  C   UNL     1       2.424 -11.190 -43.156  1.00  0.00     0.041 C 
ATOM      9  O   UNL     1       3.426 -11.068 -42.403  1.00  0.00    -0.550 OA
ATOM     10  O   UNL     1       2.154 -12.416 -43.750  1.00  0.00    -0.550 OA
ENDBRANCH   7   8
ENDBRANCH   6   7
ENDBRANCH   5   6
ENDBRANCH   4   5
ENDBRANCH   3   4
ENDBRANCH   2   3
ENDBRANCH   1   2
BRANCH   1  11
ATOM     11  C   UNL     1      -2.641  -8.631 -42.527  1.00  0.00     0.000 C 
BRANCH  11  12
ATOM     12  C   UNL     1      -3.623  -8.386 -43.683  1.00  0.00    -0.000 C 
BRANCH  12  13
ATOM     13  C   UNL     1      -5.057  -8.833 -43.353  1.00  0.00    -0.000 C 
BRANCH  13  14
ATOM     14  C   UNL     1      -5.520 -10.006 -44.244  1.00  0.00    -0.000 C 
BRANCH  14  15
ATOM     15  C   UNL     1      -5.282 -11.390 -43.615  1.00  0.00    -0.000 C 
BRANCH  15  16
ATOM     16  C   UNL     1      -5.381 -11.373 -42.081  1.00  0.00    -0.000 C 
BRANCH  16  17
ATOM     17  C   UNL     1      -4.133 -11.962 -41.405  1.00  0.00    -0.003 C 
ATOM     18  C   UNL     1      -3.003 -12.249 -42.394  1.00  0.00     0.004 C 
ENDBRANCH  16  17
ENDBRANCH  15  16
ENDBRANCH  14  15
ENDBRANCH  13  14
ENDBRANCH  12  13
ENDBRANCH  11  12
ENDBRANCH   1  11
TORSDOF 14
ENDMDL
MODEL 2
REMARK VINA RESULT:    -3.497      4.407      6.156
REMARK INTER + INTRA:          -8.516
REMARK INTER:                  -7.121
REMARK INTRA:                  -1.396
REMARK UNBOUND:                -2.157
REMARK SMILES CCCCCCCCCCCCCCCC(=O)[O-]
REMARK SMILES IDX 9 1 10 2 11 3 12 4 13 5 14 6 15 7 16 8 17 9 18 10 8 11 7 12
REMARK SMILES IDX 6 13 5 14 4 15 3 16 2 17 1 18
REMARK H PARENT
REMARK Flexibility Score: inf
ROOT
ATOM      1  C   UNL     1      -2.190  -7.668 -39.654  1.00  0.00     0.000 C 
ENDROOT
BRANCH   1   2
ATOM      2  C   UNL     1      -1.125  -8.418 -38.825  1.00  0.00     0.000 C 
BRANCH   2   3
ATOM      3  C   UNL     1      -0.319  -7.503 -37.884  1.00  0.00     0.000 C 
BRANCH   3   4
ATOM      4  C   UNL     1      -0.609  -7.701 -36.384  1.00  0.00     0.000 C 
BRANCH   4   5
ATOM      5  C   UNL     1      -0.339  -9.123 -35.848  1.00  0.00     0.000 C 
BRANCH   5   6
ATOM      6  C   UNL     1      -1.433  -9.692 -34.925  1.00  0.00     0.006 C 
BRANCH   6   7
ATOM      7  C   UNL     1      -1.375 -11.220 -34.803  1.00  0.00     0.053 C 
BRANCH   7   8
ATOM      8  C   UNL     1      -0.573 -11.618 -33.604  1.00  0.00     0.041 C 
ATOM      9  O   UNL     1       0.410 -12.394 -33.730  1.00  0.00    -0.550 OA
ATOM     10  O   UNL     1      -0.881 -11.093 -32.355  1.00  0.00    -0.550 OA
ENDBRANCH   7   8
ENDBRANCH   6   7
ENDBRANCH   5   6
ENDBRANCH   4   5
ENDBRANCH   3   4
ENDBRANCH   2   3
ENDBRANCH   1   2
BRANCH   1  11
ATOM     11  C   UNL     1      -2.986  -8.608 -40.574  1.00  0.00     0.000 C 
BRANCH  11  12
ATOM     12  C   UNL     1      -2.554  -8.503 -42.045  1.00  0.00    -0.000 C 
BRANCH  12  13
ATOM     13  C   UNL     1      -2.757  -9.815 -42.822  1.00  0.00    -0.000 C 
BRANCH  13  14
ATOM     14  C   UNL     1      -2.123 -11.023 -42.100  1.00  0.00    -0.000 C 
BRANCH  14  15
ATOM     15  C   UNL     1      -0.633 -11.225 -42.426  1.00  0.00    -0.000 C 
BRANCH  15  16
ATOM     16  C   UNL     1       0.287 -10.911 -41.235  1.00  0.00    -0.000 C 
BRANCH  16  17
ATOM     17  C   UNL     1       1.452  -9.986 -41.620  1.00  0.00    -0.003 C 
ATOM     18  C   UNL     1       1.235  -9.284 -42.961  1.00  0.00     0.004 C 
ENDBRANCH  16  17
ENDBRANCH  15  16
ENDBRANCH  14  15
ENDBRANCH  13  14
ENDBRANCH  12  13
ENDBRANCH  11  12
ENDBRANCH   1  11
TORSDOF 14
ENDMDL
MODEL 3
REMARK VINA RESULT:    -3.453      2.588      4.074
REMARK INTER + INTRA:          -8.435
REMARK INTER:                  -6.879
REMARK INTRA:                  -1.557
REMARK UNBOUND:                -2.157
REMARK SMILES CCCCCCCCCCCCCCCC(=O)[O-]
REMARK SMILES IDX 9 1 10 2 11 3 12 4 13 5 14 6 15 7 16 8 17 9 18 10 8 11 7 12
REMARK SMILES IDX 6 13 5 14 4 15 3 16 2 17 1 18
REMARK H PARENT
REMARK Flexibility Score: inf
ROOT
ATOM      1  C   UNL     1      -4.115  -7.079 -45.347  1.00  0.00     0.000 C 
ENDROOT
BRANCH   1   2
ATOM      2  C   UNL     1      -3.759  -8.318 -44.498  1.00  0.00     0.000 C 
BRANCH   2   3
ATOM      3  C   UNL     1      -4.106  -8.164 -43.005  1.00  0.00     0.000 C 
BRANCH   3   4
ATOM      4  C   UNL     1      -2.943  -8.453 -42.038  1.00  0.00     0.000 C 
BRANCH   4   5
ATOM      5  C   UNL     1      -1.589  -8.753 -42.715  1.00  0.00     0.000 C 
BRANCH   5   6
ATOM      6  C   UNL     1      -0.625  -9.627 -41.891  1.00  0.00     0.006 C 
BRANCH   6   7
ATOM      7  C   UNL     1       0.835  -9.494 -42.341  1.00  0.00     0.053 C 
BRANCH   7   8
ATOM      8  C   UNL     1       1.670 -10.577 -41.733  1.00  0.00     0.041 C 
ATOM      9  O   UNL     1       1.127 -11.485 -41.049  1.00  0.00    -0.550 OA
ATOM     10  O   UNL     1       3.039 -10.612 -41.961  1.00  0.00    -0.550 OA
ENDBRANCH   7   8
ENDBRANCH   6   7
ENDBRANCH   5   6
ENDBRANCH   4   5
ENDBRANCH   3   4
ENDBRANCH   2   3
ENDBRANCH   1   2
BRANCH   1  11
ATOM     11  C   UNL     1      -3.146  -6.875 -46.523  1.00  0.00     0.000 C 
BRANCH  11  12
ATOM     12  C   UNL     1      -3.770  -7.245 -47.877  1.00  0.00    -0.000 C 
BRANCH  12  13
ATOM     13  C   UNL     1      -3.630  -8.740 -48.210  1.00  0.00    -0.000 C 
BRANCH  13  14
ATOM     14  C   UNL     1      -5.000  -9.425 -48.404  1.00  0.00    -0.000 C 
BRANCH  14  15
ATOM     15  C   UNL     1      -6.194  -8.533 -48.024  1.00  0.00    -0.000 C 
BRANCH  15  16
ATOM     16  C   UNL     1      -6.949  -9.042 -46.785  1.00  0.00    -0.000 C 
BRANCH  16  17
ATOM     17  C   UNL     1      -6.441 -10.412 -46.309  1.00  0.00    -0.003 C 
ATOM     18  C   UNL     1      -6.566 -10.599 -44.798  1.00  0.00     0.004 C 
ENDBRANCH  16  17
ENDBRANCH  15  16
ENDBRANCH  14  15
ENDBRANCH  13  14
ENDBRANCH  12  13
ENDBRANCH  11  12
ENDBRANCH   1  11
TORSDOF 14
ENDMDL
MODEL 4
REMARK VINA RESULT:    -3.450      1.216      2.719
REMARK INTER + INTRA:          -8.430
REMARK INTER:                  -6.301
REMARK INTRA:                  -2.129
REMARK UNBOUND:                -2.157
REMARK SMILES CCCCCCCCCCCCCCCC(=O)[O-]
REMARK SMILES IDX 9 1 10 2 11 3 12 4 13 5 14 6 15 7 16 8 17 9 18 10 8 11 7 12
REMARK SMILES IDX 6 13 5 14 4 15 3 16 2 17 1 18
REMARK H PARENT
REMARK Flexibility Score: inf
ROOT
ATOM      1  C   UNL     1      -3.603 -10.552 -40.329  1.00  0.00     0.000 C 
ENDROOT
BRANCH   1   2
ATOM      2  C   UNL     1      -2.971 -11.924 -40.650  1.00  0.00     0.000 C 
BRANCH   2   3
ATOM      3  C   UNL     1      -2.465 -12.047 -42.099  1.00  0.00     0.000 C 
BRANCH   3   4
ATOM      4  C   UNL     1      -1.076 -11.431 -42.353  1.00  0.00     0.000 C 
BRANCH   4   5
ATOM      5  C   UNL     1      -0.056 -11.628 -41.212  1.00  0.00     0.000 C 
BRANCH   5   6
ATOM      6  C   UNL     1       1.414 -11.731 -41.661  1.00  0.00     0.006 C 
BRANCH   6   7
ATOM      7  C   UNL     1       1.846 -10.570 -42.565  1.00  0.00     0.053 C 
BRANCH   7   8
ATOM      8  C   UNL     1       2.165 -11.070 -43.939  1.00  0.00     0.041 C 
ATOM      9  O   UNL     1       2.264 -12.306 -44.155  1.00  0.00    -0.550 OA
ATOM     10  O   UNL     1       2.304 -10.173 -44.991  1.00  0.00    -0.550 OA
ENDBRANCH   7   8
ENDBRANCH   6   7
ENDBRANCH   5   6
ENDBRANCH   4   5
ENDBRANCH   3   4
ENDBRANCH   2   3
ENDBRANCH   1   2
BRANCH   1  11
ATOM     11  C   UNL     1      -2.596  -9.578 -39.695  1.00  0.00     0.000 C 
BRANCH  11  12
ATOM     12  C   UNL     1      -2.295  -8.368 -40.593  1.00  0.00    -0.000 C 
BRANCH  12  13
ATOM     13  C   UNL     1      -3.383  -8.126 -41.653  1.00  0.00    -0.000 C 
BRANCH  13  14
ATOM     14  C   UNL     1      -2.868  -8.383 -43.086  1.00  0.00    -0.000 C 
BRANCH  14  15
ATOM     15  C   UNL     1      -3.967  -8.823 -44.068  1.00  0.00    -0.000 C 
BRANCH  15  16
ATOM     16  C   UNL     1      -5.145  -9.523 -43.370  1.00  0.00    -0.000 C 
BRANCH  16  17
ATOM     17  C   UNL     1      -5.505 -10.864 -44.029  1.00  0.00    -0.003 C 
ATOM     18  C   UNL     1      -6.091 -11.872 -43.040  1.00  0.00     0.004 C 
ENDBRANCH  16  17
ENDBRANCH  15  16
ENDBRANCH  14  15
ENDBRANCH  13  14
ENDBRANCH  12  13
ENDBRANCH  11  12
ENDBRANCH   1  11
TORSDOF 14
ENDMDL
MODEL 5
REMARK VINA RESULT:    -3.449      1.576      2.481
REMARK INTER + INTRA:          -8.429
REMARK INTER:                  -6.271
REMARK INTRA:                  -2.158
REMARK UNBOUND:                -2.157
REMARK SMILES CCCCCCCCCCCCCCCC(=O)[O-]
REMARK SMILES IDX 9 1 10 2 11 3 12 4 13 5 14 6 15 7 16 8 17 9 18 10 8 11 7 12
REMARK SMILES IDX 6 13 5 14 4 15 3 16 2 17 1 18
REMARK H PARENT
REMARK Flexibility Score: inf
ROOT
ATOM      1  C   UNL     1      -4.135  -8.113 -41.523  1.00  0.00     0.000 C 
ENDROOT
BRANCH   1   2
ATOM      2  C   UNL     1      -2.622  -8.317 -41.761  1.00  0.00     0.000 C 
BRANCH   2   3
ATOM      3  C   UNL     1      -1.846  -8.712 -40.491  1.00  0.00     0.000 C 
BRANCH   3   4
ATOM      4  C   UNL     1      -0.458  -9.328 -40.749  1.00  0.00     0.000 C 
BRANCH   4   5
ATOM      5  C   UNL     1      -0.142  -9.636 -42.228  1.00  0.00     0.000 C 
BRANCH   5   6
ATOM      6  C   UNL     1       1.329  -9.440 -42.637  1.00  0.00     0.006 C 
BRANCH   6   7
ATOM      7  C   UNL     1       2.297 -10.304 -41.819  1.00  0.00     0.053 C 
BRANCH   7   8
ATOM      8  C   UNL     1       2.187 -11.739 -42.228  1.00  0.00     0.041 C 
ATOM      9  O   UNL     1       2.138 -12.644 -41.353  1.00  0.00    -0.550 OA
ATOM     10  O   UNL     1       2.089 -12.075 -43.572  1.00  0.00    -0.550 OA
ENDBRANCH   7   8
ENDBRANCH   6   7
ENDBRANCH   5   6
ENDBRANCH   4   5
ENDBRANCH   3   4
ENDBRANCH   2   3
ENDBRANCH   1   2
BRANCH   1  11
ATOM     11  C   UNL     1      -4.948  -9.389 -41.796  1.00  0.00     0.000 C 
BRANCH  11  12
ATOM     12  C   UNL     1      -4.380 -10.216 -42.960  1.00  0.00    -0.000 C 
BRANCH  12  13
ATOM     13  C   UNL     1      -4.246 -11.711 -42.619  1.00  0.00    -0.000 C 
BRANCH  13  14
ATOM     14  C   UNL     1      -2.776 -12.126 -42.392  1.00  0.00    -0.000 C 
BRANCH  14  15
ATOM     15  C   UNL     1      -2.523 -12.779 -41.023  1.00  0.00    -0.000 C 
BRANCH  15  16
ATOM     16  C   UNL     1      -3.353 -12.142 -39.896  1.00  0.00    -0.000 C 
BRANCH  16  17
ATOM     17  C   UNL     1      -2.506 -11.811 -38.657  1.00  0.00    -0.003 C 
ATOM     18  C   UNL     1      -1.556 -12.943 -38.269  1.00  0.00     0.004 C 
ENDBRANCH  16  17
ENDBRANCH  15  16
ENDBRANCH  14  15
ENDBRANCH  13  14
ENDBRANCH  12  13
ENDBRANCH  11  12
ENDBRANCH   1  11
TORSDOF 14
ENDMDL
MODEL 6
REMARK VINA RESULT:    -3.445      3.382      5.714
REMARK INTER + INTRA:          -8.422
REMARK INTER:                  -6.568
REMARK INTRA:                  -1.854
REMARK UNBOUND:                -2.157
REMARK SMILES CCCCCCCCCCCCCCCC(=O)[O-]
REMARK SMILES IDX 9 1 10 2 11 3 12 4 13 5 14 6 15 7 16 8 17 9 18 10 8 11 7 12
REMARK SMILES IDX 6 13 5 14 4 15 3 16 2 17 1 18
REMARK H PARENT
REMARK Flexibility Score: inf
ROOT
ATOM      1  C   UNL     1      -2.575 -12.046 -42.396  1.00  0.00     0.000 C 
ENDROOT
BRANCH   1   2
ATOM      2  C   UNL     1      -2.505 -12.983 -41.170  1.00  0.00     0.000 C 
BRANCH   2   3
ATOM      3  C   UNL     1      -1.385 -12.618 -40.178  1.00  0.00     0.000 C 
BRANCH   3   4
ATOM      4  C   UNL     1      -1.871 -12.231 -38.769  1.00  0.00     0.000 C 
BRANCH   4   5
ATOM      5  C   UNL     1      -2.137 -10.726 -38.559  1.00  0.00     0.000 C 
BRANCH   5   6
ATOM      6  C   UNL     1      -0.910  -9.897 -38.139  1.00  0.00     0.006 C 
BRANCH   6   7
ATOM      7  C   UNL     1      -0.825  -9.680 -36.623  1.00  0.00     0.053 C 
BRANCH   7   8
ATOM      8  C   UNL     1      -0.979  -8.228 -36.294  1.00  0.00     0.041 C 
ATOM      9  O   UNL     1      -0.480  -7.352 -37.048  1.00  0.00    -0.550 OA
ATOM     10  O   UNL     1      -1.716  -7.841 -35.181  1.00  0.00    -0.550 OA
ENDBRANCH   7   8
ENDBRANCH   6   7
ENDBRANCH   5   6
ENDBRANCH   4   5
ENDBRANCH   3   4
ENDBRANCH   2   3
ENDBRANCH   1   2
BRANCH   1  11
ATOM     11  C   UNL     1      -3.491 -10.834 -42.157  1.00  0.00     0.000 C 
BRANCH  11  12
ATOM     12  C   UNL     1      -2.907  -9.529 -42.719  1.00  0.00    -0.000 C 
BRANCH  12  13
ATOM     13  C   UNL     1      -1.781  -8.954 -41.843  1.00  0.00    -0.000 C 
BRANCH  13  14
ATOM     14  C   UNL     1      -0.381  -9.275 -42.410  1.00  0.00    -0.000 C 
BRANCH  14  15
ATOM     15  C   UNL     1       0.620  -9.755 -41.346  1.00  0.00    -0.000 C 
BRANCH  15  16
ATOM     16  C   UNL     1       1.744 -10.625 -41.933  1.00  0.00    -0.000 C 
BRANCH  16  17
ATOM     17  C   UNL     1       1.588 -10.845 -43.446  1.00  0.00    -0.003 C 
ATOM     18  C   UNL     1       2.228 -12.147 -43.925  1.00  0.00     0.004 C 
ENDBRANCH  16  17
ENDBRANCH  15  16
ENDBRANCH  14  15
ENDBRANCH  13  14
ENDBRANCH  12  13
ENDBRANCH  11  12
ENDBRANCH   1  11
TORSDOF 14
ENDMDL
MODEL 7
REMARK VINA RESULT:    -3.414      3.942      6.330
REMARK INTER + INTRA:          -8.364
REMARK INTER:                  -7.297
REMARK INTRA:                  -1.067
REMARK UNBOUND:                -2.157
REMARK SMILES CCCCCCCCCCCCCCCC(=O)[O-]
REMARK SMILES IDX 9 1 10 2 11 3 12 4 13 5 14 6 15 7 16 8 17 9 18 10 8 11 7 12
REMARK SMILES IDX 6 13 5 14 4 15 3 16 2 17 1 18
REMARK H PARENT
REMARK Flexibility Score: inf
ROOT
ATOM      1  C   UNL     1      -0.871  -7.135 -38.393  1.00  0.00     0.000 C 
ENDROOT
BRANCH   1   2
ATOM      2  C   UNL     1      -1.801  -8.091 -39.173  1.00  0.00     0.000 C 
BRANCH   2   3
ATOM      3  C   UNL     1      -1.249  -9.523 -39.297  1.00  0.00     0.000 C 
BRANCH   3   4
ATOM      4  C   UNL     1      -0.081  -9.682 -40.288  1.00  0.00     0.000 C 
BRANCH   4   5
ATOM      5  C   UNL     1      -0.359  -9.164 -41.715  1.00  0.00     0.000 C 
BRANCH   5   6
ATOM      6  C   UNL     1       0.567  -9.730 -42.808  1.00  0.00     0.006 C 
BRANCH   6   7
ATOM      7  C   UNL     1       0.753 -11.249 -42.706  1.00  0.00     0.053 C 
BRANCH   7   8
ATOM      8  C   UNL     1       2.075 -11.653 -43.278  1.00  0.00     0.041 C 
ATOM      9  O   UNL     1       2.129 -12.489 -44.219  1.00  0.00    -0.550 OA
ATOM     10  O   UNL     1       3.244 -11.070 -42.807  1.00  0.00    -0.550 OA
ENDBRANCH   7   8
ENDBRANCH   6   7
ENDBRANCH   5   6
ENDBRANCH   4   5
ENDBRANCH   3   4
ENDBRANCH   2   3
ENDBRANCH   1   2
BRANCH   1  11
ATOM     11  C   UNL     1      -0.344  -7.762 -37.092  1.00  0.00     0.000 C 
BRANCH  11  12
ATOM     12  C   UNL     1      -1.331  -7.618 -35.923  1.00  0.00    -0.000 C 
BRANCH  12  13
ATOM     13  C   UNL     1      -1.452  -8.901 -35.083  1.00  0.00    -0.000 C 
BRANCH  13  14
ATOM     14  C   UNL     1      -0.526 -10.023 -35.599  1.00  0.00    -0.000 C 
BRANCH  14  15
ATOM     15  C   UNL     1      -0.211 -11.097 -34.543  1.00  0.00    -0.000 C 
BRANCH  15  16
ATOM     16  C   UNL     1      -1.172 -11.056 -33.344  1.00  0.00    -0.000 C 
BRANCH  16  17
ATOM     17  C   UNL     1      -0.677 -11.906 -32.164  1.00  0.00    -0.003 C 
ATOM     18  C   UNL     1       0.086 -13.153 -32.611  1.00  0.00     0.004 C 
ENDBRANCH  16  17
ENDBRANCH  15  16
ENDBRANCH  14  15
ENDBRANCH  13  14
ENDBRANCH  12  13
ENDBRANCH  11  12
ENDBRANCH   1  11
TORSDOF 14
ENDMDL
MODEL 8
REMARK VINA RESULT:    -3.382      3.374      5.664
REMARK INTER + INTRA:          -8.307
REMARK INTER:                  -5.768
REMARK INTRA:                  -2.539
REMARK UNBOUND:                -2.157
REMARK SMILES CCCCCCCCCCCCCCCC(=O)[O-]
REMARK SMILES IDX 9 1 10 2 11 3 12 4 13 5 14 6 15 7 16 8 17 9 18 10 8 11 7 12
REMARK SMILES IDX 6 13 5 14 4 15 3 16 2 17 1 18
REMARK H PARENT
REMARK Flexibility Score: inf
ROOT
ATOM      1  C   UNL     1      -3.630  -9.917 -42.853  1.00  0.00     0.000 C 
ENDROOT
BRANCH   1   2
ATOM      2  C   UNL     1      -3.206 -11.325 -42.380  1.00  0.00     0.000 C 
BRANCH   2   3
ATOM      3  C   UNL     1      -3.929 -11.790 -41.102  1.00  0.00     0.000 C 
BRANCH   3   4
ATOM      4  C   UNL     1      -2.999 -12.266 -39.971  1.00  0.00     0.000 C 
BRANCH   4   5
ATOM      5  C   UNL     1      -3.089 -11.452 -38.663  1.00  0.00     0.000 C 
BRANCH   5   6
ATOM      6  C   UNL     1      -1.978 -11.738 -37.637  1.00  0.00     0.006 C 
BRANCH   6   7
ATOM      7  C   UNL     1      -1.420 -10.464 -36.989  1.00  0.00     0.053 C 
BRANCH   7   8
ATOM      8  C   UNL     1      -1.044 -10.725 -35.564  1.00  0.00     0.041 C 
ATOM      9  O   UNL     1      -1.842 -11.329 -34.800  1.00  0.00    -0.550 OA
ATOM     10  O   UNL     1       0.207 -10.346 -35.094  1.00  0.00    -0.550 OA
ENDBRANCH   7   8
ENDBRANCH   6   7
ENDBRANCH   5   6
ENDBRANCH   4   5
ENDBRANCH   3   4
ENDBRANCH   2   3
ENDBRANCH   1   2
BRANCH   1  11
ATOM     11  C   UNL     1      -2.592  -8.841 -42.494  1.00  0.00     0.000 C 
BRANCH  11  12
ATOM     12  C   UNL     1      -2.780  -8.288 -41.072  1.00  0.00    -0.000 C 
BRANCH  12  13
ATOM     13  C   UNL     1      -1.557  -8.532 -40.171  1.00  0.00    -0.000 C 
BRANCH  13  14
ATOM     14  C   UNL     1      -0.373  -9.144 -40.950  1.00  0.00    -0.000 C 
BRANCH  14  15
ATOM     15  C   UNL     1       0.156 -10.454 -40.341  1.00  0.00    -0.000 C 
BRANCH  15  16
ATOM     16  C   UNL     1       0.341 -11.566 -41.386  1.00  0.00    -0.000 C 
BRANCH  16  17
ATOM     17  C   UNL     1       0.487 -11.014 -42.813  1.00  0.00    -0.003 C 
ATOM     18  C   UNL     1       1.944 -10.923 -43.267  1.00  0.00     0.004 C 
ENDBRANCH  16  17
ENDBRANCH  15  16
ENDBRANCH  14  15
ENDBRANCH  13  14
ENDBRANCH  12  13
ENDBRANCH  11  12
ENDBRANCH   1  11
TORSDOF 14
ENDMDL
MODEL 9
REMARK VINA RESULT:    -3.359      3.301      5.496
REMARK INTER + INTRA:          -8.265
REMARK INTER:                  -6.470
REMARK INTRA:                  -1.794
REMARK UNBOUND:                -2.157
REMARK SMILES CCCCCCCCCCCCCCCC(=O)[O-]
REMARK SMILES IDX 9 1 10 2 11 3 12 4 13 5 14 6 15 7 16 8 17 9 18 10 8 11 7 12
REMARK SMILES IDX 6 13 5 14 4 15 3 16 2 17 1 18
REMARK H PARENT
REMARK Flexibility Score: inf
ROOT
ATOM      1  C   UNL     1      -2.184  -8.370 -40.189  1.00  0.00     0.000 C 
ENDROOT
BRANCH   1   2
ATOM      2  C   UNL     1      -3.396  -8.187 -41.129  1.00  0.00     0.000 C 
BRANCH   2   3
ATOM      3  C   UNL     1      -3.047  -8.334 -42.622  1.00  0.00     0.000 C 
BRANCH   3   4
ATOM      4  C   UNL     1      -4.117  -7.798 -43.591  1.00  0.00     0.000 C 
BRANCH   4   5
ATOM      5  C   UNL     1      -4.003  -8.313 -45.041  1.00  0.00     0.000 C 
BRANCH   5   6
ATOM      6  C   UNL     1      -3.451  -7.295 -46.055  1.00  0.00     0.006 C 
BRANCH   6   7
ATOM      7  C   UNL     1      -4.182  -7.337 -47.403  1.00  0.00     0.053 C 
BRANCH   7   8
ATOM      8  C   UNL     1      -3.826  -8.582 -48.152  1.00  0.00     0.041 C 
ATOM      9  O   UNL     1      -4.715  -9.430 -48.429  1.00  0.00    -0.550 OA
ATOM     10  O   UNL     1      -2.522  -8.784 -48.587  1.00  0.00    -0.550 OA
ENDBRANCH   7   8
ENDBRANCH   6   7
ENDBRANCH   5   6
ENDBRANCH   4   5
ENDBRANCH   3   4
ENDBRANCH   2   3
ENDBRANCH   1   2
BRANCH   1  11
ATOM     11  C   UNL     1      -0.997  -9.054 -40.889  1.00  0.00     0.000 C 
BRANCH  11  12
ATOM     12  C   UNL     1      -0.428 -10.228 -40.078  1.00  0.00    -0.000 C 
BRANCH  12  13
ATOM     13  C   UNL     1      -0.364 -11.535 -40.886  1.00  0.00    -0.000 C 
BRANCH  13  14
ATOM     14  C   UNL     1      -0.943 -11.370 -42.308  1.00  0.00    -0.000 C 
BRANCH  14  15
ATOM     15  C   UNL     1      -2.380 -11.897 -42.454  1.00  0.00    -0.000 C 
BRANCH  15  16
ATOM     16  C   UNL     1      -2.835 -12.732 -41.246  1.00  0.00    -0.000 C 
BRANCH  16  17
ATOM     17  C   UNL     1      -4.133 -12.199 -40.618  1.00  0.00    -0.003 C 
ATOM     18  C   UNL     1      -3.903 -11.526 -39.265  1.00  0.00     0.004 C 
ENDBRANCH  16  17
ENDBRANCH  15  16
ENDBRANCH  14  15
ENDBRANCH  13  14
ENDBRANCH  12  13
ENDBRANCH  11  12
ENDBRANCH   1  11
TORSDOF 14
ENDMDL
