MODEL 1
REMARK VINA RESULT:    -1.646      0.000      0.000
REMARK INTER + INTRA:          -3.675
REMARK INTER:                  -3.186
REMARK INTRA:                  -0.489
REMARK UNBOUND:                -0.489
REMARK SMILES CCCCCCCCCCCCCCCCCC(=O)[O-]
REMARK SMILES IDX 10 1 11 2 12 3 13 4 14 5 15 6 16 7 17 8 18 9 19 10 20 11
REMARK SMILES IDX 9 12 8 13 7 14 6 15 5 16 4 17 3 18 2 19 1 20
REMARK H PARENT
REMARK Flexibility Score: inf
ROOT
ATOM      1  C   UNL     1     -29.908 -21.175 -21.161  1.00  0.00     0.000 C 
ENDROOT
BRANCH   1   2
ATOM      2  C   UNL     1     -31.279 -20.535 -20.861  1.00  0.00     0.000 C 
BRANCH   2   3
ATOM      3  C   UNL     1     -32.379 -20.830 -21.897  1.00  0.00     0.000 C 
BRANCH   3   4
ATOM      4  C   UNL     1     -33.183 -19.599 -22.358  1.00  0.00     0.000 C 
BRANCH   4   5
ATOM      5  C   UNL     1     -32.750 -19.057 -23.738  1.00  0.00     0.000 C 
BRANCH   5   6
ATOM      6  C   UNL     1     -32.143 -20.150 -24.636  1.00  0.00     0.000 C 
BRANCH   6   7
ATOM      7  C   UNL     1     -31.023 -19.615 -25.543  1.00  0.00     0.006 C 
BRANCH   7   8
ATOM      8  C   UNL     1     -31.027 -20.270 -26.931  1.00  0.00     0.053 C 
BRANCH   8   9
ATOM      9  C   UNL     1     -30.987 -21.760 -26.803  1.00  0.00     0.041 C 
ATOM     10  O   UNL     1     -29.940 -22.394 -27.101  1.00  0.00    -0.550 OA
ATOM     11  O   UNL     1     -32.120 -22.455 -26.400  1.00  0.00    -0.550 OA
ENDBRANCH   8   9
ENDBRANCH   7   8
ENDBRANCH   6   7
ENDBRANCH   5   6
ENDBRANCH   4   5
ENDBRANCH   3   4
ENDBRANCH   2   3
ENDBRANCH   1   2
BRANCH   1  12
ATOM     12  C   UNL     1     -29.894 -22.156 -22.348  1.00  0.00     0.000 C 
BRANCH  12  13
ATOM     13  C   UNL     1     -28.875 -21.765 -23.432  1.00  0.00    -0.000 C 
BRANCH  13  14
ATOM     14  C   UNL     1     -27.424 -21.882 -22.942  1.00  0.00    -0.000 C 
BRANCH  14  15
ATOM     15  C   UNL     1     -27.198 -23.125 -22.062  1.00  0.00    -0.000 C 
BRANCH  15  16
ATOM     16  C   UNL     1     -26.935 -22.773 -20.587  1.00  0.00    -0.000 C 
BRANCH  16  17
ATOM     17  C   UNL     1     -28.092 -23.112 -19.628  1.00  0.00    -0.000 C 
BRANCH  17  18
ATOM     18  C   UNL     1     -28.106 -22.224 -18.372  1.00  0.00    -0.000 C 
BRANCH  18  19
ATOM     19  C   UNL     1     -28.014 -23.040 -17.074  1.00  0.00    -0.003 C 
ATOM     20  C   UNL     1     -29.298 -22.975 -16.245  1.00  0.00     0.004 C 
ENDBRANCH  18  19
ENDBRANCH  17  18
ENDBRANCH  16  17
ENDBRANCH  15  16
ENDBRANCH  14  15
ENDBRANCH  13  14
ENDBRANCH  12  13
ENDBRANCH   1  12
TORSDOF 16
ENDMDL
MODEL 2
REMARK VINA RESULT:    -0.772      3.576      6.384
REMARK INTER + INTRA:          -1.983
REMARK INTER:                  -2.324
REMARK INTRA:                   0.341
REMARK UNBOUND:                -0.489
REMARK SMILES CCCCCCCCCCCCCCCCCC(=O)[O-]
REMARK SMILES IDX 10 1 11 2 12 3 13 4 14 5 15 6 16 7 17 8 18 9 19 10 20 11
REMARK SMILES IDX 9 12 8 13 7 14 6 15 5 16 4 17 3 18 2 19 1 20
REMARK H PARENT
REMARK Flexibility Score: inf
ROOT
ATOM      1  C   UNL     1     -32.742 -19.533 -22.271  1.00  0.00     0.000 C 
ENDROOT
BRANCH   1   2
ATOM      2  C   UNL     1     -32.151 -20.717 -21.479  1.00  0.00     0.000 C 
BRANCH   2   3
ATOM      3  C   UNL     1     -31.441 -21.785 -22.331  1.00  0.00     0.000 C 
BRANCH   3   4
ATOM      4  C   UNL     1     -31.059 -23.072 -21.574  1.00  0.00     0.000 C 
BRANCH   4   5
ATOM      5  C   UNL     1     -30.561 -22.819 -20.134  1.00  0.00     0.000 C 
BRANCH   5   6
ATOM      6  C   UNL     1     -29.706 -21.545 -20.022  1.00  0.00     0.000 C 
BRANCH   6   7
ATOM      7  C   UNL     1     -28.417 -21.767 -19.213  1.00  0.00     0.006 C 
BRANCH   7   8
ATOM      8  C   UNL     1     -28.397 -23.125 -18.499  1.00  0.00     0.053 C 
BRANCH   8   9
ATOM      9  C   UNL     1     -28.143 -22.940 -17.036  1.00  0.00     0.041 C 
ATOM     10  O   UNL     1     -29.095 -23.007 -16.214  1.00  0.00    -0.550 OA
ATOM     11  O   UNL     1     -26.863 -22.645 -16.584  1.00  0.00    -0.550 OA
ENDBRANCH   8   9
ENDBRANCH   7   8
ENDBRANCH   6   7
ENDBRANCH   5   6
ENDBRANCH   4   5
ENDBRANCH   3   4
ENDBRANCH   2   3
ENDBRANCH   1   2
BRANCH   1  12
ATOM     12  C   UNL     1     -32.627 -19.653 -23.801  1.00  0.00     0.000 C 
BRANCH  12  13
ATOM     13  C   UNL     1     -31.227 -19.289 -24.324  1.00  0.00    -0.000 C 
BRANCH  13  14
ATOM     14  C   UNL     1     -31.060 -19.600 -25.819  1.00  0.00    -0.000 C 
BRANCH  14  15
ATOM     15  C   UNL     1     -30.344 -20.940 -26.065  1.00  0.00    -0.000 C 
BRANCH  15  16
ATOM     16  C   UNL     1     -29.909 -21.634 -24.762  1.00  0.00    -0.000 C 
BRANCH  16  17
ATOM     17  C   UNL     1     -28.810 -20.895 -23.975  1.00  0.00    -0.000 C 
BRANCH  17  18
ATOM     18  C   UNL     1     -27.568 -21.767 -23.722  1.00  0.00    -0.000 C 
BRANCH  18  19
ATOM     19  C   UNL     1     -27.858 -22.944 -22.778  1.00  0.00    -0.003 C 
ATOM     20  C   UNL     1     -26.777 -23.125 -21.712  1.00  0.00     0.004 C 
ENDBRANCH  18  19
ENDBRANCH  17  18
ENDBRANCH  16  17
ENDBRANCH  15  16
ENDBRANCH  14  15
ENDBRANCH  13  14
ENDBRANCH  12  13
ENDBRANCH   1  12
TORSDOF 16
ENDMDL
MODEL 3
REMARK VINA RESULT:    -0.198      1.931      3.360
REMARK INTER + INTRA:          -0.873
REMARK INTER:                  -0.413
REMARK INTRA:                  -0.460
REMARK UNBOUND:                -0.489
REMARK SMILES CCCCCCCCCCCCCCCCCC(=O)[O-]
REMARK SMILES IDX 10 1 11 2 12 3 13 4 14 5 15 6 16 7 17 8 18 9 19 10 20 11
REMARK SMILES IDX 9 12 8 13 7 14 6 15 5 16 4 17 3 18 2 19 1 20
REMARK H PARENT
REMARK Flexibility Score: inf
ROOT
ATOM      1  C   UNL     1     -32.515 -19.714 -21.753  1.00  0.00     0.000 C 
ENDROOT
BRANCH   1   2
ATOM      2  C   UNL     1     -33.121 -18.870 -22.893  1.00  0.00     0.000 C 
BRANCH   2   3
ATOM      3  C   UNL     1     -32.844 -19.395 -24.314  1.00  0.00     0.000 C 
BRANCH   3   4
ATOM      4  C   UNL     1     -31.366 -19.348 -24.747  1.00  0.00     0.000 C 
BRANCH   4   5
ATOM      5  C   UNL     1     -31.092 -20.052 -26.094  1.00  0.00     0.000 C 
BRANCH   5   6
ATOM      6  C   UNL     1     -30.444 -21.436 -25.915  1.00  0.00     0.000 C 
BRANCH   6   7
ATOM      7  C   UNL     1     -30.104 -21.745 -24.448  1.00  0.00     0.006 C 
BRANCH   7   8
ATOM      8  C   UNL     1     -28.743 -21.176 -24.026  1.00  0.00     0.053 C 
BRANCH   8   9
ATOM      9  C   UNL     1     -27.960 -22.205 -23.272  1.00  0.00     0.041 C 
ATOM     10  O   UNL     1     -28.556 -23.125 -22.651  1.00  0.00    -0.550 OA
ATOM     11  O   UNL     1     -26.575 -22.120 -23.215  1.00  0.00    -0.550 OA
ENDBRANCH   8   9
ENDBRANCH   7   8
ENDBRANCH   6   7
ENDBRANCH   5   6
ENDBRANCH   4   5
ENDBRANCH   3   4
ENDBRANCH   2   3
ENDBRANCH   1   2
BRANCH   1  12
ATOM     12  C   UNL     1     -32.189 -21.172 -22.126  1.00  0.00     0.000 C 
BRANCH  12  13
ATOM     13  C   UNL     1     -31.303 -21.870 -21.081  1.00  0.00    -0.000 C 
BRANCH  13  14
ATOM     14  C   UNL     1     -30.231 -20.935 -20.502  1.00  0.00    -0.000 C 
BRANCH  14  15
ATOM     15  C   UNL     1     -28.930 -21.678 -20.147  1.00  0.00    -0.000 C 
BRANCH  15  16
ATOM     16  C   UNL     1     -29.179 -22.973 -19.352  1.00  0.00    -0.000 C 
BRANCH  16  17
ATOM     17  C   UNL     1     -29.656 -22.758 -17.904  1.00  0.00    -0.000 C 
BRANCH  17  18
ATOM     18  C   UNL     1     -28.586 -23.125 -16.862  1.00  0.00    -0.000 C 
BRANCH  18  19
ATOM     19  C   UNL     1     -27.253 -22.403 -17.110  1.00  0.00    -0.003 C 
ATOM     20  C   UNL     1     -26.193 -22.748 -16.063  1.00  0.00     0.004 C 
ENDBRANCH  18  19
ENDBRANCH  17  18
ENDBRANCH  16  17
ENDBRANCH  15  16
ENDBRANCH  14  15
ENDBRANCH  13  14
ENDBRANCH  12  13
ENDBRANCH   1  12
TORSDOF 16
ENDMDL
MODEL 4
REMARK VINA RESULT:     0.159      1.884      3.547
REMARK INTER + INTRA:          -0.181
REMARK INTER:                   0.120
REMARK INTRA:                  -0.301
REMARK UNBOUND:                -0.489
REMARK SMILES CCCCCCCCCCCCCCCCCC(=O)[O-]
REMARK SMILES IDX 10 1 11 2 12 3 13 4 14 5 15 6 16 7 17 8 18 9 19 10 20 11
REMARK SMILES IDX 9 12 8 13 7 14 6 15 5 16 4 17 3 18 2 19 1 20
REMARK H PARENT
REMARK Flexibility Score: inf
ROOT
ATOM      1  C   UNL     1     -29.612 -21.943 -25.619  1.00  0.00     0.000 C 
ENDROOT
BRANCH   1   2
ATOM      2  C   UNL     1     -30.389 -21.068 -26.624  1.00  0.00     0.000 C 
BRANCH   2   3
ATOM      3  C   UNL     1     -31.174 -19.898 -26.002  1.00  0.00     0.000 C 
BRANCH   3   4
ATOM      4  C   UNL     1     -32.130 -20.292 -24.860  1.00  0.00     0.000 C 
BRANCH   4   5
ATOM      5  C   UNL     1     -32.012 -19.389 -23.613  1.00  0.00     0.000 C 
BRANCH   5   6
ATOM      6  C   UNL     1     -33.176 -19.591 -22.627  1.00  0.00     0.000 C 
BRANCH   6   7
ATOM      7  C   UNL     1     -32.701 -20.028 -21.232  1.00  0.00     0.006 C 
BRANCH   7   8
ATOM      8  C   UNL     1     -31.360 -20.772 -21.273  1.00  0.00     0.053 C 
BRANCH   8   9
ATOM      9  C   UNL     1     -31.585 -22.243 -21.425  1.00  0.00     0.041 C 
ATOM     10  O   UNL     1     -31.590 -22.768 -22.570  1.00  0.00    -0.550 OA
ATOM     11  O   UNL     1     -31.838 -23.028 -20.307  1.00  0.00    -0.550 OA
ENDBRANCH   8   9
ENDBRANCH   7   8
ENDBRANCH   6   7
ENDBRANCH   5   6
ENDBRANCH   4   5
ENDBRANCH   3   4
ENDBRANCH   2   3
ENDBRANCH   1   2
BRANCH   1  12
ATOM     12  C   UNL     1     -28.990 -21.178 -24.437  1.00  0.00     0.000 C 
BRANCH  12  13
ATOM     13  C   UNL     1     -28.873 -22.038 -23.166  1.00  0.00    -0.000 C 
BRANCH  13  14
ATOM     14  C   UNL     1     -27.428 -22.142 -22.658  1.00  0.00    -0.000 C 
BRANCH  14  15
ATOM     15  C   UNL     1     -27.288 -23.116 -21.474  1.00  0.00    -0.000 C 
BRANCH  15  16
ATOM     16  C   UNL     1     -28.525 -23.124 -20.558  1.00  0.00    -0.000 C 
BRANCH  16  17
ATOM     17  C   UNL     1     -28.596 -21.952 -19.560  1.00  0.00    -0.000 C 
BRANCH  17  18
ATOM     18  C   UNL     1     -28.441 -22.403 -18.098  1.00  0.00    -0.000 C 
BRANCH  18  19
ATOM     19  C   UNL     1     -26.981 -22.703 -17.726  1.00  0.00    -0.003 C 
ATOM     20  C   UNL     1     -26.767 -22.805 -16.216  1.00  0.00     0.004 C 
ENDBRANCH  18  19
ENDBRANCH  17  18
ENDBRANCH  16  17
ENDBRANCH  15  16
ENDBRANCH  14  15
ENDBRANCH  13  14
ENDBRANCH  12  13
ENDBRANCH   1  12
TORSDOF 16
ENDMDL
MODEL 5
REMARK VINA RESULT:     0.201      2.458      4.506
REMARK INTER + INTRA:          -0.101
REMARK INTER:                   0.754
REMARK INTRA:                  -0.855
REMARK UNBOUND:                -0.489
REMARK SMILES CCCCCCCCCCCCCCCCCC(=O)[O-]
REMARK SMILES IDX 10 1 11 2 12 3 13 4 14 5 15 6 16 7 17 8 18 9 19 10 20 11
REMARK SMILES IDX 9 12 8 13 7 14 6 15 5 16 4 17 3 18 2 19 1 20
REMARK H PARENT
REMARK Flexibility Score: inf
ROOT
ATOM      1  C   UNL     1     -28.331 -23.081 -20.605  1.00  0.00     0.000 C 
ENDROOT
BRANCH   1   2
ATOM      2  C   UNL     1     -28.791 -22.773 -22.044  1.00  0.00     0.000 C 
BRANCH   2   3
ATOM      3  C   UNL     1     -28.402 -21.379 -22.571  1.00  0.00     0.000 C 
BRANCH   3   4
ATOM      4  C   UNL     1     -28.498 -21.213 -24.100  1.00  0.00     0.000 C 
BRANCH   4   5
ATOM      5  C   UNL     1     -29.878 -21.592 -24.680  1.00  0.00     0.000 C 
BRANCH   5   6
ATOM      6  C   UNL     1     -30.590 -20.396 -25.336  1.00  0.00     0.000 C 
BRANCH   6   7
ATOM      7  C   UNL     1     -31.785 -19.892 -24.510  1.00  0.00     0.006 C 
BRANCH   7   8
ATOM      8  C   UNL     1     -32.221 -20.894 -23.434  1.00  0.00     0.053 C 
BRANCH   8   9
ATOM      9  C   UNL     1     -32.212 -20.247 -22.085  1.00  0.00     0.041 C 
ATOM     10  O   UNL     1     -31.481 -20.704 -21.168  1.00  0.00    -0.550 OA
ATOM     11  O   UNL     1     -33.046 -19.167 -21.827  1.00  0.00    -0.550 OA
ENDBRANCH   8   9
ENDBRANCH   7   8
ENDBRANCH   6   7
ENDBRANCH   5   6
ENDBRANCH   4   5
ENDBRANCH   3   4
ENDBRANCH   2   3
ENDBRANCH   1   2
BRANCH   1  12
ATOM     12  C   UNL     1     -29.120 -22.353 -19.501  1.00  0.00     0.000 C 
BRANCH  12  13
ATOM     13  C   UNL     1     -28.216 -21.527 -18.569  1.00  0.00    -0.000 C 
BRANCH  13  14
ATOM     14  C   UNL     1     -27.252 -22.405 -17.756  1.00  0.00    -0.000 C 
BRANCH  14  15
ATOM     15  C   UNL     1     -27.912 -22.992 -16.496  1.00  0.00    -0.000 C 
BRANCH  15  16
ATOM     16  C   UNL     1     -29.410 -22.655 -16.393  1.00  0.00    -0.000 C 
BRANCH  16  17
ATOM     17  C   UNL     1     -30.089 -23.124 -15.092  1.00  0.00    -0.000 C 
BRANCH  17  18
ATOM     18  C   UNL     1     -31.531 -22.608 -14.951  1.00  0.00    -0.000 C 
BRANCH  18  19
ATOM     19  C   UNL     1     -31.614 -21.314 -14.126  1.00  0.00    -0.003 C 
ATOM     20  C   UNL     1     -32.771 -20.413 -14.560  1.00  0.00     0.004 C 
ENDBRANCH  18  19
ENDBRANCH  17  18
ENDBRANCH  16  17
ENDBRANCH  15  16
ENDBRANCH  14  15
ENDBRANCH  13  14
ENDBRANCH  12  13
ENDBRANCH   1  12
TORSDOF 16
ENDMDL
MODEL 6
REMARK VINA RESULT:     0.500      1.612      3.582
REMARK INTER + INTRA:           0.478
REMARK INTER:                   1.202
REMARK INTRA:                  -0.723
REMARK UNBOUND:                -0.489
REMARK SMILES CCCCCCCCCCCCCCCCCC(=O)[O-]
REMARK SMILES IDX 10 1 11 2 12 3 13 4 14 5 15 6 16 7 17 8 18 9 19 10 20 11
REMARK SMILES IDX 9 12 8 13 7 14 6 15 5 16 4 17 3 18 2 19 1 20
REMARK H PARENT
REMARK Flexibility Score: inf
ROOT
ATOM      1  C   UNL     1     -28.565 -21.415 -20.887  1.00  0.00     0.000 C 
ENDROOT
BRANCH   1   2
ATOM      2  C   UNL     1     -29.392 -22.042 -22.028  1.00  0.00     0.000 C 
BRANCH   2   3
ATOM      3  C   UNL     1     -30.588 -22.900 -21.575  1.00  0.00     0.000 C 
BRANCH   3   4
ATOM      4  C   UNL     1     -31.820 -22.100 -21.109  1.00  0.00     0.000 C 
BRANCH   4   5
ATOM      5  C   UNL     1     -31.796 -20.618 -21.540  1.00  0.00     0.000 C 
BRANCH   5   6
ATOM      6  C   UNL     1     -32.644 -20.356 -22.797  1.00  0.00     0.000 C 
BRANCH   6   7
ATOM      7  C   UNL     1     -32.172 -21.176 -24.010  1.00  0.00     0.006 C 
BRANCH   7   8
ATOM      8  C   UNL     1     -31.104 -20.446 -24.834  1.00  0.00     0.053 C 
BRANCH   8   9
ATOM      9  C   UNL     1     -30.906 -21.129 -26.151  1.00  0.00     0.041 C 
ATOM     10  O   UNL     1     -30.170 -20.609 -27.030  1.00  0.00    -0.550 OA
ATOM     11  O   UNL     1     -31.572 -22.317 -26.425  1.00  0.00    -0.550 OA
ENDBRANCH   8   9
ENDBRANCH   7   8
ENDBRANCH   6   7
ENDBRANCH   5   6
ENDBRANCH   4   5
ENDBRANCH   3   4
ENDBRANCH   2   3
ENDBRANCH   1   2
BRANCH   1  12
ATOM     12  C   UNL     1     -28.401 -22.302 -19.640  1.00  0.00     0.000 C 
BRANCH  12  13
ATOM     13  C   UNL     1     -28.016 -21.500 -18.385  1.00  0.00    -0.000 C 
BRANCH  13  14
ATOM     14  C   UNL     1     -27.003 -22.243 -17.501  1.00  0.00    -0.000 C 
BRANCH  14  15
ATOM     15  C   UNL     1     -27.685 -23.124 -16.438  1.00  0.00    -0.000 C 
BRANCH  15  16
ATOM     16  C   UNL     1     -29.222 -23.071 -16.514  1.00  0.00    -0.000 C 
BRANCH  16  17
ATOM     17  C   UNL     1     -29.929 -22.889 -15.158  1.00  0.00    -0.000 C 
BRANCH  17  18
ATOM     18  C   UNL     1     -31.449 -23.110 -15.242  1.00  0.00    -0.000 C 
BRANCH  18  19
ATOM     19  C   UNL     1     -32.244 -21.996 -14.544  1.00  0.00    -0.003 C 
ATOM     20  C   UNL     1     -31.374 -20.795 -14.172  1.00  0.00     0.004 C 
ENDBRANCH  18  19
ENDBRANCH  17  18
ENDBRANCH  16  17
ENDBRANCH  15  16
ENDBRANCH  14  15
ENDBRANCH  13  14
ENDBRANCH  12  13
ENDBRANCH   1  12
TORSDOF 16
ENDMDL
