MODEL 1
REMARK VINA RESULT:    -2.345      0.000      0.000
REMARK INTER + INTRA:          -5.083
REMARK INTER:                  -3.715
REMARK INTRA:                  -1.368
REMARK UNBOUND:                -1.368
REMARK SMILES CCCCCCCCCCCC(=O)[O-]
REMARK SMILES IDX 7 1 8 2 9 3 10 4 11 5 12 6 13 7 14 8 6 9 5 10 4 11 3 12 2 13
REMARK SMILES IDX 1 14
REMARK H PARENT
REMARK Flexibility Score: inf
ROOT
ATOM      1  C   UNL     1      -0.175  16.384  -1.271  1.00  0.00     0.000 C 
ENDROOT
BRANCH   1   2
ATOM      2  C   UNL     1       0.973  15.935  -2.190  1.00  0.00     0.000 C 
BRANCH   2   3
ATOM      3  C   UNL     1       0.494  15.570  -3.605  1.00  0.00     0.000 C 
BRANCH   3   4
ATOM      4  C   UNL     1       1.003  14.197  -4.096  1.00  0.00     0.006 C 
BRANCH   4   5
ATOM      5  C   UNL     1      -0.066  13.432  -4.885  1.00  0.00     0.053 C 
BRANCH   5   6
ATOM      6  C   UNL     1       0.211  13.504  -6.353  1.00  0.00     0.041 C 
ATOM      7  O   UNL     1       1.337  13.889  -6.767  1.00  0.00    -0.550 OA
ATOM      8  O   UNL     1      -0.755  13.098  -7.264  1.00  0.00    -0.550 OA
ENDBRANCH   5   6
ENDBRANCH   4   5
ENDBRANCH   3   4
ENDBRANCH   2   3
ENDBRANCH   1   2
BRANCH   1   9
ATOM      9  C   UNL     1      -1.565  16.152  -1.891  1.00  0.00     0.000 C 
BRANCH   9  10
ATOM     10  C   UNL     1      -2.397  15.024  -1.245  1.00  0.00    -0.000 C 
BRANCH  10  11
ATOM     11  C   UNL     1      -2.036  13.598  -1.695  1.00  0.00    -0.000 C 
BRANCH  11  12
ATOM     12  C   UNL     1      -1.295  12.799  -0.610  1.00  0.00    -0.000 C 
BRANCH  12  13
ATOM     13  C   UNL     1       0.165  12.505  -0.989  1.00  0.00    -0.003 C 
ATOM     14  C   UNL     1       0.755  11.330  -0.210  1.00  0.00     0.004 C 
ENDBRANCH  12  13
ENDBRANCH  11  12
ENDBRANCH  10  11
ENDBRANCH   9  10
ENDBRANCH   1   9
TORSDOF 10
ENDMDL
MODEL 2
REMARK VINA RESULT:    -2.319      0.931      1.282
REMARK INTER + INTRA:          -5.042
REMARK INTER:                  -3.535
REMARK INTRA:                  -1.507
REMARK UNBOUND:                -1.368
REMARK SMILES CCCCCCCCCCCC(=O)[O-]
REMARK SMILES IDX 7 1 8 2 9 3 10 4 11 5 12 6 13 7 14 8 6 9 5 10 4 11 3 12 2 13
REMARK SMILES IDX 1 14
REMARK H PARENT
REMARK Flexibility Score: inf
ROOT
ATOM      1  C   UNL     1       0.020  16.975  -2.521  1.00  0.00     0.000 C 
ENDROOT
BRANCH   1   2
ATOM      2  C   UNL     1       1.253  16.339  -3.182  1.00  0.00     0.000 C 
BRANCH   2   3
ATOM      3  C   UNL     1       0.928  15.668  -4.528  1.00  0.00     0.000 C 
BRANCH   3   4
ATOM      4  C   UNL     1       1.054  14.130  -4.499  1.00  0.00     0.006 C 
BRANCH   4   5
ATOM      5  C   UNL     1      -0.156  13.438  -5.138  1.00  0.00     0.053 C 
BRANCH   5   6
ATOM      6  C   UNL     1       0.163  13.006  -6.534  1.00  0.00     0.041 C 
ATOM      7  O   UNL     1      -0.631  13.272  -7.476  1.00  0.00    -0.550 OA
ATOM      8  O   UNL     1       1.360  12.356  -6.805  1.00  0.00    -0.550 OA
ENDBRANCH   5   6
ENDBRANCH   4   5
ENDBRANCH   3   4
ENDBRANCH   2   3
ENDBRANCH   1   2
BRANCH   1   9
ATOM      9  C   UNL     1      -0.540  16.131  -1.360  1.00  0.00     0.000 C 
BRANCH   9  10
ATOM     10  C   UNL     1      -1.822  15.336  -1.680  1.00  0.00    -0.000 C 
BRANCH  10  11
ATOM     11  C   UNL     1      -1.629  13.821  -1.868  1.00  0.00    -0.000 C 
BRANCH  11  12
ATOM     12  C   UNL     1      -0.775  13.186  -0.757  1.00  0.00    -0.000 C 
BRANCH  12  13
ATOM     13  C   UNL     1       0.506  12.533  -1.300  1.00  0.00    -0.003 C 
ATOM     14  C   UNL     1       1.771  13.303  -0.922  1.00  0.00     0.004 C 
ENDBRANCH  12  13
ENDBRANCH  11  12
ENDBRANCH  10  11
ENDBRANCH   9  10
ENDBRANCH   1   9
TORSDOF 10
ENDMDL
MODEL 3
REMARK VINA RESULT:    -2.208      1.677      2.856
REMARK INTER + INTRA:          -4.866
REMARK INTER:                  -3.443
REMARK INTRA:                  -1.424
REMARK UNBOUND:                -1.368
REMARK SMILES CCCCCCCCCCCC(=O)[O-]
REMARK SMILES IDX 7 1 8 2 9 3 10 4 11 5 12 6 13 7 14 8 6 9 5 10 4 11 3 12 2 13
REMARK SMILES IDX 1 14
REMARK H PARENT
REMARK Flexibility Score: inf
ROOT
ATOM      1  C   UNL     1       2.810  15.578  -4.366  1.00  0.00     0.000 C 
ENDROOT
BRANCH   1   2
ATOM      2  C   UNL     1       2.125  15.816  -5.722  1.00  0.00     0.000 C 
BRANCH   2   3
ATOM      3  C   UNL     1       2.012  14.534  -6.564  1.00  0.00     0.000 C 
BRANCH   3   4
ATOM      4  C   UNL     1       1.285  13.380  -5.842  1.00  0.00     0.006 C 
BRANCH   4   5
ATOM      5  C   UNL     1      -0.179  13.253  -6.281  1.00  0.00     0.053 C 
BRANCH   5   6
ATOM      6  C   UNL     1      -0.270  12.628  -7.636  1.00  0.00     0.041 C 
ATOM      7  O   UNL     1      -0.965  13.167  -8.537  1.00  0.00    -0.550 OA
ATOM      8  O   UNL     1       0.454  11.477  -7.920  1.00  0.00    -0.550 OA
ENDBRANCH   5   6
ENDBRANCH   4   5
ENDBRANCH   3   4
ENDBRANCH   2   3
ENDBRANCH   1   2
BRANCH   1   9
ATOM      9  C   UNL     1       1.983  16.101  -3.177  1.00  0.00     0.000 C 
BRANCH   9  10
ATOM     10  C   UNL     1       0.455  16.107  -3.387  1.00  0.00    -0.000 C 
BRANCH  10  11
ATOM     11  C   UNL     1      -0.364  15.395  -2.296  1.00  0.00    -0.000 C 
BRANCH  11  12
ATOM     12  C   UNL     1      -0.661  13.925  -2.636  1.00  0.00    -0.000 C 
BRANCH  12  13
ATOM     13  C   UNL     1       0.087  12.945  -1.718  1.00  0.00    -0.003 C 
ATOM     14  C   UNL     1       1.451  12.537  -2.272  1.00  0.00     0.004 C 
ENDBRANCH  12  13
ENDBRANCH  11  12
ENDBRANCH  10  11
ENDBRANCH   9  10
ENDBRANCH   1   9
TORSDOF 10
ENDMDL
MODEL 4
REMARK VINA RESULT:    -2.193      1.244      3.167
REMARK INTER + INTRA:          -4.844
REMARK INTER:                  -3.309
REMARK INTRA:                  -1.535
REMARK UNBOUND:                -1.368
REMARK SMILES CCCCCCCCCCCC(=O)[O-]
REMARK SMILES IDX 7 1 8 2 9 3 10 4 11 5 12 6 13 7 14 8 6 9 5 10 4 11 3 12 2 13
REMARK SMILES IDX 1 14
REMARK H PARENT
REMARK Flexibility Score: inf
ROOT
ATOM      1  C   UNL     1      -0.188  14.077  -0.861  1.00  0.00     0.000 C 
ENDROOT
BRANCH   1   2
ATOM      2  C   UNL     1       0.068  12.845  -1.744  1.00  0.00     0.000 C 
BRANCH   2   3
ATOM      3  C   UNL     1       0.742  13.201  -3.081  1.00  0.00     0.000 C 
BRANCH   3   4
ATOM      4  C   UNL     1      -0.247  13.325  -4.259  1.00  0.00     0.006 C 
BRANCH   4   5
ATOM      5  C   UNL     1       0.406  13.945  -5.500  1.00  0.00     0.053 C 
BRANCH   5   6
ATOM      6  C   UNL     1       0.224  13.056  -6.689  1.00  0.00     0.041 C 
ATOM      7  O   UNL     1      -0.828  13.126  -7.377  1.00  0.00    -0.550 OA
ATOM      8  O   UNL     1       1.239  12.186  -7.068  1.00  0.00    -0.550 OA
ENDBRANCH   5   6
ENDBRANCH   4   5
ENDBRANCH   3   4
ENDBRANCH   2   3
ENDBRANCH   1   2
BRANCH   1   9
ATOM      9  C   UNL     1      -1.486  14.819  -1.228  1.00  0.00     0.000 C 
BRANCH   9  10
ATOM     10  C   UNL     1      -1.294  16.192  -1.903  1.00  0.00    -0.000 C 
BRANCH  10  11
ATOM     11  C   UNL     1       0.136  16.757  -1.854  1.00  0.00    -0.000 C 
BRANCH  11  12
ATOM     12  C   UNL     1       0.759  16.926  -3.251  1.00  0.00    -0.000 C 
BRANCH  12  13
ATOM     13  C   UNL     1       2.250  16.555  -3.280  1.00  0.00    -0.003 C 
ATOM     14  C   UNL     1       2.787  16.151  -1.907  1.00  0.00     0.004 C 
ENDBRANCH  12  13
ENDBRANCH  11  12
ENDBRANCH  10  11
ENDBRANCH   9  10
ENDBRANCH   1   9
TORSDOF 10
ENDMDL
MODEL 5
REMARK VINA RESULT:    -2.137      6.209      9.283
REMARK INTER + INTRA:          -4.754
REMARK INTER:                  -3.150
REMARK INTRA:                  -1.604
REMARK UNBOUND:                -1.368
REMARK SMILES CCCCCCCCCCCC(=O)[O-]
REMARK SMILES IDX 7 1 8 2 9 3 10 4 11 5 12 6 13 7 14 8 6 9 5 10 4 11 3 12 2 13
REMARK SMILES IDX 1 14
REMARK H PARENT
REMARK Flexibility Score: inf
ROOT
ATOM      1  C   UNL     1      -2.666   9.997 -12.363  1.00  0.00     0.000 C 
ENDROOT
BRANCH   1   2
ATOM      2  C   UNL     1      -2.094   9.578 -10.999  1.00  0.00     0.000 C 
BRANCH   2   3
ATOM      3  C   UNL     1      -2.959  10.054  -9.819  1.00  0.00     0.000 C 
BRANCH   3   4
ATOM      4  C   UNL     1      -2.144  10.412  -8.558  1.00  0.00     0.006 C 
BRANCH   4   5
ATOM      5  C   UNL     1      -0.666  10.669  -8.877  1.00  0.00     0.053 C 
BRANCH   5   6
ATOM      6  C   UNL     1      -0.140  11.800  -8.052  1.00  0.00     0.041 C 
ATOM      7  O   UNL     1       1.051  11.784  -7.642  1.00  0.00    -0.550 OA
ATOM      8  O   UNL     1      -0.948  12.896  -7.779  1.00  0.00    -0.550 OA
ENDBRANCH   5   6
ENDBRANCH   4   5
ENDBRANCH   3   4
ENDBRANCH   2   3
ENDBRANCH   1   2
BRANCH   1   9
ATOM      9  C   UNL     1      -3.892  10.920 -12.241  1.00  0.00     0.000 C 
BRANCH   9  10
ATOM     10  C   UNL     1      -3.674  12.374 -12.709  1.00  0.00    -0.000 C 
BRANCH  10  11
ATOM     11  C   UNL     1      -3.524  13.413 -11.585  1.00  0.00    -0.000 C 
BRANCH  11  12
ATOM     12  C   UNL     1      -2.102  13.460 -11.001  1.00  0.00    -0.000 C 
BRANCH  12  13
ATOM     13  C   UNL     1      -1.019  13.507 -12.091  1.00  0.00    -0.003 C 
ATOM     14  C   UNL     1       0.281  12.828 -11.665  1.00  0.00     0.004 C 
ENDBRANCH  12  13
ENDBRANCH  11  12
ENDBRANCH  10  11
ENDBRANCH   9  10
ENDBRANCH   1   9
TORSDOF 10
ENDMDL
MODEL 6
REMARK VINA RESULT:    -2.128      3.673      5.687
REMARK INTER + INTRA:          -4.741
REMARK INTER:                  -3.352
REMARK INTRA:                  -1.389
REMARK UNBOUND:                -1.368
REMARK SMILES CCCCCCCCCCCC(=O)[O-]
REMARK SMILES IDX 7 1 8 2 9 3 10 4 11 5 12 6 13 7 14 8 6 9 5 10 4 11 3 12 2 13
REMARK SMILES IDX 1 14
REMARK H PARENT
REMARK Flexibility Score: inf
ROOT
ATOM      1  C   UNL     1       3.221  13.435  -2.712  1.00  0.00     0.000 C 
ENDROOT
BRANCH   1   2
ATOM      2  C   UNL     1       2.733  12.921  -1.348  1.00  0.00     0.000 C 
BRANCH   2   3
ATOM      3  C   UNL     1       1.870  11.652  -1.464  1.00  0.00     0.000 C 
BRANCH   3   4
ATOM      4  C   UNL     1       0.748  11.568  -0.408  1.00  0.00     0.006 C 
BRANCH   4   5
ATOM      5  C   UNL     1       1.000  10.458   0.619  1.00  0.00     0.053 C 
BRANCH   5   6
ATOM      6  C   UNL     1       0.188   9.245   0.293  1.00  0.00     0.041 C 
ATOM      7  O   UNL     1       0.696   8.301  -0.368  1.00  0.00    -0.550 OA
ATOM      8  O   UNL     1      -1.114   9.134   0.763  1.00  0.00    -0.550 OA
ENDBRANCH   5   6
ENDBRANCH   4   5
ENDBRANCH   3   4
ENDBRANCH   2   3
ENDBRANCH   1   2
BRANCH   1   9
ATOM      9  C   UNL     1       2.495  12.772  -3.897  1.00  0.00     0.000 C 
BRANCH   9  10
ATOM     10  C   UNL     1       1.944  13.743  -4.962  1.00  0.00    -0.000 C 
BRANCH  10  11
ATOM     11  C   UNL     1       0.560  14.342  -4.654  1.00  0.00    -0.000 C 
BRANCH  11  12
ATOM     12  C   UNL     1      -0.431  13.302  -4.104  1.00  0.00    -0.000 C 
BRANCH  12  13
ATOM     13  C   UNL     1      -1.056  13.733  -2.768  1.00  0.00    -0.003 C 
ATOM     14  C   UNL     1      -0.354  14.941  -2.148  1.00  0.00     0.004 C 
ENDBRANCH  12  13
ENDBRANCH  11  12
ENDBRANCH  10  11
ENDBRANCH   9  10
ENDBRANCH   1   9
TORSDOF 10
ENDMDL
MODEL 7
REMARK VINA RESULT:    -2.089      3.184      5.275
REMARK INTER + INTRA:          -4.679
REMARK INTER:                  -3.601
REMARK INTRA:                  -1.077
REMARK UNBOUND:                -1.368
REMARK SMILES CCCCCCCCCCCC(=O)[O-]
REMARK SMILES IDX 7 1 8 2 9 3 10 4 11 5 12 6 13 7 14 8 6 9 5 10 4 11 3 12 2 13
REMARK SMILES IDX 1 14
REMARK H PARENT
REMARK Flexibility Score: inf
ROOT
ATOM      1  C   UNL     1      -2.390  13.942  -1.057  1.00  0.00     0.000 C 
ENDROOT
BRANCH   1   2
ATOM      2  C   UNL     1      -1.850  12.717  -0.301  1.00  0.00     0.000 C 
BRANCH   2   3
ATOM      3  C   UNL     1      -0.537  13.009   0.445  1.00  0.00     0.000 C 
BRANCH   3   4
ATOM      4  C   UNL     1       0.013  11.798   1.229  1.00  0.00     0.006 C 
BRANCH   4   5
ATOM      5  C   UNL     1      -0.475  10.464   0.652  1.00  0.00     0.053 C 
BRANCH   5   6
ATOM      6  C   UNL     1       0.649   9.739  -0.019  1.00  0.00     0.041 C 
ATOM      7  O   UNL     1       0.634   8.483  -0.097  1.00  0.00    -0.550 OA
ATOM      8  O   UNL     1       1.686  10.454  -0.603  1.00  0.00    -0.550 OA
ENDBRANCH   5   6
ENDBRANCH   4   5
ENDBRANCH   3   4
ENDBRANCH   2   3
ENDBRANCH   1   2
BRANCH   1   9
ATOM      9  C   UNL     1      -1.420  15.138  -1.032  1.00  0.00     0.000 C 
BRANCH   9  10
ATOM     10  C   UNL     1      -0.779  15.497  -2.388  1.00  0.00    -0.000 C 
BRANCH  10  11
ATOM     11  C   UNL     1       0.609  14.884  -2.643  1.00  0.00    -0.000 C 
BRANCH  11  12
ATOM     12  C   UNL     1       0.536  13.430  -3.140  1.00  0.00    -0.000 C 
BRANCH  12  13
ATOM     13  C   UNL     1      -0.516  13.236  -4.243  1.00  0.00    -0.003 C 
ATOM     14  C   UNL     1       0.036  13.507  -5.642  1.00  0.00     0.004 C 
ENDBRANCH  12  13
ENDBRANCH  11  12
ENDBRANCH  10  11
ENDBRANCH   9  10
ENDBRANCH   1   9
TORSDOF 10
ENDMDL
MODEL 8
REMARK VINA RESULT:    -2.073      2.471      4.470
REMARK INTER + INTRA:          -4.653
REMARK INTER:                  -3.035
REMARK INTRA:                  -1.618
REMARK UNBOUND:                -1.368
REMARK SMILES CCCCCCCCCCCC(=O)[O-]
REMARK SMILES IDX 7 1 8 2 9 3 10 4 11 5 12 6 13 7 14 8 6 9 5 10 4 11 3 12 2 13
REMARK SMILES IDX 1 14
REMARK H PARENT
REMARK Flexibility Score: inf
ROOT
ATOM      1  C   UNL     1       3.759  12.933  -5.856  1.00  0.00     0.000 C 
ENDROOT
BRANCH   1   2
ATOM      2  C   UNL     1       3.265  14.319  -6.301  1.00  0.00     0.000 C 
BRANCH   2   3
ATOM      3  C   UNL     1       1.830  14.292  -6.853  1.00  0.00     0.000 C 
BRANCH   3   4
ATOM      4  C   UNL     1       1.246  12.870  -6.991  1.00  0.00     0.006 C 
BRANCH   4   5
ATOM      5  C   UNL     1      -0.287  12.872  -7.019  1.00  0.00     0.053 C 
BRANCH   5   6
ATOM      6  C   UNL     1      -0.789  12.389  -8.342  1.00  0.00     0.041 C 
ATOM      7  O   UNL     1      -1.206  13.211  -9.200  1.00  0.00    -0.550 OA
ATOM      8  O   UNL     1      -0.751  11.035  -8.648  1.00  0.00    -0.550 OA
ENDBRANCH   5   6
ENDBRANCH   4   5
ENDBRANCH   3   4
ENDBRANCH   2   3
ENDBRANCH   1   2
BRANCH   1   9
ATOM      9  C   UNL     1       3.850  12.792  -4.325  1.00  0.00     0.000 C 
BRANCH   9  10
ATOM     10  C   UNL     1       2.673  12.051  -3.658  1.00  0.00    -0.000 C 
BRANCH  10  11
ATOM     11  C   UNL     1       1.784  12.913  -2.746  1.00  0.00    -0.000 C 
BRANCH  11  12
ATOM     12  C   UNL     1       0.380  13.150  -3.330  1.00  0.00    -0.000 C 
BRANCH  12  13
ATOM     13  C   UNL     1       0.068  14.642  -3.526  1.00  0.00    -0.003 C 
ATOM     14  C   UNL     1       1.297  15.533  -3.350  1.00  0.00     0.004 C 
ENDBRANCH  12  13
ENDBRANCH  11  12
ENDBRANCH  10  11
ENDBRANCH   9  10
ENDBRANCH   1   9
TORSDOF 10
ENDMDL
MODEL 9
REMARK VINA RESULT:    -2.021      7.194      9.577
REMARK INTER + INTRA:          -4.571
REMARK INTER:                  -2.918
REMARK INTRA:                  -1.653
REMARK UNBOUND:                -1.368
REMARK SMILES CCCCCCCCCCCC(=O)[O-]
REMARK SMILES IDX 7 1 8 2 9 3 10 4 11 5 12 6 13 7 14 8 6 9 5 10 4 11 3 12 2 13
REMARK SMILES IDX 1 14
REMARK H PARENT
REMARK Flexibility Score: inf
ROOT
ATOM      1  C   UNL     1      -0.463  10.258 -12.118  1.00  0.00     0.000 C 
ENDROOT
BRANCH   1   2
ATOM      2  C   UNL     1      -1.358   9.485 -11.136  1.00  0.00     0.000 C 
BRANCH   2   3
ATOM      3  C   UNL     1      -0.937   9.676  -9.669  1.00  0.00     0.000 C 
BRANCH   3   4
ATOM      4  C   UNL     1      -2.108  10.039  -8.731  1.00  0.00     0.006 C 
BRANCH   4   5
ATOM      5  C   UNL     1      -3.472   9.857  -9.408  1.00  0.00     0.053 C 
BRANCH   5   6
ATOM      6  C   UNL     1      -4.201   8.693  -8.817  1.00  0.00     0.041 C 
ATOM      7  O   UNL     1      -3.577   7.640  -8.520  1.00  0.00    -0.550 OA
ATOM      8  O   UNL     1      -5.560   8.788  -8.547  1.00  0.00    -0.550 OA
ENDBRANCH   5   6
ENDBRANCH   4   5
ENDBRANCH   3   4
ENDBRANCH   2   3
ENDBRANCH   1   2
BRANCH   1   9
ATOM      9  C   UNL     1      -1.266  11.113 -13.115  1.00  0.00     0.000 C 
BRANCH   9  10
ATOM     10  C   UNL     1      -2.615  11.647 -12.592  1.00  0.00    -0.000 C 
BRANCH  10  11
ATOM     11  C   UNL     1      -2.605  13.112 -12.120  1.00  0.00    -0.000 C 
BRANCH  11  12
ATOM     12  C   UNL     1      -2.230  13.259 -10.636  1.00  0.00    -0.000 C 
BRANCH  12  13
ATOM     13  C   UNL     1      -0.753  13.634 -10.437  1.00  0.00    -0.003 C 
ATOM     14  C   UNL     1      -0.239  13.296  -9.038  1.00  0.00     0.004 C 
ENDBRANCH  12  13
ENDBRANCH  11  12
ENDBRANCH  10  11
ENDBRANCH   9  10
ENDBRANCH   1   9
TORSDOF 10
ENDMDL
