MODEL 1
REMARK VINA RESULT:    -4.479      0.000      0.000
REMARK INTER + INTRA:         -10.231
REMARK INTER:                  -8.146
REMARK INTRA:                  -2.085
REMARK UNBOUND:                -2.085
REMARK SMILES CCCCCCCCCCCCCCCC(=O)[O-]
REMARK SMILES IDX 9 1 10 2 11 3 12 4 13 5 14 6 15 7 16 8 17 9 18 10 8 11 7 12
REMARK SMILES IDX 6 13 5 14 4 15 3 16 2 17 1 18
REMARK H PARENT
REMARK Flexibility Score: inf
ROOT
ATOM      1  C   UNL     1      10.294   0.276   2.129  1.00  0.00     0.000 C 
ENDROOT
BRANCH   1   2
ATOM      2  C   UNL     1      11.289   0.623   1.009  1.00  0.00     0.000 C 
BRANCH   2   3
ATOM      3  C   UNL     1      11.647  -0.591   0.136  1.00  0.00     0.000 C 
BRANCH   3   4
ATOM      4  C   UNL     1      10.998  -1.868   0.682  1.00  0.00     0.000 C 
BRANCH   4   5
ATOM      5  C   UNL     1      11.900  -3.089   0.443  1.00  0.00     0.000 C 
BRANCH   5   6
ATOM      6  C   UNL     1      11.177  -4.222  -0.301  1.00  0.00     0.006 C 
BRANCH   6   7
ATOM      7  C   UNL     1       9.650  -4.086  -0.247  1.00  0.00     0.053 C 
BRANCH   7   8
ATOM      8  C   UNL     1       9.003  -5.165  -1.056  1.00  0.00     0.041 C 
ATOM      9  O   UNL     1       9.542  -6.298  -1.148  1.00  0.00    -0.550 OA
ATOM     10  O   UNL     1       7.828  -4.902  -1.749  1.00  0.00    -0.550 OA
ENDBRANCH   7   8
ENDBRANCH   6   7
ENDBRANCH   5   6
ENDBRANCH   4   5
ENDBRANCH   3   4
ENDBRANCH   2   3
ENDBRANCH   1   2
BRANCH   1  11
ATOM     11  C   UNL     1      10.837   0.619   3.527  1.00  0.00     0.000 C 
BRANCH  11  12
ATOM     12  C   UNL     1      12.321   0.250   3.692  1.00  0.00    -0.000 C 
BRANCH  12  13
ATOM     13  C   UNL     1      12.537  -1.249   3.949  1.00  0.00    -0.000 C 
BRANCH  13  14
ATOM     14  C   UNL     1      13.864  -1.724   3.339  1.00  0.00    -0.000 C 
BRANCH  14  15
ATOM     15  C   UNL     1      14.786  -0.558   2.948  1.00  0.00    -0.000 C 
BRANCH  15  16
ATOM     16  C   UNL     1      15.849  -0.963   1.913  1.00  0.00    -0.000 C 
BRANCH  16  17
ATOM     17  C   UNL     1      15.239  -1.300   0.543  1.00  0.00    -0.003 C 
ATOM     18  C   UNL     1      15.247  -0.108  -0.415  1.00  0.00     0.004 C 
ENDBRANCH  16  17
ENDBRANCH  15  16
ENDBRANCH  14  15
ENDBRANCH  13  14
ENDBRANCH  12  13
ENDBRANCH  11  12
ENDBRANCH   1  11
TORSDOF 14
ENDMDL
MODEL 2
REMARK VINA RESULT:    -4.452      2.543      4.283
REMARK INTER + INTRA:         -10.181
REMARK INTER:                  -7.869
REMARK INTRA:                  -2.312
REMARK UNBOUND:                -2.085
REMARK SMILES CCCCCCCCCCCCCCCC(=O)[O-]
REMARK SMILES IDX 9 1 10 2 11 3 12 4 13 5 14 6 15 7 16 8 17 9 18 10 8 11 7 12
REMARK SMILES IDX 6 13 5 14 4 15 3 16 2 17 1 18
REMARK H PARENT
REMARK Flexibility Score: inf
ROOT
ATOM      1  C   UNL     1      15.413   0.234  -0.283  1.00  0.00     0.000 C 
ENDROOT
BRANCH   1   2
ATOM      2  C   UNL     1      14.384  -0.497  -1.161  1.00  0.00     0.000 C 
BRANCH   2   3
ATOM      3  C   UNL     1      13.080  -0.808  -0.411  1.00  0.00     0.000 C 
BRANCH   3   4
ATOM      4  C   UNL     1      12.962   0.041   0.860  1.00  0.00     0.000 C 
BRANCH   4   5
ATOM      5  C   UNL     1      11.544   0.614   1.010  1.00  0.00     0.000 C 
BRANCH   5   6
ATOM      6  C   UNL     1      10.795   0.030   2.218  1.00  0.00     0.006 C 
BRANCH   6   7
ATOM      7  C   UNL     1      10.398  -1.438   2.015  1.00  0.00     0.053 C 
BRANCH   7   8
ATOM      8  C   UNL     1       8.918  -1.601   2.154  1.00  0.00     0.041 C 
ATOM      9  O   UNL     1       8.213  -0.650   2.583  1.00  0.00    -0.550 OA
ATOM     10  O   UNL     1       8.322  -2.819   1.856  1.00  0.00    -0.550 OA
ENDBRANCH   7   8
ENDBRANCH   6   7
ENDBRANCH   5   6
ENDBRANCH   4   5
ENDBRANCH   3   4
ENDBRANCH   2   3
ENDBRANCH   1   2
BRANCH   1  11
ATOM     11  C   UNL     1      16.515  -0.704   0.241  1.00  0.00     0.000 C 
BRANCH  11  12
ATOM     12  C   UNL     1      17.005  -0.314   1.646  1.00  0.00    -0.000 C 
BRANCH  12  13
ATOM     13  C   UNL     1      16.059   0.666   2.355  1.00  0.00    -0.000 C 
BRANCH  13  14
ATOM     14  C   UNL     1      15.503   0.052   3.649  1.00  0.00    -0.000 C 
BRANCH  14  15
ATOM     15  C   UNL     1      15.374  -1.477   3.570  1.00  0.00    -0.000 C 
BRANCH  15  16
ATOM     16  C   UNL     1      13.927  -1.961   3.772  1.00  0.00    -0.000 C 
BRANCH  16  17
ATOM     17  C   UNL     1      13.531  -3.065   2.780  1.00  0.00    -0.003 C 
ATOM     18  C   UNL     1      14.668  -3.443   1.832  1.00  0.00     0.004 C 
ENDBRANCH  16  17
ENDBRANCH  15  16
ENDBRANCH  14  15
ENDBRANCH  13  14
ENDBRANCH  12  13
ENDBRANCH  11  12
ENDBRANCH   1  11
TORSDOF 14
ENDMDL
MODEL 3
REMARK VINA RESULT:    -4.388      2.551      4.120
REMARK INTER + INTRA:         -10.064
REMARK INTER:                  -8.342
REMARK INTRA:                  -1.721
REMARK UNBOUND:                -2.085
REMARK SMILES CCCCCCCCCCCCCCCC(=O)[O-]
REMARK SMILES IDX 9 1 10 2 11 3 12 4 13 5 14 6 15 7 16 8 17 9 18 10 8 11 7 12
REMARK SMILES IDX 6 13 5 14 4 15 3 16 2 17 1 18
REMARK H PARENT
REMARK Flexibility Score: inf
ROOT
ATOM      1  C   UNL     1      14.172  -2.277   4.225  1.00  0.00     0.000 C 
ENDROOT
BRANCH   1   2
ATOM      2  C   UNL     1      13.025  -1.454   3.615  1.00  0.00     0.000 C 
BRANCH   2   3
ATOM      3  C   UNL     1      12.492  -0.378   4.574  1.00  0.00     0.000 C 
BRANCH   3   4
ATOM      4  C   UNL     1      11.613   0.634   3.828  1.00  0.00     0.000 C 
BRANCH   4   5
ATOM      5  C   UNL     1      11.880   0.584   2.315  1.00  0.00     0.000 C 
BRANCH   5   6
ATOM      6  C   UNL     1      10.609   0.302   1.499  1.00  0.00     0.006 C 
BRANCH   6   7
ATOM      7  C   UNL     1       9.501  -0.351   2.336  1.00  0.00     0.053 C 
BRANCH   7   8
ATOM      8  C   UNL     1       9.273  -1.760   1.889  1.00  0.00     0.041 C 
ATOM      9  O   UNL     1       8.185  -2.337   2.144  1.00  0.00    -0.550 OA
ATOM     10  O   UNL     1      10.282  -2.451   1.231  1.00  0.00    -0.550 OA
ENDBRANCH   7   8
ENDBRANCH   6   7
ENDBRANCH   5   6
ENDBRANCH   4   5
ENDBRANCH   3   4
ENDBRANCH   2   3
ENDBRANCH   1   2
BRANCH   1  11
ATOM     11  C   UNL     1      15.454  -1.448   4.420  1.00  0.00     0.000 C 
BRANCH  11  12
ATOM     12  C   UNL     1      16.553  -1.811   3.408  1.00  0.00    -0.000 C 
BRANCH  12  13
ATOM     13  C   UNL     1      17.065  -0.594   2.622  1.00  0.00    -0.000 C 
BRANCH  13  14
ATOM     14  C   UNL     1      15.924   0.396   2.344  1.00  0.00    -0.000 C 
BRANCH  14  15
ATOM     15  C   UNL     1      15.134   0.047   1.072  1.00  0.00    -0.000 C 
BRANCH  15  16
ATOM     16  C   UNL     1      16.047  -0.296  -0.117  1.00  0.00    -0.000 C 
BRANCH  16  17
ATOM     17  C   UNL     1      15.266  -0.477  -1.427  1.00  0.00    -0.003 C 
ATOM     18  C   UNL     1      13.751  -0.461  -1.219  1.00  0.00     0.004 C 
ENDBRANCH  16  17
ENDBRANCH  15  16
ENDBRANCH  14  15
ENDBRANCH  13  14
ENDBRANCH  12  13
ENDBRANCH  11  12
ENDBRANCH   1  11
TORSDOF 14
ENDMDL
MODEL 4
REMARK VINA RESULT:    -4.352      4.338      6.221
REMARK INTER + INTRA:          -9.999
REMARK INTER:                  -7.746
REMARK INTRA:                  -2.252
REMARK UNBOUND:                -2.085
REMARK SMILES CCCCCCCCCCCCCCCC(=O)[O-]
REMARK SMILES IDX 9 1 10 2 11 3 12 4 13 5 14 6 15 7 16 8 17 9 18 10 8 11 7 12
REMARK SMILES IDX 6 13 5 14 4 15 3 16 2 17 1 18
REMARK H PARENT
REMARK Flexibility Score: inf
ROOT
ATOM      1  C   UNL     1      13.256  -0.481   0.074  1.00  0.00     0.000 C 
ENDROOT
BRANCH   1   2
ATOM      2  C   UNL     1      13.864  -0.373  -1.334  1.00  0.00     0.000 C 
BRANCH   2   3
ATOM      3  C   UNL     1      15.393  -0.518  -1.333  1.00  0.00     0.000 C 
BRANCH   3   4
ATOM      4  C   UNL     1      15.913  -0.828   0.076  1.00  0.00     0.000 C 
BRANCH   4   5
ATOM      5  C   UNL     1      17.130   0.046   0.418  1.00  0.00     0.000 C 
BRANCH   5   6
ATOM      6  C   UNL     1      16.843   1.042   1.552  1.00  0.00     0.006 C 
BRANCH   6   7
ATOM      7  C   UNL     1      15.828   0.505   2.569  1.00  0.00     0.053 C 
BRANCH   7   8
ATOM      8  C   UNL     1      16.532  -0.026   3.777  1.00  0.00     0.041 C 
ATOM      9  O   UNL     1      16.176   0.337   4.928  1.00  0.00    -0.550 OA
ATOM     10  O   UNL     1      17.613  -0.884   3.629  1.00  0.00    -0.550 OA
ENDBRANCH   7   8
ENDBRANCH   6   7
ENDBRANCH   5   6
ENDBRANCH   4   5
ENDBRANCH   3   4
ENDBRANCH   2   3
ENDBRANCH   1   2
BRANCH   1  11
ATOM     11  C   UNL     1      11.718  -0.545   0.051  1.00  0.00     0.000 C 
BRANCH  11  12
ATOM     12  C   UNL     1      11.074   0.327   1.141  1.00  0.00    -0.000 C 
BRANCH  12  13
ATOM     13  C   UNL     1      12.078   0.782   2.211  1.00  0.00    -0.000 C 
BRANCH  13  14
ATOM     14  C   UNL     1      11.644   0.308   3.607  1.00  0.00    -0.000 C 
BRANCH  14  15
ATOM     15  C   UNL     1      12.598  -0.741   4.199  1.00  0.00    -0.000 C 
BRANCH  15  16
ATOM     16  C   UNL     1      12.575  -2.068   3.421  1.00  0.00    -0.000 C 
BRANCH  16  17
ATOM     17  C   UNL     1      13.985  -2.602   3.126  1.00  0.00    -0.003 C 
ATOM     18  C   UNL     1      14.018  -3.556   1.931  1.00  0.00     0.004 C 
ENDBRANCH  16  17
ENDBRANCH  15  16
ENDBRANCH  14  15
ENDBRANCH  13  14
ENDBRANCH  12  13
ENDBRANCH  11  12
ENDBRANCH   1  11
TORSDOF 14
ENDMDL
MODEL 5
REMARK VINA RESULT:    -4.186      3.012      6.002
REMARK INTER + INTRA:          -9.698
REMARK INTER:                  -7.681
REMARK INTRA:                  -2.016
REMARK UNBOUND:                -2.085
REMARK SMILES CCCCCCCCCCCCCCCC(=O)[O-]
REMARK SMILES IDX 9 1 10 2 11 3 12 4 13 5 14 6 15 7 16 8 17 9 18 10 8 11 7 12
REMARK SMILES IDX 6 13 5 14 4 15 3 16 2 17 1 18
REMARK H PARENT
REMARK Flexibility Score: inf
ROOT
ATOM      1  C   UNL     1      16.064  -1.061  -0.334  1.00  0.00     0.000 C 
ENDROOT
BRANCH   1   2
ATOM      2  C   UNL     1      17.179  -0.128   0.167  1.00  0.00     0.000 C 
BRANCH   2   3
ATOM      3  C   UNL     1      16.641   1.044   1.002  1.00  0.00     0.000 C 
BRANCH   3   4
ATOM      4  C   UNL     1      16.738   0.738   2.502  1.00  0.00     0.000 C 
BRANCH   4   5
ATOM      5  C   UNL     1      15.407   0.189   3.039  1.00  0.00     0.000 C 
BRANCH   5   6
ATOM      6  C   UNL     1      15.604  -0.918   4.087  1.00  0.00     0.006 C 
BRANCH   6   7
ATOM      7  C   UNL     1      14.411  -1.880   4.163  1.00  0.00     0.053 C 
BRANCH   7   8
ATOM      8  C   UNL     1      14.449  -2.848   3.023  1.00  0.00     0.041 C 
ATOM      9  O   UNL     1      13.385  -3.361   2.591  1.00  0.00    -0.550 OA
ATOM     10  O   UNL     1      15.668  -3.220   2.470  1.00  0.00    -0.550 OA
ENDBRANCH   7   8
ENDBRANCH   6   7
ENDBRANCH   5   6
ENDBRANCH   4   5
ENDBRANCH   3   4
ENDBRANCH   2   3
ENDBRANCH   1   2
BRANCH   1  11
ATOM     11  C   UNL     1      15.284  -0.464  -1.519  1.00  0.00     0.000 C 
BRANCH  11  12
ATOM     12  C   UNL     1      13.765  -0.452  -1.280  1.00  0.00    -0.000 C 
BRANCH  12  13
ATOM     13  C   UNL     1      13.385  -0.849   0.155  1.00  0.00    -0.000 C 
BRANCH  13  14
ATOM     14  C   UNL     1      11.865  -1.028   0.289  1.00  0.00    -0.000 C 
BRANCH  14  15
ATOM     15  C   UNL     1      11.170   0.219   0.858  1.00  0.00    -0.000 C 
BRANCH  15  16
ATOM     16  C   UNL     1      11.880   0.776   2.104  1.00  0.00    -0.000 C 
BRANCH  16  17
ATOM     17  C   UNL     1      11.457   0.057   3.394  1.00  0.00    -0.003 C 
ATOM     18  C   UNL     1      11.825   0.841   4.654  1.00  0.00     0.004 C 
ENDBRANCH  16  17
ENDBRANCH  15  16
ENDBRANCH  14  15
ENDBRANCH  13  14
ENDBRANCH  12  13
ENDBRANCH  11  12
ENDBRANCH   1  11
TORSDOF 14
ENDMDL
MODEL 6
REMARK VINA RESULT:    -4.144      4.604      5.917
REMARK INTER + INTRA:          -9.621
REMARK INTER:                  -7.375
REMARK INTRA:                  -2.246
REMARK UNBOUND:                -2.085
REMARK SMILES CCCCCCCCCCCCCCCC(=O)[O-]
REMARK SMILES IDX 9 1 10 2 11 3 12 4 13 5 14 6 15 7 16 8 17 9 18 10 8 11 7 12
REMARK SMILES IDX 6 13 5 14 4 15 3 16 2 17 1 18
REMARK H PARENT
REMARK Flexibility Score: inf
ROOT
ATOM      1  C   UNL     1      11.680   0.590   1.251  1.00  0.00     0.000 C 
ENDROOT
BRANCH   1   2
ATOM      2  C   UNL     1      11.549  -0.707   0.435  1.00  0.00     0.000 C 
BRANCH   2   3
ATOM      3  C   UNL     1      12.886  -1.169  -0.164  1.00  0.00     0.000 C 
BRANCH   3   4
ATOM      4  C   UNL     1      14.023  -0.220   0.237  1.00  0.00     0.000 C 
BRANCH   4   5
ATOM      5  C   UNL     1      15.267  -0.454  -0.634  1.00  0.00     0.000 C 
BRANCH   5   6
ATOM      6  C   UNL     1      16.578  -0.219   0.133  1.00  0.00     0.006 C 
BRANCH   6   7
ATOM      7  C   UNL     1      16.377   0.610   1.409  1.00  0.00     0.053 C 
BRANCH   7   8
ATOM      8  C   UNL     1      17.516   1.561   1.596  1.00  0.00     0.041 C 
ATOM      9  O   UNL     1      18.414   1.315   2.443  1.00  0.00    -0.550 OA
ATOM     10  O   UNL     1      17.560   2.743   0.868  1.00  0.00    -0.550 OA
ENDBRANCH   7   8
ENDBRANCH   6   7
ENDBRANCH   5   6
ENDBRANCH   4   5
ENDBRANCH   3   4
ENDBRANCH   2   3
ENDBRANCH   1   2
BRANCH   1  11
ATOM     11  C   UNL     1      10.939   0.517   2.598  1.00  0.00     0.000 C 
BRANCH  11  12
ATOM     12  C   UNL     1      11.896   0.548   3.801  1.00  0.00    -0.000 C 
BRANCH  12  13
ATOM     13  C   UNL     1      12.379  -0.850   4.215  1.00  0.00    -0.000 C 
BRANCH  13  14
ATOM     14  C   UNL     1      13.893  -0.992   4.001  1.00  0.00    -0.000 C 
BRANCH  14  15
ATOM     15  C   UNL     1      14.326  -2.451   3.787  1.00  0.00    -0.000 C 
BRANCH  15  16
ATOM     16  C   UNL     1      15.400  -2.597   2.696  1.00  0.00    -0.000 C 
BRANCH  16  17
ATOM     17  C   UNL     1      15.184  -3.840   1.819  1.00  0.00    -0.003 C 
ATOM     18  C   UNL     1      13.708  -4.213   1.676  1.00  0.00     0.004 C 
ENDBRANCH  16  17
ENDBRANCH  15  16
ENDBRANCH  14  15
ENDBRANCH  13  14
ENDBRANCH  12  13
ENDBRANCH  11  12
ENDBRANCH   1  11
TORSDOF 14
ENDMDL
MODEL 7
REMARK VINA RESULT:    -4.065      4.079      6.320
REMARK INTER + INTRA:          -9.477
REMARK INTER:                  -7.290
REMARK INTRA:                  -2.186
REMARK UNBOUND:                -2.085
REMARK SMILES CCCCCCCCCCCCCCCC(=O)[O-]
REMARK SMILES IDX 9 1 10 2 11 3 12 4 13 5 14 6 15 7 16 8 17 9 18 10 8 11 7 12
REMARK SMILES IDX 6 13 5 14 4 15 3 16 2 17 1 18
REMARK H PARENT
REMARK Flexibility Score: inf
ROOT
ATOM      1  C   UNL     1      13.174  -0.547   0.080  1.00  0.00     0.000 C 
ENDROOT
BRANCH   1   2
ATOM      2  C   UNL     1      13.919  -0.488  -1.264  1.00  0.00     0.000 C 
BRANCH   2   3
ATOM      3  C   UNL     1      15.413  -0.170  -1.101  1.00  0.00     0.000 C 
BRANCH   3   4
ATOM      4  C   UNL     1      15.876  -0.437   0.337  1.00  0.00     0.000 C 
BRANCH   4   5
ATOM      5  C   UNL     1      17.225   0.245   0.615  1.00  0.00     0.000 C 
BRANCH   5   6
ATOM      6  C   UNL     1      17.672   0.098   2.078  1.00  0.00     0.006 C 
BRANCH   6   7
ATOM      7  C   UNL     1      16.489   0.027   3.053  1.00  0.00     0.053 C 
BRANCH   7   8
ATOM      8  C   UNL     1      16.759  -0.979   4.126  1.00  0.00     0.041 C 
ATOM      9  O   UNL     1      17.566  -1.923   3.922  1.00  0.00    -0.550 OA
ATOM     10  O   UNL     1      16.082  -0.903   5.336  1.00  0.00    -0.550 OA
ENDBRANCH   7   8
ENDBRANCH   6   7
ENDBRANCH   5   6
ENDBRANCH   4   5
ENDBRANCH   3   4
ENDBRANCH   2   3
ENDBRANCH   1   2
BRANCH   1  11
ATOM     11  C   UNL     1      11.982  -1.520   0.053  1.00  0.00     0.000 C 
BRANCH  11  12
ATOM     12  C   UNL     1      12.011  -2.522   1.220  1.00  0.00    -0.000 C 
BRANCH  12  13
ATOM     13  C   UNL     1      13.435  -2.825   1.710  1.00  0.00    -0.000 C 
BRANCH  13  14
ATOM     14  C   UNL     1      13.608  -2.410   3.179  1.00  0.00    -0.000 C 
BRANCH  14  15
ATOM     15  C   UNL     1      12.403  -1.624   3.718  1.00  0.00    -0.000 C 
BRANCH  15  16
ATOM     16  C   UNL     1      12.738  -0.151   4.007  1.00  0.00    -0.000 C 
BRANCH  16  17
ATOM     17  C   UNL     1      11.809   0.822   3.264  1.00  0.00    -0.003 C 
ATOM     18  C   UNL     1      10.414   0.243   3.030  1.00  0.00     0.004 C 
ENDBRANCH  16  17
ENDBRANCH  15  16
ENDBRANCH  14  15
ENDBRANCH  13  14
ENDBRANCH  12  13
ENDBRANCH  11  12
ENDBRANCH   1  11
TORSDOF 14
ENDMDL
MODEL 8
REMARK VINA RESULT:    -4.062      2.572      4.470
REMARK INTER + INTRA:          -9.472
REMARK INTER:                  -7.087
REMARK INTRA:                  -2.385
REMARK UNBOUND:                -2.085
REMARK SMILES CCCCCCCCCCCCCCCC(=O)[O-]
REMARK SMILES IDX 9 1 10 2 11 3 12 4 13 5 14 6 15 7 16 8 17 9 18 10 8 11 7 12
REMARK SMILES IDX 6 13 5 14 4 15 3 16 2 17 1 18
REMARK H PARENT
REMARK Flexibility Score: inf
ROOT
ATOM      1  C   UNL     1      14.479  -2.399   2.179  1.00  0.00     0.000 C 
ENDROOT
BRANCH   1   2
ATOM      2  C   UNL     1      13.476  -2.400   3.345  1.00  0.00     0.000 C 
BRANCH   2   3
ATOM      3  C   UNL     1      13.495  -1.088   4.145  1.00  0.00     0.000 C 
BRANCH   3   4
ATOM      4  C   UNL     1      12.100  -0.452   4.186  1.00  0.00     0.000 C 
BRANCH   4   5
ATOM      5  C   UNL     1      11.978   0.673   3.146  1.00  0.00     0.000 C 
BRANCH   5   6
ATOM      6  C   UNL     1      11.021   0.316   1.998  1.00  0.00     0.006 C 
BRANCH   6   7
ATOM      7  C   UNL     1       9.699  -0.284   2.495  1.00  0.00     0.053 C 
BRANCH   7   8
ATOM      8  C   UNL     1       9.518  -1.665   1.950  1.00  0.00     0.041 C 
ATOM      9  O   UNL     1      10.458  -2.233   1.337  1.00  0.00    -0.550 OA
ATOM     10  O   UNL     1       8.293  -2.307   2.079  1.00  0.00    -0.550 OA
ENDBRANCH   7   8
ENDBRANCH   6   7
ENDBRANCH   5   6
ENDBRANCH   4   5
ENDBRANCH   3   4
ENDBRANCH   2   3
ENDBRANCH   1   2
BRANCH   1  11
ATOM     11  C   UNL     1      13.958  -1.628   0.953  1.00  0.00     0.000 C 
BRANCH  11  12
ATOM     12  C   UNL     1      14.744  -0.332   0.692  1.00  0.00    -0.000 C 
BRANCH  12  13
ATOM     13  C   UNL     1      16.136  -0.339   1.342  1.00  0.00    -0.000 C 
BRANCH  13  14
ATOM     14  C   UNL     1      16.227   0.718   2.453  1.00  0.00    -0.000 C 
BRANCH  14  15
ATOM     15  C   UNL     1      17.004   0.220   3.682  1.00  0.00    -0.000 C 
BRANCH  15  16
ATOM     16  C   UNL     1      17.986  -0.914   3.342  1.00  0.00    -0.000 C 
BRANCH  16  17
ATOM     17  C   UNL     1      18.105  -1.948   4.472  1.00  0.00    -0.003 C 
ATOM     18  C   UNL     1      16.775  -2.202   5.182  1.00  0.00     0.004 C 
ENDBRANCH  16  17
ENDBRANCH  15  16
ENDBRANCH  14  15
ENDBRANCH  13  14
ENDBRANCH  12  13
ENDBRANCH  11  12
ENDBRANCH   1  11
TORSDOF 14
ENDMDL
MODEL 9
REMARK VINA RESULT:    -4.028      3.232      5.035
REMARK INTER + INTRA:          -9.410
REMARK INTER:                  -7.023
REMARK INTRA:                  -2.386
REMARK UNBOUND:                -2.085
REMARK SMILES CCCCCCCCCCCCCCCC(=O)[O-]
REMARK SMILES IDX 9 1 10 2 11 3 12 4 13 5 14 6 15 7 16 8 17 9 18 10 8 11 7 12
REMARK SMILES IDX 6 13 5 14 4 15 3 16 2 17 1 18
REMARK H PARENT
REMARK Flexibility Score: inf
ROOT
ATOM      1  C   UNL     1      15.992  -2.624   3.969  1.00  0.00     0.000 C 
ENDROOT
BRANCH   1   2
ATOM      2  C   UNL     1      15.968  -3.545   2.738  1.00  0.00     0.000 C 
BRANCH   2   3
ATOM      3  C   UNL     1      14.979  -3.071   1.662  1.00  0.00     0.000 C 
BRANCH   3   4
ATOM      4  C   UNL     1      13.825  -2.280   2.289  1.00  0.00     0.000 C 
BRANCH   4   5
ATOM      5  C   UNL     1      13.148  -1.376   1.247  1.00  0.00     0.000 C 
BRANCH   5   6
ATOM      6  C   UNL     1      12.673  -0.041   1.841  1.00  0.00     0.006 C 
BRANCH   6   7
ATOM      7  C   UNL     1      11.259   0.341   1.382  1.00  0.00     0.053 C 
BRANCH   7   8
ATOM      8  C   UNL     1      10.285   0.170   2.503  1.00  0.00     0.041 C 
ATOM      9  O   UNL     1      10.408   0.843   3.559  1.00  0.00    -0.550 OA
ATOM     10  O   UNL     1       9.267  -0.770   2.400  1.00  0.00    -0.550 OA
ENDBRANCH   7   8
ENDBRANCH   6   7
ENDBRANCH   5   6
ENDBRANCH   4   5
ENDBRANCH   3   4
ENDBRANCH   2   3
ENDBRANCH   1   2
BRANCH   1  11
ATOM     11  C   UNL     1      17.395  -2.061   4.257  1.00  0.00     0.000 C 
BRANCH  11  12
ATOM     12  C   UNL     1      17.642  -0.708   3.569  1.00  0.00    -0.000 C 
BRANCH  12  13
ATOM     13  C   UNL     1      16.375   0.157   3.485  1.00  0.00    -0.000 C 
BRANCH  13  14
ATOM     14  C   UNL     1      16.236   0.791   2.092  1.00  0.00    -0.000 C 
BRANCH  14  15
ATOM     15  C   UNL     1      17.296   0.282   1.102  1.00  0.00    -0.000 C 
BRANCH  15  16
ATOM     16  C   UNL     1      16.680  -0.461  -0.095  1.00  0.00    -0.000 C 
BRANCH  16  17
ATOM     17  C   UNL     1      15.466   0.273  -0.685  1.00  0.00    -0.003 C 
ATOM     18  C   UNL     1      14.868  -0.449  -1.892  1.00  0.00     0.004 C 
ENDBRANCH  16  17
ENDBRANCH  15  16
ENDBRANCH  14  15
ENDBRANCH  13  14
ENDBRANCH  12  13
ENDBRANCH  11  12
ENDBRANCH   1  11
TORSDOF 14
ENDMDL
