MODEL 1
REMARK VINA RESULT:    -5.162      0.000      0.000
REMARK INTER + INTRA:          -5.464
REMARK INTER:                  -5.464
REMARK INTRA:                   0.000
REMARK UNBOUND:                 0.000
REMARK SMILES O=c1ccc2cc(O)c(O)cc2o1
REMARK SMILES IDX 4 1 3 2 2 3 1 4 13 5 12 6 11 7 9 8 7 9 6 10 5 11 8 12 10 14
REMARK H PARENT 8 13 10 15
REMARK Flexibility Score: inf
ROOT
ATOM      1  C   UNL     1     -99.294  84.998 206.455  1.00  0.00     0.019 A 
ATOM      2  C   UNL     1     -99.309  83.690 205.971  1.00  0.00     0.094 A 
ATOM      3  C   UNL     1     -98.308  82.803 206.383  1.00  0.00     0.336 A 
ATOM      4  O   UNL     1     -98.304  81.618 205.958  1.00  0.00    -0.246 OA
ATOM      5  O   UNL     1     -97.358  83.203 207.225  1.00  0.00    -0.423 OA
ATOM      6  C   UNL     1     -97.307  84.441 207.710  1.00  0.00     0.142 A 
ATOM      7  C   UNL     1     -96.284  84.806 208.591  1.00  0.00     0.098 A 
ATOM      8  C   UNL     1     -96.226  86.110 209.105  1.00  0.00     0.161 A 
ATOM      9  C   UNL     1     -97.195  87.054 208.736  1.00  0.00     0.158 A 
ATOM     10  C   UNL     1     -98.224  86.694 207.853  1.00  0.00     0.062 A 
ATOM     11  C   UNL     1     -98.283  85.392 207.338  1.00  0.00     0.022 A 
ENDROOT
BRANCH   9  12
ATOM     12  O   UNL     1     -97.131  88.346 209.252  1.00  0.00    -0.504 OA
ATOM     13  H   UNL     1     -96.800  89.125 208.693  1.00  0.00     0.293 HD
ENDBRANCH   9  12
BRANCH   8  14
ATOM     14  O   UNL     1     -95.207  86.475 209.984  1.00  0.00    -0.504 OA
ATOM     15  H   UNL     1     -94.433  85.854 210.185  1.00  0.00     0.293 HD
ENDBRANCH   8  14
TORSDOF 2
ENDMDL
MODEL 2
REMARK VINA RESULT:    -5.154      3.085      6.257
REMARK INTER + INTRA:          -5.456
REMARK INTER:                  -5.456
REMARK INTRA:                   0.000
REMARK UNBOUND:                 0.000
REMARK SMILES O=c1ccc2cc(O)c(O)cc2o1
REMARK SMILES IDX 4 1 3 2 2 3 1 4 13 5 12 6 11 7 9 8 7 9 6 10 5 11 8 12 10 14
REMARK H PARENT 8 13 10 15
REMARK Flexibility Score: inf
ROOT
ATOM      1  C   UNL     1     -97.734  82.709 206.900  1.00  0.00     0.019 A 
ATOM      2  C   UNL     1     -97.059  83.512 207.819  1.00  0.00     0.094 A 
ATOM      3  C   UNL     1     -95.928  83.002 208.463  1.00  0.00     0.336 A 
ATOM      4  O   UNL     1     -95.304  83.712 209.295  1.00  0.00    -0.246 OA
ATOM      5  O   UNL     1     -95.502  81.768 208.202  1.00  0.00    -0.423 OA
ATOM      6  C   UNL     1     -96.117  80.968 207.334  1.00  0.00     0.142 A 
ATOM      7  C   UNL     1     -95.625  79.680 207.101  1.00  0.00     0.098 A 
ATOM      8  C   UNL     1     -96.270  78.833 206.186  1.00  0.00     0.161 A 
ATOM      9  C   UNL     1     -97.411  79.277 205.502  1.00  0.00     0.158 A 
ATOM     10  C   UNL     1     -97.909  80.569 205.732  1.00  0.00     0.062 A 
ATOM     11  C   UNL     1     -97.266  81.415 206.646  1.00  0.00     0.022 A 
ENDROOT
BRANCH   9  12
ATOM     12  O   UNL     1     -98.044  78.430 204.596  1.00  0.00    -0.504 OA
ATOM     13  H   UNL     1     -97.545  77.677 204.134  1.00  0.00     0.293 HD
ENDBRANCH   9  12
BRANCH   8  14
ATOM     14  O   UNL     1     -95.781  77.549 205.952  1.00  0.00    -0.504 OA
ATOM     15  H   UNL     1     -95.466  77.262 205.033  1.00  0.00     0.293 HD
ENDBRANCH   8  14
TORSDOF 2
ENDMDL
MODEL 3
REMARK VINA RESULT:    -5.148      2.550      3.374
REMARK INTER + INTRA:          -5.449
REMARK INTER:                  -5.449
REMARK INTRA:                   0.000
REMARK UNBOUND:                 0.000
REMARK SMILES O=c1ccc2cc(O)c(O)cc2o1
REMARK SMILES IDX 4 1 3 2 2 3 1 4 13 5 12 6 11 7 9 8 7 9 6 10 5 11 8 12 10 14
REMARK H PARENT 8 13 10 15
REMARK Flexibility Score: inf
ROOT
ATOM      1  C   UNL     1     -97.879  81.910 206.396  1.00  0.00     0.019 A 
ATOM      2  C   UNL     1     -98.111  80.567 206.102  1.00  0.00     0.094 A 
ATOM      3  C   UNL     1     -97.700  79.591 207.017  1.00  0.00     0.336 A 
ATOM      4  O   UNL     1     -97.901  78.373 206.770  1.00  0.00    -0.246 OA
ATOM      5  O   UNL     1     -97.098  79.942 208.150  1.00  0.00    -0.423 OA
ATOM      6  C   UNL     1     -96.856  81.211 208.469  1.00  0.00     0.142 A 
ATOM      7  C   UNL     1     -96.218  81.520 209.675  1.00  0.00     0.098 A 
ATOM      8  C   UNL     1     -95.961  82.857 210.015  1.00  0.00     0.161 A 
ATOM      9  C   UNL     1     -96.345  83.889 209.147  1.00  0.00     0.158 A 
ATOM     10  C   UNL     1     -96.986  83.585 207.936  1.00  0.00     0.062 A 
ATOM     11  C   UNL     1     -97.242  82.250 207.594  1.00  0.00     0.022 A 
ENDROOT
BRANCH   9  12
ATOM     12  O   UNL     1     -96.087  85.213 209.493  1.00  0.00    -0.504 OA
ATOM     13  H   UNL     1     -96.136  85.530 210.455  1.00  0.00     0.293 HD
ENDBRANCH   9  12
BRANCH   8  14
ATOM     14  O   UNL     1     -95.326  83.168 211.216  1.00  0.00    -0.504 OA
ATOM     15  H   UNL     1     -94.691  82.517 211.663  1.00  0.00     0.293 HD
ENDBRANCH   8  14
TORSDOF 2
ENDMDL
MODEL 4
REMARK VINA RESULT:    -5.051      1.132      1.345
REMARK INTER + INTRA:          -5.346
REMARK INTER:                  -5.346
REMARK INTRA:                   0.000
REMARK UNBOUND:                 0.000
REMARK SMILES O=c1ccc2cc(O)c(O)cc2o1
REMARK SMILES IDX 4 1 3 2 2 3 1 4 13 5 12 6 11 7 9 8 7 9 6 10 5 11 8 12 10 14
REMARK H PARENT 8 13 10 15
REMARK Flexibility Score: inf
ROOT
ATOM      1  C   UNL     1     -98.304  83.812 206.924  1.00  0.00     0.019 A 
ATOM      2  C   UNL     1     -97.926  82.510 206.594  1.00  0.00     0.094 A 
ATOM      3  C   UNL     1     -96.720  82.007 207.094  1.00  0.00     0.336 A 
ATOM      4  O   UNL     1     -96.361  80.834 206.809  1.00  0.00    -0.246 OA
ATOM      5  O   UNL     1     -95.948  82.759 207.874  1.00  0.00    -0.423 OA
ATOM      6  C   UNL     1     -96.270  84.005 208.213  1.00  0.00     0.142 A 
ATOM      7  C   UNL     1     -95.419  84.750 209.035  1.00  0.00     0.098 A 
ATOM      8  C   UNL     1     -95.755  86.064 209.395  1.00  0.00     0.161 A 
ATOM      9  C   UNL     1     -96.949  86.635 208.930  1.00  0.00     0.158 A 
ATOM     10  C   UNL     1     -97.808  85.893 208.106  1.00  0.00     0.062 A 
ATOM     11  C   UNL     1     -97.472  84.581 207.745  1.00  0.00     0.022 A 
ENDROOT
BRANCH   9  12
ATOM     12  O   UNL     1     -97.275  87.940 209.293  1.00  0.00    -0.504 OA
ATOM     13  H   UNL     1     -96.965  88.340 210.171  1.00  0.00     0.293 HD
ENDBRANCH   9  12
BRANCH   8  14
ATOM     14  O   UNL     1     -94.908  86.808 210.214  1.00  0.00    -0.504 OA
ATOM     15  H   UNL     1     -95.251  87.585 210.765  1.00  0.00     0.293 HD
ENDBRANCH   8  14
TORSDOF 2
ENDMDL
MODEL 5
REMARK VINA RESULT:    -5.018      2.050      2.902
REMARK INTER + INTRA:          -5.311
REMARK INTER:                  -5.311
REMARK INTRA:                   0.000
REMARK UNBOUND:                 0.000
REMARK SMILES O=c1ccc2cc(O)c(O)cc2o1
REMARK SMILES IDX 4 1 3 2 2 3 1 4 13 5 12 6 11 7 9 8 7 9 6 10 5 11 8 12 10 14
REMARK H PARENT 8 13 10 15
REMARK Flexibility Score: inf
ROOT
ATOM      1  C   UNL     1     -97.542  84.199 207.244  1.00  0.00     0.019 A 
ATOM      2  C   UNL     1     -96.712  83.287 207.895  1.00  0.00     0.094 A 
ATOM      3  C   UNL     1     -95.963  83.718 208.995  1.00  0.00     0.336 A 
ATOM      4  O   UNL     1     -95.207  82.910 209.597  1.00  0.00    -0.246 OA
ATOM      5  O   UNL     1     -96.044  84.978 209.414  1.00  0.00    -0.423 OA
ATOM      6  C   UNL     1     -96.822  85.880 208.821  1.00  0.00     0.142 A 
ATOM      7  C   UNL     1     -96.867  87.192 209.305  1.00  0.00     0.098 A 
ATOM      8  C   UNL     1     -97.687  88.147 208.683  1.00  0.00     0.161 A 
ATOM      9  C   UNL     1     -98.466  87.787 207.574  1.00  0.00     0.158 A 
ATOM     10  C   UNL     1     -98.427  86.472 207.085  1.00  0.00     0.062 A 
ATOM     11  C   UNL     1     -97.607  85.518 207.704  1.00  0.00     0.022 A 
ENDROOT
BRANCH   9  12
ATOM     12  O   UNL     1     -99.278  88.740 206.964  1.00  0.00    -0.504 OA
ATOM     13  H   UNL     1    -100.167  89.016 207.366  1.00  0.00     0.293 HD
ENDBRANCH   9  12
BRANCH   8  14
ATOM     14  O   UNL     1     -97.732  89.454 209.163  1.00  0.00    -0.504 OA
ATOM     15  H   UNL     1     -98.474  90.090 208.897  1.00  0.00     0.293 HD
ENDBRANCH   8  14
TORSDOF 2
ENDMDL
MODEL 6
REMARK VINA RESULT:    -4.977      2.458      5.630
REMARK INTER + INTRA:          -5.268
REMARK INTER:                  -5.268
REMARK INTRA:                   0.000
REMARK UNBOUND:                 0.000
REMARK SMILES O=c1ccc2cc(O)c(O)cc2o1
REMARK SMILES IDX 4 1 3 2 2 3 1 4 13 5 12 6 11 7 9 8 7 9 6 10 5 11 8 12 10 14
REMARK H PARENT 8 13 10 15
REMARK Flexibility Score: inf
ROOT
ATOM      1  C   UNL     1     -98.435  83.314 206.626  1.00  0.00     0.019 A 
ATOM      2  C   UNL     1     -97.863  84.395 207.296  1.00  0.00     0.094 A 
ATOM      3  C   UNL     1     -96.583  84.254 207.843  1.00  0.00     0.336 A 
ATOM      4  O   UNL     1     -96.048  85.219 208.450  1.00  0.00    -0.246 OA
ATOM      5  O   UNL     1     -95.922  83.105 207.724  1.00  0.00    -0.423 OA
ATOM      6  C   UNL     1     -96.431  82.048 207.095  1.00  0.00     0.142 A 
ATOM      7  C   UNL     1     -95.691  80.866 207.003  1.00  0.00     0.098 A 
ATOM      8  C   UNL     1     -96.224  79.749 206.340  1.00  0.00     0.161 A 
ATOM      9  C   UNL     1     -97.502  79.817 205.766  1.00  0.00     0.158 A 
ATOM     10  C   UNL     1     -98.249  81.001 205.855  1.00  0.00     0.062 A 
ATOM     11  C   UNL     1     -97.719  82.117 206.518  1.00  0.00     0.022 A 
ENDROOT
BRANCH   9  12
ATOM     12  O   UNL     1     -98.023  78.705 205.109  1.00  0.00    -0.504 OA
ATOM     13  H   UNL     1     -98.067  77.796 205.557  1.00  0.00     0.293 HD
ENDBRANCH   9  12
BRANCH   8  14
ATOM     14  O   UNL     1     -95.488  78.569 206.246  1.00  0.00    -0.504 OA
ATOM     15  H   UNL     1     -95.216  78.048 207.071  1.00  0.00     0.293 HD
ENDBRANCH   8  14
TORSDOF 2
ENDMDL
MODEL 7
REMARK VINA RESULT:    -4.967      1.080      2.424
REMARK INTER + INTRA:          -5.258
REMARK INTER:                  -5.258
REMARK INTRA:                   0.000
REMARK UNBOUND:                 0.000
REMARK SMILES O=c1ccc2cc(O)c(O)cc2o1
REMARK SMILES IDX 4 1 3 2 2 3 1 4 13 5 12 6 11 7 9 8 7 9 6 10 5 11 8 12 10 14
REMARK H PARENT 8 13 10 15
REMARK Flexibility Score: inf
ROOT
ATOM      1  C   UNL     1     -96.024  82.497 208.017  1.00  0.00     0.019 A 
ATOM      2  C   UNL     1     -96.882  81.815 207.154  1.00  0.00     0.094 A 
ATOM      3  C   UNL     1     -97.962  82.502 206.590  1.00  0.00     0.336 A 
ATOM      4  O   UNL     1     -98.748  81.904 205.808  1.00  0.00    -0.246 OA
ATOM      5  O   UNL     1     -98.166  83.786 206.872  1.00  0.00    -0.423 OA
ATOM      6  C   UNL     1     -97.373  84.474 207.690  1.00  0.00     0.142 A 
ATOM      7  C   UNL     1     -97.636  85.822 207.951  1.00  0.00     0.098 A 
ATOM      8  C   UNL     1     -96.802  86.551 208.812  1.00  0.00     0.161 A 
ATOM      9  C   UNL     1     -95.699  85.928 209.415  1.00  0.00     0.158 A 
ATOM     10  C   UNL     1     -95.429  84.576 209.157  1.00  0.00     0.062 A 
ATOM     11  C   UNL     1     -96.262  83.846 208.297  1.00  0.00     0.022 A 
ENDROOT
BRANCH   9  12
ATOM     12  O   UNL     1     -94.876  86.660 210.268  1.00  0.00    -0.504 OA
ATOM     13  H   UNL     1     -94.185  86.207 210.857  1.00  0.00     0.293 HD
ENDBRANCH   9  12
BRANCH   8  14
ATOM     14  O   UNL     1     -97.063  87.895 209.073  1.00  0.00    -0.504 OA
ATOM     15  H   UNL     1     -96.419  88.465 209.609  1.00  0.00     0.293 HD
ENDBRANCH   8  14
TORSDOF 2
ENDMDL
MODEL 8
REMARK VINA RESULT:    -4.934      2.525      5.893
REMARK INTER + INTRA:          -5.223
REMARK INTER:                  -5.223
REMARK INTRA:                   0.000
REMARK UNBOUND:                 0.000
REMARK SMILES O=c1ccc2cc(O)c(O)cc2o1
REMARK SMILES IDX 4 1 3 2 2 3 1 4 13 5 12 6 11 7 9 8 7 9 6 10 5 11 8 12 10 14
REMARK H PARENT 8 13 10 15
REMARK Flexibility Score: inf
ROOT
ATOM      1  C   UNL     1     -95.999  83.073 207.912  1.00  0.00     0.019 A 
ATOM      2  C   UNL     1     -96.747  84.249 207.954  1.00  0.00     0.094 A 
ATOM      3  C   UNL     1     -97.969  84.299 207.274  1.00  0.00     0.336 A 
ATOM      4  O   UNL     1     -98.660  85.351 207.300  1.00  0.00    -0.246 OA
ATOM      5  O   UNL     1     -98.409  83.240 206.600  1.00  0.00    -0.423 OA
ATOM      6  C   UNL     1     -97.726  82.099 206.534  1.00  0.00     0.142 A 
ATOM      7  C   UNL     1     -98.238  81.019 205.809  1.00  0.00     0.098 A 
ATOM      8  C   UNL     1     -97.522  79.814 205.737  1.00  0.00     0.161 A 
ATOM      9  C   UNL     1     -96.289  79.690 206.394  1.00  0.00     0.158 A 
ATOM     10  C   UNL     1     -95.770  80.771 207.123  1.00  0.00     0.062 A 
ATOM     11  C   UNL     1     -96.484  81.975 207.195  1.00  0.00     0.022 A 
ENDROOT
BRANCH   9  12
ATOM     12  O   UNL     1     -95.585  78.491 206.318  1.00  0.00    -0.504 OA
ATOM     13  H   UNL     1     -95.287  77.996 207.151  1.00  0.00     0.293 HD
ENDBRANCH   9  12
BRANCH   8  14
ATOM     14  O   UNL     1     -98.030  78.735 205.015  1.00  0.00    -0.504 OA
ATOM     15  H   UNL     1     -98.067  78.746 204.003  1.00  0.00     0.293 HD
ENDBRANCH   8  14
TORSDOF 2
ENDMDL
MODEL 9
REMARK VINA RESULT:    -4.843      1.637      2.527
REMARK INTER + INTRA:          -5.126
REMARK INTER:                  -5.126
REMARK INTRA:                   0.000
REMARK UNBOUND:                 0.000
REMARK SMILES O=c1ccc2cc(O)c(O)cc2o1
REMARK SMILES IDX 4 1 3 2 2 3 1 4 13 5 12 6 11 7 9 8 7 9 6 10 5 11 8 12 10 14
REMARK H PARENT 8 13 10 15
REMARK Flexibility Score: inf
ROOT
ATOM      1  C   UNL     1     -98.213  82.957 206.596  1.00  0.00     0.019 A 
ATOM      2  C   UNL     1     -99.317  83.152 205.766  1.00  0.00     0.094 A 
ATOM      3  C   UNL     1     -99.919  84.414 205.724  1.00  0.00     0.336 A 
ATOM      4  O   UNL     1    -100.916  84.611 204.980  1.00  0.00    -0.246 OA
ATOM      5  O   UNL     1     -99.444  85.413 206.464  1.00  0.00    -0.423 OA
ATOM      6  C   UNL     1     -98.394  85.269 207.270  1.00  0.00     0.142 A 
ATOM      7  C   UNL     1     -97.939  86.354 208.026  1.00  0.00     0.098 A 
ATOM      8  C   UNL     1     -96.832  86.208 208.877  1.00  0.00     0.161 A 
ATOM      9  C   UNL     1     -96.178  84.971 208.970  1.00  0.00     0.158 A 
ATOM     10  C   UNL     1     -96.630  83.879 208.214  1.00  0.00     0.062 A 
ATOM     11  C   UNL     1     -97.735  84.024 207.365  1.00  0.00     0.022 A 
ENDROOT
BRANCH   9  12
ATOM     12  O   UNL     1     -95.080  84.834 209.817  1.00  0.00    -0.504 OA
ATOM     13  H   UNL     1     -94.986  84.040 210.440  1.00  0.00     0.293 HD
ENDBRANCH   9  12
BRANCH   8  14
ATOM     14  O   UNL     1     -96.377  87.288 209.631  1.00  0.00    -0.504 OA
ATOM     15  H   UNL     1     -95.394  87.410 209.840  1.00  0.00     0.293 HD
ENDBRANCH   8  14
TORSDOF 2
ENDMDL
