MODEL 1
REMARK VINA RESULT:    -4.162      0.000      0.000
REMARK INTER + INTRA:         -13.786
REMARK INTER:                 -10.488
REMARK INTRA:                  -3.299
REMARK UNBOUND:                -3.299
REMARK SMILES CCCCCCCCCCCCCCCCCCCCCCCCCCCC(=O)[O-]
REMARK SMILES IDX 15 1 16 2 17 3 18 4 19 5 20 6 21 7 22 8 23 9 24 10 25 11
REMARK SMILES IDX 26 12 27 13 28 14 29 15 30 16 14 17 13 18 12 19 11 20 10 21
REMARK SMILES IDX 9 22 8 23 7 24 6 25 5 26 4 27 3 28 2 29 1 30
REMARK H PARENT
REMARK Flexibility Score: inf
ROOT
ATOM      1  C   UNL     1      -4.149   3.732   2.898  1.00  0.00     0.000 C 
ENDROOT
BRANCH   1   2
ATOM      2  C   UNL     1      -3.502   4.022   1.536  1.00  0.00     0.000 C 
BRANCH   2   3
ATOM      3  C   UNL     1      -3.175   2.742   0.752  1.00  0.00     0.000 C 
BRANCH   3   4
ATOM      4  C   UNL     1      -3.503   2.860  -0.747  1.00  0.00     0.000 C 
BRANCH   4   5
ATOM      5  C   UNL     1      -4.202   4.192  -1.090  1.00  0.00     0.000 C 
BRANCH   5   6
ATOM      6  C   UNL     1      -5.508   4.028  -1.891  1.00  0.00     0.000 C 
BRANCH   6   7
ATOM      7  C   UNL     1      -6.405   2.851  -1.459  1.00  0.00     0.000 C 
BRANCH   7   8
ATOM      8  C   UNL     1      -7.057   3.014  -0.073  1.00  0.00     0.000 C 
BRANCH   8   9
ATOM      9  C   UNL     1      -6.887   1.770   0.815  1.00  0.00     0.000 C 
BRANCH   9  10
ATOM     10  C   UNL     1      -6.309   0.572   0.043  1.00  0.00     0.000 C 
BRANCH  10  11
ATOM     11  C   UNL     1      -5.229  -0.182   0.838  1.00  0.00     0.000 C 
BRANCH  11  12
ATOM     12  C   UNL     1      -5.284  -1.702   0.615  1.00  0.00     0.006 C 
BRANCH  12  13
ATOM     13  C   UNL     1      -6.718  -2.244   0.583  1.00  0.00     0.053 C 
BRANCH  13  14
ATOM     14  C   UNL     1      -7.286  -2.314   1.966  1.00  0.00     0.041 C 
ATOM     15  O   UNL     1      -8.311  -1.647   2.266  1.00  0.00    -0.550 OA
ATOM     16  O   UNL     1      -6.665  -3.093   2.934  1.00  0.00    -0.550 OA
ENDBRANCH  13  14
ENDBRANCH  12  13
ENDBRANCH  11  12
ENDBRANCH  10  11
ENDBRANCH   9  10
ENDBRANCH   8   9
ENDBRANCH   7   8
ENDBRANCH   6   7
ENDBRANCH   5   6
ENDBRANCH   4   5
ENDBRANCH   3   4
ENDBRANCH   2   3
ENDBRANCH   1   2
BRANCH   1  17
ATOM     17  C   UNL     1      -5.555   4.342   2.983  1.00  0.00     0.000 C 
BRANCH  17  18
ATOM     18  C   UNL     1      -6.414   3.596   4.016  1.00  0.00     0.000 C 
BRANCH  18  19
ATOM     19  C   UNL     1      -6.442   4.301   5.381  1.00  0.00     0.000 C 
BRANCH  19  20
ATOM     20  C   UNL     1      -7.134   3.461   6.467  1.00  0.00     0.000 C 
BRANCH  20  21
ATOM     21  C   UNL     1      -7.573   2.079   5.944  1.00  0.00     0.000 C 
BRANCH  21  22
ATOM     22  C   UNL     1      -7.933   1.078   7.064  1.00  0.00    -0.000 C 
BRANCH  22  23
ATOM     23  C   UNL     1      -6.820   0.921   8.114  1.00  0.00    -0.000 C 
BRANCH  23  24
ATOM     24  C   UNL     1      -6.403  -0.554   8.312  1.00  0.00    -0.000 C 
BRANCH  24  25
ATOM     25  C   UNL     1      -4.922  -0.703   8.703  1.00  0.00    -0.000 C 
BRANCH  25  26
ATOM     26  C   UNL     1      -4.378  -2.136   8.528  1.00  0.00    -0.000 C 
BRANCH  26  27
ATOM     27  C   UNL     1      -4.178  -2.520   7.053  1.00  0.00    -0.000 C 
BRANCH  27  28
ATOM     28  C   UNL     1      -2.684  -2.664   6.721  1.00  0.00    -0.000 C 
BRANCH  28  29
ATOM     29  C   UNL     1      -2.389  -3.901   5.858  1.00  0.00    -0.003 C 
ATOM     30  C   UNL     1      -3.134  -3.883   4.524  1.00  0.00     0.004 C 
ENDBRANCH  28  29
ENDBRANCH  27  28
ENDBRANCH  26  27
ENDBRANCH  25  26
ENDBRANCH  24  25
ENDBRANCH  23  24
ENDBRANCH  22  23
ENDBRANCH  21  22
ENDBRANCH  20  21
ENDBRANCH  19  20
ENDBRANCH  18  19
ENDBRANCH  17  18
ENDBRANCH   1  17
TORSDOF 26
ENDMDL
MODEL 2
REMARK VINA RESULT:    -4.046      4.467      8.350
REMARK INTER + INTRA:         -13.494
REMARK INTER:                  -9.482
REMARK INTRA:                  -4.012
REMARK UNBOUND:                -3.299
REMARK SMILES CCCCCCCCCCCCCCCCCCCCCCCCCCCC(=O)[O-]
REMARK SMILES IDX 15 1 16 2 17 3 18 4 19 5 20 6 21 7 22 8 23 9 24 10 25 11
REMARK SMILES IDX 26 12 27 13 28 14 29 15 30 16 14 17 13 18 12 19 11 20 10 21
REMARK SMILES IDX 9 22 8 23 7 24 6 25 5 26 4 27 3 28 2 29 1 30
REMARK H PARENT
REMARK Flexibility Score: inf
ROOT
ATOM      1  C   UNL     1      -6.586  -2.103   0.844  1.00  0.00     0.000 C 
ENDROOT
BRANCH   1   2
ATOM      2  C   UNL     1      -5.266  -1.466   0.386  1.00  0.00     0.000 C 
BRANCH   2   3
ATOM      3  C   UNL     1      -5.252   0.060   0.566  1.00  0.00     0.000 C 
BRANCH   3   4
ATOM      4  C   UNL     1      -6.468   0.578   1.356  1.00  0.00     0.000 C 
BRANCH   4   5
ATOM      5  C   UNL     1      -7.366   1.502   0.508  1.00  0.00     0.000 C 
BRANCH   5   6
ATOM      6  C   UNL     1      -6.732   1.945  -0.825  1.00  0.00     0.000 C 
BRANCH   6   7
ATOM      7  C   UNL     1      -6.428   3.451  -0.944  1.00  0.00     0.000 C 
BRANCH   7   8
ATOM      8  C   UNL     1      -5.278   3.802  -1.906  1.00  0.00     0.000 C 
BRANCH   8   9
ATOM      9  C   UNL     1      -3.974   4.155  -1.170  1.00  0.00     0.000 C 
BRANCH   9  10
ATOM     10  C   UNL     1      -3.205   2.908  -0.705  1.00  0.00     0.000 C 
BRANCH  10  11
ATOM     11  C   UNL     1      -3.172   2.766   0.826  1.00  0.00     0.000 C 
BRANCH  11  12
ATOM     12  C   UNL     1      -3.663   4.030   1.549  1.00  0.00     0.006 C 
BRANCH  12  13
ATOM     13  C   UNL     1      -4.846   3.753   2.487  1.00  0.00     0.053 C 
BRANCH  13  14
ATOM     14  C   UNL     1      -4.984   4.849   3.498  1.00  0.00     0.041 C 
ATOM     15  O   UNL     1      -5.864   5.738   3.353  1.00  0.00    -0.550 OA
ATOM     16  O   UNL     1      -4.120   4.906   4.584  1.00  0.00    -0.550 OA
ENDBRANCH  13  14
ENDBRANCH  12  13
ENDBRANCH  11  12
ENDBRANCH  10  11
ENDBRANCH   9  10
ENDBRANCH   8   9
ENDBRANCH   7   8
ENDBRANCH   6   7
ENDBRANCH   5   6
ENDBRANCH   4   5
ENDBRANCH   3   4
ENDBRANCH   2   3
ENDBRANCH   1   2
BRANCH   1  17
ATOM     17  C   UNL     1      -7.562  -2.255  -0.330  1.00  0.00     0.000 C 
BRANCH  17  18
ATOM     18  C   UNL     1      -8.768  -3.121   0.069  1.00  0.00     0.000 C 
BRANCH  18  19
ATOM     19  C   UNL     1      -8.371  -4.314   0.952  1.00  0.00     0.000 C 
BRANCH  19  20
ATOM     20  C   UNL     1      -9.206  -5.572   0.657  1.00  0.00     0.000 C 
BRANCH  20  21
ATOM     21  C   UNL     1      -8.372  -6.681  -0.014  1.00  0.00     0.000 C 
BRANCH  21  22
ATOM     22  C   UNL     1      -8.873  -7.066  -1.424  1.00  0.00    -0.000 C 
BRANCH  22  23
ATOM     23  C   UNL     1      -9.972  -6.127  -1.951  1.00  0.00    -0.000 C 
BRANCH  23  24
ATOM     24  C   UNL     1      -9.484  -5.254  -3.129  1.00  0.00    -0.000 C 
BRANCH  24  25
ATOM     25  C   UNL     1      -7.998  -5.484  -3.461  1.00  0.00    -0.000 C 
BRANCH  25  26
ATOM     26  C   UNL     1      -7.113  -4.245  -3.220  1.00  0.00    -0.000 C 
BRANCH  26  27
ATOM     27  C   UNL     1      -5.745  -4.599  -2.616  1.00  0.00    -0.000 C 
BRANCH  27  28
ATOM     28  C   UNL     1      -5.559  -6.122  -2.529  1.00  0.00    -0.000 C 
BRANCH  28  29
ATOM     29  C   UNL     1      -4.560  -6.654  -3.568  1.00  0.00    -0.003 C 
ATOM     30  C   UNL     1      -3.745  -7.840  -3.051  1.00  0.00     0.004 C 
ENDBRANCH  28  29
ENDBRANCH  27  28
ENDBRANCH  26  27
ENDBRANCH  25  26
ENDBRANCH  24  25
ENDBRANCH  23  24
ENDBRANCH  22  23
ENDBRANCH  21  22
ENDBRANCH  20  21
ENDBRANCH  19  20
ENDBRANCH  18  19
ENDBRANCH  17  18
ENDBRANCH   1  17
TORSDOF 26
ENDMDL
MODEL 3
REMARK VINA RESULT:    -4.001      5.087      8.780
REMARK INTER + INTRA:         -13.382
REMARK INTER:                  -8.858
REMARK INTRA:                  -4.525
REMARK UNBOUND:                -3.299
REMARK SMILES CCCCCCCCCCCCCCCCCCCCCCCCCCCC(=O)[O-]
REMARK SMILES IDX 15 1 16 2 17 3 18 4 19 5 20 6 21 7 22 8 23 9 24 10 25 11
REMARK SMILES IDX 26 12 27 13 28 14 29 15 30 16 14 17 13 18 12 19 11 20 10 21
REMARK SMILES IDX 9 22 8 23 7 24 6 25 5 26 4 27 3 28 2 29 1 30
REMARK H PARENT
REMARK Flexibility Score: inf
ROOT
ATOM      1  C   UNL     1      -7.890   4.155  -4.267  1.00  0.00     0.000 C 
ENDROOT
BRANCH   1   2
ATOM      2  C   UNL     1      -7.984   3.883  -5.775  1.00  0.00     0.000 C 
BRANCH   2   3
ATOM      3  C   UNL     1      -6.755   4.392  -6.545  1.00  0.00     0.000 C 
BRANCH   3   4
ATOM      4  C   UNL     1      -6.519   3.631  -7.862  1.00  0.00     0.000 C 
BRANCH   4   5
ATOM      5  C   UNL     1      -7.122   2.211  -7.834  1.00  0.00     0.000 C 
BRANCH   5   6
ATOM      6  C   UNL     1      -6.259   1.148  -8.543  1.00  0.00     0.000 C 
BRANCH   6   7
ATOM      7  C   UNL     1      -4.750   1.212  -8.237  1.00  0.00     0.000 C 
BRANCH   7   8
ATOM      8  C   UNL     1      -3.854   1.463  -9.465  1.00  0.00     0.000 C 
BRANCH   8   9
ATOM      9  C   UNL     1      -3.070   2.782  -9.369  1.00  0.00     0.000 C 
BRANCH   9  10
ATOM     10  C   UNL     1      -2.981   3.310  -7.927  1.00  0.00     0.000 C 
BRANCH  10  11
ATOM     11  C   UNL     1      -2.803   4.837  -7.863  1.00  0.00     0.000 C 
BRANCH  11  12
ATOM     12  C   UNL     1      -3.209   5.423  -6.502  1.00  0.00     0.006 C 
BRANCH  12  13
ATOM     13  C   UNL     1      -3.252   4.366  -5.391  1.00  0.00     0.053 C 
BRANCH  13  14
ATOM     14  C   UNL     1      -2.255   4.685  -4.321  1.00  0.00     0.041 C 
ATOM     15  O   UNL     1      -1.049   4.353  -4.457  1.00  0.00    -0.550 OA
ATOM     16  O   UNL     1      -2.665   5.323  -3.156  1.00  0.00    -0.550 OA
ENDBRANCH  13  14
ENDBRANCH  12  13
ENDBRANCH  11  12
ENDBRANCH  10  11
ENDBRANCH   9  10
ENDBRANCH   8   9
ENDBRANCH   7   8
ENDBRANCH   6   7
ENDBRANCH   5   6
ENDBRANCH   4   5
ENDBRANCH   3   4
ENDBRANCH   2   3
ENDBRANCH   1   2
BRANCH   1  17
ATOM     17  C   UNL     1      -6.598   4.906  -3.920  1.00  0.00     0.000 C 
BRANCH  17  18
ATOM     18  C   UNL     1      -5.901   4.266  -2.709  1.00  0.00     0.000 C 
BRANCH  18  19
ATOM     19  C   UNL     1      -6.546   4.669  -1.374  1.00  0.00     0.000 C 
BRANCH  19  20
ATOM     20  C   UNL     1      -7.205   3.482  -0.653  1.00  0.00     0.000 C 
BRANCH  20  21
ATOM     21  C   UNL     1      -6.509   2.145  -0.976  1.00  0.00     0.000 C 
BRANCH  21  22
ATOM     22  C   UNL     1      -6.103   1.338   0.277  1.00  0.00    -0.000 C 
BRANCH  22  23
ATOM     23  C   UNL     1      -4.594   1.050   0.347  1.00  0.00    -0.000 C 
BRANCH  23  24
ATOM     24  C   UNL     1      -3.744   2.260  -0.102  1.00  0.00    -0.000 C 
BRANCH  24  25
ATOM     25  C   UNL     1      -3.097   3.002   1.082  1.00  0.00    -0.000 C 
BRANCH  25  26
ATOM     26  C   UNL     1      -3.532   4.477   1.198  1.00  0.00    -0.000 C 
BRANCH  26  27
ATOM     27  C   UNL     1      -4.858   4.649   1.955  1.00  0.00    -0.000 C 
BRANCH  27  28
ATOM     28  C   UNL     1      -4.888   3.775   3.219  1.00  0.00    -0.000 C 
BRANCH  28  29
ATOM     29  C   UNL     1      -6.264   3.137   3.462  1.00  0.00    -0.003 C 
ATOM     30  C   UNL     1      -7.417   4.014   2.975  1.00  0.00     0.004 C 
ENDBRANCH  28  29
ENDBRANCH  27  28
ENDBRANCH  26  27
ENDBRANCH  25  26
ENDBRANCH  24  25
ENDBRANCH  23  24
ENDBRANCH  22  23
ENDBRANCH  21  22
ENDBRANCH  20  21
ENDBRANCH  19  20
ENDBRANCH  18  19
ENDBRANCH  17  18
ENDBRANCH   1  17
TORSDOF 26
ENDMDL
MODEL 4
REMARK VINA RESULT:    -3.975      2.911      7.456
REMARK INTER + INTRA:         -13.315
REMARK INTER:                  -8.634
REMARK INTRA:                  -4.681
REMARK UNBOUND:                -3.299
REMARK SMILES CCCCCCCCCCCCCCCCCCCCCCCCCCCC(=O)[O-]
REMARK SMILES IDX 15 1 16 2 17 3 18 4 19 5 20 6 21 7 22 8 23 9 24 10 25 11
REMARK SMILES IDX 26 12 27 13 28 14 29 15 30 16 14 17 13 18 12 19 11 20 10 21
REMARK SMILES IDX 9 22 8 23 7 24 6 25 5 26 4 27 3 28 2 29 1 30
REMARK H PARENT
REMARK Flexibility Score: inf
ROOT
ATOM      1  C   UNL     1      -5.505  -1.259   1.280  1.00  0.00     0.000 C 
ENDROOT
BRANCH   1   2
ATOM      2  C   UNL     1      -5.691  -1.979  -0.064  1.00  0.00     0.000 C 
BRANCH   2   3
ATOM      3  C   UNL     1      -6.998  -2.784  -0.128  1.00  0.00     0.000 C 
BRANCH   3   4
ATOM      4  C   UNL     1      -8.135  -2.022  -0.832  1.00  0.00     0.000 C 
BRANCH   4   5
ATOM      5  C   UNL     1      -9.157  -1.442   0.168  1.00  0.00     0.000 C 
BRANCH   5   6
ATOM      6  C   UNL     1      -9.271  -2.238   1.483  1.00  0.00     0.000 C 
BRANCH   6   7
ATOM      7  C   UNL     1      -8.956  -1.442   2.765  1.00  0.00     0.000 C 
BRANCH   7   8
ATOM      8  C   UNL     1      -8.447  -2.294   3.943  1.00  0.00     0.000 C 
BRANCH   8   9
ATOM      9  C   UNL     1      -7.485  -3.409   3.498  1.00  0.00     0.000 C 
BRANCH   9  10
ATOM     10  C   UNL     1      -6.359  -3.654   4.515  1.00  0.00     0.000 C 
BRANCH  10  11
ATOM     11  C   UNL     1      -5.850  -5.106   4.501  1.00  0.00     0.000 C 
BRANCH  11  12
ATOM     12  C   UNL     1      -4.322  -5.199   4.634  1.00  0.00     0.006 C 
BRANCH  12  13
ATOM     13  C   UNL     1      -3.626  -3.847   4.426  1.00  0.00     0.053 C 
BRANCH  13  14
ATOM     14  C   UNL     1      -2.553  -3.644   5.449  1.00  0.00     0.041 C 
ATOM     15  O   UNL     1      -1.621  -4.482   5.566  1.00  0.00    -0.550 OA
ATOM     16  O   UNL     1      -2.599  -2.543   6.296  1.00  0.00    -0.550 OA
ENDBRANCH  13  14
ENDBRANCH  12  13
ENDBRANCH  11  12
ENDBRANCH  10  11
ENDBRANCH   9  10
ENDBRANCH   8   9
ENDBRANCH   7   8
ENDBRANCH   6   7
ENDBRANCH   5   6
ENDBRANCH   4   5
ENDBRANCH   3   4
ENDBRANCH   2   3
ENDBRANCH   1   2
BRANCH   1  17
ATOM     17  C   UNL     1      -6.041   0.177   1.216  1.00  0.00     0.000 C 
BRANCH  17  18
ATOM     18  C   UNL     1      -5.479   0.918  -0.008  1.00  0.00     0.000 C 
BRANCH  18  19
ATOM     19  C   UNL     1      -6.515   1.840  -0.668  1.00  0.00     0.000 C 
BRANCH  19  20
ATOM     20  C   UNL     1      -5.874   3.068  -1.335  1.00  0.00     0.000 C 
BRANCH  20  21
ATOM     21  C   UNL     1      -4.433   3.311  -0.847  1.00  0.00     0.000 C 
BRANCH  21  22
ATOM     22  C   UNL     1      -4.166   4.765  -0.399  1.00  0.00    -0.000 C 
BRANCH  22  23
ATOM     23  C   UNL     1      -3.469   4.857   0.969  1.00  0.00    -0.000 C 
BRANCH  23  24
ATOM     24  C   UNL     1      -3.644   3.569   1.805  1.00  0.00    -0.000 C 
BRANCH  24  25
ATOM     25  C   UNL     1      -4.463   3.801   3.087  1.00  0.00    -0.000 C 
BRANCH  25  26
ATOM     26  C   UNL     1      -5.885   3.208   3.028  1.00  0.00    -0.000 C 
BRANCH  26  27
ATOM     27  C   UNL     1      -6.980   4.286   3.027  1.00  0.00    -0.000 C 
BRANCH  27  28
ATOM     28  C   UNL     1      -7.260   4.784   1.600  1.00  0.00    -0.000 C 
BRANCH  28  29
ATOM     29  C   UNL     1      -7.084   6.304   1.461  1.00  0.00    -0.003 C 
ATOM     30  C   UNL     1      -6.277   6.913   2.607  1.00  0.00     0.004 C 
ENDBRANCH  28  29
ENDBRANCH  27  28
ENDBRANCH  26  27
ENDBRANCH  25  26
ENDBRANCH  24  25
ENDBRANCH  23  24
ENDBRANCH  22  23
ENDBRANCH  21  22
ENDBRANCH  20  21
ENDBRANCH  19  20
ENDBRANCH  18  19
ENDBRANCH  17  18
ENDBRANCH   1  17
TORSDOF 26
ENDMDL
MODEL 5
REMARK VINA RESULT:    -3.948      3.068      5.721
REMARK INTER + INTRA:         -13.249
REMARK INTER:                  -9.297
REMARK INTRA:                  -3.951
REMARK UNBOUND:                -3.299
REMARK SMILES CCCCCCCCCCCCCCCCCCCCCCCCCCCC(=O)[O-]
REMARK SMILES IDX 15 1 16 2 17 3 18 4 19 5 20 6 21 7 22 8 23 9 24 10 25 11
REMARK SMILES IDX 26 12 27 13 28 14 29 15 30 16 14 17 13 18 12 19 11 20 10 21
REMARK SMILES IDX 9 22 8 23 7 24 6 25 5 26 4 27 3 28 2 29 1 30
REMARK H PARENT
REMARK Flexibility Score: inf
ROOT
ATOM      1  C   UNL     1      -6.108   1.254   1.528  1.00  0.00     0.000 C 
ENDROOT
BRANCH   1   2
ATOM      2  C   UNL     1      -7.286   1.791   0.701  1.00  0.00     0.000 C 
BRANCH   2   3
ATOM      3  C   UNL     1      -7.053   1.662  -0.812  1.00  0.00     0.000 C 
BRANCH   3   4
ATOM      4  C   UNL     1      -7.264   2.988  -1.564  1.00  0.00     0.000 C 
BRANCH   4   5
ATOM      5  C   UNL     1      -6.175   4.029  -1.231  1.00  0.00     0.000 C 
BRANCH   5   6
ATOM      6  C   UNL     1      -4.810   3.741  -1.886  1.00  0.00     0.000 C 
BRANCH   6   7
ATOM      7  C   UNL     1      -3.646   3.494  -0.906  1.00  0.00     0.000 C 
BRANCH   7   8
ATOM      8  C   UNL     1      -3.736   4.285   0.413  1.00  0.00     0.000 C 
BRANCH   8   9
ATOM      9  C   UNL     1      -3.223   3.485   1.622  1.00  0.00     0.000 C 
BRANCH   9  10
ATOM     10  C   UNL     1      -4.072   3.715   2.883  1.00  0.00     0.000 C 
BRANCH  10  11
ATOM     11  C   UNL     1      -5.227   4.705   2.650  1.00  0.00     0.000 C 
BRANCH  11  12
ATOM     12  C   UNL     1      -5.440   5.656   3.838  1.00  0.00     0.006 C 
BRANCH  12  13
ATOM     13  C   UNL     1      -4.596   5.274   5.060  1.00  0.00     0.053 C 
BRANCH  13  14
ATOM     14  C   UNL     1      -5.477   4.927   6.221  1.00  0.00     0.041 C 
ATOM     15  O   UNL     1      -6.724   5.074   6.136  1.00  0.00    -0.550 OA
ATOM     16  O   UNL     1      -4.916   4.473   7.408  1.00  0.00    -0.550 OA
ENDBRANCH  13  14
ENDBRANCH  12  13
ENDBRANCH  11  12
ENDBRANCH  10  11
ENDBRANCH   9  10
ENDBRANCH   8   9
ENDBRANCH   7   8
ENDBRANCH   6   7
ENDBRANCH   5   6
ENDBRANCH   4   5
ENDBRANCH   3   4
ENDBRANCH   2   3
ENDBRANCH   1   2
BRANCH   1  17
ATOM     17  C   UNL     1      -5.208   0.344   0.682  1.00  0.00     0.000 C 
BRANCH  17  18
ATOM     18  C   UNL     1      -5.352  -1.124   1.116  1.00  0.00     0.000 C 
BRANCH  18  19
ATOM     19  C   UNL     1      -5.326  -2.096  -0.074  1.00  0.00     0.000 C 
BRANCH  19  20
ATOM     20  C   UNL     1      -6.697  -2.740  -0.342  1.00  0.00     0.000 C 
BRANCH  20  21
ATOM     21  C   UNL     1      -7.861  -1.770  -0.061  1.00  0.00     0.000 C 
BRANCH  21  22
ATOM     22  C   UNL     1      -8.769  -2.213   1.107  1.00  0.00    -0.000 C 
BRANCH  22  23
ATOM     23  C   UNL     1      -8.703  -1.266   2.317  1.00  0.00    -0.000 C 
BRANCH  23  24
ATOM     24  C   UNL     1      -8.380  -2.012   3.631  1.00  0.00    -0.000 C 
BRANCH  24  25
ATOM     25  C   UNL     1      -7.443  -3.214   3.414  1.00  0.00    -0.000 C 
BRANCH  25  26
ATOM     26  C   UNL     1      -6.800  -3.738   4.714  1.00  0.00    -0.000 C 
BRANCH  26  27
ATOM     27  C   UNL     1      -5.388  -4.302   4.495  1.00  0.00    -0.000 C 
BRANCH  27  28
ATOM     28  C   UNL     1      -4.419  -3.797   5.576  1.00  0.00    -0.000 C 
BRANCH  28  29
ATOM     29  C   UNL     1      -2.999  -3.571   5.036  1.00  0.00    -0.003 C 
ATOM     30  C   UNL     1      -2.321  -4.868   4.595  1.00  0.00     0.004 C 
ENDBRANCH  28  29
ENDBRANCH  27  28
ENDBRANCH  26  27
ENDBRANCH  25  26
ENDBRANCH  24  25
ENDBRANCH  23  24
ENDBRANCH  22  23
ENDBRANCH  21  22
ENDBRANCH  20  21
ENDBRANCH  19  20
ENDBRANCH  18  19
ENDBRANCH  17  18
ENDBRANCH   1  17
TORSDOF 26
ENDMDL
MODEL 6
REMARK VINA RESULT:    -3.881      2.413      5.486
REMARK INTER + INTRA:         -13.079
REMARK INTER:                  -9.583
REMARK INTRA:                  -3.496
REMARK UNBOUND:                -3.299
REMARK SMILES CCCCCCCCCCCCCCCCCCCCCCCCCCCC(=O)[O-]
REMARK SMILES IDX 15 1 16 2 17 3 18 4 19 5 20 6 21 7 22 8 23 9 24 10 25 11
REMARK SMILES IDX 26 12 27 13 28 14 29 15 30 16 14 17 13 18 12 19 11 20 10 21
REMARK SMILES IDX 9 22 8 23 7 24 6 25 5 26 4 27 3 28 2 29 1 30
REMARK H PARENT
REMARK Flexibility Score: inf
ROOT
ATOM      1  C   UNL     1      -5.136  -0.059   0.701  1.00  0.00     0.000 C 
ENDROOT
BRANCH   1   2
ATOM      2  C   UNL     1      -6.249   0.851   0.160  1.00  0.00     0.000 C 
BRANCH   2   3
ATOM      3  C   UNL     1      -5.702   2.129  -0.494  1.00  0.00     0.000 C 
BRANCH   3   4
ATOM      4  C   UNL     1      -4.170   2.244  -0.392  1.00  0.00     0.000 C 
BRANCH   4   5
ATOM      5  C   UNL     1      -3.726   3.566   0.268  1.00  0.00     0.000 C 
BRANCH   5   6
ATOM      6  C   UNL     1      -3.365   3.433   1.761  1.00  0.00     0.000 C 
BRANCH   6   7
ATOM      7  C   UNL     1      -4.409   3.998   2.745  1.00  0.00     0.000 C 
BRANCH   7   8
ATOM      8  C   UNL     1      -5.598   3.061   3.029  1.00  0.00     0.000 C 
BRANCH   8   9
ATOM      9  C   UNL     1      -6.956   3.712   2.717  1.00  0.00     0.000 C 
BRANCH   9  10
ATOM     10  C   UNL     1      -8.132   2.743   2.916  1.00  0.00     0.000 C 
BRANCH  10  11
ATOM     11  C   UNL     1      -7.956   1.838   4.147  1.00  0.00     0.000 C 
BRANCH  11  12
ATOM     12  C   UNL     1      -8.405   2.518   5.450  1.00  0.00     0.006 C 
BRANCH  12  13
ATOM     13  C   UNL     1      -7.248   2.731   6.435  1.00  0.00     0.053 C 
BRANCH  13  14
ATOM     14  C   UNL     1      -6.864   4.177   6.492  1.00  0.00     0.041 C 
ATOM     15  O   UNL     1      -5.671   4.508   6.720  1.00  0.00    -0.550 OA
ATOM     16  O   UNL     1      -7.831   5.160   6.326  1.00  0.00    -0.550 OA
ENDBRANCH  13  14
ENDBRANCH  12  13
ENDBRANCH  11  12
ENDBRANCH  10  11
ENDBRANCH   9  10
ENDBRANCH   8   9
ENDBRANCH   7   8
ENDBRANCH   6   7
ENDBRANCH   5   6
ENDBRANCH   4   5
ENDBRANCH   3   4
ENDBRANCH   2   3
ENDBRANCH   1   2
BRANCH   1  17
ATOM     17  C   UNL     1      -5.681  -1.449   1.055  1.00  0.00     0.000 C 
BRANCH  17  18
ATOM     18  C   UNL     1      -7.109  -1.350   1.616  1.00  0.00     0.000 C 
BRANCH  18  19
ATOM     19  C   UNL     1      -7.700  -2.723   1.972  1.00  0.00     0.000 C 
BRANCH  19  20
ATOM     20  C   UNL     1      -8.099  -2.827   3.454  1.00  0.00     0.000 C 
BRANCH  20  21
ATOM     21  C   UNL     1      -6.900  -3.172   4.358  1.00  0.00     0.000 C 
BRANCH  21  22
ATOM     22  C   UNL     1      -5.875  -4.117   3.695  1.00  0.00    -0.000 C 
BRANCH  22  23
ATOM     23  C   UNL     1      -4.742  -4.541   4.645  1.00  0.00    -0.000 C 
BRANCH  23  24
ATOM     24  C   UNL     1      -3.458  -3.707   4.437  1.00  0.00    -0.000 C 
BRANCH  24  25
ATOM     25  C   UNL     1      -2.328  -4.107   5.403  1.00  0.00    -0.000 C 
BRANCH  25  26
ATOM     26  C   UNL     1      -2.583  -3.678   6.862  1.00  0.00    -0.000 C 
BRANCH  26  27
ATOM     27  C   UNL     1      -3.260  -2.303   6.969  1.00  0.00    -0.000 C 
BRANCH  27  28
ATOM     28  C   UNL     1      -4.572  -2.396   7.764  1.00  0.00    -0.000 C 
BRANCH  28  29
ATOM     29  C   UNL     1      -4.545  -1.554   9.049  1.00  0.00    -0.003 C 
ATOM     30  C   UNL     1      -5.243  -0.204   8.886  1.00  0.00     0.004 C 
ENDBRANCH  28  29
ENDBRANCH  27  28
ENDBRANCH  26  27
ENDBRANCH  25  26
ENDBRANCH  24  25
ENDBRANCH  23  24
ENDBRANCH  22  23
ENDBRANCH  21  22
ENDBRANCH  20  21
ENDBRANCH  19  20
ENDBRANCH  18  19
ENDBRANCH  17  18
ENDBRANCH   1  17
TORSDOF 26
ENDMDL
MODEL 7
REMARK VINA RESULT:    -3.870      2.988      5.261
REMARK INTER + INTRA:         -13.050
REMARK INTER:                  -8.902
REMARK INTRA:                  -4.147
REMARK UNBOUND:                -3.299
REMARK SMILES CCCCCCCCCCCCCCCCCCCCCCCCCCCC(=O)[O-]
REMARK SMILES IDX 15 1 16 2 17 3 18 4 19 5 20 6 21 7 22 8 23 9 24 10 25 11
REMARK SMILES IDX 26 12 27 13 28 14 29 15 30 16 14 17 13 18 12 19 11 20 10 21
REMARK SMILES IDX 9 22 8 23 7 24 6 25 5 26 4 27 3 28 2 29 1 30
REMARK H PARENT
REMARK Flexibility Score: inf
ROOT
ATOM      1  C   UNL     1      -5.236  -1.326   0.779  1.00  0.00     0.000 C 
ENDROOT
BRANCH   1   2
ATOM      2  C   UNL     1      -5.266   0.202   0.632  1.00  0.00     0.000 C 
BRANCH   2   3
ATOM      3  C   UNL     1      -6.549   0.706  -0.046  1.00  0.00     0.000 C 
BRANCH   3   4
ATOM      4  C   UNL     1      -7.303   1.746   0.802  1.00  0.00     0.000 C 
BRANCH   4   5
ATOM      5  C   UNL     1      -7.136   1.499   2.316  1.00  0.00     0.000 C 
BRANCH   5   6
ATOM      6  C   UNL     1      -6.819   2.769   3.129  1.00  0.00     0.000 C 
BRANCH   6   7
ATOM      7  C   UNL     1      -6.761   4.077   2.314  1.00  0.00     0.000 C 
BRANCH   7   8
ATOM      8  C   UNL     1      -5.370   4.736   2.253  1.00  0.00     0.000 C 
BRANCH   8   9
ATOM      9  C   UNL     1      -4.240   3.778   2.664  1.00  0.00     0.000 C 
BRANCH   9  10
ATOM     10  C   UNL     1      -3.517   3.167   1.452  1.00  0.00     0.000 C 
BRANCH  10  11
ATOM     11  C   UNL     1      -3.571   4.072   0.209  1.00  0.00     0.000 C 
BRANCH  11  12
ATOM     12  C   UNL     1      -4.108   3.341  -1.032  1.00  0.00     0.006 C 
BRANCH  12  13
ATOM     13  C   UNL     1      -5.395   3.971  -1.579  1.00  0.00     0.053 C 
BRANCH  13  14
ATOM     14  C   UNL     1      -5.113   4.747  -2.827  1.00  0.00     0.041 C 
ATOM     15  O   UNL     1      -4.071   5.448  -2.917  1.00  0.00    -0.550 OA
ATOM     16  O   UNL     1      -6.018   4.723  -3.881  1.00  0.00    -0.550 OA
ENDBRANCH  13  14
ENDBRANCH  12  13
ENDBRANCH  11  12
ENDBRANCH  10  11
ENDBRANCH   9  10
ENDBRANCH   8   9
ENDBRANCH   7   8
ENDBRANCH   6   7
ENDBRANCH   5   6
ENDBRANCH   4   5
ENDBRANCH   3   4
ENDBRANCH   2   3
ENDBRANCH   1   2
BRANCH   1  17
ATOM     17  C   UNL     1      -6.635  -1.927   0.589  1.00  0.00     0.000 C 
BRANCH  17  18
ATOM     18  C   UNL     1      -7.136  -2.571   1.892  1.00  0.00     0.000 C 
BRANCH  18  19
ATOM     19  C   UNL     1      -8.479  -1.988   2.360  1.00  0.00     0.000 C 
BRANCH  19  20
ATOM     20  C   UNL     1      -8.474  -1.618   3.853  1.00  0.00     0.000 C 
BRANCH  20  21
ATOM     21  C   UNL     1      -7.989  -2.780   4.741  1.00  0.00     0.000 C 
BRANCH  21  22
ATOM     22  C   UNL     1      -7.656  -2.358   6.188  1.00  0.00    -0.000 C 
BRANCH  22  23
ATOM     23  C   UNL     1      -6.509  -3.176   6.807  1.00  0.00    -0.000 C 
BRANCH  23  24
ATOM     24  C   UNL     1      -5.468  -2.284   7.519  1.00  0.00    -0.000 C 
BRANCH  24  25
ATOM     25  C   UNL     1      -4.639  -3.056   8.560  1.00  0.00    -0.000 C 
BRANCH  25  26
ATOM     26  C   UNL     1      -3.207  -3.385   8.090  1.00  0.00    -0.000 C 
BRANCH  26  27
ATOM     27  C   UNL     1      -2.813  -2.631   6.811  1.00  0.00    -0.000 C 
BRANCH  27  28
ATOM     28  C   UNL     1      -2.440  -3.610   5.687  1.00  0.00    -0.000 C 
BRANCH  28  29
ATOM     29  C   UNL     1      -3.512  -3.682   4.588  1.00  0.00    -0.003 C 
ATOM     30  C   UNL     1      -4.323  -4.977   4.635  1.00  0.00     0.004 C 
ENDBRANCH  28  29
ENDBRANCH  27  28
ENDBRANCH  26  27
ENDBRANCH  25  26
ENDBRANCH  24  25
ENDBRANCH  23  24
ENDBRANCH  22  23
ENDBRANCH  21  22
ENDBRANCH  20  21
ENDBRANCH  19  20
ENDBRANCH  18  19
ENDBRANCH  17  18
ENDBRANCH   1  17
TORSDOF 26
ENDMDL
MODEL 8
REMARK VINA RESULT:    -3.855      4.355      8.638
REMARK INTER + INTRA:         -13.013
REMARK INTER:                  -7.914
REMARK INTRA:                  -5.099
REMARK UNBOUND:                -3.299
REMARK SMILES CCCCCCCCCCCCCCCCCCCCCCCCCCCC(=O)[O-]
REMARK SMILES IDX 15 1 16 2 17 3 18 4 19 5 20 6 21 7 22 8 23 9 24 10 25 11
REMARK SMILES IDX 26 12 27 13 28 14 29 15 30 16 14 17 13 18 12 19 11 20 10 21
REMARK SMILES IDX 9 22 8 23 7 24 6 25 5 26 4 27 3 28 2 29 1 30
REMARK H PARENT
REMARK Flexibility Score: inf
ROOT
ATOM      1  C   UNL     1      -7.183  -2.970  -0.387  1.00  0.00     0.000 C 
ENDROOT
BRANCH   1   2
ATOM      2  C   UNL     1      -8.264  -2.441  -1.341  1.00  0.00     0.000 C 
BRANCH   2   3
ATOM      3  C   UNL     1      -9.265  -1.509  -0.641  1.00  0.00     0.000 C 
BRANCH   3   4
ATOM      4  C   UNL     1      -9.397  -0.143  -1.338  1.00  0.00     0.000 C 
BRANCH   4   5
ATOM      5  C   UNL     1      -9.739   0.989  -0.346  1.00  0.00     0.000 C 
BRANCH   5   6
ATOM      6  C   UNL     1      -9.960   0.510   1.102  1.00  0.00     0.000 C 
BRANCH   6   7
ATOM      7  C   UNL     1      -9.035   1.149   2.157  1.00  0.00     0.000 C 
BRANCH   7   8
ATOM      8  C   UNL     1      -8.971   2.687   2.110  1.00  0.00     0.000 C 
BRANCH   8   9
ATOM      9  C   UNL     1      -8.089   3.280   3.221  1.00  0.00     0.000 C 
BRANCH   9  10
ATOM     10  C   UNL     1      -6.606   2.908   3.056  1.00  0.00     0.000 C 
BRANCH  10  11
ATOM     11  C   UNL     1      -5.737   4.104   2.630  1.00  0.00     0.000 C 
BRANCH  11  12
ATOM     12  C   UNL     1      -4.404   4.168   3.391  1.00  0.00     0.006 C 
BRANCH  12  13
ATOM     13  C   UNL     1      -4.573   4.648   4.839  1.00  0.00     0.053 C 
BRANCH  13  14
ATOM     14  C   UNL     1      -4.673   6.140   4.892  1.00  0.00     0.041 C 
ATOM     15  O   UNL     1      -5.502   6.694   5.660  1.00  0.00    -0.550 OA
ATOM     16  O   UNL     1      -3.871   6.921   4.068  1.00  0.00    -0.550 OA
ENDBRANCH  13  14
ENDBRANCH  12  13
ENDBRANCH  11  12
ENDBRANCH  10  11
ENDBRANCH   9  10
ENDBRANCH   8   9
ENDBRANCH   7   8
ENDBRANCH   6   7
ENDBRANCH   5   6
ENDBRANCH   4   5
ENDBRANCH   3   4
ENDBRANCH   2   3
ENDBRANCH   1   2
BRANCH   1  17
ATOM     17  C   UNL     1      -6.930  -1.986   0.762  1.00  0.00     0.000 C 
BRANCH  17  18
ATOM     18  C   UNL     1      -5.423  -1.790   0.995  1.00  0.00     0.000 C 
BRANCH  18  19
ATOM     19  C   UNL     1      -4.977  -0.335   0.783  1.00  0.00     0.000 C 
BRANCH  19  20
ATOM     20  C   UNL     1      -6.097   0.550   0.212  1.00  0.00     0.000 C 
BRANCH  20  21
ATOM     21  C   UNL     1      -5.559   1.875  -0.361  1.00  0.00     0.000 C 
BRANCH  21  22
ATOM     22  C   UNL     1      -4.052   2.094  -0.107  1.00  0.00    -0.000 C 
BRANCH  22  23
ATOM     23  C   UNL     1      -3.455   3.230  -0.955  1.00  0.00    -0.000 C 
BRANCH  23  24
ATOM     24  C   UNL     1      -4.142   4.588  -0.685  1.00  0.00    -0.000 C 
BRANCH  24  25
ATOM     25  C   UNL     1      -4.286   5.443  -1.957  1.00  0.00    -0.000 C 
BRANCH  25  26
ATOM     26  C   UNL     1      -5.091   4.753  -3.076  1.00  0.00    -0.000 C 
BRANCH  26  27
ATOM     27  C   UNL     1      -6.584   5.120  -3.049  1.00  0.00    -0.000 C 
BRANCH  27  28
ATOM     28  C   UNL     1      -7.434   3.930  -2.576  1.00  0.00    -0.000 C 
BRANCH  28  29
ATOM     29  C   UNL     1      -8.102   4.186  -1.217  1.00  0.00    -0.003 C 
ATOM     30  C   UNL     1      -7.788   5.572  -0.655  1.00  0.00     0.004 C 
ENDBRANCH  28  29
ENDBRANCH  27  28
ENDBRANCH  26  27
ENDBRANCH  25  26
ENDBRANCH  24  25
ENDBRANCH  23  24
ENDBRANCH  22  23
ENDBRANCH  21  22
ENDBRANCH  20  21
ENDBRANCH  19  20
ENDBRANCH  18  19
ENDBRANCH  17  18
ENDBRANCH   1  17
TORSDOF 26
ENDMDL
MODEL 9
REMARK VINA RESULT:    -3.848      3.685      6.616
REMARK INTER + INTRA:         -12.996
REMARK INTER:                  -8.593
REMARK INTRA:                  -4.403
REMARK UNBOUND:                -3.299
REMARK SMILES CCCCCCCCCCCCCCCCCCCCCCCCCCCC(=O)[O-]
REMARK SMILES IDX 15 1 16 2 17 3 18 4 19 5 20 6 21 7 22 8 23 9 24 10 25 11
REMARK SMILES IDX 26 12 27 13 28 14 29 15 30 16 14 17 13 18 12 19 11 20 10 21
REMARK SMILES IDX 9 22 8 23 7 24 6 25 5 26 4 27 3 28 2 29 1 30
REMARK H PARENT
REMARK Flexibility Score: inf
ROOT
ATOM      1  C   UNL     1      -5.241   0.379   0.753  1.00  0.00     0.000 C 
ENDROOT
BRANCH   1   2
ATOM      2  C   UNL     1      -6.399   1.057   0.005  1.00  0.00     0.000 C 
BRANCH   2   3
ATOM      3  C   UNL     1      -5.953   2.313  -0.760  1.00  0.00     0.000 C 
BRANCH   3   4
ATOM      4  C   UNL     1      -4.440   2.571  -0.654  1.00  0.00     0.000 C 
BRANCH   4   5
ATOM      5  C   UNL     1      -4.096   4.073  -0.723  1.00  0.00     0.000 C 
BRANCH   5   6
ATOM      6  C   UNL     1      -3.739   4.699   0.639  1.00  0.00     0.000 C 
BRANCH   6   7
ATOM      7  C   UNL     1      -3.471   3.695   1.778  1.00  0.00     0.000 C 
BRANCH   7   8
ATOM      8  C   UNL     1      -4.358   3.882   3.023  1.00  0.00     0.000 C 
BRANCH   8   9
ATOM      9  C   UNL     1      -5.811   3.435   2.792  1.00  0.00     0.000 C 
BRANCH   9  10
ATOM     10  C   UNL     1      -6.815   4.587   2.962  1.00  0.00     0.000 C 
BRANCH  10  11
ATOM     11  C   UNL     1      -6.131   5.936   3.241  1.00  0.00     0.000 C 
BRANCH  11  12
ATOM     12  C   UNL     1      -6.406   6.457   4.660  1.00  0.00     0.006 C 
BRANCH  12  13
ATOM     13  C   UNL     1      -5.455   7.589   5.070  1.00  0.00     0.053 C 
BRANCH  13  14
ATOM     14  C   UNL     1      -4.056   7.076   5.213  1.00  0.00     0.041 C 
ATOM     15  O   UNL     1      -3.099   7.684   4.666  1.00  0.00    -0.550 OA
ATOM     16  O   UNL     1      -3.813   5.908   5.924  1.00  0.00    -0.550 OA
ENDBRANCH  13  14
ENDBRANCH  12  13
ENDBRANCH  11  12
ENDBRANCH  10  11
ENDBRANCH   9  10
ENDBRANCH   8   9
ENDBRANCH   7   8
ENDBRANCH   6   7
ENDBRANCH   5   6
ENDBRANCH   4   5
ENDBRANCH   3   4
ENDBRANCH   2   3
ENDBRANCH   1   2
BRANCH   1  17
ATOM     17  C   UNL     1      -5.208  -1.128   0.468  1.00  0.00     0.000 C 
BRANCH  17  18
ATOM     18  C   UNL     1      -6.226  -1.874   1.345  1.00  0.00     0.000 C 
BRANCH  18  19
ATOM     19  C   UNL     1      -7.410  -2.426   0.536  1.00  0.00     0.000 C 
BRANCH  19  20
ATOM     20  C   UNL     1      -8.751  -1.792   0.944  1.00  0.00     0.000 C 
BRANCH  20  21
ATOM     21  C   UNL     1      -8.774  -1.380   2.428  1.00  0.00     0.000 C 
BRANCH  21  22
ATOM     22  C   UNL     1      -9.283   0.058   2.665  1.00  0.00    -0.000 C 
BRANCH  22  23
ATOM     23  C   UNL     1      -8.221   0.980   3.288  1.00  0.00    -0.000 C 
BRANCH  23  24
ATOM     24  C   UNL     1      -8.768   1.775   4.495  1.00  0.00    -0.000 C 
BRANCH  24  25
ATOM     25  C   UNL     1      -7.722   1.954   5.610  1.00  0.00    -0.000 C 
BRANCH  25  26
ATOM     26  C   UNL     1      -7.805   3.319   6.322  1.00  0.00    -0.000 C 
BRANCH  26  27
ATOM     27  C   UNL     1      -6.495   3.703   7.029  1.00  0.00    -0.000 C 
BRANCH  27  28
ATOM     28  C   UNL     1      -6.546   3.329   8.519  1.00  0.00    -0.000 C 
BRANCH  28  29
ATOM     29  C   UNL     1      -5.203   2.794   9.039  1.00  0.00    -0.003 C 
ATOM     30  C   UNL     1      -4.035   3.735   8.739  1.00  0.00     0.004 C 
ENDBRANCH  28  29
ENDBRANCH  27  28
ENDBRANCH  26  27
ENDBRANCH  25  26
ENDBRANCH  24  25
ENDBRANCH  23  24
ENDBRANCH  22  23
ENDBRANCH  21  22
ENDBRANCH  20  21
ENDBRANCH  19  20
ENDBRANCH  18  19
ENDBRANCH  17  18
ENDBRANCH   1  17
TORSDOF 26
ENDMDL
