MODEL 1
REMARK VINA RESULT:    -7.626      0.000      0.000
REMARK INTER + INTRA:         -10.904
REMARK INTER:                 -10.078
REMARK INTRA:                  -0.826
REMARK UNBOUND:                -0.826
REMARK SMILES CC[C@@H](C=C[C@H](C)[C@@H]1CC[C@H]2[C@@H]3CC=C4C[C@@H](O)CC[C@@]4(C)[C@H]3CC[C@]21C)C(C)C
REMARK SMILES IDX 6 1 7 2 5 3 4 4 3 5 2 6 1 7 28 8 29 9 30 10 8 11 9 12 26 13
REMARK SMILES IDX 10 14 11 15 25 16 27 17 12 18 24 19 23 20 13 21 21 22 14 23
REMARK SMILES IDX 15 24 20 25 22 26 16 27 19 28 17 29 18 30
REMARK H PARENT 18 31
REMARK Flexibility Score: inf
ROOT
ATOM      1  C   UNL     1      49.342   9.596  19.523  1.00  0.00     0.012 C 
ATOM      2  C   UNL     1      50.516   8.923  18.792  1.00  0.00     0.012 C 
ENDROOT
BRANCH   1   3
ATOM      3  C   UNL     1      48.852  10.805  18.742  1.00  0.00    -0.028 C 
ATOM      4  C   UNL     1      49.651  11.838  18.409  1.00  0.00    -0.027 C 
BRANCH   4   5
ATOM      5  C   UNL     1      49.148  13.177  17.892  1.00  0.00     0.014 C 
BRANCH   5   6
ATOM      6  C   UNL     1      49.717  13.422  16.467  1.00  0.00     0.004 C 
ATOM      7  C   UNL     1      48.656  13.528  15.365  1.00  0.00     0.004 C 
ENDBRANCH   5   6
BRANCH   5   8
ATOM      8  C   UNL     1      49.335  14.375  18.886  1.00  0.00    -0.011 C 
ATOM      9  C   UNL     1      49.639  15.688  18.147  1.00  0.00     0.008 C 
ATOM     10  C   UNL     1      48.083  14.578  19.756  1.00  0.00     0.008 C 
ENDBRANCH   5   8
ENDBRANCH   4   5
ENDBRANCH   1   3
BRANCH   1  11
ATOM     11  C   UNL     1      48.249   8.546  19.927  1.00  0.00     0.002 C 
ATOM     12  C   UNL     1      46.797   9.003  19.825  1.00  0.00     0.005 C 
ATOM     13  C   UNL     1      48.360   7.906  21.341  1.00  0.00    -0.026 C 
ATOM     14  C   UNL     1      46.013   7.895  20.505  1.00  0.00     0.005 C 
ATOM     15  C   UNL     1      46.943   7.281  21.576  1.00  0.00    -0.001 C 
ATOM     16  C   UNL     1      49.494   6.835  21.374  1.00  0.00     0.007 C 
ATOM     17  C   UNL     1      48.629   8.978  22.430  1.00  0.00     0.012 C 
ATOM     18  C   UNL     1      46.940   5.728  21.515  1.00  0.00     0.000 C 
ATOM     19  C   UNL     1      49.323   5.860  22.544  1.00  0.00     0.005 C 
ATOM     20  C   UNL     1      47.953   5.110  22.517  1.00  0.00     0.003 C 
ATOM     21  C   UNL     1      45.551   5.156  21.846  1.00  0.00     0.031 C 
ATOM     22  C   UNL     1      48.054   3.542  22.338  1.00  0.00    -0.008 C 
ATOM     23  C   UNL     1      45.569   3.659  21.802  1.00  0.00    -0.027 C 
ATOM     24  C   UNL     1      46.670   2.918  22.065  1.00  0.00    -0.065 C 
ATOM     25  C   UNL     1      48.978   3.149  21.132  1.00  0.00     0.014 C 
ATOM     26  C   UNL     1      48.619   2.955  23.658  1.00  0.00     0.016 C 
ATOM     27  C   UNL     1      46.615   1.436  21.762  1.00  0.00     0.063 C 
ATOM     28  C   UNL     1      48.927   1.647  20.776  1.00  0.00     0.033 C 
ATOM     29  C   UNL     1      47.496   1.140  20.541  1.00  0.00     0.118 C 
BRANCH  29  30
ATOM     30  O   UNL     1      46.970   1.747  19.387  1.00  0.00    -0.393 OA
ATOM     31  H   UNL     1      47.096   2.726  19.493  1.00  0.00     0.210 HD
ENDBRANCH  29  30
ENDBRANCH   1  11
TORSDOF 6
ENDMDL
MODEL 2
REMARK VINA RESULT:    -7.537      3.088      5.910
REMARK INTER + INTRA:         -10.787
REMARK INTER:                  -9.701
REMARK INTRA:                  -1.086
REMARK UNBOUND:                -0.826
REMARK SMILES CC[C@@H](C=C[C@H](C)[C@@H]1CC[C@H]2[C@@H]3CC=C4C[C@@H](O)CC[C@@]4(C)[C@H]3CC[C@]21C)C(C)C
REMARK SMILES IDX 6 1 7 2 5 3 4 4 3 5 2 6 1 7 28 8 29 9 30 10 8 11 9 12 26 13
REMARK SMILES IDX 10 14 11 15 25 16 27 17 12 18 24 19 23 20 13 21 21 22 14 23
REMARK SMILES IDX 15 24 20 25 22 26 16 27 19 28 17 29 18 30
REMARK H PARENT 18 31
REMARK Flexibility Score: inf
ROOT
ATOM      1  C   UNL     1      48.755   5.617  22.640  1.00  0.00     0.012 C 
ATOM      2  C   UNL     1      49.848   6.060  23.626  1.00  0.00     0.012 C 
ENDROOT
BRANCH   1   3
ATOM      3  C   UNL     1      48.711   6.552  21.440  1.00  0.00    -0.028 C 
ATOM      4  C   UNL     1      49.696   7.424  21.153  1.00  0.00    -0.027 C 
BRANCH   4   5
ATOM      5  C   UNL     1      49.567   8.561  20.151  1.00  0.00     0.014 C 
BRANCH   5   6
ATOM      6  C   UNL     1      48.074   8.732  19.759  1.00  0.00     0.004 C 
ATOM      7  C   UNL     1      47.358   9.892  20.461  1.00  0.00     0.004 C 
ENDBRANCH   5   6
BRANCH   5   8
ATOM      8  C   UNL     1      50.557   8.481  18.938  1.00  0.00    -0.011 C 
ATOM      9  C   UNL     1      51.366   7.174  18.946  1.00  0.00     0.008 C 
ATOM     10  C   UNL     1      49.807   8.587  17.599  1.00  0.00     0.008 C 
ENDBRANCH   5   8
ENDBRANCH   4   5
ENDBRANCH   1   3
BRANCH   1  11
ATOM     11  C   UNL     1      48.868   4.086  22.317  1.00  0.00     0.002 C 
ATOM     12  C   UNL     1      49.349   3.720  20.917  1.00  0.00     0.005 C 
ATOM     13  C   UNL     1      47.598   3.214  22.537  1.00  0.00    -0.026 C 
ATOM     14  C   UNL     1      49.115   2.222  20.826  1.00  0.00     0.005 C 
ATOM     15  C   UNL     1      47.909   1.902  21.738  1.00  0.00    -0.001 C 
ATOM     16  C   UNL     1      47.371   2.944  24.056  1.00  0.00     0.007 C 
ATOM     17  C   UNL     1      46.336   3.887  21.936  1.00  0.00     0.012 C 
ATOM     18  C   UNL     1      48.193   0.679  22.654  1.00  0.00     0.000 C 
ATOM     19  C   UNL     1      46.466   1.728  24.289  1.00  0.00     0.005 C 
ATOM     20  C   UNL     1      47.026   0.419  23.646  1.00  0.00     0.003 C 
ATOM     21  C   UNL     1      48.397  -0.604  21.831  1.00  0.00     0.031 C 
ATOM     22  C   UNL     1      47.391  -0.726  24.674  1.00  0.00    -0.008 C 
ATOM     23  C   UNL     1      48.650  -1.776  22.728  1.00  0.00    -0.027 C 
ATOM     24  C   UNL     1      48.169  -1.869  23.989  1.00  0.00    -0.065 C 
ATOM     25  C   UNL     1      48.293  -0.197  25.844  1.00  0.00     0.014 C 
ATOM     26  C   UNL     1      46.061  -1.291  25.239  1.00  0.00     0.016 C 
ATOM     27  C   UNL     1      48.686  -2.990  24.864  1.00  0.00     0.063 C 
ATOM     28  C   UNL     1      48.862  -1.317  26.743  1.00  0.00     0.033 C 
ATOM     29  C   UNL     1      49.602  -2.402  25.945  1.00  0.00     0.118 C 
BRANCH  29  30
ATOM     30  O   UNL     1      50.761  -1.850  25.372  1.00  0.00    -0.393 OA
ATOM     31  H   UNL     1      51.074  -2.490  24.681  1.00  0.00     0.210 HD
ENDBRANCH  29  30
ENDBRANCH   1  11
TORSDOF 6
ENDMDL
MODEL 3
REMARK VINA RESULT:    -7.459      3.208      6.252
REMARK INTER + INTRA:         -10.684
REMARK INTER:                  -9.739
REMARK INTRA:                  -0.945
REMARK UNBOUND:                -0.826
REMARK SMILES CC[C@@H](C=C[C@H](C)[C@@H]1CC[C@H]2[C@@H]3CC=C4C[C@@H](O)CC[C@@]4(C)[C@H]3CC[C@]21C)C(C)C
REMARK SMILES IDX 6 1 7 2 5 3 4 4 3 5 2 6 1 7 28 8 29 9 30 10 8 11 9 12 26 13
REMARK SMILES IDX 10 14 11 15 25 16 27 17 12 18 24 19 23 20 13 21 21 22 14 23
REMARK SMILES IDX 15 24 20 25 22 26 16 27 19 28 17 29 18 30
REMARK H PARENT 18 31
REMARK Flexibility Score: inf
ROOT
ATOM      1  C   UNL     1      47.233   5.062  22.008  1.00  0.00     0.012 C 
ATOM      2  C   UNL     1      46.903   5.628  23.399  1.00  0.00     0.012 C 
ENDROOT
BRANCH   1   3
ATOM      3  C   UNL     1      47.524   6.191  21.030  1.00  0.00    -0.028 C 
ATOM      4  C   UNL     1      48.346   7.218  21.318  1.00  0.00    -0.027 C 
BRANCH   4   5
ATOM      5  C   UNL     1      48.437   8.496  20.499  1.00  0.00     0.014 C 
BRANCH   5   6
ATOM      6  C   UNL     1      47.005   8.990  20.158  1.00  0.00     0.004 C 
ATOM      7  C   UNL     1      46.574  10.263  20.896  1.00  0.00     0.004 C 
ENDBRANCH   5   6
BRANCH   5   8
ATOM      8  C   UNL     1      49.412   8.421  19.273  1.00  0.00    -0.011 C 
ATOM      9  C   UNL     1      49.683   9.811  18.673  1.00  0.00     0.008 C 
ATOM     10  C   UNL     1      50.756   7.784  19.667  1.00  0.00     0.008 C 
ENDBRANCH   5   8
ENDBRANCH   4   5
ENDBRANCH   1   3
BRANCH   1  11
ATOM     11  C   UNL     1      48.316   3.931  22.097  1.00  0.00     0.002 C 
ATOM     12  C   UNL     1      49.642   4.202  21.395  1.00  0.00     0.005 C 
ATOM     13  C   UNL     1      47.904   2.508  21.622  1.00  0.00    -0.026 C 
ATOM     14  C   UNL     1      50.363   2.867  21.439  1.00  0.00     0.005 C 
ATOM     15  C   UNL     1      49.274   1.770  21.435  1.00  0.00    -0.001 C 
ATOM     16  C   UNL     1      46.996   1.813  22.684  1.00  0.00     0.007 C 
ATOM     17  C   UNL     1      47.164   2.556  20.260  1.00  0.00     0.012 C 
ATOM     18  C   UNL     1      49.543   0.692  22.522  1.00  0.00     0.000 C 
ATOM     19  C   UNL     1      46.976   0.291  22.506  1.00  0.00     0.005 C 
ATOM     20  C   UNL     1      48.397  -0.353  22.593  1.00  0.00     0.003 C 
ATOM     21  C   UNL     1      50.850  -0.070  22.244  1.00  0.00     0.031 C 
ATOM     22  C   UNL     1      48.604  -1.351  23.802  1.00  0.00    -0.008 C 
ATOM     23  C   UNL     1      51.085  -1.118  23.288  1.00  0.00    -0.027 C 
ATOM     24  C   UNL     1      50.089  -1.736  23.963  1.00  0.00    -0.065 C 
ATOM     25  C   UNL     1      48.144  -0.725  25.164  1.00  0.00     0.014 C 
ATOM     26  C   UNL     1      47.783  -2.632  23.498  1.00  0.00     0.016 C 
ATOM     27  C   UNL     1      50.466  -2.601  25.147  1.00  0.00     0.063 C 
ATOM     28  C   UNL     1      48.535  -1.568  26.399  1.00  0.00     0.033 C 
ATOM     29  C   UNL     1      50.036  -1.898  26.441  1.00  0.00     0.118 C 
BRANCH  29  30
ATOM     30  O   UNL     1      50.768  -0.713  26.633  1.00  0.00    -0.393 OA
ATOM     31  H   UNL     1      51.018  -0.681  27.593  1.00  0.00     0.210 HD
ENDBRANCH  29  30
ENDBRANCH   1  11
TORSDOF 6
ENDMDL
MODEL 4
REMARK VINA RESULT:    -7.447      3.758      9.019
REMARK INTER + INTRA:         -10.667
REMARK INTER:                  -9.575
REMARK INTRA:                  -1.092
REMARK UNBOUND:                -0.826
REMARK SMILES CC[C@@H](C=C[C@H](C)[C@@H]1CC[C@H]2[C@@H]3CC=C4C[C@@H](O)CC[C@@]4(C)[C@H]3CC[C@]21C)C(C)C
REMARK SMILES IDX 6 1 7 2 5 3 4 4 3 5 2 6 1 7 28 8 29 9 30 10 8 11 9 12 26 13
REMARK SMILES IDX 10 14 11 15 25 16 27 17 12 18 24 19 23 20 13 21 21 22 14 23
REMARK SMILES IDX 15 24 20 25 22 26 16 27 19 28 17 29 18 30
REMARK H PARENT 18 31
REMARK Flexibility Score: inf
ROOT
ATOM      1  C   UNL     1      49.109   4.629  24.069  1.00  0.00     0.012 C 
ATOM      2  C   UNL     1      47.918   3.749  24.483  1.00  0.00     0.012 C 
ENDROOT
BRANCH   1   3
ATOM      3  C   UNL     1      50.256   3.766  23.563  1.00  0.00    -0.028 C 
ATOM      4  C   UNL     1      50.080   2.522  23.077  1.00  0.00    -0.027 C 
BRANCH   4   5
ATOM      5  C   UNL     1      51.208   1.530  22.836  1.00  0.00     0.014 C 
BRANCH   5   6
ATOM      6  C   UNL     1      51.967   1.923  21.539  1.00  0.00     0.004 C 
ATOM      7  C   UNL     1      51.073   2.447  20.409  1.00  0.00     0.004 C 
ENDBRANCH   5   6
BRANCH   5   8
ATOM      8  C   UNL     1      50.783   0.023  22.915  1.00  0.00    -0.011 C 
ATOM      9  C   UNL     1      49.348  -0.193  22.408  1.00  0.00     0.008 C 
ATOM     10  C   UNL     1      51.734  -0.868  22.097  1.00  0.00     0.008 C 
ENDBRANCH   5   8
ENDBRANCH   4   5
ENDBRANCH   1   3
BRANCH   1  11
ATOM     11  C   UNL     1      48.653   5.793  23.123  1.00  0.00     0.002 C 
ATOM     12  C   UNL     1      49.218   5.781  21.707  1.00  0.00     0.005 C 
ATOM     13  C   UNL     1      48.879   7.250  23.623  1.00  0.00    -0.026 C 
ATOM     14  C   UNL     1      48.812   7.128  21.135  1.00  0.00     0.005 C 
ATOM     15  C   UNL     1      48.734   8.113  22.323  1.00  0.00    -0.001 C 
ATOM     16  C   UNL     1      47.825   7.630  24.708  1.00  0.00     0.007 C 
ATOM     17  C   UNL     1      50.306   7.437  24.200  1.00  0.00     0.012 C 
ATOM     18  C   UNL     1      47.425   8.951  22.286  1.00  0.00     0.000 C 
ATOM     19  C   UNL     1      47.691   9.149  24.864  1.00  0.00     0.005 C 
ATOM     20  C   UNL     1      47.292   9.866  23.535  1.00  0.00     0.003 C 
ATOM     21  C   UNL     1      47.372   9.853  21.042  1.00  0.00     0.031 C 
ATOM     22  C   UNL     1      45.890  10.596  23.564  1.00  0.00    -0.008 C 
ATOM     23  C   UNL     1      46.115  10.668  21.031  1.00  0.00    -0.027 C 
ATOM     24  C   UNL     1      45.463  11.050  22.153  1.00  0.00    -0.065 C 
ATOM     25  C   UNL     1      44.754   9.659  24.106  1.00  0.00     0.014 C 
ATOM     26  C   UNL     1      46.031  11.845  24.473  1.00  0.00     0.016 C 
ATOM     27  C   UNL     1      44.090  11.668  21.999  1.00  0.00     0.063 C 
ATOM     28  C   UNL     1      43.334  10.247  23.941  1.00  0.00     0.033 C 
ATOM     29  C   UNL     1      43.032  10.674  22.495  1.00  0.00     0.118 C 
BRANCH  29  30
ATOM     30  O   UNL     1      42.992   9.535  21.672  1.00  0.00    -0.393 OA
ATOM     31  H   UNL     1      43.924   9.354  21.383  1.00  0.00     0.210 HD
ENDBRANCH  29  30
ENDBRANCH   1  11
TORSDOF 6
ENDMDL
MODEL 5
REMARK VINA RESULT:    -7.417      4.563      8.509
REMARK INTER + INTRA:         -10.628
REMARK INTER:                  -9.567
REMARK INTRA:                  -1.061
REMARK UNBOUND:                -0.826
REMARK SMILES CC[C@@H](C=C[C@H](C)[C@@H]1CC[C@H]2[C@@H]3CC=C4C[C@@H](O)CC[C@@]4(C)[C@H]3CC[C@]21C)C(C)C
REMARK SMILES IDX 6 1 7 2 5 3 4 4 3 5 2 6 1 7 28 8 29 9 30 10 8 11 9 12 26 13
REMARK SMILES IDX 10 14 11 15 25 16 27 17 12 18 24 19 23 20 13 21 21 22 14 23
REMARK SMILES IDX 15 24 20 25 22 26 16 27 19 28 17 29 18 30
REMARK H PARENT 18 31
REMARK Flexibility Score: inf
ROOT
ATOM      1  C   UNL     1      48.246   3.908  21.982  1.00  0.00     0.012 C 
ATOM      2  C   UNL     1      47.303   3.585  20.811  1.00  0.00     0.012 C 
ENDROOT
BRANCH   1   3
ATOM      3  C   UNL     1      49.600   3.249  21.771  1.00  0.00    -0.028 C 
ATOM      4  C   UNL     1      50.073   2.916  20.554  1.00  0.00    -0.027 C 
BRANCH   4   5
ATOM      5  C   UNL     1      51.270   2.007  20.321  1.00  0.00     0.014 C 
BRANCH   5   6
ATOM      6  C   UNL     1      51.875   1.594  21.691  1.00  0.00     0.004 C 
ATOM      7  C   UNL     1      51.515   0.175  22.146  1.00  0.00     0.004 C 
ENDBRANCH   5   6
BRANCH   5   8
ATOM      8  C   UNL     1      52.313   2.551  19.283  1.00  0.00    -0.011 C 
ATOM      9  C   UNL     1      51.927   3.945  18.763  1.00  0.00     0.008 C 
ATOM     10  C   UNL     1      53.722   2.626  19.896  1.00  0.00     0.008 C 
ENDBRANCH   5   8
ENDBRANCH   4   5
ENDBRANCH   1   3
BRANCH   1  11
ATOM     11  C   UNL     1      48.268   5.447  22.285  1.00  0.00     0.002 C 
ATOM     12  C   UNL     1      49.584   6.172  22.030  1.00  0.00     0.005 C 
ATOM     13  C   UNL     1      47.840   5.901  23.711  1.00  0.00    -0.026 C 
ATOM     14  C   UNL     1      49.374   7.546  22.640  1.00  0.00     0.005 C 
ATOM     15  C   UNL     1      48.377   7.369  23.808  1.00  0.00    -0.001 C 
ATOM     16  C   UNL     1      46.290   5.824  23.872  1.00  0.00     0.007 C 
ATOM     17  C   UNL     1      48.518   5.039  24.808  1.00  0.00     0.012 C 
ATOM     18  C   UNL     1      47.250   8.439  23.766  1.00  0.00     0.000 C 
ATOM     19  C   UNL     1      45.795   6.697  25.032  1.00  0.00     0.005 C 
ATOM     20  C   UNL     1      46.189   8.200  24.874  1.00  0.00     0.003 C 
ATOM     21  C   UNL     1      47.815   9.856  23.960  1.00  0.00     0.031 C 
ATOM     22  C   UNL     1      44.971   9.197  24.725  1.00  0.00    -0.008 C 
ATOM     23  C   UNL     1      46.715  10.873  23.937  1.00  0.00    -0.027 C 
ATOM     24  C   UNL     1      45.445  10.608  24.321  1.00  0.00    -0.065 C 
ATOM     25  C   UNL     1      43.957   8.723  23.626  1.00  0.00     0.014 C 
ATOM     26  C   UNL     1      44.263   9.281  26.104  1.00  0.00     0.016 C 
ATOM     27  C   UNL     1      44.386  11.650  24.032  1.00  0.00     0.063 C 
ATOM     28  C   UNL     1      42.875   9.773  23.285  1.00  0.00     0.033 C 
ATOM     29  C   UNL     1      43.471  11.139  22.911  1.00  0.00     0.118 C 
BRANCH  29  30
ATOM     30  O   UNL     1      44.179  11.024  21.702  1.00  0.00    -0.393 OA
ATOM     31  H   UNL     1      45.142  10.967  21.935  1.00  0.00     0.210 HD
ENDBRANCH  29  30
ENDBRANCH   1  11
TORSDOF 6
ENDMDL
MODEL 6
REMARK VINA RESULT:    -7.379      3.241      6.395
REMARK INTER + INTRA:         -10.578
REMARK INTER:                  -9.543
REMARK INTRA:                  -1.035
REMARK UNBOUND:                -0.826
REMARK SMILES CC[C@@H](C=C[C@H](C)[C@@H]1CC[C@H]2[C@@H]3CC=C4C[C@@H](O)CC[C@@]4(C)[C@H]3CC[C@]21C)C(C)C
REMARK SMILES IDX 6 1 7 2 5 3 4 4 3 5 2 6 1 7 28 8 29 9 30 10 8 11 9 12 26 13
REMARK SMILES IDX 10 14 11 15 25 16 27 17 12 18 24 19 23 20 13 21 21 22 14 23
REMARK SMILES IDX 15 24 20 25 22 26 16 27 19 28 17 29 18 30
REMARK H PARENT 18 31
REMARK Flexibility Score: inf
ROOT
ATOM      1  C   UNL     1      46.593   4.663  21.926  1.00  0.00     0.012 C 
ATOM      2  C   UNL     1      46.160   5.157  23.316  1.00  0.00     0.012 C 
ENDROOT
BRANCH   1   3
ATOM      3  C   UNL     1      46.764   5.837  20.975  1.00  0.00    -0.028 C 
ATOM      4  C   UNL     1      47.383   6.982  21.324  1.00  0.00    -0.027 C 
BRANCH   4   5
ATOM      5  C   UNL     1      47.322   8.269  20.517  1.00  0.00     0.014 C 
BRANCH   5   6
ATOM      6  C   UNL     1      48.692   8.504  19.823  1.00  0.00     0.004 C 
ATOM      7  C   UNL     1      49.875   7.786  20.484  1.00  0.00     0.004 C 
ENDBRANCH   5   6
BRANCH   5   8
ATOM      8  C   UNL     1      46.763   9.507  21.298  1.00  0.00    -0.011 C 
ATOM      9  C   UNL     1      47.341   9.592  22.721  1.00  0.00     0.008 C 
ATOM     10  C   UNL     1      47.077  10.820  20.561  1.00  0.00     0.008 C 
ENDBRANCH   5   8
ENDBRANCH   4   5
ENDBRANCH   1   3
BRANCH   1  11
ATOM     11  C   UNL     1      47.807   3.675  22.028  1.00  0.00     0.002 C 
ATOM     12  C   UNL     1      49.120   4.144  21.411  1.00  0.00     0.005 C 
ATOM     13  C   UNL     1      47.605   2.235  21.473  1.00  0.00    -0.026 C 
ATOM     14  C   UNL     1      50.003   2.910  21.438  1.00  0.00     0.005 C 
ATOM     15  C   UNL     1      49.065   1.686  21.330  1.00  0.00    -0.001 C 
ATOM     16  C   UNL     1      46.743   1.382  22.454  1.00  0.00     0.007 C 
ATOM     17  C   UNL     1      46.931   2.255  20.076  1.00  0.00     0.012 C 
ATOM     18  C   UNL     1      49.418   0.600  22.384  1.00  0.00     0.000 C 
ATOM     19  C   UNL     1      46.927  -0.121  22.212  1.00  0.00     0.005 C 
ATOM     20  C   UNL     1      48.413  -0.584  22.350  1.00  0.00     0.003 C 
ATOM     21  C   UNL     1      50.824   0.023  22.146  1.00  0.00     0.031 C 
ATOM     22  C   UNL     1      48.688  -1.605  23.525  1.00  0.00    -0.008 C 
ATOM     23  C   UNL     1      51.141  -1.036  23.158  1.00  0.00    -0.027 C 
ATOM     24  C   UNL     1      50.201  -1.807  23.751  1.00  0.00    -0.065 C 
ATOM     25  C   UNL     1      48.086  -1.107  24.886  1.00  0.00     0.014 C 
ATOM     26  C   UNL     1      48.054  -2.963  23.125  1.00  0.00     0.016 C 
ATOM     27  C   UNL     1      50.628  -2.673  24.917  1.00  0.00     0.063 C 
ATOM     28  C   UNL     1      48.522  -1.953  26.104  1.00  0.00     0.033 C 
ATOM     29  C   UNL     1      50.049  -2.092  26.214  1.00  0.00     0.118 C 
BRANCH  29  30
ATOM     30  O   UNL     1      50.613  -0.836  26.494  1.00  0.00    -0.393 OA
ATOM     31  H   UNL     1      49.929  -0.154  26.262  1.00  0.00     0.210 HD
ENDBRANCH  29  30
ENDBRANCH   1  11
TORSDOF 6
ENDMDL
MODEL 7
REMARK VINA RESULT:    -7.300      3.336      9.993
REMARK INTER + INTRA:         -10.473
REMARK INTER:                  -8.987
REMARK INTRA:                  -1.486
REMARK UNBOUND:                -0.826
REMARK SMILES CC[C@@H](C=C[C@H](C)[C@@H]1CC[C@H]2[C@@H]3CC=C4C[C@@H](O)CC[C@@]4(C)[C@H]3CC[C@]21C)C(C)C
REMARK SMILES IDX 6 1 7 2 5 3 4 4 3 5 2 6 1 7 28 8 29 9 30 10 8 11 9 12 26 13
REMARK SMILES IDX 10 14 11 15 25 16 27 17 12 18 24 19 23 20 13 21 21 22 14 23
REMARK SMILES IDX 15 24 20 25 22 26 16 27 19 28 17 29 18 30
REMARK H PARENT 18 31
REMARK Flexibility Score: inf
ROOT
ATOM      1  C   UNL     1      47.104   0.917  22.771  1.00  0.00     0.012 C 
ATOM      2  C   UNL     1      45.650   0.774  22.291  1.00  0.00     0.012 C 
ENDROOT
BRANCH   1   3
ATOM      3  C   UNL     1      47.847  -0.401  22.614  1.00  0.00    -0.028 C 
ATOM      4  C   UNL     1      48.637  -0.918  23.576  1.00  0.00    -0.027 C 
BRANCH   4   5
ATOM      5  C   UNL     1      49.612  -2.064  23.358  1.00  0.00     0.014 C 
BRANCH   5   6
ATOM      6  C   UNL     1      50.158  -2.541  24.731  1.00  0.00     0.004 C 
ATOM      7  C   UNL     1      49.982  -1.534  25.874  1.00  0.00     0.004 C 
ENDBRANCH   5   6
BRANCH   5   8
ATOM      8  C   UNL     1      50.713  -1.791  22.275  1.00  0.00    -0.011 C 
ATOM      9  C   UNL     1      51.496  -0.502  22.570  1.00  0.00     0.008 C 
ATOM     10  C   UNL     1      51.707  -2.961  22.183  1.00  0.00     0.008 C 
ENDBRANCH   5   8
ENDBRANCH   4   5
ENDBRANCH   1   3
BRANCH   1  11
ATOM     11  C   UNL     1      47.791   2.175  22.134  1.00  0.00     0.002 C 
ATOM     12  C   UNL     1      48.950   1.908  21.180  1.00  0.00     0.005 C 
ATOM     13  C   UNL     1      48.326   3.266  23.106  1.00  0.00    -0.026 C 
ATOM     14  C   UNL     1      49.553   3.281  20.937  1.00  0.00     0.005 C 
ATOM     15  C   UNL     1      49.294   4.114  22.213  1.00  0.00    -0.001 C 
ATOM     16  C   UNL     1      47.151   4.116  23.682  1.00  0.00     0.007 C 
ATOM     17  C   UNL     1      49.132   2.640  24.274  1.00  0.00     0.012 C 
ATOM     18  C   UNL     1      48.736   5.524  21.871  1.00  0.00     0.000 C 
ATOM     19  C   UNL     1      47.638   5.464  24.226  1.00  0.00     0.005 C 
ATOM     20  C   UNL     1      48.375   6.326  23.151  1.00  0.00     0.003 C 
ATOM     21  C   UNL     1      49.758   6.354  21.076  1.00  0.00     0.031 C 
ATOM     22  C   UNL     1      47.666   7.693  22.791  1.00  0.00    -0.008 C 
ATOM     23  C   UNL     1      49.213   7.716  20.772  1.00  0.00    -0.027 C 
ATOM     24  C   UNL     1      48.310   8.351  21.554  1.00  0.00    -0.065 C 
ATOM     25  C   UNL     1      46.144   7.495  22.463  1.00  0.00     0.014 C 
ATOM     26  C   UNL     1      47.830   8.641  24.008  1.00  0.00     0.016 C 
ATOM     27  C   UNL     1      47.671   9.614  21.017  1.00  0.00     0.063 C 
ATOM     28  C   UNL     1      45.464   8.757  21.887  1.00  0.00     0.033 C 
ATOM     29  C   UNL     1      46.205   9.326  20.667  1.00  0.00     0.118 C 
BRANCH  29  30
ATOM     30  O   UNL     1      46.116   8.415  19.600  1.00  0.00    -0.393 OA
ATOM     31  H   UNL     1      45.302   7.869  19.754  1.00  0.00     0.210 HD
ENDBRANCH  29  30
ENDBRANCH   1  11
TORSDOF 6
ENDMDL
MODEL 8
REMARK VINA RESULT:    -7.197      3.996      5.963
REMARK INTER + INTRA:         -10.337
REMARK INTER:                  -9.827
REMARK INTRA:                  -0.510
REMARK UNBOUND:                -0.826
REMARK SMILES CC[C@@H](C=C[C@H](C)[C@@H]1CC[C@H]2[C@@H]3CC=C4C[C@@H](O)CC[C@@]4(C)[C@H]3CC[C@]21C)C(C)C
REMARK SMILES IDX 6 1 7 2 5 3 4 4 3 5 2 6 1 7 28 8 29 9 30 10 8 11 9 12 26 13
REMARK SMILES IDX 10 14 11 15 25 16 27 17 12 18 24 19 23 20 13 21 21 22 14 23
REMARK SMILES IDX 15 24 20 25 22 26 16 27 19 28 17 29 18 30
REMARK H PARENT 18 31
REMARK Flexibility Score: inf
ROOT
ATOM      1  C   UNL     1      46.107  10.876  20.962  1.00  0.00     0.012 C 
ATOM      2  C   UNL     1      46.335  12.396  21.017  1.00  0.00     0.012 C 
ENDROOT
BRANCH   1   3
ATOM      3  C   UNL     1      47.395  10.160  20.583  1.00  0.00    -0.028 C 
ATOM      4  C   UNL     1      47.423   8.894  20.121  1.00  0.00    -0.027 C 
BRANCH   4   5
ATOM      5  C   UNL     1      48.684   8.052  20.009  1.00  0.00     0.014 C 
BRANCH   5   6
ATOM      6  C   UNL     1      49.137   7.615  21.429  1.00  0.00     0.004 C 
ATOM      7  C   UNL     1      48.592   6.256  21.883  1.00  0.00     0.004 C 
ENDBRANCH   5   6
BRANCH   5   8
ATOM      8  C   UNL     1      49.816   8.683  19.127  1.00  0.00    -0.011 C 
ATOM      9  C   UNL     1      51.115   7.861  19.191  1.00  0.00     0.008 C 
ATOM     10  C   UNL     1      49.380   8.798  17.656  1.00  0.00     0.008 C 
ENDBRANCH   5   8
ENDBRANCH   4   5
ENDBRANCH   1   3
BRANCH   1  11
ATOM     11  C   UNL     1      45.388  10.362  22.257  1.00  0.00     0.002 C 
ATOM     12  C   UNL     1      43.984  10.899  22.515  1.00  0.00     0.005 C 
ATOM     13  C   UNL     1      46.134  10.549  23.610  1.00  0.00    -0.026 C 
ATOM     14  C   UNL     1      43.664  10.436  23.925  1.00  0.00     0.005 C 
ATOM     15  C   UNL     1      45.009  10.349  24.682  1.00  0.00    -0.001 C 
ATOM     16  C   UNL     1      47.283   9.504  23.755  1.00  0.00     0.007 C 
ATOM     17  C   UNL     1      46.715  11.980  23.745  1.00  0.00     0.012 C 
ATOM     18  C   UNL     1      45.138   9.012  25.466  1.00  0.00     0.000 C 
ATOM     19  C   UNL     1      47.707   9.322  25.217  1.00  0.00     0.005 C 
ATOM     20  C   UNL     1      46.530   8.874  26.141  1.00  0.00     0.003 C 
ATOM     21  C   UNL     1      44.073   8.904  26.570  1.00  0.00     0.031 C 
ATOM     22  C   UNL     1      46.707   7.448  26.803  1.00  0.00    -0.008 C 
ATOM     23  C   UNL     1      44.223   7.620  27.328  1.00  0.00    -0.027 C 
ATOM     24  C   UNL     1      45.404   6.979  27.482  1.00  0.00    -0.065 C 
ATOM     25  C   UNL     1      47.090   6.355  25.745  1.00  0.00     0.014 C 
ATOM     26  C   UNL     1      47.820   7.565  27.877  1.00  0.00     0.016 C 
ATOM     27  C   UNL     1      45.380   5.583  28.067  1.00  0.00     0.063 C 
ATOM     28  C   UNL     1      47.050   4.914  26.299  1.00  0.00     0.033 C 
ATOM     29  C   UNL     1      45.707   4.569  26.963  1.00  0.00     0.118 C 
BRANCH  29  30
ATOM     30  O   UNL     1      44.696   4.550  25.986  1.00  0.00    -0.393 OA
ATOM     31  H   UNL     1      44.044   5.256  26.233  1.00  0.00     0.210 HD
ENDBRANCH  29  30
ENDBRANCH   1  11
TORSDOF 6
ENDMDL
MODEL 9
REMARK VINA RESULT:    -7.085      3.096      5.970
REMARK INTER + INTRA:         -10.189
REMARK INTER:                  -8.634
REMARK INTRA:                  -1.555
REMARK UNBOUND:                -0.826
REMARK SMILES CC[C@@H](C=C[C@H](C)[C@@H]1CC[C@H]2[C@@H]3CC=C4C[C@@H](O)CC[C@@]4(C)[C@H]3CC[C@]21C)C(C)C
REMARK SMILES IDX 6 1 7 2 5 3 4 4 3 5 2 6 1 7 28 8 29 9 30 10 8 11 9 12 26 13
REMARK SMILES IDX 10 14 11 15 25 16 27 17 12 18 24 19 23 20 13 21 21 22 14 23
REMARK SMILES IDX 15 24 20 25 22 26 16 27 19 28 17 29 18 30
REMARK H PARENT 18 31
REMARK Flexibility Score: inf
ROOT
ATOM      1  C   UNL     1      46.629   4.676  21.078  1.00  0.00     0.012 C 
ATOM      2  C   UNL     1      45.356   4.006  20.534  1.00  0.00     0.012 C 
ENDROOT
BRANCH   1   3
ATOM      3  C   UNL     1      46.397   6.165  21.287  1.00  0.00    -0.028 C 
ATOM      4  C   UNL     1      47.271   7.108  20.885  1.00  0.00    -0.027 C 
BRANCH   4   5
ATOM      5  C   UNL     1      47.221   8.563  21.323  1.00  0.00     0.014 C 
BRANCH   5   6
ATOM      6  C   UNL     1      47.540   9.476  20.107  1.00  0.00     0.004 C 
ATOM      7  C   UNL     1      48.488   8.857  19.074  1.00  0.00     0.004 C 
ENDBRANCH   5   6
BRANCH   5   8
ATOM      8  C   UNL     1      48.046   8.886  22.617  1.00  0.00    -0.011 C 
ATOM      9  C   UNL     1      47.203   8.708  23.891  1.00  0.00     0.008 C 
ATOM     10  C   UNL     1      49.292   7.991  22.723  1.00  0.00     0.008 C 
ENDBRANCH   5   8
ENDBRANCH   4   5
ENDBRANCH   1   3
BRANCH   1  11
ATOM     11  C   UNL     1      47.204   3.889  22.307  1.00  0.00     0.002 C 
ATOM     12  C   UNL     1      47.214   4.626  23.642  1.00  0.00     0.005 C 
ATOM     13  C   UNL     1      48.639   3.303  22.172  1.00  0.00    -0.026 C 
ATOM     14  C   UNL     1      48.037   3.731  24.552  1.00  0.00     0.005 C 
ATOM     15  C   UNL     1      49.051   2.990  23.651  1.00  0.00    -0.001 C 
ATOM     16  C   UNL     1      48.631   2.027  21.275  1.00  0.00     0.007 C 
ATOM     17  C   UNL     1      49.624   4.345  21.581  1.00  0.00     0.012 C 
ATOM     18  C   UNL     1      49.091   1.468  23.967  1.00  0.00     0.000 C 
ATOM     19  C   UNL     1      49.874   1.160  21.508  1.00  0.00     0.005 C 
ATOM     20  C   UNL     1      50.029   0.703  22.994  1.00  0.00     0.003 C 
ATOM     21  C   UNL     1      49.592   1.205  25.397  1.00  0.00     0.031 C 
ATOM     22  C   UNL     1      49.942  -0.859  23.224  1.00  0.00    -0.008 C 
ATOM     23  C   UNL     1      49.644  -0.265  25.679  1.00  0.00    -0.027 C 
ATOM     24  C   UNL     1      49.847  -1.201  24.725  1.00  0.00    -0.065 C 
ATOM     25  C   UNL     1      48.681  -1.485  22.531  1.00  0.00     0.014 C 
ATOM     26  C   UNL     1      51.237  -1.490  22.646  1.00  0.00     0.016 C 
ATOM     27  C   UNL     1      49.647  -2.653  25.103  1.00  0.00     0.063 C 
ATOM     28  C   UNL     1      48.430  -2.960  22.915  1.00  0.00     0.033 C 
ATOM     29  C   UNL     1      48.368  -3.176  24.436  1.00  0.00     0.118 C 
BRANCH  29  30
ATOM     30  O   UNL     1      47.234  -2.526  24.953  1.00  0.00    -0.393 OA
ATOM     31  H   UNL     1      46.843  -1.995  24.211  1.00  0.00     0.210 HD
ENDBRANCH  29  30
ENDBRANCH   1  11
TORSDOF 6
ENDMDL
