MODEL 1
REMARK VINA RESULT:    -3.659      0.000      0.000
REMARK INTER + INTRA:          -9.433
REMARK INTER:                  -7.082
REMARK INTRA:                  -2.350
REMARK UNBOUND:                -2.350
REMARK SMILES CCCCCCCCCCCCCCCCCC(=O)[O-]
REMARK SMILES IDX 10 1 11 2 12 3 13 4 14 5 15 6 16 7 17 8 18 9 19 10 20 11
REMARK SMILES IDX 9 12 8 13 7 14 6 15 5 16 4 17 3 18 2 19 1 20
REMARK H PARENT
REMARK Flexibility Score: inf
ROOT
ATOM      1  C   UNL     1    -111.795  11.151  23.873  1.00  0.00     0.000 C 
ENDROOT
BRANCH   1   2
ATOM      2  C   UNL     1    -112.134   9.657  23.742  1.00  0.00     0.000 C 
BRANCH   2   3
ATOM      3  C   UNL     1    -112.635   9.285  22.338  1.00  0.00     0.000 C 
BRANCH   3   4
ATOM      4  C   UNL     1    -114.116   8.891  22.371  1.00  0.00     0.000 C 
BRANCH   4   5
ATOM      5  C   UNL     1    -114.974   9.898  21.588  1.00  0.00     0.000 C 
BRANCH   5   6
ATOM      6  C   UNL     1    -116.484   9.629  21.750  1.00  0.00     0.000 C 
BRANCH   6   7
ATOM      7  C   UNL     1    -117.369  10.541  20.881  1.00  0.00     0.006 C 
BRANCH   7   8
ATOM      8  C   UNL     1    -116.566  11.604  20.124  1.00  0.00     0.053 C 
BRANCH   8   9
ATOM      9  C   UNL     1    -117.210  11.906  18.807  1.00  0.00     0.041 C 
ATOM     10  O   UNL     1    -117.568  13.081  18.532  1.00  0.00    -0.550 OA
ATOM     11  O   UNL     1    -117.370  10.898  17.864  1.00  0.00    -0.550 OA
ENDBRANCH   8   9
ENDBRANCH   7   8
ENDBRANCH   6   7
ENDBRANCH   5   6
ENDBRANCH   4   5
ENDBRANCH   3   4
ENDBRANCH   2   3
ENDBRANCH   1   2
BRANCH   1  12
ATOM     12  C   UNL     1    -112.639  11.855  24.949  1.00  0.00     0.000 C 
BRANCH  12  13
ATOM     13  C   UNL     1    -113.757  10.957  25.512  1.00  0.00    -0.000 C 
BRANCH  13  14
ATOM     14  C   UNL     1    -115.181  11.310  25.040  1.00  0.00    -0.000 C 
BRANCH  14  15
ATOM     15  C   UNL     1    -115.292  12.589  24.186  1.00  0.00    -0.000 C 
BRANCH  15  16
ATOM     16  C   UNL     1    -116.702  12.893  23.646  1.00  0.00    -0.000 C 
BRANCH  16  17
ATOM     17  C   UNL     1    -117.240  14.254  24.118  1.00  0.00    -0.000 C 
BRANCH  17  18
ATOM     18  C   UNL     1    -118.450  14.727  23.295  1.00  0.00    -0.000 C 
BRANCH  18  19
ATOM     19  C   UNL     1    -118.441  14.177  21.860  1.00  0.00    -0.003 C 
ATOM     20  C   UNL     1    -119.128  15.143  20.898  1.00  0.00     0.004 C 
ENDBRANCH  18  19
ENDBRANCH  17  18
ENDBRANCH  16  17
ENDBRANCH  15  16
ENDBRANCH  14  15
ENDBRANCH  13  14
ENDBRANCH  12  13
ENDBRANCH   1  12
TORSDOF 16
ENDMDL
MODEL 2
REMARK VINA RESULT:    -3.635      2.908      5.367
REMARK INTER + INTRA:          -9.385
REMARK INTER:                  -6.952
REMARK INTRA:                  -2.433
REMARK UNBOUND:                -2.350
REMARK SMILES CCCCCCCCCCCCCCCCCC(=O)[O-]
REMARK SMILES IDX 10 1 11 2 12 3 13 4 14 5 15 6 16 7 17 8 18 9 19 10 20 11
REMARK SMILES IDX 9 12 8 13 7 14 6 15 5 16 4 17 3 18 2 19 1 20
REMARK H PARENT
REMARK Flexibility Score: inf
ROOT
ATOM      1  C   UNL     1    -116.570  13.154  23.711  1.00  0.00     0.000 C 
ENDROOT
BRANCH   1   2
ATOM      2  C   UNL     1    -117.230  11.853  24.197  1.00  0.00     0.000 C 
BRANCH   2   3
ATOM      3  C   UNL     1    -116.636  10.603  23.532  1.00  0.00     0.000 C 
BRANCH   3   4
ATOM      4  C   UNL     1    -115.369  10.952  22.742  1.00  0.00     0.000 C 
BRANCH   4   5
ATOM      5  C   UNL     1    -114.781   9.706  22.060  1.00  0.00     0.000 C 
BRANCH   5   6
ATOM      6  C   UNL     1    -113.667   9.050  22.901  1.00  0.00     0.000 C 
BRANCH   6   7
ATOM      7  C   UNL     1    -112.502  10.001  23.229  1.00  0.00     0.006 C 
BRANCH   7   8
ATOM      8  C   UNL     1    -112.295  10.195  24.735  1.00  0.00     0.053 C 
BRANCH   8   9
ATOM      9  C   UNL     1    -112.921  11.475  25.189  1.00  0.00     0.041 C 
ATOM     10  O   UNL     1    -113.950  11.454  25.915  1.00  0.00    -0.550 OA
ATOM     11  O   UNL     1    -112.341  12.692  24.852  1.00  0.00    -0.550 OA
ENDBRANCH   8   9
ENDBRANCH   7   8
ENDBRANCH   6   7
ENDBRANCH   5   6
ENDBRANCH   4   5
ENDBRANCH   3   4
ENDBRANCH   2   3
ENDBRANCH   1   2
BRANCH   1  12
ATOM     12  C   UNL     1    -117.358  14.407  24.130  1.00  0.00     0.000 C 
BRANCH  12  13
ATOM     13  C   UNL     1    -118.831  14.102  24.463  1.00  0.00    -0.000 C 
BRANCH  13  14
ATOM     14  C   UNL     1    -119.822  14.316  23.301  1.00  0.00    -0.000 C 
BRANCH  14  15
ATOM     15  C   UNL     1    -119.366  15.319  22.224  1.00  0.00    -0.000 C 
BRANCH  15  16
ATOM     16  C   UNL     1    -118.908  14.688  20.895  1.00  0.00    -0.000 C 
BRANCH  16  17
ATOM     17  C   UNL     1    -119.599  13.344  20.606  1.00  0.00    -0.000 C 
BRANCH  17  18
ATOM     18  C   UNL     1    -118.636  12.151  20.722  1.00  0.00    -0.000 C 
BRANCH  18  19
ATOM     19  C   UNL     1    -117.237  12.462  20.169  1.00  0.00    -0.003 C 
ATOM     20  C   UNL     1    -116.751  11.348  19.247  1.00  0.00     0.004 C 
ENDBRANCH  18  19
ENDBRANCH  17  18
ENDBRANCH  16  17
ENDBRANCH  15  16
ENDBRANCH  14  15
ENDBRANCH  13  14
ENDBRANCH  12  13
ENDBRANCH   1  12
TORSDOF 16
ENDMDL
MODEL 3
REMARK VINA RESULT:    -3.624      2.910      5.305
REMARK INTER + INTRA:          -9.364
REMARK INTER:                  -6.913
REMARK INTRA:                  -2.451
REMARK UNBOUND:                -2.350
REMARK SMILES CCCCCCCCCCCCCCCCCC(=O)[O-]
REMARK SMILES IDX 10 1 11 2 12 3 13 4 14 5 15 6 16 7 17 8 18 9 19 10 20 11
REMARK SMILES IDX 9 12 8 13 7 14 6 15 5 16 4 17 3 18 2 19 1 20
REMARK H PARENT
REMARK Flexibility Score: inf
ROOT
ATOM      1  C   UNL     1    -116.690  13.346  23.764  1.00  0.00     0.000 C 
ENDROOT
BRANCH   1   2
ATOM      2  C   UNL     1    -117.383  11.991  23.980  1.00  0.00     0.000 C 
BRANCH   2   3
ATOM      3  C   UNL     1    -117.507  11.175  22.684  1.00  0.00     0.000 C 
BRANCH   3   4
ATOM      4  C   UNL     1    -116.616  11.760  21.582  1.00  0.00     0.000 C 
BRANCH   4   5
ATOM      5  C   UNL     1    -115.639  10.704  21.042  1.00  0.00     0.000 C 
BRANCH   5   6
ATOM      6  C   UNL     1    -115.315   9.619  22.090  1.00  0.00     0.000 C 
BRANCH   6   7
ATOM      7  C   UNL     1    -113.924   9.777  22.730  1.00  0.00     0.006 C 
BRANCH   7   8
ATOM      8  C   UNL     1    -113.958  10.565  24.044  1.00  0.00     0.053 C 
BRANCH   8   9
ATOM      9  C   UNL     1    -112.641  11.232  24.288  1.00  0.00     0.041 C 
ATOM     10  O   UNL     1    -111.590  10.764  23.777  1.00  0.00    -0.550 OA
ATOM     11  O   UNL     1    -112.581  12.400  25.038  1.00  0.00    -0.550 OA
ENDBRANCH   8   9
ENDBRANCH   7   8
ENDBRANCH   6   7
ENDBRANCH   5   6
ENDBRANCH   4   5
ENDBRANCH   3   4
ENDBRANCH   2   3
ENDBRANCH   1   2
BRANCH   1  12
ATOM     12  C   UNL     1    -117.595  14.536  24.126  1.00  0.00     0.000 C 
BRANCH  12  13
ATOM     13  C   UNL     1    -119.020  14.103  24.520  1.00  0.00    -0.000 C 
BRANCH  13  14
ATOM     14  C   UNL     1    -120.125  14.502  23.521  1.00  0.00    -0.000 C 
BRANCH  14  15
ATOM     15  C   UNL     1    -120.125  13.720  22.193  1.00  0.00    -0.000 C 
BRANCH  15  16
ATOM     16  C   UNL     1    -119.903  14.576  20.931  1.00  0.00    -0.000 C 
BRANCH  16  17
ATOM     17  C   UNL     1    -118.414  14.791  20.612  1.00  0.00    -0.000 C 
BRANCH  17  18
ATOM     18  C   UNL     1    -118.098  14.595  19.120  1.00  0.00    -0.000 C 
BRANCH  18  19
ATOM     19  C   UNL     1    -118.362  13.159  18.642  1.00  0.00    -0.003 C 
ATOM     20  C   UNL     1    -117.367  12.749  17.560  1.00  0.00     0.004 C 
ENDBRANCH  18  19
ENDBRANCH  17  18
ENDBRANCH  16  17
ENDBRANCH  15  16
ENDBRANCH  14  15
ENDBRANCH  13  14
ENDBRANCH  12  13
ENDBRANCH   1  12
TORSDOF 16
ENDMDL
MODEL 4
REMARK VINA RESULT:    -3.621      1.472      5.445
REMARK INTER + INTRA:          -9.358
REMARK INTER:                  -7.308
REMARK INTRA:                  -2.050
REMARK UNBOUND:                -2.350
REMARK SMILES CCCCCCCCCCCCCCCCCC(=O)[O-]
REMARK SMILES IDX 10 1 11 2 12 3 13 4 14 5 15 6 16 7 17 8 18 9 19 10 20 11
REMARK SMILES IDX 9 12 8 13 7 14 6 15 5 16 4 17 3 18 2 19 1 20
REMARK H PARENT
REMARK Flexibility Score: inf
ROOT
ATOM      1  C   UNL     1    -117.060  12.074  23.075  1.00  0.00     0.000 C 
ENDROOT
BRANCH   1   2
ATOM      2  C   UNL     1    -116.583  13.392  23.705  1.00  0.00     0.000 C 
BRANCH   2   3
ATOM      3  C   UNL     1    -117.740  14.348  24.029  1.00  0.00     0.000 C 
BRANCH   3   4
ATOM      4  C   UNL     1    -118.955  14.059  23.139  1.00  0.00     0.000 C 
BRANCH   4   5
ATOM      5  C   UNL     1    -119.278  15.261  22.237  1.00  0.00     0.000 C 
BRANCH   5   6
ATOM      6  C   UNL     1    -119.471  14.850  20.762  1.00  0.00     0.000 C 
BRANCH   6   7
ATOM      7  C   UNL     1    -118.149  14.585  20.020  1.00  0.00     0.006 C 
BRANCH   7   8
ATOM      8  C   UNL     1    -118.343  13.800  18.718  1.00  0.00     0.053 C 
BRANCH   8   9
ATOM      9  C   UNL     1    -117.575  14.437  17.603  1.00  0.00     0.041 C 
ATOM     10  O   UNL     1    -117.395  13.817  16.522  1.00  0.00    -0.550 OA
ATOM     11  O   UNL     1    -117.101  15.736  17.739  1.00  0.00    -0.550 OA
ENDBRANCH   8   9
ENDBRANCH   7   8
ENDBRANCH   6   7
ENDBRANCH   5   6
ENDBRANCH   4   5
ENDBRANCH   3   4
ENDBRANCH   2   3
ENDBRANCH   1   2
BRANCH   1  12
ATOM     12  C   UNL     1    -116.504  11.861  21.657  1.00  0.00     0.000 C 
BRANCH  12  13
ATOM     13  C   UNL     1    -116.034  10.415  21.411  1.00  0.00    -0.000 C 
BRANCH  13  14
ATOM     14  C   UNL     1    -114.817   9.971  22.247  1.00  0.00    -0.000 C 
BRANCH  14  15
ATOM     15  C   UNL     1    -115.108   8.900  23.317  1.00  0.00    -0.000 C 
BRANCH  15  16
ATOM     16  C   UNL     1    -115.283   9.439  24.749  1.00  0.00    -0.000 C 
BRANCH  16  17
ATOM     17  C   UNL     1    -113.966   9.948  25.359  1.00  0.00    -0.000 C 
BRANCH  17  18
ATOM     18  C   UNL     1    -113.970  11.470  25.578  1.00  0.00    -0.000 C 
BRANCH  18  19
ATOM     19  C   UNL     1    -112.818  12.177  24.848  1.00  0.00    -0.003 C 
ATOM     20  C   UNL     1    -111.947  11.175  24.096  1.00  0.00     0.004 C 
ENDBRANCH  18  19
ENDBRANCH  17  18
ENDBRANCH  16  17
ENDBRANCH  15  16
ENDBRANCH  14  15
ENDBRANCH  13  14
ENDBRANCH  12  13
ENDBRANCH   1  12
TORSDOF 16
ENDMDL
MODEL 5
REMARK VINA RESULT:    -3.610      3.192      5.612
REMARK INTER + INTRA:          -9.337
REMARK INTER:                  -6.733
REMARK INTRA:                  -2.604
REMARK UNBOUND:                -2.350
REMARK SMILES CCCCCCCCCCCCCCCCCC(=O)[O-]
REMARK SMILES IDX 10 1 11 2 12 3 13 4 14 5 15 6 16 7 17 8 18 9 19 10 20 11
REMARK SMILES IDX 9 12 8 13 7 14 6 15 5 16 4 17 3 18 2 19 1 20
REMARK H PARENT
REMARK Flexibility Score: inf
ROOT
ATOM      1  C   UNL     1    -118.300  13.031  20.660  1.00  0.00     0.000 C 
ENDROOT
BRANCH   1   2
ATOM      2  C   UNL     1    -117.094  12.410  21.384  1.00  0.00     0.000 C 
BRANCH   2   3
ATOM      3  C   UNL     1    -116.361  11.368  20.527  1.00  0.00     0.000 C 
BRANCH   3   4
ATOM      4  C   UNL     1    -116.121  10.077  21.319  1.00  0.00     0.000 C 
BRANCH   4   5
ATOM      5  C   UNL     1    -114.859  10.187  22.188  1.00  0.00     0.000 C 
BRANCH   5   6
ATOM      6  C   UNL     1    -115.181  10.123  23.696  1.00  0.00     0.000 C 
BRANCH   6   7
ATOM      7  C   UNL     1    -115.110  11.490  24.399  1.00  0.00     0.006 C 
BRANCH   7   8
ATOM      8  C   UNL     1    -114.086  11.522  25.539  1.00  0.00     0.053 C 
BRANCH   8   9
ATOM      9  C   UNL     1    -112.694  11.484  24.993  1.00  0.00     0.041 C 
ATOM     10  O   UNL     1    -112.143  12.543  24.591  1.00  0.00    -0.550 OA
ATOM     11  O   UNL     1    -111.985  10.289  24.975  1.00  0.00    -0.550 OA
ENDBRANCH   8   9
ENDBRANCH   7   8
ENDBRANCH   6   7
ENDBRANCH   5   6
ENDBRANCH   4   5
ENDBRANCH   3   4
ENDBRANCH   2   3
ENDBRANCH   1   2
BRANCH   1  12
ATOM     12  C   UNL     1    -118.398  14.551  20.875  1.00  0.00     0.000 C 
BRANCH  12  13
ATOM     13  C   UNL     1    -119.184  14.924  22.145  1.00  0.00    -0.000 C 
BRANCH  13  14
ATOM     14  C   UNL     1    -118.372  14.876  23.455  1.00  0.00    -0.000 C 
BRANCH  14  15
ATOM     15  C   UNL     1    -119.004  14.047  24.591  1.00  0.00    -0.000 C 
BRANCH  15  16
ATOM     16  C   UNL     1    -119.572  12.680  24.163  1.00  0.00    -0.000 C 
BRANCH  16  17
ATOM     17  C   UNL     1    -118.697  11.502  24.623  1.00  0.00    -0.000 C 
BRANCH  17  18
ATOM     18  C   UNL     1    -118.950  10.226  23.803  1.00  0.00    -0.000 C 
BRANCH  18  19
ATOM     19  C   UNL     1    -120.124  10.374  22.823  1.00  0.00    -0.003 C 
ATOM     20  C   UNL     1    -119.802   9.725  21.479  1.00  0.00     0.004 C 
ENDBRANCH  18  19
ENDBRANCH  17  18
ENDBRANCH  16  17
ENDBRANCH  15  16
ENDBRANCH  14  15
ENDBRANCH  13  14
ENDBRANCH  12  13
ENDBRANCH   1  12
TORSDOF 16
ENDMDL
MODEL 6
REMARK VINA RESULT:    -3.588      2.397      5.972
REMARK INTER + INTRA:          -9.294
REMARK INTER:                  -7.352
REMARK INTRA:                  -1.943
REMARK UNBOUND:                -2.350
REMARK SMILES CCCCCCCCCCCCCCCCCC(=O)[O-]
REMARK SMILES IDX 10 1 11 2 12 3 13 4 14 5 15 6 16 7 17 8 18 9 19 10 20 11
REMARK SMILES IDX 9 12 8 13 7 14 6 15 5 16 4 17 3 18 2 19 1 20
REMARK H PARENT
REMARK Flexibility Score: inf
ROOT
ATOM      1  C   UNL     1    -116.354  11.429  20.619  1.00  0.00     0.000 C 
ENDROOT
BRANCH   1   2
ATOM      2  C   UNL     1    -117.866  11.181  20.497  1.00  0.00     0.000 C 
BRANCH   2   3
ATOM      3  C   UNL     1    -118.513  12.004  19.373  1.00  0.00     0.000 C 
BRANCH   3   4
ATOM      4  C   UNL     1    -117.553  13.085  18.863  1.00  0.00     0.000 C 
BRANCH   4   5
ATOM      5  C   UNL     1    -118.142  14.489  19.069  1.00  0.00     0.000 C 
BRANCH   5   6
ATOM      6  C   UNL     1    -119.193  14.522  20.199  1.00  0.00     0.000 C 
BRANCH   6   7
ATOM      7  C   UNL     1    -118.597  14.825  21.585  1.00  0.00     0.006 C 
BRANCH   7   8
ATOM      8  C   UNL     1    -119.478  14.325  22.735  1.00  0.00     0.053 C 
BRANCH   8   9
ATOM      9  C   UNL     1    -118.794  14.539  24.049  1.00  0.00     0.041 C 
ATOM     10  O   UNL     1    -117.742  15.228  24.110  1.00  0.00    -0.550 OA
ATOM     11  O   UNL     1    -119.346  14.021  25.213  1.00  0.00    -0.550 OA
ENDBRANCH   8   9
ENDBRANCH   7   8
ENDBRANCH   6   7
ENDBRANCH   5   6
ENDBRANCH   4   5
ENDBRANCH   3   4
ENDBRANCH   2   3
ENDBRANCH   1   2
BRANCH   1  12
ATOM     12  C   UNL     1    -115.816  11.112  22.025  1.00  0.00     0.000 C 
BRANCH  12  13
ATOM     13  C   UNL     1    -116.506  11.936  23.128  1.00  0.00    -0.000 C 
BRANCH  13  14
ATOM     14  C   UNL     1    -115.552  12.624  24.125  1.00  0.00    -0.000 C 
BRANCH  14  15
ATOM     15  C   UNL     1    -114.636  11.673  24.921  1.00  0.00    -0.000 C 
BRANCH  15  16
ATOM     16  C   UNL     1    -113.129  11.978  24.815  1.00  0.00    -0.000 C 
BRANCH  16  17
ATOM     17  C   UNL     1    -112.268  10.705  24.758  1.00  0.00    -0.000 C 
BRANCH  17  18
ATOM     18  C   UNL     1    -112.831   9.657  23.783  1.00  0.00    -0.000 C 
BRANCH  18  19
ATOM     19  C   UNL     1    -111.942   9.459  22.546  1.00  0.00    -0.003 C 
ATOM     20  C   UNL     1    -112.783   9.171  21.306  1.00  0.00     0.004 C 
ENDBRANCH  18  19
ENDBRANCH  17  18
ENDBRANCH  16  17
ENDBRANCH  15  16
ENDBRANCH  14  15
ENDBRANCH  13  14
ENDBRANCH  12  13
ENDBRANCH   1  12
TORSDOF 16
ENDMDL
MODEL 7
REMARK VINA RESULT:    -3.575      3.097      6.165
REMARK INTER + INTRA:          -9.268
REMARK INTER:                  -6.861
REMARK INTRA:                  -2.408
REMARK UNBOUND:                -2.350
REMARK SMILES CCCCCCCCCCCCCCCCCC(=O)[O-]
REMARK SMILES IDX 10 1 11 2 12 3 13 4 14 5 15 6 16 7 17 8 18 9 19 10 20 11
REMARK SMILES IDX 9 12 8 13 7 14 6 15 5 16 4 17 3 18 2 19 1 20
REMARK H PARENT
REMARK Flexibility Score: inf
ROOT
ATOM      1  C   UNL     1    -118.788  14.117  24.562  1.00  0.00     0.000 C 
ENDROOT
BRANCH   1   2
ATOM      2  C   UNL     1    -119.939  13.160  24.211  1.00  0.00     0.000 C 
BRANCH   2   3
ATOM      3  C   UNL     1    -119.443  11.801  23.696  1.00  0.00     0.000 C 
BRANCH   3   4
ATOM      4  C   UNL     1    -118.144  11.389  24.397  1.00  0.00     0.000 C 
BRANCH   4   5
ATOM      5  C   UNL     1    -117.159  10.748  23.407  1.00  0.00     0.000 C 
BRANCH   5   6
ATOM      6  C   UNL     1    -115.963  11.670  23.093  1.00  0.00     0.000 C 
BRANCH   6   7
ATOM      7  C   UNL     1    -115.408  12.400  24.329  1.00  0.00     0.006 C 
BRANCH   7   8
ATOM      8  C   UNL     1    -114.484  11.520  25.178  1.00  0.00     0.053 C 
BRANCH   8   9
ATOM      9  C   UNL     1    -113.087  11.561  24.644  1.00  0.00     0.041 C 
ATOM     10  O   UNL     1    -112.618  10.573  24.021  1.00  0.00    -0.550 OA
ATOM     11  O   UNL     1    -112.319  12.709  24.792  1.00  0.00    -0.550 OA
ENDBRANCH   8   9
ENDBRANCH   7   8
ENDBRANCH   6   7
ENDBRANCH   5   6
ENDBRANCH   4   5
ENDBRANCH   3   4
ENDBRANCH   2   3
ENDBRANCH   1   2
BRANCH   1  12
ATOM     12  C   UNL     1    -118.238  14.856  23.329  1.00  0.00     0.000 C 
BRANCH  12  13
ATOM     13  C   UNL     1    -119.328  15.167  22.286  1.00  0.00    -0.000 C 
BRANCH  13  14
ATOM     14  C   UNL     1    -119.119  14.514  20.905  1.00  0.00    -0.000 C 
BRANCH  14  15
ATOM     15  C   UNL     1    -117.858  13.637  20.778  1.00  0.00    -0.000 C 
BRANCH  15  16
ATOM     16  C   UNL     1    -118.013  12.397  19.876  1.00  0.00    -0.000 C 
BRANCH  16  17
ATOM     17  C   UNL     1    -117.346  12.573  18.502  1.00  0.00    -0.000 C 
BRANCH  17  18
ATOM     18  C   UNL     1    -118.332  13.063  17.428  1.00  0.00    -0.000 C 
BRANCH  18  19
ATOM     19  C   UNL     1    -117.794  14.261  16.631  1.00  0.00    -0.003 C 
ATOM     20  C   UNL     1    -117.281  15.355  17.565  1.00  0.00     0.004 C 
ENDBRANCH  18  19
ENDBRANCH  17  18
ENDBRANCH  16  17
ENDBRANCH  15  16
ENDBRANCH  14  15
ENDBRANCH  13  14
ENDBRANCH  12  13
ENDBRANCH   1  12
TORSDOF 16
ENDMDL
MODEL 8
REMARK VINA RESULT:    -3.566      2.744      5.552
REMARK INTER + INTRA:          -9.253
REMARK INTER:                  -7.291
REMARK INTRA:                  -1.962
REMARK UNBOUND:                -2.350
REMARK SMILES CCCCCCCCCCCCCCCCCC(=O)[O-]
REMARK SMILES IDX 10 1 11 2 12 3 13 4 14 5 15 6 16 7 17 8 18 9 19 10 20 11
REMARK SMILES IDX 9 12 8 13 7 14 6 15 5 16 4 17 3 18 2 19 1 20
REMARK H PARENT
REMARK Flexibility Score: inf
ROOT
ATOM      1  C   UNL     1    -117.848  12.430  23.197  1.00  0.00     0.000 C 
ENDROOT
BRANCH   1   2
ATOM      2  C   UNL     1    -116.950  11.772  22.137  1.00  0.00     0.000 C 
BRANCH   2   3
ATOM      3  C   UNL     1    -115.651  11.206  22.730  1.00  0.00     0.000 C 
BRANCH   3   4
ATOM      4  C   UNL     1    -115.937  10.382  23.991  1.00  0.00     0.000 C 
BRANCH   4   5
ATOM      5  C   UNL     1    -115.005  10.790  25.142  1.00  0.00     0.000 C 
BRANCH   5   6
ATOM      6  C   UNL     1    -114.216  12.078  24.826  1.00  0.00     0.000 C 
BRANCH   6   7
ATOM      7  C   UNL     1    -112.690  11.881  24.822  1.00  0.00     0.006 C 
BRANCH   7   8
ATOM      8  C   UNL     1    -112.280  10.405  24.856  1.00  0.00     0.053 C 
BRANCH   8   9
ATOM      9  C   UNL     1    -111.886   9.940  23.489  1.00  0.00     0.041 C 
ATOM     10  O   UNL     1    -110.734  10.184  23.045  1.00  0.00    -0.550 OA
ATOM     11  O   UNL     1    -112.775   9.193  22.726  1.00  0.00    -0.550 OA
ENDBRANCH   8   9
ENDBRANCH   7   8
ENDBRANCH   6   7
ENDBRANCH   5   6
ENDBRANCH   4   5
ENDBRANCH   3   4
ENDBRANCH   2   3
ENDBRANCH   1   2
BRANCH   1  12
ATOM     12  C   UNL     1    -117.252  13.736  23.748  1.00  0.00     0.000 C 
BRANCH  12  13
ATOM     13  C   UNL     1    -118.284  14.876  23.827  1.00  0.00    -0.000 C 
BRANCH  13  14
ATOM     14  C   UNL     1    -119.597  14.625  23.057  1.00  0.00    -0.000 C 
BRANCH  14  15
ATOM     15  C   UNL     1    -119.689  15.301  21.675  1.00  0.00    -0.000 C 
BRANCH  15  16
ATOM     16  C   UNL     1    -119.460  14.365  20.473  1.00  0.00    -0.000 C 
BRANCH  16  17
ATOM     17  C   UNL     1    -118.100  14.594  19.791  1.00  0.00    -0.000 C 
BRANCH  17  18
ATOM     18  C   UNL     1    -118.151  14.333  18.276  1.00  0.00    -0.000 C 
BRANCH  18  19
ATOM     19  C   UNL     1    -118.361  12.849  17.938  1.00  0.00    -0.003 C 
ATOM     20  C   UNL     1    -117.217  11.995  18.479  1.00  0.00     0.004 C 
ENDBRANCH  18  19
ENDBRANCH  17  18
ENDBRANCH  16  17
ENDBRANCH  15  16
ENDBRANCH  14  15
ENDBRANCH  13  14
ENDBRANCH  12  13
ENDBRANCH   1  12
TORSDOF 16
ENDMDL
MODEL 9
REMARK VINA RESULT:    -3.496      2.587      5.588
REMARK INTER + INTRA:          -9.117
REMARK INTER:                  -7.221
REMARK INTRA:                  -1.896
REMARK UNBOUND:                -2.350
REMARK SMILES CCCCCCCCCCCCCCCCCC(=O)[O-]
REMARK SMILES IDX 10 1 11 2 12 3 13 4 14 5 15 6 16 7 17 8 18 9 19 10 20 11
REMARK SMILES IDX 9 12 8 13 7 14 6 15 5 16 4 17 3 18 2 19 1 20
REMARK H PARENT
REMARK Flexibility Score: inf
ROOT
ATOM      1  C   UNL     1    -116.471  11.838  21.168  1.00  0.00     0.000 C 
ENDROOT
BRANCH   1   2
ATOM      2  C   UNL     1    -116.437  10.741  22.244  1.00  0.00     0.000 C 
BRANCH   2   3
ATOM      3  C   UNL     1    -116.980  11.222  23.598  1.00  0.00     0.000 C 
BRANCH   3   4
ATOM      4  C   UNL     1    -115.893  11.160  24.677  1.00  0.00     0.000 C 
BRANCH   4   5
ATOM      5  C   UNL     1    -114.953  12.373  24.586  1.00  0.00     0.000 C 
BRANCH   5   6
ATOM      6  C   UNL     1    -113.505  12.020  24.985  1.00  0.00     0.000 C 
BRANCH   6   7
ATOM      7  C   UNL     1    -113.308  10.536  25.340  1.00  0.00     0.006 C 
BRANCH   7   8
ATOM      8  C   UNL     1    -111.960   9.983  24.865  1.00  0.00     0.053 C 
BRANCH   8   9
ATOM      9  C   UNL     1    -111.986   9.739  23.389  1.00  0.00     0.041 C 
ATOM     10  O   UNL     1    -110.909   9.686  22.738  1.00  0.00    -0.550 OA
ATOM     11  O   UNL     1    -113.194   9.523  22.740  1.00  0.00    -0.550 OA
ENDBRANCH   8   9
ENDBRANCH   7   8
ENDBRANCH   6   7
ENDBRANCH   5   6
ENDBRANCH   4   5
ENDBRANCH   3   4
ENDBRANCH   2   3
ENDBRANCH   1   2
BRANCH   1  12
ATOM     12  C   UNL     1    -117.491  11.541  20.055  1.00  0.00     0.000 C 
BRANCH  12  13
ATOM     13  C   UNL     1    -117.496  12.614  18.949  1.00  0.00    -0.000 C 
BRANCH  13  14
ATOM     14  C   UNL     1    -118.601  13.681  19.078  1.00  0.00    -0.000 C 
BRANCH  14  15
ATOM     15  C   UNL     1    -118.325  14.793  20.109  1.00  0.00    -0.000 C 
BRANCH  15  16
ATOM     16  C   UNL     1    -119.462  15.046  21.117  1.00  0.00    -0.000 C 
BRANCH  16  17
ATOM     17  C   UNL     1    -119.600  13.918  22.154  1.00  0.00    -0.000 C 
BRANCH  17  18
ATOM     18  C   UNL     1    -119.897  14.450  23.566  1.00  0.00    -0.000 C 
BRANCH  18  19
ATOM     19  C   UNL     1    -118.759  14.167  24.558  1.00  0.00    -0.003 C 
ATOM     20  C   UNL     1    -117.528  15.010  24.235  1.00  0.00     0.004 C 
ENDBRANCH  18  19
ENDBRANCH  17  18
ENDBRANCH  16  17
ENDBRANCH  15  16
ENDBRANCH  14  15
ENDBRANCH  13  14
ENDBRANCH  12  13
ENDBRANCH   1  12
TORSDOF 16
ENDMDL
