MODEL 1
REMARK VINA RESULT:    70.689      0.000      0.000
REMARK INTER + INTRA:         100.762
REMARK INTER:                 101.683
REMARK INTRA:                  -0.921
REMARK UNBOUND:                -0.921
REMARK SMILES O=c1cc(-c2ccc(O)c(O)c2)oc2cc(O[C@H]3O[C@@H](CO)[C@@H](O)[C@H](O)[C@@H]3O)cc(O)c12
REMARK SMILES IDX 17 1 16 2 4 3 3 4 13 5 2 6 14 7 1 8 32 9 15 10 30 11 29 12
REMARK SMILES IDX 5 13 6 14 7 15 8 16 12 17 10 18 9 19 11 21 31 23 18 25 27 26
REMARK SMILES IDX 19 27 25 28 20 29 23 30 28 31 26 33 21 35 22 36 24 38
REMARK H PARENT 9 20 11 22 31 24 28 32 26 34 22 37 24 39
REMARK Flexibility Score: inf
ROOT
ATOM      1  O   UNL     1      11.599   6.978  31.616  1.00  0.00    -0.462 OA
ENDROOT
BRANCH   1   2
ATOM      2  C   UNL     1      11.534   6.386  32.884  1.00  0.00     0.130 A 
ATOM      3  C   UNL     1      13.764   4.864  36.786  1.00  0.00     0.138 A 
ATOM      4  C   UNL     1      12.807   5.452  37.650  1.00  0.00     0.100 A 
ATOM      5  O   UNL     1      13.703   5.090  35.480  1.00  0.00    -0.456 OA
ATOM      6  C   UNL     1      11.735   6.164  37.060  1.00  0.00     0.197 A 
ATOM      7  C   UNL     1      12.689   5.715  34.900  1.00  0.00     0.146 A 
ATOM      8  O   UNL     1      10.926   6.775  37.784  1.00  0.00    -0.289 OA
ATOM      9  C   UNL     1      11.600   6.187  35.661  1.00  0.00     0.107 A 
ATOM     10  C   UNL     1      12.701   5.958  33.524  1.00  0.00     0.094 A 
ATOM     11  C   UNL     1      10.426   6.573  34.989  1.00  0.00     0.134 A 
ATOM     12  C   UNL     1      10.340   6.348  33.621  1.00  0.00     0.093 A 
BRANCH   3  13
ATOM     13  C   UNL     1      14.794   3.883  37.264  1.00  0.00     0.021 A 
ATOM     14  C   UNL     1      14.566   2.493  37.284  1.00  0.00     0.016 A 
ATOM     15  C   UNL     1      15.613   1.604  37.584  1.00  0.00     0.051 A 
ATOM     16  C   UNL     1      16.889   2.100  37.875  1.00  0.00     0.157 A 
ATOM     17  C   UNL     1      16.080   4.382  37.579  1.00  0.00     0.062 A 
ATOM     18  C   UNL     1      17.119   3.498  37.877  1.00  0.00     0.158 A 
BRANCH  16  19
ATOM     19  O   UNL     1      17.932   1.218  38.110  1.00  0.00    -0.504 OA
ATOM     20  H   UNL     1      18.662   1.477  38.791  1.00  0.00     0.293 HD
ENDBRANCH  16  19
BRANCH  18  21
ATOM     21  O   UNL     1      18.390   3.984  38.122  1.00  0.00    -0.504 OA
ATOM     22  H   UNL     1      19.116   3.921  37.439  1.00  0.00     0.293 HD
ENDBRANCH  18  21
ENDBRANCH   3  13
BRANCH  11  23
ATOM     23  O   UNL     1       9.353   7.227  35.574  1.00  0.00    -0.507 OA
ATOM     24  H   UNL     1       8.396   6.951  35.309  1.00  0.00     0.293 HD
ENDBRANCH  11  23
ENDBRANCH   1   2
BRANCH   1  25
ATOM     25  C   UNL     1      12.059   6.320  30.435  1.00  0.00     0.339 C 
ATOM     26  C   UNL     1      11.760   7.238  29.247  1.00  0.00     0.214 C 
ATOM     27  O   UNL     1      11.369   5.090  30.271  1.00  0.00    -0.332 OA
ATOM     28  C   UNL     1      11.350   6.464  27.966  1.00  0.00     0.180 C 
ATOM     29  C   UNL     1      11.960   4.290  29.255  1.00  0.00     0.179 C 
ATOM     30  C   UNL     1      12.006   5.051  27.854  1.00  0.00     0.177 C 
BRANCH  26  31
ATOM     31  O   UNL     1      12.853   8.115  29.058  1.00  0.00    -0.384 OA
ATOM     32  H   UNL     1      12.709   8.932  29.589  1.00  0.00     0.211 HD
ENDBRANCH  26  31
BRANCH  28  33
ATOM     33  O   UNL     1      11.569   7.278  26.849  1.00  0.00    -0.387 OA
ATOM     34  H   UNL     1      12.479   7.104  26.474  1.00  0.00     0.211 HD
ENDBRANCH  28  33
BRANCH  29  35
ATOM     35  C   UNL     1      11.276   2.915  29.316  1.00  0.00     0.191 C 
BRANCH  35  36
ATOM     36  O   UNL     1      11.985   1.993  28.505  1.00  0.00    -0.394 OA
ATOM     37  H   UNL     1      11.336   1.274  28.312  1.00  0.00     0.210 HD
ENDBRANCH  35  36
ENDBRANCH  29  35
BRANCH  30  38
ATOM     38  O   UNL     1      11.404   4.419  26.735  1.00  0.00    -0.387 OA
ATOM     39  H   UNL     1      10.460   4.674  26.636  1.00  0.00     0.211 HD
ENDBRANCH  30  38
ENDBRANCH   1  25
TORSDOF 11
ENDMDL
MODEL 2
REMARK VINA RESULT:    70.820      6.620     10.038
REMARK INTER + INTRA:         100.951
REMARK INTER:                 101.399
REMARK INTRA:                  -0.449
REMARK UNBOUND:                -0.921
REMARK SMILES O=c1cc(-c2ccc(O)c(O)c2)oc2cc(O[C@H]3O[C@@H](CO)[C@@H](O)[C@H](O)[C@@H]3O)cc(O)c12
REMARK SMILES IDX 17 1 16 2 4 3 3 4 13 5 2 6 14 7 1 8 32 9 15 10 30 11 29 12
REMARK SMILES IDX 5 13 6 14 7 15 8 16 12 17 10 18 9 19 11 21 31 23 18 25 27 26
REMARK SMILES IDX 19 27 25 28 20 29 23 30 28 31 26 33 21 35 22 36 24 38
REMARK H PARENT 9 20 11 22 31 24 28 32 26 34 22 37 24 39
REMARK Flexibility Score: inf
ROOT
ATOM      1  O   UNL     1      16.650   0.639  26.830  1.00  0.00    -0.462 OA
ENDROOT
BRANCH   1   2
ATOM      2  C   UNL     1      15.673   1.219  27.649  1.00  0.00     0.130 A 
ATOM      3  C   UNL     1      12.591   4.739  28.442  1.00  0.00     0.138 A 
ATOM      4  C   UNL     1      11.563   3.846  28.837  1.00  0.00     0.100 A 
ATOM      5  O   UNL     1      13.732   4.262  27.961  1.00  0.00    -0.456 OA
ATOM      6  C   UNL     1      11.849   2.460  28.818  1.00  0.00     0.197 A 
ATOM      7  C   UNL     1      14.040   2.973  27.973  1.00  0.00     0.146 A 
ATOM      8  O   UNL     1      10.946   1.639  29.066  1.00  0.00    -0.289 OA
ATOM      9  C   UNL     1      13.148   2.021  28.506  1.00  0.00     0.107 A 
ATOM     10  C   UNL     1      15.241   2.528  27.414  1.00  0.00     0.094 A 
ATOM     11  C   UNL     1      13.624   0.724  28.768  1.00  0.00     0.134 A 
ATOM     12  C   UNL     1      14.983   0.474  28.617  1.00  0.00     0.093 A 
BRANCH   3  13
ATOM     13  C   UNL     1      12.504   6.221  28.655  1.00  0.00     0.021 A 
ATOM     14  C   UNL     1      13.611   7.078  28.494  1.00  0.00     0.016 A 
ATOM     15  C   UNL     1      13.446   8.472  28.543  1.00  0.00     0.051 A 
ATOM     16  C   UNL     1      12.176   9.018  28.764  1.00  0.00     0.157 A 
ATOM     17  C   UNL     1      11.225   6.776  28.898  1.00  0.00     0.062 A 
ATOM     18  C   UNL     1      11.062   8.162  28.948  1.00  0.00     0.158 A 
BRANCH  16  19
ATOM     19  O   UNL     1      12.007  10.394  28.751  1.00  0.00    -0.504 OA
ATOM     20  H   UNL     1      12.470  10.949  28.015  1.00  0.00     0.293 HD
ENDBRANCH  16  19
BRANCH  18  21
ATOM     21  O   UNL     1       9.802   8.703  29.122  1.00  0.00    -0.504 OA
ATOM     22  H   UNL     1       9.095   8.230  29.645  1.00  0.00     0.293 HD
ENDBRANCH  18  21
ENDBRANCH   3  13
BRANCH  11  23
ATOM     23  O   UNL     1      12.833  -0.361  29.111  1.00  0.00    -0.507 OA
ATOM     24  H   UNL     1      12.947  -0.787  30.042  1.00  0.00     0.293 HD
ENDBRANCH  11  23
ENDBRANCH   1   2
BRANCH   1  25
ATOM     25  C   UNL     1      18.044   0.584  27.141  1.00  0.00     0.339 C 
ATOM     26  C   UNL     1      18.754   1.618  26.264  1.00  0.00     0.214 C 
ATOM     27  O   UNL     1      18.549  -0.711  26.853  1.00  0.00    -0.332 OA
ATOM     28  C   UNL     1      20.157   1.156  25.791  1.00  0.00     0.180 C 
ATOM     29  C   UNL     1      19.861  -0.887  27.372  1.00  0.00     0.179 C 
ATOM     30  C   UNL     1      20.874   0.205  26.802  1.00  0.00     0.177 C 
BRANCH  26  31
ATOM     31  O   UNL     1      18.759   2.863  26.935  1.00  0.00    -0.384 OA
ATOM     32  H   UNL     1      18.272   2.777  27.786  1.00  0.00     0.211 HD
ENDBRANCH  26  31
BRANCH  28  33
ATOM     33  O   UNL     1      20.915   2.279  25.437  1.00  0.00    -0.387 OA
ATOM     34  H   UNL     1      20.405   2.841  24.786  1.00  0.00     0.211 HD
ENDBRANCH  28  33
BRANCH  29  35
ATOM     35  C   UNL     1      20.214  -2.372  27.195  1.00  0.00     0.191 C 
BRANCH  35  36
ATOM     36  O   UNL     1      21.330  -2.498  26.330  1.00  0.00    -0.394 OA
ATOM     37  H   UNL     1      20.942  -2.570  25.425  1.00  0.00     0.210 HD
ENDBRANCH  35  36
ENDBRANCH  29  35
BRANCH  30  38
ATOM     38  O   UNL     1      22.050  -0.254  26.153  1.00  0.00    -0.387 OA
ATOM     39  H   UNL     1      22.537  -0.910  26.701  1.00  0.00     0.211 HD
ENDBRANCH  30  38
ENDBRANCH   1  25
TORSDOF 11
ENDMDL
MODEL 3
REMARK VINA RESULT:    71.506      6.198      9.910
REMARK INTER + INTRA:         101.936
REMARK INTER:                 102.797
REMARK INTRA:                  -0.861
REMARK UNBOUND:                -0.921
REMARK SMILES O=c1cc(-c2ccc(O)c(O)c2)oc2cc(O[C@H]3O[C@@H](CO)[C@@H](O)[C@H](O)[C@@H]3O)cc(O)c12
REMARK SMILES IDX 17 1 16 2 4 3 3 4 13 5 2 6 14 7 1 8 32 9 15 10 30 11 29 12
REMARK SMILES IDX 5 13 6 14 7 15 8 16 12 17 10 18 9 19 11 21 31 23 18 25 27 26
REMARK SMILES IDX 19 27 25 28 20 29 23 30 28 31 26 33 21 35 22 36 24 38
REMARK H PARENT 9 20 11 22 31 24 28 32 26 34 22 37 24 39
REMARK Flexibility Score: inf
ROOT
ATOM      1  O   UNL     1      10.948   4.946  28.191  1.00  0.00    -0.462 OA
ENDROOT
BRANCH   1   2
ATOM      2  C   UNL     1      11.676   6.136  28.318  1.00  0.00     0.130 A 
ATOM      3  C   UNL     1      13.873   9.803  26.257  1.00  0.00     0.138 A 
ATOM      4  C   UNL     1      13.295  10.742  27.147  1.00  0.00     0.100 A 
ATOM      5  O   UNL     1      13.489   8.533  26.295  1.00  0.00    -0.456 OA
ATOM      6  C   UNL     1      12.411  10.254  28.139  1.00  0.00     0.197 A 
ATOM      7  C   UNL     1      12.698   8.044  27.239  1.00  0.00     0.146 A 
ATOM      8  O   UNL     1      11.810  11.055  28.880  1.00  0.00    -0.289 OA
ATOM      9  C   UNL     1      12.208   8.869  28.272  1.00  0.00     0.107 A 
ATOM     10  C   UNL     1      12.296   6.706  27.201  1.00  0.00     0.094 A 
ATOM     11  C   UNL     1      11.626   8.262  29.399  1.00  0.00     0.134 A 
ATOM     12  C   UNL     1      11.678   6.879  29.508  1.00  0.00     0.093 A 
BRANCH   3  13
ATOM     13  C   UNL     1      15.005  10.149  25.336  1.00  0.00     0.021 A 
ATOM     14  C   UNL     1      15.556   9.222  24.429  1.00  0.00     0.016 A 
ATOM     15  C   UNL     1      16.501   9.635  23.474  1.00  0.00     0.051 A 
ATOM     16  C   UNL     1      16.907  10.974  23.427  1.00  0.00     0.157 A 
ATOM     17  C   UNL     1      15.433  11.497  25.298  1.00  0.00     0.062 A 
ATOM     18  C   UNL     1      16.372  11.906  24.349  1.00  0.00     0.158 A 
BRANCH  16  19
ATOM     19  O   UNL     1      17.794  11.389  22.445  1.00  0.00    -0.504 OA
ATOM     20  H   UNL     1      18.737  11.699  22.722  1.00  0.00     0.293 HD
ENDBRANCH  16  19
BRANCH  18  21
ATOM     21  O   UNL     1      16.742  13.236  24.273  1.00  0.00    -0.504 OA
ATOM     22  H   UNL     1      16.279  13.876  23.661  1.00  0.00     0.293 HD
ENDBRANCH  18  21
ENDBRANCH   3  13
BRANCH  11  23
ATOM     23  O   UNL     1      10.938   8.934  30.398  1.00  0.00    -0.507 OA
ATOM     24  H   UNL     1      10.557   9.869  30.197  1.00  0.00     0.293 HD
ENDBRANCH  11  23
ENDBRANCH   1   2
BRANCH   1  25
ATOM     25  C   UNL     1      11.527   3.660  27.958  1.00  0.00     0.339 C 
ATOM     26  C   UNL     1      10.955   2.699  29.002  1.00  0.00     0.214 C 
ATOM     27  O   UNL     1      12.937   3.736  28.101  1.00  0.00    -0.332 OA
ATOM     28  C   UNL     1      11.985   1.647  29.492  1.00  0.00     0.180 C 
ATOM     29  C   UNL     1      13.573   2.550  27.641  1.00  0.00     0.179 C 
ATOM     30  C   UNL     1      13.040   1.257  28.408  1.00  0.00     0.177 C 
BRANCH  26  31
ATOM     31  O   UNL     1       9.758   2.136  28.503  1.00  0.00    -0.384 OA
ATOM     32  H   UNL     1       9.862   1.160  28.433  1.00  0.00     0.211 HD
ENDBRANCH  26  31
BRANCH  28  33
ATOM     33  O   UNL     1      11.301   0.553  30.033  1.00  0.00    -0.387 OA
ATOM     34  H   UNL     1      11.947  -0.061  30.488  1.00  0.00     0.211 HD
ENDBRANCH  28  33
BRANCH  29  35
ATOM     35  C   UNL     1      15.085   2.827  27.640  1.00  0.00     0.191 C 
BRANCH  35  36
ATOM     36  O   UNL     1      15.773   1.715  27.092  1.00  0.00    -0.394 OA
ATOM     37  H   UNL     1      16.032   2.000  26.183  1.00  0.00     0.210 HD
ENDBRANCH  35  36
ENDBRANCH  29  35
BRANCH  30  38
ATOM     38  O   UNL     1      13.994   0.430  29.058  1.00  0.00    -0.387 OA
ATOM     39  H   UNL     1      13.881  -0.517  28.818  1.00  0.00     0.211 HD
ENDBRANCH  30  38
ENDBRANCH   1  25
TORSDOF 11
ENDMDL
MODEL 4
REMARK VINA RESULT:    72.882      3.965      8.419
REMARK INTER + INTRA:         103.916
REMARK INTER:                 104.449
REMARK INTRA:                  -0.533
REMARK UNBOUND:                -0.921
REMARK SMILES O=c1cc(-c2ccc(O)c(O)c2)oc2cc(O[C@H]3O[C@@H](CO)[C@@H](O)[C@H](O)[C@@H]3O)cc(O)c12
REMARK SMILES IDX 17 1 16 2 4 3 3 4 13 5 2 6 14 7 1 8 32 9 15 10 30 11 29 12
REMARK SMILES IDX 5 13 6 14 7 15 8 16 12 17 10 18 9 19 11 21 31 23 18 25 27 26
REMARK SMILES IDX 19 27 25 28 20 29 23 30 28 31 26 33 21 35 22 36 24 38
REMARK H PARENT 9 20 11 22 31 24 28 32 26 34 22 37 24 39
REMARK Flexibility Score: inf
ROOT
ATOM      1  O   UNL     1      14.872  -0.902  37.013  1.00  0.00    -0.462 OA
ENDROOT
BRANCH   1   2
ATOM      2  C   UNL     1      15.094   0.455  36.746  1.00  0.00     0.130 A 
ATOM      3  C   UNL     1      13.525   4.933  36.839  1.00  0.00     0.138 A 
ATOM      4  C   UNL     1      14.753   5.428  37.347  1.00  0.00     0.100 A 
ATOM      5  O   UNL     1      13.339   3.625  36.722  1.00  0.00    -0.456 OA
ATOM      6  C   UNL     1      15.790   4.496  37.591  1.00  0.00     0.197 A 
ATOM      7  C   UNL     1      14.306   2.736  36.903  1.00  0.00     0.146 A 
ATOM      8  O   UNL     1      16.850   4.876  38.124  1.00  0.00    -0.289 OA
ATOM      9  C   UNL     1      15.611   3.146  37.242  1.00  0.00     0.107 A 
ATOM     10  C   UNL     1      14.036   1.368  36.804  1.00  0.00     0.094 A 
ATOM     11  C   UNL     1      16.659   2.214  37.136  1.00  0.00     0.134 A 
ATOM     12  C   UNL     1      16.387   0.973  36.575  1.00  0.00     0.093 A 
BRANCH   3  13
ATOM     13  C   UNL     1      12.448   5.829  36.306  1.00  0.00     0.021 A 
ATOM     14  C   UNL     1      12.349   6.169  34.942  1.00  0.00     0.016 A 
ATOM     15  C   UNL     1      11.232   6.875  34.463  1.00  0.00     0.051 A 
ATOM     16  C   UNL     1      10.215   7.255  35.345  1.00  0.00     0.157 A 
ATOM     17  C   UNL     1      11.427   6.232  37.198  1.00  0.00     0.062 A 
ATOM     18  C   UNL     1      10.318   6.935  36.721  1.00  0.00     0.158 A 
BRANCH  16  19
ATOM     19  O   UNL     1       9.087   7.898  34.858  1.00  0.00    -0.504 OA
ATOM     20  H   UNL     1       8.617   7.520  34.022  1.00  0.00     0.293 HD
ENDBRANCH  16  19
BRANCH  18  21
ATOM     21  O   UNL     1       9.291   7.272  37.583  1.00  0.00    -0.504 OA
ATOM     22  H   UNL     1       8.376   6.884  37.487  1.00  0.00     0.293 HD
ENDBRANCH  18  21
ENDBRANCH   3  13
BRANCH  11  23
ATOM     23  O   UNL     1      17.948   2.409  37.607  1.00  0.00    -0.507 OA
ATOM     24  H   UNL     1      18.110   2.416  38.624  1.00  0.00     0.293 HD
ENDBRANCH  11  23
ENDBRANCH   1   2
BRANCH   1  25
ATOM     25  C   UNL     1      13.950  -1.730  36.301  1.00  0.00     0.339 C 
ATOM     26  C   UNL     1      14.696  -2.999  35.883  1.00  0.00     0.214 C 
ATOM     27  O   UNL     1      13.487  -1.048  35.146  1.00  0.00    -0.332 OA
ATOM     28  C   UNL     1      14.260  -3.533  34.494  1.00  0.00     0.180 C 
ATOM     29  C   UNL     1      12.391  -1.725  34.544  1.00  0.00     0.179 C 
ATOM     30  C   UNL     1      12.768  -3.224  34.148  1.00  0.00     0.177 C 
BRANCH  26  31
ATOM     31  O   UNL     1      14.594  -3.955  36.920  1.00  0.00    -0.384 OA
ATOM     32  H   UNL     1      14.428  -3.493  37.773  1.00  0.00     0.211 HD
ENDBRANCH  26  31
BRANCH  28  33
ATOM     33  O   UNL     1      14.592  -4.889  34.399  1.00  0.00    -0.387 OA
ATOM     34  H   UNL     1      15.460  -5.061  34.865  1.00  0.00     0.211 HD
ENDBRANCH  28  33
BRANCH  29  35
ATOM     35  C   UNL     1      11.840  -0.798  33.449  1.00  0.00     0.191 C 
BRANCH  35  36
ATOM     36  O   UNL     1      11.323   0.382  34.040  1.00  0.00    -0.394 OA
ATOM     37  H   UNL     1      11.484   0.274  35.008  1.00  0.00     0.210 HD
ENDBRANCH  35  36
ENDBRANCH  29  35
BRANCH  30  38
ATOM     38  O   UNL     1      12.581  -3.621  32.798  1.00  0.00    -0.387 OA
ATOM     39  H   UNL     1      13.048  -4.463  32.596  1.00  0.00     0.211 HD
ENDBRANCH  30  38
ENDBRANCH   1  25
TORSDOF 11
ENDMDL
