MODEL 1
REMARK VINA RESULT:    -4.902      0.000      0.000
REMARK INTER + INTRA:          -5.888
REMARK INTER:                  -5.762
REMARK INTRA:                  -0.126
REMARK UNBOUND:                -0.126
REMARK SMILES O=C([O-])C=Cc1ccc(O)c(O)c1
REMARK SMILES IDX 6 1 13 2 7 3 11 4 8 5 9 6 5 7 4 8 2 9 1 10 3 11 12 12 10 14
REMARK H PARENT 12 13 10 15
REMARK Flexibility Score: inf
ROOT
ATOM      1  C   UNL     1      11.886  14.327  10.168  1.00  0.00    -0.022 A 
ATOM      2  C   UNL     1      11.429  15.404   9.391  1.00  0.00     0.058 A 
ATOM      3  C   UNL     1      12.021  14.505  11.559  1.00  0.00     0.012 A 
ATOM      4  C   UNL     1      11.087  16.627   9.986  1.00  0.00     0.157 A 
ATOM      5  C   UNL     1      11.683  15.723  12.153  1.00  0.00     0.051 A 
ATOM      6  C   UNL     1      11.213  16.785  11.375  1.00  0.00     0.157 A 
ENDROOT
BRANCH   1   7
ATOM      7  C   UNL     1      12.242  13.058   9.487  1.00  0.00     0.010 C 
ATOM      8  C   UNL     1      11.354  12.272   8.863  1.00  0.00     0.025 C 
BRANCH   8   9
ATOM      9  C   UNL     1      11.755  11.027   8.190  1.00  0.00     0.064 C 
ATOM     10  O   UNL     1      12.234  10.081   8.868  1.00  0.00    -0.545 OA
ATOM     11  O   UNL     1      11.615  10.877   6.815  1.00  0.00    -0.545 OA
ENDBRANCH   8   9
ENDBRANCH   1   7
BRANCH   4  12
ATOM     12  O   UNL     1      10.626  17.683   9.201  1.00  0.00    -0.504 OA
ATOM     13  H   UNL     1      11.254  18.393   8.845  1.00  0.00     0.293 HD
ENDBRANCH   4  12
BRANCH   6  14
ATOM     14  O   UNL     1      10.882  17.988  11.998  1.00  0.00    -0.504 OA
ATOM     15  H   UNL     1      10.802  18.067  13.005  1.00  0.00     0.293 HD
ENDBRANCH   6  14
TORSDOF 4
ENDMDL
MODEL 2
REMARK VINA RESULT:    -4.823      3.954      4.727
REMARK INTER + INTRA:          -5.795
REMARK INTER:                  -5.663
REMARK INTRA:                  -0.132
REMARK UNBOUND:                -0.126
REMARK SMILES O=C([O-])C=Cc1ccc(O)c(O)c1
REMARK SMILES IDX 6 1 13 2 7 3 11 4 8 5 9 6 5 7 4 8 2 9 1 10 3 11 12 12 10 14
REMARK H PARENT 12 13 10 15
REMARK Flexibility Score: inf
ROOT
ATOM      1  C   UNL     1      13.905  16.079  10.442  1.00  0.00    -0.022 A 
ATOM      2  C   UNL     1      13.058  17.012   9.823  1.00  0.00     0.058 A 
ATOM      3  C   UNL     1      13.422  15.353  11.549  1.00  0.00     0.012 A 
ATOM      4  C   UNL     1      11.745  17.202  10.276  1.00  0.00     0.157 A 
ATOM      5  C   UNL     1      12.114  15.543  12.002  1.00  0.00     0.051 A 
ATOM      6  C   UNL     1      11.271  16.461  11.370  1.00  0.00     0.157 A 
ENDROOT
BRANCH   1   7
ATOM      7  C   UNL     1      15.288  15.923   9.929  1.00  0.00     0.010 C 
ATOM      8  C   UNL     1      15.907  16.833   9.164  1.00  0.00     0.025 C 
BRANCH   8   9
ATOM      9  C   UNL     1      17.285  16.641   8.686  1.00  0.00     0.064 C 
ATOM     10  O   UNL     1      18.174  17.474   9.002  1.00  0.00    -0.545 OA
ATOM     11  O   UNL     1      17.623  15.554   7.887  1.00  0.00    -0.545 OA
ENDBRANCH   8   9
ENDBRANCH   1   7
BRANCH   4  12
ATOM     12  O   UNL     1      10.912  18.125   9.644  1.00  0.00    -0.504 OA
ATOM     13  H   UNL     1       9.936  17.925   9.467  1.00  0.00     0.293 HD
ENDBRANCH   4  12
BRANCH   6  14
ATOM     14  O   UNL     1       9.970  16.626  11.846  1.00  0.00    -0.504 OA
ATOM     15  H   UNL     1       9.571  17.543  12.011  1.00  0.00     0.293 HD
ENDBRANCH   6  14
TORSDOF 4
ENDMDL
MODEL 3
REMARK VINA RESULT:    -4.716      4.024      5.028
REMARK INTER + INTRA:          -5.669
REMARK INTER:                  -5.533
REMARK INTRA:                  -0.136
REMARK UNBOUND:                -0.126
REMARK SMILES O=C([O-])C=Cc1ccc(O)c(O)c1
REMARK SMILES IDX 6 1 13 2 7 3 11 4 8 5 9 6 5 7 4 8 2 9 1 10 3 11 12 12 10 14
REMARK H PARENT 12 13 10 15
REMARK Flexibility Score: inf
ROOT
ATOM      1  C   UNL     1      13.818  16.994   9.971  1.00  0.00    -0.022 A 
ATOM      2  C   UNL     1      13.502  17.608  11.194  1.00  0.00     0.058 A 
ATOM      3  C   UNL     1      12.825  16.238   9.316  1.00  0.00     0.012 A 
ATOM      4  C   UNL     1      12.217  17.497  11.744  1.00  0.00     0.157 A 
ATOM      5  C   UNL     1      11.545  16.125   9.864  1.00  0.00     0.051 A 
ATOM      6  C   UNL     1      11.234  16.753  11.073  1.00  0.00     0.157 A 
ENDROOT
BRANCH   1   7
ATOM      7  C   UNL     1      15.195  17.136   9.438  1.00  0.00     0.010 C 
ATOM      8  C   UNL     1      15.911  16.117   8.942  1.00  0.00     0.025 C 
BRANCH   8   9
ATOM      9  C   UNL     1      17.271  16.307   8.413  1.00  0.00     0.064 C 
ATOM     10  O   UNL     1      17.812  15.385   7.749  1.00  0.00    -0.545 OA
ATOM     11  O   UNL     1      17.969  17.489   8.636  1.00  0.00    -0.545 OA
ENDBRANCH   8   9
ENDBRANCH   1   7
BRANCH   4  12
ATOM     12  O   UNL     1      11.917  18.121  12.954  1.00  0.00    -0.504 OA
ATOM     13  H   UNL     1      12.111  19.103  13.108  1.00  0.00     0.293 HD
ENDBRANCH   4  12
BRANCH   6  14
ATOM     14  O   UNL     1       9.946  16.623  11.593  1.00  0.00    -0.504 OA
ATOM     15  H   UNL     1       9.777  16.258  12.523  1.00  0.00     0.293 HD
ENDBRANCH   6  14
TORSDOF 4
ENDMDL
MODEL 4
REMARK VINA RESULT:    -4.679      4.370      6.113
REMARK INTER + INTRA:          -5.626
REMARK INTER:                  -5.487
REMARK INTRA:                  -0.139
REMARK UNBOUND:                -0.126
REMARK SMILES O=C([O-])C=Cc1ccc(O)c(O)c1
REMARK SMILES IDX 6 1 13 2 7 3 11 4 8 5 9 6 5 7 4 8 2 9 1 10 3 11 12 12 10 14
REMARK H PARENT 12 13 10 15
REMARK Flexibility Score: inf
ROOT
ATOM      1  C   UNL     1      14.221  16.833  11.889  1.00  0.00    -0.022 A 
ATOM      2  C   UNL     1      13.563  15.595  11.978  1.00  0.00     0.058 A 
ATOM      3  C   UNL     1      13.448  18.004  11.767  1.00  0.00     0.012 A 
ATOM      4  C   UNL     1      12.163  15.523  11.972  1.00  0.00     0.157 A 
ATOM      5  C   UNL     1      12.053  17.933  11.759  1.00  0.00     0.051 A 
ATOM      6  C   UNL     1      11.405  16.699  11.864  1.00  0.00     0.157 A 
ENDROOT
BRANCH   1   7
ATOM      7  C   UNL     1      15.704  16.852  11.891  1.00  0.00     0.010 C 
ATOM      8  C   UNL     1      16.440  17.712  11.174  1.00  0.00     0.025 C 
BRANCH   8   9
ATOM      9  C   UNL     1      17.910  17.702  11.215  1.00  0.00     0.064 C 
ATOM     10  O   UNL     1      18.559  17.414  10.177  1.00  0.00    -0.545 OA
ATOM     11  O   UNL     1      18.597  18.005  12.387  1.00  0.00    -0.545 OA
ENDBRANCH   8   9
ENDBRANCH   1   7
BRANCH   4  12
ATOM     12  O   UNL     1      11.525  14.287  12.071  1.00  0.00    -0.504 OA
ATOM     13  H   UNL     1      10.575  14.206  12.413  1.00  0.00     0.293 HD
ENDBRANCH   4  12
BRANCH   6  14
ATOM     14  O   UNL     1      10.010  16.663  11.855  1.00  0.00    -0.504 OA
ATOM     15  H   UNL     1       9.452  17.371  12.315  1.00  0.00     0.293 HD
ENDBRANCH   6  14
TORSDOF 4
ENDMDL
MODEL 5
REMARK VINA RESULT:    -4.594      4.164      5.062
REMARK INTER + INTRA:          -5.525
REMARK INTER:                  -5.390
REMARK INTRA:                  -0.134
REMARK UNBOUND:                -0.126
REMARK SMILES O=C([O-])C=Cc1ccc(O)c(O)c1
REMARK SMILES IDX 6 1 13 2 7 3 11 4 8 5 9 6 5 7 4 8 2 9 1 10 3 11 12 12 10 14
REMARK H PARENT 12 13 10 15
REMARK Flexibility Score: inf
ROOT
ATOM      1  C   UNL     1      13.862  16.023   9.913  1.00  0.00    -0.022 A 
ATOM      2  C   UNL     1      13.357  15.100  10.843  1.00  0.00     0.058 A 
ATOM      3  C   UNL     1      13.037  17.088   9.497  1.00  0.00     0.012 A 
ATOM      4  C   UNL     1      12.066  15.245  11.371  1.00  0.00     0.157 A 
ATOM      5  C   UNL     1      11.751  17.233  10.022  1.00  0.00     0.051 A 
ATOM      6  C   UNL     1      11.261  16.319  10.960  1.00  0.00     0.157 A 
ENDROOT
BRANCH   1   7
ATOM      7  C   UNL     1      15.230  15.818   9.378  1.00  0.00     0.010 C 
ATOM      8  C   UNL     1      16.079  16.817   9.098  1.00  0.00     0.025 C 
BRANCH   8   9
ATOM      9  C   UNL     1      17.433  16.566   8.580  1.00  0.00     0.064 C 
ATOM     10  O   UNL     1      18.405  17.219   9.040  1.00  0.00    -0.545 OA
ATOM     11  O   UNL     1      17.656  15.619   7.586  1.00  0.00    -0.545 OA
ENDBRANCH   8   9
ENDBRANCH   1   7
BRANCH   4  12
ATOM     12  O   UNL     1      11.582  14.326  12.301  1.00  0.00    -0.504 OA
ATOM     13  H   UNL     1      10.667  14.428  12.723  1.00  0.00     0.293 HD
ENDBRANCH   4  12
BRANCH   6  14
ATOM     14  O   UNL     1       9.973  16.492  11.466  1.00  0.00    -0.504 OA
ATOM     15  H   UNL     1       9.783  17.098  12.256  1.00  0.00     0.293 HD
ENDBRANCH   6  14
TORSDOF 4
ENDMDL
MODEL 6
REMARK VINA RESULT:    -4.450      4.975      5.985
REMARK INTER + INTRA:          -5.356
REMARK INTER:                  -5.225
REMARK INTRA:                  -0.131
REMARK UNBOUND:                -0.126
REMARK SMILES O=C([O-])C=Cc1ccc(O)c(O)c1
REMARK SMILES IDX 6 1 13 2 7 3 11 4 8 5 9 6 5 7 4 8 2 9 1 10 3 11 12 12 10 14
REMARK H PARENT 12 13 10 15
REMARK Flexibility Score: inf
ROOT
ATOM      1  C   UNL     1      14.921  16.844   8.991  1.00  0.00    -0.022 A 
ATOM      2  C   UNL     1      14.304  16.875  10.252  1.00  0.00     0.058 A 
ATOM      3  C   UNL     1      14.124  17.008   7.841  1.00  0.00     0.012 A 
ATOM      4  C   UNL     1      12.924  17.092  10.371  1.00  0.00     0.157 A 
ATOM      5  C   UNL     1      12.748  17.222   7.958  1.00  0.00     0.051 A 
ATOM      6  C   UNL     1      12.144  17.268   9.218  1.00  0.00     0.157 A 
ENDROOT
BRANCH   1   7
ATOM      7  C   UNL     1      16.384  16.603   8.920  1.00  0.00     0.010 C 
ATOM      8  C   UNL     1      17.254  17.018   9.851  1.00  0.00     0.025 C 
BRANCH   8   9
ATOM      9  C   UNL     1      18.696  16.746   9.745  1.00  0.00     0.064 C 
ATOM     10  O   UNL     1      19.500  17.360  10.493  1.00  0.00    -0.545 OA
ATOM     11  O   UNL     1      19.186  15.821   8.829  1.00  0.00    -0.545 OA
ENDBRANCH   8   9
ENDBRANCH   1   7
BRANCH   4  12
ATOM     12  O   UNL     1      12.327  17.129  11.631  1.00  0.00    -0.504 OA
ATOM     13  H   UNL     1      11.697  16.400  11.942  1.00  0.00     0.293 HD
ENDBRANCH   4  12
BRANCH   6  14
ATOM     14  O   UNL     1      10.768  17.485   9.301  1.00  0.00    -0.504 OA
ATOM     15  H   UNL     1      10.175  16.940   9.915  1.00  0.00     0.293 HD
ENDBRANCH   6  14
TORSDOF 4
ENDMDL
MODEL 7
REMARK VINA RESULT:    -4.447      4.937      5.812
REMARK INTER + INTRA:          -5.352
REMARK INTER:                  -5.227
REMARK INTRA:                  -0.126
REMARK UNBOUND:                -0.126
REMARK SMILES O=C([O-])C=Cc1ccc(O)c(O)c1
REMARK SMILES IDX 6 1 13 2 7 3 11 4 8 5 9 6 5 7 4 8 2 9 1 10 3 11 12 12 10 14
REMARK H PARENT 12 13 10 15
REMARK Flexibility Score: inf
ROOT
ATOM      1  C   UNL     1      14.849  16.722   9.850  1.00  0.00    -0.022 A 
ATOM      2  C   UNL     1      14.230  16.623   8.593  1.00  0.00     0.058 A 
ATOM      3  C   UNL     1      14.080  17.143  10.953  1.00  0.00     0.012 A 
ATOM      4  C   UNL     1      12.866  16.910   8.439  1.00  0.00     0.157 A 
ATOM      5  C   UNL     1      12.722  17.430  10.800  1.00  0.00     0.051 A 
ATOM      6  C   UNL     1      12.109  17.313   9.550  1.00  0.00     0.157 A 
ENDROOT
BRANCH   1   7
ATOM      7  C   UNL     1      16.296  16.416   9.956  1.00  0.00     0.010 C 
ATOM      8  C   UNL     1      17.268  17.277   9.623  1.00  0.00     0.025 C 
BRANCH   8   9
ATOM      9  C   UNL     1      18.692  16.934   9.756  1.00  0.00     0.064 C 
ATOM     10  O   UNL     1      19.387  17.498  10.640  1.00  0.00    -0.545 OA
ATOM     11  O   UNL     1      19.285  15.996   8.918  1.00  0.00    -0.545 OA
ENDBRANCH   8   9
ENDBRANCH   1   7
BRANCH   4  12
ATOM     12  O   UNL     1      12.263  16.797   7.186  1.00  0.00    -0.504 OA
ATOM     13  H   UNL     1      12.756  16.404   6.394  1.00  0.00     0.293 HD
ENDBRANCH   4  12
BRANCH   6  14
ATOM     14  O   UNL     1      10.750  17.606   9.431  1.00  0.00    -0.504 OA
ATOM     15  H   UNL     1      10.267  18.193  10.099  1.00  0.00     0.293 HD
ENDBRANCH   6  14
TORSDOF 4
ENDMDL
MODEL 8
REMARK VINA RESULT:    -4.433      5.169      6.402
REMARK INTER + INTRA:          -5.337
REMARK INTER:                  -5.198
REMARK INTRA:                  -0.138
REMARK UNBOUND:                -0.126
REMARK SMILES O=C([O-])C=Cc1ccc(O)c(O)c1
REMARK SMILES IDX 6 1 13 2 7 3 11 4 8 5 9 6 5 7 4 8 2 9 1 10 3 11 12 12 10 14
REMARK H PARENT 12 13 10 15
REMARK Flexibility Score: inf
ROOT
ATOM      1  C   UNL     1      15.220  17.046   9.086  1.00  0.00    -0.022 A 
ATOM      2  C   UNL     1      15.988  16.233   8.237  1.00  0.00     0.058 A 
ATOM      3  C   UNL     1      15.881  17.942   9.949  1.00  0.00     0.012 A 
ATOM      4  C   UNL     1      17.387  16.325   8.226  1.00  0.00     0.157 A 
ATOM      5  C   UNL     1      17.275  18.034   9.939  1.00  0.00     0.051 A 
ATOM      6  C   UNL     1      18.033  17.232   9.080  1.00  0.00     0.157 A 
ENDROOT
BRANCH   1   7
ATOM      7  C   UNL     1      13.743  16.902   9.065  1.00  0.00     0.010 C 
ATOM      8  C   UNL     1      12.980  16.875  10.166  1.00  0.00     0.025 C 
BRANCH   8   9
ATOM      9  C   UNL     1      11.517  16.741  10.097  1.00  0.00     0.064 C 
ATOM     10  O   UNL     1      10.913  17.068   9.043  1.00  0.00    -0.545 OA
ATOM     11  O   UNL     1      10.789  16.261  11.180  1.00  0.00    -0.545 OA
ENDBRANCH   8   9
ENDBRANCH   1   7
BRANCH   4  12
ATOM     12  O   UNL     1      18.136  15.517   7.370  1.00  0.00    -0.504 OA
ATOM     13  H   UNL     1      17.751  15.161   6.504  1.00  0.00     0.293 HD
ENDBRANCH   4  12
BRANCH   6  14
ATOM     14  O   UNL     1      19.423  17.349   9.094  1.00  0.00    -0.504 OA
ATOM     15  H   UNL     1      19.888  18.236   8.945  1.00  0.00     0.293 HD
ENDBRANCH   6  14
TORSDOF 4
ENDMDL
MODEL 9
REMARK VINA RESULT:    -4.385      5.784      6.526
REMARK INTER + INTRA:          -5.279
REMARK INTER:                  -5.153
REMARK INTRA:                  -0.127
REMARK UNBOUND:                -0.126
REMARK SMILES O=C([O-])C=Cc1ccc(O)c(O)c1
REMARK SMILES IDX 6 1 13 2 7 3 11 4 8 5 9 6 5 7 4 8 2 9 1 10 3 11 12 12 10 14
REMARK H PARENT 12 13 10 15
REMARK Flexibility Score: inf
ROOT
ATOM      1  C   UNL     1      16.502  16.687   8.921  1.00  0.00    -0.022 A 
ATOM      2  C   UNL     1      15.514  17.031   9.857  1.00  0.00     0.058 A 
ATOM      3  C   UNL     1      16.161  16.658   7.554  1.00  0.00     0.012 A 
ATOM      4  C   UNL     1      14.217  17.366   9.443  1.00  0.00     0.157 A 
ATOM      5  C   UNL     1      14.869  16.991   7.141  1.00  0.00     0.051 A 
ATOM      6  C   UNL     1      13.895  17.348   8.077  1.00  0.00     0.157 A 
ENDROOT
BRANCH   1   7
ATOM      7  C   UNL     1      17.856  16.332   9.413  1.00  0.00     0.010 C 
ATOM      8  C   UNL     1      18.116  15.257  10.171  1.00  0.00     0.025 C 
BRANCH   8   9
ATOM      9  C   UNL     1      19.478  14.938  10.627  1.00  0.00     0.064 C 
ATOM     10  O   UNL     1      20.070  15.723  11.412  1.00  0.00    -0.545 OA
ATOM     11  O   UNL     1      20.123  13.781  10.203  1.00  0.00    -0.545 OA
ENDBRANCH   8   9
ENDBRANCH   1   7
BRANCH   4  12
ATOM     12  O   UNL     1      13.249  17.715  10.384  1.00  0.00    -0.504 OA
ATOM     13  H   UNL     1      12.558  18.430  10.195  1.00  0.00     0.293 HD
ENDBRANCH   4  12
BRANCH   6  14
ATOM     14  O   UNL     1      12.614  17.676   7.632  1.00  0.00    -0.504 OA
ATOM     15  H   UNL     1      11.965  18.201   8.205  1.00  0.00     0.293 HD
ENDBRANCH   6  14
TORSDOF 4
ENDMDL
