MODEL 1
REMARK VINA RESULT:    -2.947      0.000      0.000
REMARK INTER + INTRA:         -13.769
REMARK INTER:                  -7.770
REMARK INTRA:                  -5.999
REMARK UNBOUND:                -5.999
REMARK SMILES CCCCCCCCCCCCCCCCCCCCCCCCCCCCCC(=O)[O-]
REMARK SMILES IDX 16 1 17 2 18 3 19 4 20 5 21 6 22 7 23 8 24 9 25 10 26 11
REMARK SMILES IDX 27 12 28 13 29 14 30 15 31 16 32 17 15 18 14 19 13 20 12 21
REMARK SMILES IDX 11 22 10 23 9 24 8 25 7 26 6 27 5 28 4 29 3 30 2 31 1 32
REMARK H PARENT
REMARK Flexibility Score: inf
ROOT
ATOM      1  C   UNL     1      60.377  28.740  52.076  1.00  0.00     0.000 C 
ENDROOT
BRANCH   1   2
ATOM      2  C   UNL     1      60.297  27.868  53.341  1.00  0.00     0.000 C 
BRANCH   2   3
ATOM      3  C   UNL     1      58.911  27.932  54.008  1.00  0.00     0.000 C 
BRANCH   3   4
ATOM      4  C   UNL     1      58.337  26.541  54.327  1.00  0.00     0.000 C 
BRANCH   4   5
ATOM      5  C   UNL     1      59.303  25.365  54.079  1.00  0.00     0.000 C 
BRANCH   5   6
ATOM      6  C   UNL     1      58.666  23.963  54.170  1.00  0.00     0.000 C 
BRANCH   6   7
ATOM      7  C   UNL     1      58.950  23.034  52.971  1.00  0.00     0.000 C 
BRANCH   7   8
ATOM      8  C   UNL     1      60.429  22.950  52.547  1.00  0.00     0.000 C 
BRANCH   8   9
ATOM      9  C   UNL     1      60.680  23.043  51.031  1.00  0.00     0.000 C 
BRANCH   9  10
ATOM     10  C   UNL     1      61.827  24.003  50.647  1.00  0.00     0.000 C 
BRANCH  10  11
ATOM     11  C   UNL     1      62.023  25.129  51.677  1.00  0.00     0.000 C 
BRANCH  11  12
ATOM     12  C   UNL     1      63.122  26.119  51.258  1.00  0.00     0.000 C 
BRANCH  12  13
ATOM     13  C   UNL     1      62.944  26.618  49.815  1.00  0.00     0.006 C 
BRANCH  13  14
ATOM     14  C   UNL     1      64.242  26.470  49.017  1.00  0.00     0.053 C 
BRANCH  14  15
ATOM     15  C   UNL     1      64.849  27.809  48.733  1.00  0.00     0.041 C 
ATOM     16  O   UNL     1      65.705  28.296  49.519  1.00  0.00    -0.550 OA
ATOM     17  O   UNL     1      64.464  28.523  47.604  1.00  0.00    -0.550 OA
ENDBRANCH  14  15
ENDBRANCH  13  14
ENDBRANCH  12  13
ENDBRANCH  11  12
ENDBRANCH  10  11
ENDBRANCH   9  10
ENDBRANCH   8   9
ENDBRANCH   7   8
ENDBRANCH   6   7
ENDBRANCH   5   6
ENDBRANCH   4   5
ENDBRANCH   3   4
ENDBRANCH   2   3
ENDBRANCH   1   2
BRANCH   1  18
ATOM     18  C   UNL     1      58.996  29.261  51.637  1.00  0.00     0.000 C 
BRANCH  18  19
ATOM     19  C   UNL     1      58.580  28.741  50.251  1.00  0.00     0.000 C 
BRANCH  19  20
ATOM     20  C   UNL     1      59.607  27.764  49.654  1.00  0.00     0.000 C 
BRANCH  20  21
ATOM     21  C   UNL     1      59.093  26.312  49.605  1.00  0.00     0.000 C 
BRANCH  21  22
ATOM     22  C   UNL     1      58.250  25.879  50.818  1.00  0.00     0.000 C 
BRANCH  22  23
ATOM     23  C   UNL     1      56.828  25.445  50.432  1.00  0.00     0.000 C 
BRANCH  23  24
ATOM     24  C   UNL     1      56.025  25.038  51.676  1.00  0.00    -0.000 C 
BRANCH  24  25
ATOM     25  C   UNL     1      54.541  24.838  51.337  1.00  0.00    -0.000 C 
BRANCH  25  26
ATOM     26  C   UNL     1      54.239  25.101  49.845  1.00  0.00    -0.000 C 
BRANCH  26  27
ATOM     27  C   UNL     1      53.088  26.101  49.607  1.00  0.00    -0.000 C 
BRANCH  27  28
ATOM     28  C   UNL     1      53.114  27.352  50.502  1.00  0.00    -0.000 C 
BRANCH  28  29
ATOM     29  C   UNL     1      54.399  28.177  50.334  1.00  0.00    -0.000 C 
BRANCH  29  30
ATOM     30  C   UNL     1      54.475  29.292  51.388  1.00  0.00    -0.000 C 
BRANCH  30  31
ATOM     31  C   UNL     1      55.480  28.980  52.509  1.00  0.00    -0.003 C 
ATOM     32  C   UNL     1      54.956  27.943  53.504  1.00  0.00     0.004 C 
ENDBRANCH  30  31
ENDBRANCH  29  30
ENDBRANCH  28  29
ENDBRANCH  27  28
ENDBRANCH  26  27
ENDBRANCH  25  26
ENDBRANCH  24  25
ENDBRANCH  23  24
ENDBRANCH  22  23
ENDBRANCH  21  22
ENDBRANCH  20  21
ENDBRANCH  19  20
ENDBRANCH  18  19
ENDBRANCH   1  18
TORSDOF 28
ENDMDL
MODEL 2
REMARK VINA RESULT:    -2.943      8.499     11.922
REMARK INTER + INTRA:         -13.759
REMARK INTER:                  -7.622
REMARK INTRA:                  -6.137
REMARK UNBOUND:                -5.999
REMARK SMILES CCCCCCCCCCCCCCCCCCCCCCCCCCCCCC(=O)[O-]
REMARK SMILES IDX 16 1 17 2 18 3 19 4 20 5 21 6 22 7 23 8 24 9 25 10 26 11
REMARK SMILES IDX 27 12 28 13 29 14 30 15 31 16 32 17 15 18 14 19 13 20 12 21
REMARK SMILES IDX 11 22 10 23 9 24 8 25 7 26 6 27 5 28 4 29 3 30 2 31 1 32
REMARK H PARENT
REMARK Flexibility Score: inf
ROOT
ATOM      1  C   UNL     1      60.705  30.269  60.070  1.00  0.00     0.000 C 
ENDROOT
BRANCH   1   2
ATOM      2  C   UNL     1      61.312  30.567  61.453  1.00  0.00     0.000 C 
BRANCH   2   3
ATOM      3  C   UNL     1      62.253  29.447  61.930  1.00  0.00     0.000 C 
BRANCH   3   4
ATOM      4  C   UNL     1      63.112  28.865  60.793  1.00  0.00     0.000 C 
BRANCH   4   5
ATOM      5  C   UNL     1      64.635  28.962  61.011  1.00  0.00     0.000 C 
BRANCH   5   6
ATOM      6  C   UNL     1      65.453  27.779  60.455  1.00  0.00     0.000 C 
BRANCH   6   7
ATOM      7  C   UNL     1      64.628  26.536  60.066  1.00  0.00     0.000 C 
BRANCH   7   8
ATOM      8  C   UNL     1      64.447  25.495  61.188  1.00  0.00     0.000 C 
BRANCH   8   9
ATOM      9  C   UNL     1      63.017  24.945  61.344  1.00  0.00     0.000 C 
BRANCH   9  10
ATOM     10  C   UNL     1      62.154  25.733  62.353  1.00  0.00     0.000 C 
BRANCH  10  11
ATOM     11  C   UNL     1      60.649  25.632  62.048  1.00  0.00     0.000 C 
BRANCH  11  12
ATOM     12  C   UNL     1      60.271  26.344  60.738  1.00  0.00     0.000 C 
BRANCH  12  13
ATOM     13  C   UNL     1      58.750  26.419  60.529  1.00  0.00     0.006 C 
BRANCH  13  14
ATOM     14  C   UNL     1      58.115  27.448  61.469  1.00  0.00     0.053 C 
BRANCH  14  15
ATOM     15  C   UNL     1      56.772  26.984  61.939  1.00  0.00     0.041 C 
ATOM     16  O   UNL     1      56.416  25.789  61.760  1.00  0.00    -0.550 OA
ATOM     17  O   UNL     1      55.909  27.873  62.569  1.00  0.00    -0.550 OA
ENDBRANCH  14  15
ENDBRANCH  13  14
ENDBRANCH  12  13
ENDBRANCH  11  12
ENDBRANCH  10  11
ENDBRANCH   9  10
ENDBRANCH   8   9
ENDBRANCH   7   8
ENDBRANCH   6   7
ENDBRANCH   5   6
ENDBRANCH   4   5
ENDBRANCH   3   4
ENDBRANCH   2   3
ENDBRANCH   1   2
BRANCH   1  18
ATOM     18  C   UNL     1      60.930  31.420  59.072  1.00  0.00     0.000 C 
BRANCH  18  19
ATOM     19  C   UNL     1      59.806  32.467  59.112  1.00  0.00     0.000 C 
BRANCH  19  20
ATOM     20  C   UNL     1      60.177  33.700  59.955  1.00  0.00     0.000 C 
BRANCH  20  21
ATOM     21  C   UNL     1      61.612  34.194  59.693  1.00  0.00     0.000 C 
BRANCH  21  22
ATOM     22  C   UNL     1      62.405  34.588  60.953  1.00  0.00     0.000 C 
BRANCH  22  23
ATOM     23  C   UNL     1      63.893  34.221  60.860  1.00  0.00     0.000 C 
BRANCH  23  24
ATOM     24  C   UNL     1      64.072  32.707  60.681  1.00  0.00    -0.000 C 
BRANCH  24  25
ATOM     25  C   UNL     1      65.041  32.396  59.532  1.00  0.00    -0.000 C 
BRANCH  25  26
ATOM     26  C   UNL     1      64.390  31.529  58.432  1.00  0.00    -0.000 C 
BRANCH  26  27
ATOM     27  C   UNL     1      65.389  30.644  57.658  1.00  0.00    -0.000 C 
BRANCH  27  28
ATOM     28  C   UNL     1      64.803  29.341  57.089  1.00  0.00    -0.000 C 
BRANCH  28  29
ATOM     29  C   UNL     1      63.269  29.294  57.167  1.00  0.00    -0.000 C 
BRANCH  29  30
ATOM     30  C   UNL     1      62.765  27.843  57.161  1.00  0.00    -0.000 C 
BRANCH  30  31
ATOM     31  C   UNL     1      61.278  27.731  57.538  1.00  0.00    -0.003 C 
ATOM     32  C   UNL     1      60.376  28.593  56.654  1.00  0.00     0.004 C 
ENDBRANCH  30  31
ENDBRANCH  29  30
ENDBRANCH  28  29
ENDBRANCH  27  28
ENDBRANCH  26  27
ENDBRANCH  25  26
ENDBRANCH  24  25
ENDBRANCH  23  24
ENDBRANCH  22  23
ENDBRANCH  21  22
ENDBRANCH  20  21
ENDBRANCH  19  20
ENDBRANCH  18  19
ENDBRANCH   1  18
TORSDOF 28
ENDMDL
MODEL 3
REMARK VINA RESULT:    -2.934      3.081      7.174
REMARK INTER + INTRA:         -13.735
REMARK INTER:                  -7.183
REMARK INTRA:                  -6.552
REMARK UNBOUND:                -5.999
REMARK SMILES CCCCCCCCCCCCCCCCCCCCCCCCCCCCCC(=O)[O-]
REMARK SMILES IDX 16 1 17 2 18 3 19 4 20 5 21 6 22 7 23 8 24 9 25 10 26 11
REMARK SMILES IDX 27 12 28 13 29 14 30 15 31 16 32 17 15 18 14 19 13 20 12 21
REMARK SMILES IDX 11 22 10 23 9 24 8 25 7 26 6 27 5 28 4 29 3 30 2 31 1 32
REMARK H PARENT
REMARK Flexibility Score: inf
ROOT
ATOM      1  C   UNL     1      53.343  24.632  51.268  1.00  0.00     0.000 C 
ENDROOT
BRANCH   1   2
ATOM      2  C   UNL     1      54.349  24.869  50.127  1.00  0.00     0.000 C 
BRANCH   2   3
ATOM      3  C   UNL     1      54.735  26.352  49.989  1.00  0.00     0.000 C 
BRANCH   3   4
ATOM      4  C   UNL     1      53.545  27.302  50.208  1.00  0.00     0.000 C 
BRANCH   4   5
ATOM      5  C   UNL     1      53.925  28.765  50.511  1.00  0.00     0.000 C 
BRANCH   5   6
ATOM      6  C   UNL     1      53.421  29.306  51.864  1.00  0.00     0.000 C 
BRANCH   6   7
ATOM      7  C   UNL     1      54.294  30.409  52.496  1.00  0.00     0.000 C 
BRANCH   7   8
ATOM      8  C   UNL     1      53.854  30.865  53.901  1.00  0.00     0.000 C 
BRANCH   8   9
ATOM      9  C   UNL     1      54.544  30.137  55.069  1.00  0.00     0.000 C 
BRANCH   9  10
ATOM     10  C   UNL     1      56.031  29.814  54.810  1.00  0.00     0.000 C 
BRANCH  10  11
ATOM     11  C   UNL     1      56.978  30.636  55.702  1.00  0.00     0.000 C 
BRANCH  11  12
ATOM     12  C   UNL     1      57.073  32.105  55.255  1.00  0.00     0.000 C 
BRANCH  12  13
ATOM     13  C   UNL     1      57.321  32.243  53.745  1.00  0.00     0.006 C 
BRANCH  13  14
ATOM     14  C   UNL     1      57.856  33.637  53.401  1.00  0.00     0.053 C 
BRANCH  14  15
ATOM     15  C   UNL     1      59.335  33.600  53.175  1.00  0.00     0.041 C 
ATOM     16  O   UNL     1      59.997  32.571  53.477  1.00  0.00    -0.550 OA
ATOM     17  O   UNL     1      59.986  34.703  52.636  1.00  0.00    -0.550 OA
ENDBRANCH  14  15
ENDBRANCH  13  14
ENDBRANCH  12  13
ENDBRANCH  11  12
ENDBRANCH  10  11
ENDBRANCH   9  10
ENDBRANCH   8   9
ENDBRANCH   7   8
ENDBRANCH   6   7
ENDBRANCH   5   6
ENDBRANCH   4   5
ENDBRANCH   3   4
ENDBRANCH   2   3
ENDBRANCH   1   2
BRANCH   1  18
ATOM     18  C   UNL     1      54.038  24.377  52.618  1.00  0.00     0.000 C 
BRANCH  18  19
ATOM     19  C   UNL     1      53.471  25.247  53.751  1.00  0.00     0.000 C 
BRANCH  19  20
ATOM     20  C   UNL     1      54.250  26.561  53.934  1.00  0.00     0.000 C 
BRANCH  20  21
ATOM     21  C   UNL     1      55.668  26.504  53.336  1.00  0.00     0.000 C 
BRANCH  21  22
ATOM     22  C   UNL     1      56.780  26.127  54.332  1.00  0.00     0.000 C 
BRANCH  22  23
ATOM     23  C   UNL     1      58.027  25.550  53.645  1.00  0.00     0.000 C 
BRANCH  23  24
ATOM     24  C   UNL     1      57.661  24.907  52.301  1.00  0.00    -0.000 C 
BRANCH  24  25
ATOM     25  C   UNL     1      58.847  24.946  51.326  1.00  0.00    -0.000 C 
BRANCH  25  26
ATOM     26  C   UNL     1      58.517  25.720  50.031  1.00  0.00    -0.000 C 
BRANCH  26  27
ATOM     27  C   UNL     1      59.562  26.793  49.659  1.00  0.00    -0.000 C 
BRANCH  27  28
ATOM     28  C   UNL     1      59.076  28.248  49.779  1.00  0.00    -0.000 C 
BRANCH  28  29
ATOM     29  C   UNL     1      57.662  28.356  50.370  1.00  0.00    -0.000 C 
BRANCH  29  30
ATOM     30  C   UNL     1      57.693  29.046  51.742  1.00  0.00    -0.000 C 
BRANCH  30  31
ATOM     31  C   UNL     1      59.112  29.464  52.163  1.00  0.00    -0.003 C 
ATOM     32  C   UNL     1      59.538  28.856  53.499  1.00  0.00     0.004 C 
ENDBRANCH  30  31
ENDBRANCH  29  30
ENDBRANCH  28  29
ENDBRANCH  27  28
ENDBRANCH  26  27
ENDBRANCH  25  26
ENDBRANCH  24  25
ENDBRANCH  23  24
ENDBRANCH  22  23
ENDBRANCH  21  22
ENDBRANCH  20  21
ENDBRANCH  19  20
ENDBRANCH  18  19
ENDBRANCH   1  18
TORSDOF 28
ENDMDL
MODEL 4
REMARK VINA RESULT:    -2.891      1.784      3.446
REMARK INTER + INTRA:         -13.623
REMARK INTER:                  -7.712
REMARK INTRA:                  -5.911
REMARK UNBOUND:                -5.999
REMARK SMILES CCCCCCCCCCCCCCCCCCCCCCCCCCCCCC(=O)[O-]
REMARK SMILES IDX 16 1 17 2 18 3 19 4 20 5 21 6 22 7 23 8 24 9 25 10 26 11
REMARK SMILES IDX 27 12 28 13 29 14 30 15 31 16 32 17 15 18 14 19 13 20 12 21
REMARK SMILES IDX 11 22 10 23 9 24 8 25 7 26 6 27 5 28 4 29 3 30 2 31 1 32
REMARK H PARENT
REMARK Flexibility Score: inf
ROOT
ATOM      1  C   UNL     1      59.070  27.877  49.421  1.00  0.00     0.000 C 
ENDROOT
BRANCH   1   2
ATOM      2  C   UNL     1      58.922  28.987  50.477  1.00  0.00     0.000 C 
BRANCH   2   3
ATOM      3  C   UNL     1      57.753  28.721  51.443  1.00  0.00     0.000 C 
BRANCH   3   4
ATOM      4  C   UNL     1      57.746  29.677  52.648  1.00  0.00     0.000 C 
BRANCH   4   5
ATOM      5  C   UNL     1      57.263  29.054  53.972  1.00  0.00     0.000 C 
BRANCH   5   6
ATOM      6  C   UNL     1      57.641  27.572  54.175  1.00  0.00     0.000 C 
BRANCH   6   7
ATOM      7  C   UNL     1      58.987  27.331  54.889  1.00  0.00     0.000 C 
BRANCH   7   8
ATOM      8  C   UNL     1      60.085  26.695  54.014  1.00  0.00     0.000 C 
BRANCH   8   9
ATOM      9  C   UNL     1      60.929  27.693  53.199  1.00  0.00     0.000 C 
BRANCH   9  10
ATOM     10  C   UNL     1      61.219  29.015  53.942  1.00  0.00     0.000 C 
BRANCH  10  11
ATOM     11  C   UNL     1      62.041  30.001  53.092  1.00  0.00     0.000 C 
BRANCH  11  12
ATOM     12  C   UNL     1      62.254  29.496  51.655  1.00  0.00     0.000 C 
BRANCH  12  13
ATOM     13  C   UNL     1      63.730  29.193  51.352  1.00  0.00     0.006 C 
BRANCH  13  14
ATOM     14  C   UNL     1      63.864  28.279  50.130  1.00  0.00     0.053 C 
BRANCH  14  15
ATOM     15  C   UNL     1      64.349  29.048  48.941  1.00  0.00     0.041 C 
ATOM     16  O   UNL     1      64.298  28.536  47.791  1.00  0.00    -0.550 OA
ATOM     17  O   UNL     1      64.864  30.330  49.102  1.00  0.00    -0.550 OA
ENDBRANCH  14  15
ENDBRANCH  13  14
ENDBRANCH  12  13
ENDBRANCH  11  12
ENDBRANCH  10  11
ENDBRANCH   9  10
ENDBRANCH   8   9
ENDBRANCH   7   8
ENDBRANCH   6   7
ENDBRANCH   5   6
ENDBRANCH   4   5
ENDBRANCH   3   4
ENDBRANCH   2   3
ENDBRANCH   1   2
BRANCH   1  18
ATOM     18  C   UNL     1      60.365  27.065  49.604  1.00  0.00     0.000 C 
BRANCH  18  19
ATOM     19  C   UNL     1      60.117  25.693  50.251  1.00  0.00     0.000 C 
BRANCH  19  20
ATOM     20  C   UNL     1      58.652  25.238  50.129  1.00  0.00     0.000 C 
BRANCH  20  21
ATOM     21  C   UNL     1      57.979  25.012  51.496  1.00  0.00     0.000 C 
BRANCH  21  22
ATOM     22  C   UNL     1      56.447  25.168  51.502  1.00  0.00     0.000 C 
BRANCH  22  23
ATOM     23  C   UNL     1      55.906  25.790  50.206  1.00  0.00     0.000 C 
BRANCH  23  24
ATOM     24  C   UNL     1      54.422  25.446  50.015  1.00  0.00    -0.000 C 
BRANCH  24  25
ATOM     25  C   UNL     1      53.552  26.711  50.035  1.00  0.00    -0.000 C 
BRANCH  25  26
ATOM     26  C   UNL     1      54.370  27.980  50.363  1.00  0.00    -0.000 C 
BRANCH  26  27
ATOM     27  C   UNL     1      54.104  28.549  51.772  1.00  0.00    -0.000 C 
BRANCH  27  28
ATOM     28  C   UNL     1      53.849  30.065  51.826  1.00  0.00    -0.000 C 
BRANCH  28  29
ATOM     29  C   UNL     1      53.906  30.628  53.255  1.00  0.00    -0.000 C 
BRANCH  29  30
ATOM     30  C   UNL     1      54.765  31.900  53.308  1.00  0.00    -0.000 C 
BRANCH  30  31
ATOM     31  C   UNL     1      55.314  32.186  54.716  1.00  0.00    -0.003 C 
ATOM     32  C   UNL     1      54.793  31.205  55.766  1.00  0.00     0.004 C 
ENDBRANCH  30  31
ENDBRANCH  29  30
ENDBRANCH  28  29
ENDBRANCH  27  28
ENDBRANCH  26  27
ENDBRANCH  25  26
ENDBRANCH  24  25
ENDBRANCH  23  24
ENDBRANCH  22  23
ENDBRANCH  21  22
ENDBRANCH  20  21
ENDBRANCH  19  20
ENDBRANCH  18  19
ENDBRANCH   1  18
TORSDOF 28
ENDMDL
MODEL 5
REMARK VINA RESULT:    -2.814      7.763     10.893
REMARK INTER + INTRA:         -13.419
REMARK INTER:                  -6.919
REMARK INTRA:                  -6.500
REMARK UNBOUND:                -5.999
REMARK SMILES CCCCCCCCCCCCCCCCCCCCCCCCCCCCCC(=O)[O-]
REMARK SMILES IDX 16 1 17 2 18 3 19 4 20 5 21 6 22 7 23 8 24 9 25 10 26 11
REMARK SMILES IDX 27 12 28 13 29 14 30 15 31 16 32 17 15 18 14 19 13 20 12 21
REMARK SMILES IDX 11 22 10 23 9 24 8 25 7 26 6 27 5 28 4 29 3 30 2 31 1 32
REMARK H PARENT
REMARK Flexibility Score: inf
ROOT
ATOM      1  C   UNL     1      64.080  30.379  58.538  1.00  0.00     0.000 C 
ENDROOT
BRANCH   1   2
ATOM      2  C   UNL     1      64.774  31.367  59.492  1.00  0.00     0.000 C 
BRANCH   2   3
ATOM      3  C   UNL     1      64.504  31.038  60.971  1.00  0.00     0.000 C 
BRANCH   3   4
ATOM      4  C   UNL     1      63.632  29.783  61.153  1.00  0.00     0.000 C 
BRANCH   4   5
ATOM      5  C   UNL     1      62.326  30.006  61.943  1.00  0.00     0.000 C 
BRANCH   5   6
ATOM      6  C   UNL     1      61.029  29.819  61.131  1.00  0.00     0.000 C 
BRANCH   6   7
ATOM      7  C   UNL     1      61.099  28.750  60.020  1.00  0.00     0.000 C 
BRANCH   7   8
ATOM      8  C   UNL     1      60.490  29.172  58.669  1.00  0.00     0.000 C 
BRANCH   8   9
ATOM      9  C   UNL     1      59.000  28.826  58.487  1.00  0.00     0.000 C 
BRANCH   9  10
ATOM     10  C   UNL     1      58.263  29.752  57.496  1.00  0.00     0.000 C 
BRANCH  10  11
ATOM     11  C   UNL     1      58.306  31.230  57.925  1.00  0.00     0.000 C 
BRANCH  11  12
ATOM     12  C   UNL     1      58.334  32.187  56.721  1.00  0.00     0.000 C 
BRANCH  12  13
ATOM     13  C   UNL     1      58.883  31.516  55.452  1.00  0.00     0.006 C 
BRANCH  13  14
ATOM     14  C   UNL     1      58.006  31.838  54.238  1.00  0.00     0.053 C 
BRANCH  14  15
ATOM     15  C   UNL     1      58.190  33.261  53.810  1.00  0.00     0.041 C 
ATOM     16  O   UNL     1      59.228  33.606  53.185  1.00  0.00    -0.550 OA
ATOM     17  O   UNL     1      57.217  34.209  54.107  1.00  0.00    -0.550 OA
ENDBRANCH  14  15
ENDBRANCH  13  14
ENDBRANCH  12  13
ENDBRANCH  11  12
ENDBRANCH  10  11
ENDBRANCH   9  10
ENDBRANCH   8   9
ENDBRANCH   7   8
ENDBRANCH   6   7
ENDBRANCH   5   6
ENDBRANCH   4   5
ENDBRANCH   3   4
ENDBRANCH   2   3
ENDBRANCH   1   2
BRANCH   1  18
ATOM     18  C   UNL     1      64.097  30.866  57.077  1.00  0.00     0.000 C 
BRANCH  18  19
ATOM     19  C   UNL     1      62.687  31.131  56.525  1.00  0.00     0.000 C 
BRANCH  19  20
ATOM     20  C   UNL     1      62.026  32.366  57.162  1.00  0.00     0.000 C 
BRANCH  20  21
ATOM     21  C   UNL     1      62.895  33.633  57.054  1.00  0.00     0.000 C 
BRANCH  21  22
ATOM     22  C   UNL     1      62.120  34.962  57.112  1.00  0.00     0.000 C 
BRANCH  22  23
ATOM     23  C   UNL     1      61.052  35.079  56.015  1.00  0.00     0.000 C 
BRANCH  23  24
ATOM     24  C   UNL     1      59.671  35.356  56.624  1.00  0.00    -0.000 C 
BRANCH  24  25
ATOM     25  C   UNL     1      59.792  35.818  58.083  1.00  0.00    -0.000 C 
BRANCH  25  26
ATOM     26  C   UNL     1      58.891  35.000  59.035  1.00  0.00    -0.000 C 
BRANCH  26  27
ATOM     27  C   UNL     1      59.573  34.613  60.364  1.00  0.00    -0.000 C 
BRANCH  27  28
ATOM     28  C   UNL     1      60.349  33.285  60.336  1.00  0.00    -0.000 C 
BRANCH  28  29
ATOM     29  C   UNL     1      61.859  33.472  60.544  1.00  0.00    -0.000 C 
BRANCH  29  30
ATOM     30  C   UNL     1      62.188  34.935  60.878  1.00  0.00    -0.000 C 
BRANCH  30  31
ATOM     31  C   UNL     1      63.659  35.289  60.601  1.00  0.00    -0.003 C 
ATOM     32  C   UNL     1      64.622  34.652  61.604  1.00  0.00     0.004 C 
ENDBRANCH  30  31
ENDBRANCH  29  30
ENDBRANCH  28  29
ENDBRANCH  27  28
ENDBRANCH  26  27
ENDBRANCH  25  26
ENDBRANCH  24  25
ENDBRANCH  23  24
ENDBRANCH  22  23
ENDBRANCH  21  22
ENDBRANCH  20  21
ENDBRANCH  19  20
ENDBRANCH  18  19
ENDBRANCH   1  18
TORSDOF 28
ENDMDL
MODEL 6
REMARK VINA RESULT:    -2.778      3.611      7.401
REMARK INTER + INTRA:         -13.323
REMARK INTER:                  -7.110
REMARK INTRA:                  -6.214
REMARK UNBOUND:                -5.999
REMARK SMILES CCCCCCCCCCCCCCCCCCCCCCCCCCCCCC(=O)[O-]
REMARK SMILES IDX 16 1 17 2 18 3 19 4 20 5 21 6 22 7 23 8 24 9 25 10 26 11
REMARK SMILES IDX 27 12 28 13 29 14 30 15 31 16 32 17 15 18 14 19 13 20 12 21
REMARK SMILES IDX 11 22 10 23 9 24 8 25 7 26 6 27 5 28 4 29 3 30 2 31 1 32
REMARK H PARENT
REMARK Flexibility Score: inf
ROOT
ATOM      1  C   UNL     1      53.649  27.055  50.247  1.00  0.00     0.000 C 
ENDROOT
BRANCH   1   2
ATOM      2  C   UNL     1      54.002  25.687  49.636  1.00  0.00     0.000 C 
BRANCH   2   3
ATOM      3  C   UNL     1      53.413  24.518  50.445  1.00  0.00     0.000 C 
BRANCH   3   4
ATOM      4  C   UNL     1      53.445  24.767  51.963  1.00  0.00     0.000 C 
BRANCH   4   5
ATOM      5  C   UNL     1      54.809  24.515  52.637  1.00  0.00     0.000 C 
BRANCH   5   6
ATOM      6  C   UNL     1      55.124  25.429  53.838  1.00  0.00     0.000 C 
BRANCH   6   7
ATOM      7  C   UNL     1      54.122  26.580  54.068  1.00  0.00     0.000 C 
BRANCH   7   8
ATOM      8  C   UNL     1      54.746  27.988  54.116  1.00  0.00     0.000 C 
BRANCH   8   9
ATOM      9  C   UNL     1      53.821  29.128  53.649  1.00  0.00     0.000 C 
BRANCH   9  10
ATOM     10  C   UNL     1      54.555  30.464  53.403  1.00  0.00     0.000 C 
BRANCH  10  11
ATOM     11  C   UNL     1      56.087  30.312  53.445  1.00  0.00     0.000 C 
BRANCH  11  12
ATOM     12  C   UNL     1      56.741  31.268  54.456  1.00  0.00     0.000 C 
BRANCH  12  13
ATOM     13  C   UNL     1      55.804  31.617  55.624  1.00  0.00     0.006 C 
BRANCH  13  14
ATOM     14  C   UNL     1      56.186  30.838  56.886  1.00  0.00     0.053 C 
BRANCH  14  15
ATOM     15  C   UNL     1      57.361  31.467  57.567  1.00  0.00     0.041 C 
ATOM     16  O   UNL     1      58.246  30.746  58.100  1.00  0.00    -0.550 OA
ATOM     17  O   UNL     1      57.478  32.852  57.618  1.00  0.00    -0.550 OA
ENDBRANCH  14  15
ENDBRANCH  13  14
ENDBRANCH  12  13
ENDBRANCH  11  12
ENDBRANCH  10  11
ENDBRANCH   9  10
ENDBRANCH   8   9
ENDBRANCH   7   8
ENDBRANCH   6   7
ENDBRANCH   5   6
ENDBRANCH   4   5
ENDBRANCH   3   4
ENDBRANCH   2   3
ENDBRANCH   1   2
BRANCH   1  18
ATOM     18  C   UNL     1      54.887  27.952  50.428  1.00  0.00     0.000 C 
BRANCH  18  19
ATOM     19  C   UNL     1      56.191  27.146  50.538  1.00  0.00     0.000 C 
BRANCH  19  20
ATOM     20  C   UNL     1      57.371  27.997  51.041  1.00  0.00     0.000 C 
BRANCH  20  21
ATOM     21  C   UNL     1      58.227  28.570  49.896  1.00  0.00     0.000 C 
BRANCH  21  22
ATOM     22  C   UNL     1      59.604  29.112  50.321  1.00  0.00     0.000 C 
BRANCH  22  23
ATOM     23  C   UNL     1      60.460  28.064  51.047  1.00  0.00     0.000 C 
BRANCH  23  24
ATOM     24  C   UNL     1      61.161  27.140  50.041  1.00  0.00    -0.000 C 
BRANCH  24  25
ATOM     25  C   UNL     1      60.972  25.664  50.419  1.00  0.00    -0.000 C 
BRANCH  25  26
ATOM     26  C   UNL     1      59.598  25.116  49.975  1.00  0.00    -0.000 C 
BRANCH  26  27
ATOM     27  C   UNL     1      58.735  24.576  51.135  1.00  0.00    -0.000 C 
BRANCH  27  28
ATOM     28  C   UNL     1      59.468  24.425  52.479  1.00  0.00    -0.000 C 
BRANCH  28  29
ATOM     29  C   UNL     1      58.721  25.091  53.644  1.00  0.00    -0.000 C 
BRANCH  29  30
ATOM     30  C   UNL     1      59.255  26.508  53.899  1.00  0.00    -0.000 C 
BRANCH  30  31
ATOM     31  C   UNL     1      58.214  27.422  54.565  1.00  0.00    -0.003 C 
ATOM     32  C   UNL     1      58.731  28.075  55.848  1.00  0.00     0.004 C 
ENDBRANCH  30  31
ENDBRANCH  29  30
ENDBRANCH  28  29
ENDBRANCH  27  28
ENDBRANCH  26  27
ENDBRANCH  25  26
ENDBRANCH  24  25
ENDBRANCH  23  24
ENDBRANCH  22  23
ENDBRANCH  21  22
ENDBRANCH  20  21
ENDBRANCH  19  20
ENDBRANCH  18  19
ENDBRANCH   1  18
TORSDOF 28
ENDMDL
MODEL 7
REMARK VINA RESULT:    -2.765      2.078      5.238
REMARK INTER + INTRA:         -13.291
REMARK INTER:                  -6.807
REMARK INTRA:                  -6.484
REMARK UNBOUND:                -5.999
REMARK SMILES CCCCCCCCCCCCCCCCCCCCCCCCCCCCCC(=O)[O-]
REMARK SMILES IDX 16 1 17 2 18 3 19 4 20 5 21 6 22 7 23 8 24 9 25 10 26 11
REMARK SMILES IDX 27 12 28 13 29 14 30 15 31 16 32 17 15 18 14 19 13 20 12 21
REMARK SMILES IDX 11 22 10 23 9 24 8 25 7 26 6 27 5 28 4 29 3 30 2 31 1 32
REMARK H PARENT
REMARK Flexibility Score: inf
ROOT
ATOM      1  C   UNL     1      57.855  24.989  50.654  1.00  0.00     0.000 C 
ENDROOT
BRANCH   1   2
ATOM      2  C   UNL     1      59.048  25.150  51.613  1.00  0.00     0.000 C 
BRANCH   2   3
ATOM      3  C   UNL     1      60.176  26.001  51.003  1.00  0.00     0.000 C 
BRANCH   3   4
ATOM      4  C   UNL     1      59.789  26.623  49.649  1.00  0.00     0.000 C 
BRANCH   4   5
ATOM      5  C   UNL     1      59.539  28.144  49.678  1.00  0.00     0.000 C 
BRANCH   5   6
ATOM      6  C   UNL     1      58.126  28.567  50.128  1.00  0.00     0.000 C 
BRANCH   6   7
ATOM      7  C   UNL     1      58.071  29.381  51.438  1.00  0.00     0.000 C 
BRANCH   7   8
ATOM      8  C   UNL     1      58.165  28.545  52.729  1.00  0.00     0.000 C 
BRANCH   8   9
ATOM      9  C   UNL     1      59.538  28.575  53.427  1.00  0.00     0.000 C 
BRANCH   9  10
ATOM     10  C   UNL     1      60.328  29.880  53.190  1.00  0.00     0.000 C 
BRANCH  10  11
ATOM     11  C   UNL     1      61.581  29.662  52.322  1.00  0.00     0.000 C 
BRANCH  11  12
ATOM     12  C   UNL     1      62.308  28.352  52.667  1.00  0.00     0.000 C 
BRANCH  12  13
ATOM     13  C   UNL     1      63.400  28.000  51.644  1.00  0.00     0.006 C 
BRANCH  13  14
ATOM     14  C   UNL     1      63.104  28.638  50.283  1.00  0.00     0.053 C 
BRANCH  14  15
ATOM     15  C   UNL     1      63.507  27.724  49.167  1.00  0.00     0.041 C 
ATOM     16  O   UNL     1      63.327  26.481  49.269  1.00  0.00    -0.550 OA
ATOM     17  O   UNL     1      64.089  28.243  48.016  1.00  0.00    -0.550 OA
ENDBRANCH  14  15
ENDBRANCH  13  14
ENDBRANCH  12  13
ENDBRANCH  11  12
ENDBRANCH  10  11
ENDBRANCH   9  10
ENDBRANCH   8   9
ENDBRANCH   7   8
ENDBRANCH   6   7
ENDBRANCH   5   6
ENDBRANCH   4   5
ENDBRANCH   3   4
ENDBRANCH   2   3
ENDBRANCH   1   2
BRANCH   1  18
ATOM     18  C   UNL     1      56.548  25.546  51.248  1.00  0.00     0.000 C 
BRANCH  18  19
ATOM     19  C   UNL     1      55.326  25.266  50.357  1.00  0.00     0.000 C 
BRANCH  19  20
ATOM     20  C   UNL     1      54.391  26.483  50.239  1.00  0.00     0.000 C 
BRANCH  20  21
ATOM     21  C   UNL     1      54.775  27.628  51.194  1.00  0.00     0.000 C 
BRANCH  21  22
ATOM     22  C   UNL     1      54.365  29.035  50.721  1.00  0.00     0.000 C 
BRANCH  22  23
ATOM     23  C   UNL     1      54.139  30.014  51.883  1.00  0.00     0.000 C 
BRANCH  23  24
ATOM     24  C   UNL     1      54.434  29.339  53.229  1.00  0.00    -0.000 C 
BRANCH  24  25
ATOM     25  C   UNL     1      55.038  30.336  54.229  1.00  0.00    -0.000 C 
BRANCH  25  26
ATOM     26  C   UNL     1      55.805  31.478  53.527  1.00  0.00    -0.000 C 
BRANCH  26  27
ATOM     27  C   UNL     1      57.171  31.801  54.168  1.00  0.00    -0.000 C 
BRANCH  27  28
ATOM     28  C   UNL     1      57.224  31.658  55.699  1.00  0.00    -0.000 C 
BRANCH  28  29
ATOM     29  C   UNL     1      58.167  30.538  56.161  1.00  0.00    -0.000 C 
BRANCH  29  30
ATOM     30  C   UNL     1      57.410  29.492  56.994  1.00  0.00    -0.000 C 
BRANCH  30  31
ATOM     31  C   UNL     1      57.247  28.153  56.256  1.00  0.00    -0.003 C 
ATOM     32  C   UNL     1      56.172  27.261  56.878  1.00  0.00     0.004 C 
ENDBRANCH  30  31
ENDBRANCH  29  30
ENDBRANCH  28  29
ENDBRANCH  27  28
ENDBRANCH  26  27
ENDBRANCH  25  26
ENDBRANCH  24  25
ENDBRANCH  23  24
ENDBRANCH  22  23
ENDBRANCH  21  22
ENDBRANCH  20  21
ENDBRANCH  19  20
ENDBRANCH  18  19
ENDBRANCH   1  18
TORSDOF 28
ENDMDL
MODEL 8
REMARK VINA RESULT:    -2.737      4.024      8.227
REMARK INTER + INTRA:         -13.217
REMARK INTER:                  -7.469
REMARK INTRA:                  -5.748
REMARK UNBOUND:                -5.999
REMARK SMILES CCCCCCCCCCCCCCCCCCCCCCCCCCCCCC(=O)[O-]
REMARK SMILES IDX 16 1 17 2 18 3 19 4 20 5 21 6 22 7 23 8 24 9 25 10 26 11
REMARK SMILES IDX 27 12 28 13 29 14 30 15 31 16 32 17 15 18 14 19 13 20 12 21
REMARK SMILES IDX 11 22 10 23 9 24 8 25 7 26 6 27 5 28 4 29 3 30 2 31 1 32
REMARK H PARENT
REMARK Flexibility Score: inf
ROOT
ATOM      1  C   UNL     1      55.416  26.729  50.385  1.00  0.00     0.000 C 
ENDROOT
BRANCH   1   2
ATOM      2  C   UNL     1      53.924  26.784  50.011  1.00  0.00     0.000 C 
BRANCH   2   3
ATOM      3  C   UNL     1      53.288  28.145  50.344  1.00  0.00     0.000 C 
BRANCH   3   4
ATOM      4  C   UNL     1      54.328  29.210  50.733  1.00  0.00     0.000 C 
BRANCH   4   5
ATOM      5  C   UNL     1      54.018  29.979  52.033  1.00  0.00     0.000 C 
BRANCH   5   6
ATOM      6  C   UNL     1      55.219  30.177  52.980  1.00  0.00     0.000 C 
BRANCH   6   7
ATOM      7  C   UNL     1      55.064  31.316  54.009  1.00  0.00     0.000 C 
BRANCH   7   8
ATOM      8  C   UNL     1      56.106  32.445  53.895  1.00  0.00     0.000 C 
BRANCH   8   9
ATOM      9  C   UNL     1      57.555  32.031  54.213  1.00  0.00     0.000 C 
BRANCH   9  10
ATOM     10  C   UNL     1      57.919  32.140  55.709  1.00  0.00     0.000 C 
BRANCH  10  11
ATOM     11  C   UNL     1      58.676  30.902  56.224  1.00  0.00     0.000 C 
BRANCH  11  12
ATOM     12  C   UNL     1      57.730  29.846  56.820  1.00  0.00     0.000 C 
BRANCH  12  13
ATOM     13  C   UNL     1      56.427  30.460  57.356  1.00  0.00     0.006 C 
BRANCH  13  14
ATOM     14  C   UNL     1      55.616  29.427  58.143  1.00  0.00     0.053 C 
BRANCH  14  15
ATOM     15  C   UNL     1      55.114  28.344  57.240  1.00  0.00     0.041 C 
ATOM     16  O   UNL     1      55.446  27.145  57.443  1.00  0.00    -0.550 OA
ATOM     17  O   UNL     1      54.284  28.657  56.170  1.00  0.00    -0.550 OA
ENDBRANCH  14  15
ENDBRANCH  13  14
ENDBRANCH  12  13
ENDBRANCH  11  12
ENDBRANCH  10  11
ENDBRANCH   9  10
ENDBRANCH   8   9
ENDBRANCH   7   8
ENDBRANCH   6   7
ENDBRANCH   5   6
ENDBRANCH   4   5
ENDBRANCH   3   4
ENDBRANCH   2   3
ENDBRANCH   1   2
BRANCH   1  18
ATOM     18  C   UNL     1      55.859  25.320  50.818  1.00  0.00     0.000 C 
BRANCH  18  19
ATOM     19  C   UNL     1      56.129  25.222  52.328  1.00  0.00     0.000 C 
BRANCH  19  20
ATOM     20  C   UNL     1      55.598  26.440  53.103  1.00  0.00     0.000 C 
BRANCH  20  21
ATOM     21  C   UNL     1      56.687  27.137  53.941  1.00  0.00     0.000 C 
BRANCH  21  22
ATOM     22  C   UNL     1      58.066  27.235  53.263  1.00  0.00     0.000 C 
BRANCH  22  23
ATOM     23  C   UNL     1      58.697  28.629  53.393  1.00  0.00     0.000 C 
BRANCH  23  24
ATOM     24  C   UNL     1      59.171  29.143  52.026  1.00  0.00    -0.000 C 
BRANCH  24  25
ATOM     25  C   UNL     1      58.075  28.979  50.963  1.00  0.00    -0.000 C 
BRANCH  25  26
ATOM     26  C   UNL     1      58.630  28.437  49.628  1.00  0.00    -0.000 C 
BRANCH  26  27
ATOM     27  C   UNL     1      59.804  27.449  49.793  1.00  0.00    -0.000 C 
BRANCH  27  28
ATOM     28  C   UNL     1      59.424  25.961  49.698  1.00  0.00    -0.000 C 
BRANCH  28  29
ATOM     29  C   UNL     1      59.628  25.209  51.022  1.00  0.00    -0.000 C 
BRANCH  29  30
ATOM     30  C   UNL     1      61.079  25.340  51.508  1.00  0.00    -0.000 C 
BRANCH  30  31
ATOM     31  C   UNL     1      62.084  24.661  50.562  1.00  0.00    -0.003 C 
ATOM     32  C   UNL     1      63.279  25.555  50.227  1.00  0.00     0.004 C 
ENDBRANCH  30  31
ENDBRANCH  29  30
ENDBRANCH  28  29
ENDBRANCH  27  28
ENDBRANCH  26  27
ENDBRANCH  25  26
ENDBRANCH  24  25
ENDBRANCH  23  24
ENDBRANCH  22  23
ENDBRANCH  21  22
ENDBRANCH  20  21
ENDBRANCH  19  20
ENDBRANCH  18  19
ENDBRANCH   1  18
TORSDOF 28
ENDMDL
MODEL 9
REMARK VINA RESULT:    -2.716      3.138      7.551
REMARK INTER + INTRA:         -13.160
REMARK INTER:                  -6.707
REMARK INTRA:                  -6.453
REMARK UNBOUND:                -5.999
REMARK SMILES CCCCCCCCCCCCCCCCCCCCCCCCCCCCCC(=O)[O-]
REMARK SMILES IDX 16 1 17 2 18 3 19 4 20 5 21 6 22 7 23 8 24 9 25 10 26 11
REMARK SMILES IDX 27 12 28 13 29 14 30 15 31 16 32 17 15 18 14 19 13 20 12 21
REMARK SMILES IDX 11 22 10 23 9 24 8 25 7 26 6 27 5 28 4 29 3 30 2 31 1 32
REMARK H PARENT
REMARK Flexibility Score: inf
ROOT
ATOM      1  C   UNL     1      56.009  25.637  50.116  1.00  0.00     0.000 C 
ENDROOT
BRANCH   1   2
ATOM      2  C   UNL     1      54.479  25.482  50.061  1.00  0.00     0.000 C 
BRANCH   2   3
ATOM      3  C   UNL     1      53.756  26.840  50.031  1.00  0.00     0.000 C 
BRANCH   3   4
ATOM      4  C   UNL     1      54.672  28.012  50.423  1.00  0.00     0.000 C 
BRANCH   4   5
ATOM      5  C   UNL     1      53.939  29.320  50.785  1.00  0.00     0.000 C 
BRANCH   5   6
ATOM      6  C   UNL     1      54.021  29.727  52.270  1.00  0.00     0.000 C 
BRANCH   6   7
ATOM      7  C   UNL     1      53.443  28.699  53.265  1.00  0.00     0.000 C 
BRANCH   7   8
ATOM      8  C   UNL     1      54.476  28.050  54.206  1.00  0.00     0.000 C 
BRANCH   8   9
ATOM      9  C   UNL     1      54.571  26.516  54.113  1.00  0.00     0.000 C 
BRANCH   9  10
ATOM     10  C   UNL     1      53.263  25.839  53.650  1.00  0.00     0.000 C 
BRANCH  10  11
ATOM     11  C   UNL     1      53.461  24.353  53.296  1.00  0.00     0.000 C 
BRANCH  11  12
ATOM     12  C   UNL     1      54.063  23.551  54.462  1.00  0.00     0.000 C 
BRANCH  12  13
ATOM     13  C   UNL     1      55.426  22.934  54.109  1.00  0.00     0.006 C 
BRANCH  13  14
ATOM     14  C   UNL     1      56.218  22.592  55.374  1.00  0.00     0.053 C 
BRANCH  14  15
ATOM     15  C   UNL     1      57.469  23.411  55.457  1.00  0.00     0.041 C 
ATOM     16  O   UNL     1      58.467  22.981  56.096  1.00  0.00    -0.550 OA
ATOM     17  O   UNL     1      57.532  24.653  54.835  1.00  0.00    -0.550 OA
ENDBRANCH  14  15
ENDBRANCH  13  14
ENDBRANCH  12  13
ENDBRANCH  11  12
ENDBRANCH  10  11
ENDBRANCH   9  10
ENDBRANCH   8   9
ENDBRANCH   7   8
ENDBRANCH   6   7
ENDBRANCH   5   6
ENDBRANCH   4   5
ENDBRANCH   3   4
ENDBRANCH   2   3
ENDBRANCH   1   2
BRANCH   1  18
ATOM     18  C   UNL     1      56.602  25.131  51.444  1.00  0.00     0.000 C 
BRANCH  18  19
ATOM     19  C   UNL     1      58.116  24.883  51.361  1.00  0.00     0.000 C 
BRANCH  19  20
ATOM     20  C   UNL     1      58.708  25.292  50.000  1.00  0.00     0.000 C 
BRANCH  20  21
ATOM     21  C   UNL     1      59.828  26.342  50.126  1.00  0.00     0.000 C 
BRANCH  21  22
ATOM     22  C   UNL     1      59.570  27.662  49.378  1.00  0.00     0.000 C 
BRANCH  22  23
ATOM     23  C   UNL     1      58.378  28.447  49.946  1.00  0.00     0.000 C 
BRANCH  23  24
ATOM     24  C   UNL     1      58.742  29.096  51.288  1.00  0.00    -0.000 C 
BRANCH  24  25
ATOM     25  C   UNL     1      57.641  28.865  52.332  1.00  0.00    -0.000 C 
BRANCH  25  26
ATOM     26  C   UNL     1      58.070  27.864  53.427  1.00  0.00    -0.000 C 
BRANCH  26  27
ATOM     27  C   UNL     1      59.541  28.013  53.870  1.00  0.00    -0.000 C 
BRANCH  27  28
ATOM     28  C   UNL     1      60.428  26.783  53.613  1.00  0.00    -0.000 C 
BRANCH  28  29
ATOM     29  C   UNL     1      61.926  27.121  53.597  1.00  0.00    -0.000 C 
BRANCH  29  30
ATOM     30  C   UNL     1      62.162  28.539  53.055  1.00  0.00    -0.000 C 
BRANCH  30  31
ATOM     31  C   UNL     1      62.425  28.558  51.540  1.00  0.00    -0.003 C 
ATOM     32  C   UNL     1      63.656  27.742  51.141  1.00  0.00     0.004 C 
ENDBRANCH  30  31
ENDBRANCH  29  30
ENDBRANCH  28  29
ENDBRANCH  27  28
ENDBRANCH  26  27
ENDBRANCH  25  26
ENDBRANCH  24  25
ENDBRANCH  23  24
ENDBRANCH  22  23
ENDBRANCH  21  22
ENDBRANCH  20  21
ENDBRANCH  19  20
ENDBRANCH  18  19
ENDBRANCH   1  18
TORSDOF 28
ENDMDL
