MODEL 1
REMARK VINA RESULT:    12.333      0.000      0.000
REMARK INTER + INTRA:          15.122
REMARK INTER:                  14.856
REMARK INTRA:                   0.266
REMARK UNBOUND:                 0.266
REMARK SMILES O=c1c(O)c(-c2ccc(O)c(O)c2)oc2cc(O)cc(O)c12
REMARK SMILES IDX 5 1 3 2 2 3 1 4 22 5 20 6 19 7 17 8 16 9 15 10 14 11 6 12
REMARK SMILES IDX 7 13 8 14 9 15 13 16 11 17 10 18 12 20 4 22 21 24 18 26
REMARK H PARENT 10 19 12 21 4 23 21 25 18 27
REMARK Flexibility Score: inf
ROOT
ATOM      1  C   UNL     1       9.422  12.414  35.260  1.00  0.00     0.180 A 
ATOM      2  C   UNL     1       9.539  12.604  36.648  1.00  0.00     0.208 A 
ATOM      3  C   UNL     1      10.811  12.822  37.200  1.00  0.00     0.238 A 
ATOM      4  O   UNL     1      10.902  13.046  38.436  1.00  0.00    -0.285 OA
ATOM      5  C   UNL     1      11.952  12.831  36.362  1.00  0.00     0.111 A 
ATOM      6  C   UNL     1      13.292  13.001  36.820  1.00  0.00     0.134 A 
ATOM      7  C   UNL     1      14.330  13.123  35.888  1.00  0.00     0.093 A 
ATOM      8  C   UNL     1      14.083  13.014  34.518  1.00  0.00     0.123 A 
ATOM      9  C   UNL     1      12.787  12.788  34.063  1.00  0.00     0.094 A 
ATOM     10  C   UNL     1      11.725  12.698  34.967  1.00  0.00     0.146 A 
ATOM     11  O   UNL     1      10.502  12.492  34.492  1.00  0.00    -0.452 OA
ENDROOT
BRANCH   1  12
ATOM     12  C   UNL     1       8.118  12.155  34.606  1.00  0.00     0.025 A 
ATOM     13  C   UNL     1       7.829  12.657  33.327  1.00  0.00     0.016 A 
ATOM     14  C   UNL     1       6.585  12.420  32.742  1.00  0.00     0.051 A 
ATOM     15  C   UNL     1       5.602  11.693  33.422  1.00  0.00     0.157 A 
ATOM     16  C   UNL     1       7.126  11.443  35.299  1.00  0.00     0.062 A 
ATOM     17  C   UNL     1       5.875  11.200  34.720  1.00  0.00     0.158 A 
BRANCH  15  18
ATOM     18  O   UNL     1       4.380  11.486  32.777  1.00  0.00    -0.504 OA
ATOM     19  H   UNL     1       3.622  10.945  33.166  1.00  0.00     0.293 HD
ENDBRANCH  15  18
BRANCH  17  20
ATOM     20  O   UNL     1       4.941  10.474  35.463  1.00  0.00    -0.504 OA
ATOM     21  H   UNL     1       4.595   9.563  35.199  1.00  0.00     0.293 HD
ENDBRANCH  17  20
ENDBRANCH   1  12
BRANCH   2  22
ATOM     22  O   UNL     1       8.397  12.614  37.454  1.00  0.00    -0.502 OA
ATOM     23  H   UNL     1       8.446  12.589  38.465  1.00  0.00     0.293 HD
ENDBRANCH   2  22
BRANCH   6  24
ATOM     24  O   UNL     1      13.659  13.029  38.169  1.00  0.00    -0.507 OA
ATOM     25  H   UNL     1      13.009  13.039  38.941  1.00  0.00     0.293 HD
ENDBRANCH   6  24
BRANCH   8  26
ATOM     26  O   UNL     1      15.124  13.121  33.598  1.00  0.00    -0.508 OA
ATOM     27  H   UNL     1      15.416  14.019  33.230  1.00  0.00     0.293 HD
ENDBRANCH   8  26
TORSDOF 6
ENDMDL
MODEL 2
REMARK VINA RESULT:    12.683      2.123      7.209
REMARK INTER + INTRA:          15.544
REMARK INTER:                  15.117
REMARK INTRA:                   0.426
REMARK UNBOUND:                 0.266
REMARK SMILES O=c1c(O)c(-c2ccc(O)c(O)c2)oc2cc(O)cc(O)c12
REMARK SMILES IDX 5 1 3 2 2 3 1 4 22 5 20 6 19 7 17 8 16 9 15 10 14 11 6 12
REMARK SMILES IDX 7 13 8 14 9 15 13 16 11 17 10 18 12 20 4 22 21 24 18 26
REMARK H PARENT 10 19 12 21 4 23 21 25 18 27
REMARK Flexibility Score: inf
ROOT
ATOM      1  C   UNL     1      11.394  12.664  36.941  1.00  0.00     0.180 A 
ATOM      2  C   UNL     1      11.803  12.810  35.605  1.00  0.00     0.208 A 
ATOM      3  C   UNL     1      10.836  12.770  34.588  1.00  0.00     0.238 A 
ATOM      4  O   UNL     1      11.203  12.956  33.398  1.00  0.00    -0.285 OA
ATOM      5  C   UNL     1       9.475  12.567  34.918  1.00  0.00     0.111 A 
ATOM      6  C   UNL     1       8.416  12.467  33.966  1.00  0.00     0.134 A 
ATOM      7  C   UNL     1       7.091  12.396  34.412  1.00  0.00     0.093 A 
ATOM      8  C   UNL     1       6.791  12.355  35.776  1.00  0.00     0.123 A 
ATOM      9  C   UNL     1       7.821  12.391  36.712  1.00  0.00     0.094 A 
ATOM     10  C   UNL     1       9.151  12.498  36.298  1.00  0.00     0.146 A 
ATOM     11  O   UNL     1      10.103  12.540  37.224  1.00  0.00    -0.452 OA
ENDROOT
BRANCH   1  12
ATOM     12  C   UNL     1      12.358  12.672  38.067  1.00  0.00     0.025 A 
ATOM     13  C   UNL     1      13.676  13.124  37.896  1.00  0.00     0.016 A 
ATOM     14  C   UNL     1      14.573  13.099  38.964  1.00  0.00     0.051 A 
ATOM     15  C   UNL     1      14.181  12.612  40.217  1.00  0.00     0.157 A 
ATOM     16  C   UNL     1      11.968  12.163  39.315  1.00  0.00     0.062 A 
ATOM     17  C   UNL     1      12.860  12.135  40.393  1.00  0.00     0.158 A 
BRANCH  15  18
ATOM     18  O   UNL     1      15.125  12.620  41.246  1.00  0.00    -0.504 OA
ATOM     19  H   UNL     1      16.002  13.116  41.202  1.00  0.00     0.293 HD
ENDBRANCH  15  18
BRANCH  17  20
ATOM     20  O   UNL     1      12.399  11.626  41.609  1.00  0.00    -0.504 OA
ATOM     21  H   UNL     1      12.997  11.223  42.316  1.00  0.00     0.293 HD
ENDBRANCH  17  20
ENDBRANCH   1  12
BRANCH   2  22
ATOM     22  O   UNL     1      13.150  13.032  35.303  1.00  0.00    -0.502 OA
ATOM     23  H   UNL     1      13.447  13.496  34.453  1.00  0.00     0.293 HD
ENDBRANCH   2  22
BRANCH   6  24
ATOM     24  O   UNL     1       8.613  12.406  32.583  1.00  0.00    -0.507 OA
ATOM     25  H   UNL     1       8.698  13.210  31.979  1.00  0.00     0.293 HD
ENDBRANCH   6  24
BRANCH   8  26
ATOM     26  O   UNL     1       5.471  12.269  36.211  1.00  0.00    -0.508 OA
ATOM     27  H   UNL     1       5.186  12.624  37.116  1.00  0.00     0.293 HD
ENDBRANCH   8  26
TORSDOF 6
ENDMDL
MODEL 3
REMARK VINA RESULT:    13.091      1.446      3.042
REMARK INTER + INTRA:          16.035
REMARK INTER:                  15.774
REMARK INTRA:                   0.262
REMARK UNBOUND:                 0.266
REMARK SMILES O=c1c(O)c(-c2ccc(O)c(O)c2)oc2cc(O)cc(O)c12
REMARK SMILES IDX 5 1 3 2 2 3 1 4 22 5 20 6 19 7 17 8 16 9 15 10 14 11 6 12
REMARK SMILES IDX 7 13 8 14 9 15 13 16 11 17 10 18 12 20 4 22 21 24 18 26
REMARK H PARENT 10 19 12 21 4 23 21 25 18 27
REMARK Flexibility Score: inf
ROOT
ATOM      1  C   UNL     1       9.195  12.225  35.652  1.00  0.00     0.180 A 
ATOM      2  C   UNL     1       9.908  12.185  34.441  1.00  0.00     0.208 A 
ATOM      3  C   UNL     1      11.296  12.399  34.461  1.00  0.00     0.238 A 
ATOM      4  O   UNL     1      11.936  12.308  33.382  1.00  0.00    -0.285 OA
ATOM      5  C   UNL     1      11.950  12.667  35.688  1.00  0.00     0.111 A 
ATOM      6  C   UNL     1      13.344  12.939  35.820  1.00  0.00     0.134 A 
ATOM      7  C   UNL     1      13.907  13.061  37.096  1.00  0.00     0.093 A 
ATOM      8  C   UNL     1      13.112  12.986  38.243  1.00  0.00     0.123 A 
ATOM      9  C   UNL     1      11.741  12.780  38.122  1.00  0.00     0.094 A 
ATOM     10  C   UNL     1      11.157  12.618  36.864  1.00  0.00     0.146 A 
ATOM     11  O   UNL     1       9.846  12.413  36.794  1.00  0.00    -0.452 OA
ENDROOT
BRANCH   1  12
ATOM     12  C   UNL     1       7.727  12.033  35.708  1.00  0.00     0.025 A 
ATOM     13  C   UNL     1       6.940  12.701  36.660  1.00  0.00     0.016 A 
ATOM     14  C   UNL     1       5.562  12.486  36.710  1.00  0.00     0.051 A 
ATOM     15  C   UNL     1       4.945  11.594  35.826  1.00  0.00     0.157 A 
ATOM     16  C   UNL     1       7.114  11.122  34.835  1.00  0.00     0.062 A 
ATOM     17  C   UNL     1       5.732  10.900  34.877  1.00  0.00     0.158 A 
BRANCH  15  18
ATOM     18  O   UNL     1       3.561  11.428  35.924  1.00  0.00    -0.504 OA
ATOM     19  H   UNL     1       3.104  10.940  36.680  1.00  0.00     0.293 HD
ENDBRANCH  15  18
BRANCH  17  20
ATOM     20  O   UNL     1       5.190   9.988  33.968  1.00  0.00    -0.504 OA
ATOM     21  H   UNL     1       5.674   9.651  33.149  1.00  0.00     0.293 HD
ENDBRANCH  17  20
ENDBRANCH   1  12
BRANCH   2  22
ATOM     22  O   UNL     1       9.246  11.897  33.244  1.00  0.00    -0.502 OA
ATOM     23  H   UNL     1       8.255  11.691  33.208  1.00  0.00     0.293 HD
ENDBRANCH   2  22
BRANCH   6  24
ATOM     24  O   UNL     1      14.210  13.125  34.737  1.00  0.00    -0.507 OA
ATOM     25  H   UNL     1      13.979  13.635  33.897  1.00  0.00     0.293 HD
ENDBRANCH   6  24
BRANCH   8  26
ATOM     26  O   UNL     1      13.677  13.124  39.509  1.00  0.00    -0.508 OA
ATOM     27  H   UNL     1      14.270  12.404  39.906  1.00  0.00     0.293 HD
ENDBRANCH   8  26
TORSDOF 6
ENDMDL
MODEL 4
REMARK VINA RESULT:    15.288      1.372      7.372
REMARK INTER + INTRA:          18.682
REMARK INTER:                  18.198
REMARK INTRA:                   0.485
REMARK UNBOUND:                 0.266
REMARK SMILES O=c1c(O)c(-c2ccc(O)c(O)c2)oc2cc(O)cc(O)c12
REMARK SMILES IDX 5 1 3 2 2 3 1 4 22 5 20 6 19 7 17 8 16 9 15 10 14 11 6 12
REMARK SMILES IDX 7 13 8 14 9 15 13 16 11 17 10 18 12 20 4 22 21 24 18 26
REMARK H PARENT 10 19 12 21 4 23 21 25 18 27
REMARK Flexibility Score: inf
ROOT
ATOM      1  C   UNL     1       9.332  12.368  35.325  1.00  0.00     0.180 A 
ATOM      2  C   UNL     1       9.274  12.626  33.944  1.00  0.00     0.208 A 
ATOM      3  C   UNL     1       8.065  12.414  33.262  1.00  0.00     0.238 A 
ATOM      4  O   UNL     1       8.005  12.701  32.038  1.00  0.00    -0.285 OA
ATOM      5  C   UNL     1       6.935  11.931  33.964  1.00  0.00     0.111 A 
ATOM      6  C   UNL     1       5.673  11.641  33.365  1.00  0.00     0.134 A 
ATOM      7  C   UNL     1       4.587  11.291  34.177  1.00  0.00     0.093 A 
ATOM      8  C   UNL     1       4.737  11.157  35.560  1.00  0.00     0.123 A 
ATOM      9  C   UNL     1       5.979  11.379  36.147  1.00  0.00     0.094 A 
ATOM     10  C   UNL     1       7.072  11.764  35.366  1.00  0.00     0.146 A 
ATOM     11  O   UNL     1       8.238  11.977  35.967  1.00  0.00    -0.452 OA
ENDROOT
BRANCH   1  12
ATOM     12  C   UNL     1      10.577  12.544  36.108  1.00  0.00     0.025 A 
ATOM     13  C   UNL     1      10.554  12.605  37.511  1.00  0.00     0.016 A 
ATOM     14  C   UNL     1      11.736  12.795  38.227  1.00  0.00     0.051 A 
ATOM     15  C   UNL     1      12.959  12.943  37.562  1.00  0.00     0.157 A 
ATOM     16  C   UNL     1      11.798  12.712  35.438  1.00  0.00     0.062 A 
ATOM     17  C   UNL     1      12.990  12.904  36.148  1.00  0.00     0.158 A 
BRANCH  15  18
ATOM     18  O   UNL     1      14.107  13.125  38.338  1.00  0.00    -0.504 OA
ATOM     19  H   UNL     1      15.018  13.331  37.957  1.00  0.00     0.293 HD
ENDBRANCH  15  18
BRANCH  17  20
ATOM     20  O   UNL     1      14.170  13.052  35.415  1.00  0.00    -0.504 OA
ATOM     21  H   UNL     1      14.199  13.305  34.438  1.00  0.00     0.293 HD
ENDBRANCH  17  20
ENDBRANCH   1  12
BRANCH   2  22
ATOM     22  O   UNL     1      10.395  13.125  33.275  1.00  0.00    -0.502 OA
ATOM     23  H   UNL     1      10.454  13.161  32.265  1.00  0.00     0.293 HD
ENDBRANCH   2  22
BRANCH   6  24
ATOM     24  O   UNL     1       5.441  11.655  31.986  1.00  0.00    -0.507 OA
ATOM     25  H   UNL     1       6.003  11.170  31.304  1.00  0.00     0.293 HD
ENDBRANCH   6  24
BRANCH   8  26
ATOM     26  O   UNL     1       3.655  10.793  36.359  1.00  0.00    -0.508 OA
ATOM     27  H   UNL     1       3.285   9.850  36.353  1.00  0.00     0.293 HD
ENDBRANCH   8  26
TORSDOF 6
ENDMDL
