MODEL 1
REMARK VINA RESULT:    -6.897      0.000      0.000
REMARK INTER + INTRA:          -8.599
REMARK INTER:                  -8.308
REMARK INTRA:                  -0.291
REMARK UNBOUND:                -0.291
REMARK SMILES O=c1c(O)c(-c2ccc(O)c(O)c2)oc2cc(O)cc(O)c12
REMARK SMILES IDX 5 1 3 2 2 3 1 4 22 5 20 6 19 7 17 8 16 9 15 10 14 11 6 12
REMARK SMILES IDX 7 13 8 14 9 15 13 16 11 17 10 18 12 20 4 22 21 24 18 26
REMARK H PARENT 10 19 12 21 4 23 21 25 18 27
REMARK Flexibility Score: inf
ROOT
ATOM      1  C   UNL     1       9.509  11.321 -16.135  1.00  0.00     0.180 A 
ATOM      2  C   UNL     1      10.104  10.115 -16.546  1.00  0.00     0.208 A 
ATOM      3  C   UNL     1       9.798   8.934 -15.853  1.00  0.00     0.238 A 
ATOM      4  O   UNL     1      10.292   7.850 -16.259  1.00  0.00    -0.285 OA
ATOM      5  C   UNL     1       8.915   8.974 -14.747  1.00  0.00     0.111 A 
ATOM      6  C   UNL     1       8.566   7.845 -13.947  1.00  0.00     0.134 A 
ATOM      7  C   UNL     1       7.582   7.976 -12.960  1.00  0.00     0.093 A 
ATOM      8  C   UNL     1       6.981   9.207 -12.699  1.00  0.00     0.123 A 
ATOM      9  C   UNL     1       7.359  10.332 -13.435  1.00  0.00     0.094 A 
ATOM     10  C   UNL     1       8.312  10.224 -14.451  1.00  0.00     0.146 A 
ATOM     11  O   UNL     1       8.634  11.315 -15.136  1.00  0.00    -0.452 OA
ENDROOT
BRANCH   1  12
ATOM     12  C   UNL     1       9.802  12.611 -16.800  1.00  0.00     0.025 A 
ATOM     13  C   UNL     1      10.748  13.479 -16.236  1.00  0.00     0.016 A 
ATOM     14  C   UNL     1      11.054  14.691 -16.857  1.00  0.00     0.051 A 
ATOM     15  C   UNL     1      10.436  15.053 -18.059  1.00  0.00     0.157 A 
ATOM     16  C   UNL     1       9.195  12.962 -18.018  1.00  0.00     0.062 A 
ATOM     17  C   UNL     1       9.499  14.174 -18.651  1.00  0.00     0.158 A 
BRANCH  15  18
ATOM     18  O   UNL     1      10.781  16.282 -18.625  1.00  0.00    -0.504 OA
ATOM     19  H   UNL     1      10.142  16.860 -19.153  1.00  0.00     0.293 HD
ENDBRANCH  15  18
BRANCH  17  20
ATOM     20  O   UNL     1       8.857  14.458 -19.858  1.00  0.00    -0.504 OA
ATOM     21  H   UNL     1       8.316  15.295 -20.027  1.00  0.00     0.293 HD
ENDBRANCH  17  20
ENDBRANCH   1  12
BRANCH   2  22
ATOM     22  O   UNL     1      10.956  10.095 -17.653  1.00  0.00    -0.502 OA
ATOM     23  H   UNL     1      10.638   9.837 -18.580  1.00  0.00     0.293 HD
ENDBRANCH   2  22
BRANCH   6  24
ATOM     24  O   UNL     1       9.171   6.589 -14.062  1.00  0.00    -0.507 OA
ATOM     25  H   UNL     1      10.162   6.420 -13.980  1.00  0.00     0.293 HD
ENDBRANCH   6  24
BRANCH   8  26
ATOM     26  O   UNL     1       6.018   9.304 -11.699  1.00  0.00    -0.508 OA
ATOM     27  H   UNL     1       5.758   8.505 -11.134  1.00  0.00     0.293 HD
ENDBRANCH   8  26
TORSDOF 6
ENDMDL
MODEL 2
REMARK VINA RESULT:    -6.484      1.662      2.087
REMARK INTER + INTRA:          -8.101
REMARK INTER:                  -7.819
REMARK INTRA:                  -0.283
REMARK UNBOUND:                -0.291
REMARK SMILES O=c1c(O)c(-c2ccc(O)c(O)c2)oc2cc(O)cc(O)c12
REMARK SMILES IDX 5 1 3 2 2 3 1 4 22 5 20 6 19 7 17 8 16 9 15 10 14 11 6 12
REMARK SMILES IDX 7 13 8 14 9 15 13 16 11 17 10 18 12 20 4 22 21 24 18 26
REMARK H PARENT 10 19 12 21 4 23 21 25 18 27
REMARK Flexibility Score: inf
ROOT
ATOM      1  C   UNL     1       8.452  11.185 -17.470  1.00  0.00     0.180 A 
ATOM      2  C   UNL     1       9.379  10.139 -17.619  1.00  0.00     0.208 A 
ATOM      3  C   UNL     1       9.492   9.178 -16.601  1.00  0.00     0.238 A 
ATOM      4  O   UNL     1      10.285   8.214 -16.766  1.00  0.00    -0.285 OA
ATOM      5  C   UNL     1       8.689   9.284 -15.440  1.00  0.00     0.111 A 
ATOM      6  C   UNL     1       8.749   8.390 -14.329  1.00  0.00     0.134 A 
ATOM      7  C   UNL     1       7.817   8.515 -13.292  1.00  0.00     0.093 A 
ATOM      8  C   UNL     1       6.870   9.538 -13.293  1.00  0.00     0.123 A 
ATOM      9  C   UNL     1       6.841  10.455 -14.345  1.00  0.00     0.094 A 
ATOM     10  C   UNL     1       7.735  10.334 -15.412  1.00  0.00     0.146 A 
ATOM     11  O   UNL     1       7.667  11.220 -16.400  1.00  0.00    -0.452 OA
ENDROOT
BRANCH   1  12
ATOM     12  C   UNL     1       8.294  12.248 -18.488  1.00  0.00     0.025 A 
ATOM     13  C   UNL     1       9.243  13.278 -18.563  1.00  0.00     0.016 A 
ATOM     14  C   UNL     1       9.124  14.280 -19.528  1.00  0.00     0.051 A 
ATOM     15  C   UNL     1       8.068  14.265 -20.445  1.00  0.00     0.157 A 
ATOM     16  C   UNL     1       7.244  12.219 -19.421  1.00  0.00     0.062 A 
ATOM     17  C   UNL     1       7.119  13.218 -20.395  1.00  0.00     0.158 A 
BRANCH  15  18
ATOM     18  O   UNL     1       8.003  15.301 -21.380  1.00  0.00    -0.504 OA
ATOM     19  H   UNL     1       8.388  16.222 -21.230  1.00  0.00     0.293 HD
ENDBRANCH  15  18
BRANCH  17  20
ATOM     20  O   UNL     1       6.050  13.126 -21.290  1.00  0.00    -0.504 OA
ATOM     21  H   UNL     1       5.743  12.264 -21.718  1.00  0.00     0.293 HD
ENDBRANCH  17  20
ENDBRANCH   1  12
BRANCH   2  22
ATOM     22  O   UNL     1      10.146  10.041 -18.783  1.00  0.00    -0.502 OA
ATOM     23  H   UNL     1       9.974  10.617 -19.598  1.00  0.00     0.293 HD
ENDBRANCH   2  22
BRANCH   6  24
ATOM     24  O   UNL     1       9.714   7.389 -14.184  1.00  0.00    -0.507 OA
ATOM     25  H   UNL     1      10.626   7.405 -14.613  1.00  0.00     0.293 HD
ENDBRANCH   6  24
BRANCH   8  26
ATOM     26  O   UNL     1       5.968   9.642 -12.236  1.00  0.00    -0.508 OA
ATOM     27  H   UNL     1       6.280   9.645 -11.272  1.00  0.00     0.293 HD
ENDBRANCH   8  26
TORSDOF 6
ENDMDL
MODEL 3
REMARK VINA RESULT:    -6.408      1.653      2.597
REMARK INTER + INTRA:          -8.010
REMARK INTER:                  -7.781
REMARK INTRA:                  -0.229
REMARK UNBOUND:                -0.291
REMARK SMILES O=c1c(O)c(-c2ccc(O)c(O)c2)oc2cc(O)cc(O)c12
REMARK SMILES IDX 5 1 3 2 2 3 1 4 22 5 20 6 19 7 17 8 16 9 15 10 14 11 6 12
REMARK SMILES IDX 7 13 8 14 9 15 13 16 11 17 10 18 12 20 4 22 21 24 18 26
REMARK H PARENT 10 19 12 21 4 23 21 25 18 27
REMARK Flexibility Score: inf
ROOT
ATOM      1  C   UNL     1       8.951  12.280 -18.019  1.00  0.00     0.180 A 
ATOM      2  C   UNL     1       9.534  11.088 -18.484  1.00  0.00     0.208 A 
ATOM      3  C   UNL     1       9.609   9.985 -17.619  1.00  0.00     0.238 A 
ATOM      4  O   UNL     1      10.083   8.904 -18.057  1.00  0.00    -0.285 OA
ATOM      5  C   UNL     1       9.116  10.092 -16.296  1.00  0.00     0.111 A 
ATOM      6  C   UNL     1       9.178   9.051 -15.322  1.00  0.00     0.134 A 
ATOM      7  C   UNL     1       8.542   9.223 -14.086  1.00  0.00     0.093 A 
ATOM      8  C   UNL     1       7.904  10.420 -13.764  1.00  0.00     0.123 A 
ATOM      9  C   UNL     1       7.890  11.468 -14.687  1.00  0.00     0.094 A 
ATOM     10  C   UNL     1       8.485  11.312 -15.942  1.00  0.00     0.146 A 
ATOM     11  O   UNL     1       8.439  12.329 -16.795  1.00  0.00    -0.452 OA
ENDROOT
BRANCH   1  12
ATOM     12  C   UNL     1       8.859  13.493 -18.864  1.00  0.00     0.025 A 
ATOM     13  C   UNL     1       7.928  13.534 -19.912  1.00  0.00     0.016 A 
ATOM     14  C   UNL     1       7.811  14.675 -20.709  1.00  0.00     0.051 A 
ATOM     15  C   UNL     1       8.606  15.800 -20.465  1.00  0.00     0.157 A 
ATOM     16  C   UNL     1       9.644  14.629 -18.604  1.00  0.00     0.062 A 
ATOM     17  C   UNL     1       9.531  15.779 -19.395  1.00  0.00     0.158 A 
BRANCH  15  18
ATOM     18  O   UNL     1       8.445  16.906 -21.303  1.00  0.00    -0.504 OA
ATOM     19  H   UNL     1       7.711  17.592 -21.197  1.00  0.00     0.293 HD
ENDBRANCH  15  18
BRANCH  17  20
ATOM     20  O   UNL     1      10.344  16.870 -19.080  1.00  0.00    -0.504 OA
ATOM     21  H   UNL     1      10.004  17.730 -18.676  1.00  0.00     0.293 HD
ENDBRANCH  17  20
ENDBRANCH   1  12
BRANCH   2  22
ATOM     22  O   UNL     1       9.994  10.997 -19.800  1.00  0.00    -0.502 OA
ATOM     23  H   UNL     1      10.976  11.073 -20.040  1.00  0.00     0.293 HD
ENDBRANCH   2  22
BRANCH   6  24
ATOM     24  O   UNL     1       9.868   7.848 -15.505  1.00  0.00    -0.507 OA
ATOM     25  H   UNL     1      10.590   7.502 -14.892  1.00  0.00     0.293 HD
ENDBRANCH   6  24
BRANCH   8  26
ATOM     26  O   UNL     1       7.296  10.563 -12.520  1.00  0.00    -0.508 OA
ATOM     27  H   UNL     1       7.701  11.144 -11.795  1.00  0.00     0.293 HD
ENDBRANCH   8  26
TORSDOF 6
ENDMDL
MODEL 4
REMARK VINA RESULT:    -6.402      2.503      7.612
REMARK INTER + INTRA:          -8.003
REMARK INTER:                  -7.763
REMARK INTRA:                  -0.240
REMARK UNBOUND:                -0.291
REMARK SMILES O=c1c(O)c(-c2ccc(O)c(O)c2)oc2cc(O)cc(O)c12
REMARK SMILES IDX 5 1 3 2 2 3 1 4 22 5 20 6 19 7 17 8 16 9 15 10 14 11 6 12
REMARK SMILES IDX 7 13 8 14 9 15 13 16 11 17 10 18 12 20 4 22 21 24 18 26
REMARK H PARENT 10 19 12 21 4 23 21 25 18 27
REMARK Flexibility Score: inf
ROOT
ATOM      1  C   UNL     1       9.431  12.198 -17.935  1.00  0.00     0.180 A 
ATOM      2  C   UNL     1       9.954  13.209 -17.109  1.00  0.00     0.208 A 
ATOM      3  C   UNL     1      10.053  14.515 -17.614  1.00  0.00     0.238 A 
ATOM      4  O   UNL     1      10.471  15.427 -16.852  1.00  0.00    -0.285 OA
ATOM      5  C   UNL     1       9.644  14.792 -18.941  1.00  0.00     0.111 A 
ATOM      6  C   UNL     1       9.738  16.070 -19.568  1.00  0.00     0.134 A 
ATOM      7  C   UNL     1       9.183  16.258 -20.840  1.00  0.00     0.093 A 
ATOM      8  C   UNL     1       8.596  15.200 -21.533  1.00  0.00     0.123 A 
ATOM      9  C   UNL     1       8.553  13.931 -20.954  1.00  0.00     0.094 A 
ATOM     10  C   UNL     1       9.066  13.722 -19.671  1.00  0.00     0.146 A 
ATOM     11  O   UNL     1       8.995  12.501 -19.151  1.00  0.00    -0.452 OA
ENDROOT
BRANCH   1  12
ATOM     12  C   UNL     1       9.319  10.792 -17.482  1.00  0.00     0.025 A 
ATOM     13  C   UNL     1       8.049  10.225 -17.303  1.00  0.00     0.016 A 
ATOM     14  C   UNL     1       7.920   8.895 -16.896  1.00  0.00     0.051 A 
ATOM     15  C   UNL     1       9.052   8.103 -16.677  1.00  0.00     0.157 A 
ATOM     16  C   UNL     1      10.457   9.993 -17.284  1.00  0.00     0.062 A 
ATOM     17  C   UNL     1      10.338   8.658 -16.879  1.00  0.00     0.158 A 
BRANCH  15  18
ATOM     18  O   UNL     1       8.855   6.784 -16.264  1.00  0.00    -0.504 OA
ATOM     19  H   UNL     1       8.398   6.079 -16.825  1.00  0.00     0.293 HD
ENDBRANCH  15  18
BRANCH  17  20
ATOM     20  O   UNL     1      11.512   7.923 -16.700  1.00  0.00    -0.504 OA
ATOM     21  H   UNL     1      12.429   8.248 -16.970  1.00  0.00     0.293 HD
ENDBRANCH  17  20
ENDBRANCH   1  12
BRANCH   2  22
ATOM     22  O   UNL     1      10.330  12.919 -15.796  1.00  0.00    -0.502 OA
ATOM     23  H   UNL     1      11.274  13.061 -15.456  1.00  0.00     0.293 HD
ENDBRANCH   2  22
BRANCH   6  24
ATOM     24  O   UNL     1      10.385  17.173 -19.001  1.00  0.00    -0.507 OA
ATOM     25  H   UNL     1      10.603  17.269 -18.021  1.00  0.00     0.293 HD
ENDBRANCH   6  24
BRANCH   8  26
ATOM     26  O   UNL     1       8.069  15.419 -22.803  1.00  0.00    -0.508 OA
ATOM     27  H   UNL     1       7.480  16.219 -23.002  1.00  0.00     0.293 HD
ENDBRANCH   8  26
TORSDOF 6
ENDMDL
MODEL 5
REMARK VINA RESULT:    -6.358      2.971      7.496
REMARK INTER + INTRA:          -7.949
REMARK INTER:                  -7.859
REMARK INTRA:                  -0.091
REMARK UNBOUND:                -0.291
REMARK SMILES O=c1c(O)c(-c2ccc(O)c(O)c2)oc2cc(O)cc(O)c12
REMARK SMILES IDX 5 1 3 2 2 3 1 4 22 5 20 6 19 7 17 8 16 9 15 10 14 11 6 12
REMARK SMILES IDX 7 13 8 14 9 15 13 16 11 17 10 18 12 20 4 22 21 24 18 26
REMARK H PARENT 10 19 12 21 4 23 21 25 18 27
REMARK Flexibility Score: inf
ROOT
ATOM      1  C   UNL     1       7.152   7.937 -14.928  1.00  0.00     0.180 A 
ATOM      2  C   UNL     1       6.867   8.248 -13.586  1.00  0.00     0.208 A 
ATOM      3  C   UNL     1       7.172   9.530 -13.105  1.00  0.00     0.238 A 
ATOM      4  O   UNL     1       6.864   9.819 -11.918  1.00  0.00    -0.285 OA
ATOM      5  C   UNL     1       7.773  10.482 -13.964  1.00  0.00     0.111 A 
ATOM      6  C   UNL     1       8.161  11.797 -13.570  1.00  0.00     0.134 A 
ATOM      7  C   UNL     1       8.627  12.698 -14.536  1.00  0.00     0.093 A 
ATOM      8  C   UNL     1       8.780  12.311 -15.867  1.00  0.00     0.123 A 
ATOM      9  C   UNL     1       8.460  11.007 -16.252  1.00  0.00     0.094 A 
ATOM     10  C   UNL     1       7.959  10.098 -15.317  1.00  0.00     0.146 A 
ATOM     11  O   UNL     1       7.655   8.871 -15.726  1.00  0.00    -0.452 OA
ENDROOT
BRANCH   1  12
ATOM     12  C   UNL     1       6.882   6.599 -15.501  1.00  0.00     0.025 A 
ATOM     13  C   UNL     1       6.126   6.492 -16.677  1.00  0.00     0.016 A 
ATOM     14  C   UNL     1       5.877   5.241 -17.245  1.00  0.00     0.051 A 
ATOM     15  C   UNL     1       6.389   4.078 -16.662  1.00  0.00     0.157 A 
ATOM     16  C   UNL     1       7.417   5.434 -14.925  1.00  0.00     0.062 A 
ATOM     17  C   UNL     1       7.175   4.176 -15.490  1.00  0.00     0.158 A 
BRANCH  15  18
ATOM     18  O   UNL     1       6.097   2.858 -17.276  1.00  0.00    -0.504 OA
ATOM     19  H   UNL     1       5.951   1.993 -16.774  1.00  0.00     0.293 HD
ENDBRANCH  15  18
BRANCH  17  20
ATOM     20  O   UNL     1       7.736   3.061 -14.864  1.00  0.00    -0.504 OA
ATOM     21  H   UNL     1       8.691   2.759 -14.995  1.00  0.00     0.293 HD
ENDBRANCH  17  20
ENDBRANCH   1  12
BRANCH   2  22
ATOM     22  O   UNL     1       6.253   7.301 -12.762  1.00  0.00    -0.502 OA
ATOM     23  H   UNL     1       5.951   7.515 -11.818  1.00  0.00     0.293 HD
ENDBRANCH   2  22
BRANCH   6  24
ATOM     24  O   UNL     1       8.135  12.258 -12.250  1.00  0.00    -0.507 OA
ATOM     25  H   UNL     1       8.952  12.396 -11.675  1.00  0.00     0.293 HD
ENDBRANCH   6  24
BRANCH   8  26
ATOM     26  O   UNL     1       9.262  13.227 -16.799  1.00  0.00    -0.508 OA
ATOM     27  H   UNL     1       9.953  13.924 -16.548  1.00  0.00     0.293 HD
ENDBRANCH   8  26
TORSDOF 6
ENDMDL
MODEL 6
REMARK VINA RESULT:    -6.186      1.862      7.150
REMARK INTER + INTRA:          -7.743
REMARK INTER:                  -7.445
REMARK INTRA:                  -0.298
REMARK UNBOUND:                -0.291
REMARK SMILES O=c1c(O)c(-c2ccc(O)c(O)c2)oc2cc(O)cc(O)c12
REMARK SMILES IDX 5 1 3 2 2 3 1 4 22 5 20 6 19 7 17 8 16 9 15 10 14 11 6 12
REMARK SMILES IDX 7 13 8 14 9 15 13 16 11 17 10 18 12 20 4 22 21 24 18 26
REMARK H PARENT 10 19 12 21 4 23 21 25 18 27
REMARK Flexibility Score: inf
ROOT
ATOM      1  C   UNL     1       8.586  11.372 -17.502  1.00  0.00     0.180 A 
ATOM      2  C   UNL     1       7.806  11.111 -18.643  1.00  0.00     0.208 A 
ATOM      3  C   UNL     1       7.698  12.099 -19.634  1.00  0.00     0.238 A 
ATOM      4  O   UNL     1       7.043  11.839 -20.677  1.00  0.00    -0.285 OA
ATOM      5  C   UNL     1       8.357  13.341 -19.467  1.00  0.00     0.111 A 
ATOM      6  C   UNL     1       8.284  14.427 -20.389  1.00  0.00     0.134 A 
ATOM      7  C   UNL     1       9.082  15.560 -20.185  1.00  0.00     0.093 A 
ATOM      8  C   UNL     1       9.900  15.673 -19.061  1.00  0.00     0.123 A 
ATOM      9  C   UNL     1       9.933  14.641 -18.122  1.00  0.00     0.094 A 
ATOM     10  C   UNL     1       9.176  13.484 -18.317  1.00  0.00     0.146 A 
ATOM     11  O   UNL     1       9.245  12.520 -17.405  1.00  0.00    -0.452 OA
ENDROOT
BRANCH   1  12
ATOM     12  C   UNL     1       8.727  10.389 -16.403  1.00  0.00     0.025 A 
ATOM     13  C   UNL     1       9.669   9.358 -16.517  1.00  0.00     0.016 A 
ATOM     14  C   UNL     1       9.833   8.432 -15.484  1.00  0.00     0.051 A 
ATOM     15  C   UNL     1       9.072   8.528 -14.314  1.00  0.00     0.157 A 
ATOM     16  C   UNL     1       7.977  10.501 -15.220  1.00  0.00     0.062 A 
ATOM     17  C   UNL     1       8.136   9.580 -14.177  1.00  0.00     0.158 A 
BRANCH  15  18
ATOM     18  O   UNL     1       9.278   7.567 -13.322  1.00  0.00    -0.504 OA
ATOM     19  H   UNL     1       8.683   6.762 -13.183  1.00  0.00     0.293 HD
ENDBRANCH  15  18
BRANCH  17  20
ATOM     20  O   UNL     1       7.356   9.751 -13.032  1.00  0.00    -0.504 OA
ATOM     21  H   UNL     1       7.728   9.772 -12.093  1.00  0.00     0.293 HD
ENDBRANCH  17  20
ENDBRANCH   1  12
BRANCH   2  22
ATOM     22  O   UNL     1       7.182   9.871 -18.798  1.00  0.00    -0.502 OA
ATOM     23  H   UNL     1       7.392   9.248 -19.570  1.00  0.00     0.293 HD
ENDBRANCH   2  22
BRANCH   6  24
ATOM     24  O   UNL     1       7.431  14.457 -21.496  1.00  0.00    -0.507 OA
ATOM     25  H   UNL     1       7.730  14.352 -22.454  1.00  0.00     0.293 HD
ENDBRANCH   6  24
BRANCH   8  26
ATOM     26  O   UNL     1      10.667  16.822 -18.882  1.00  0.00    -0.508 OA
ATOM     27  H   UNL     1      10.256  17.746 -18.925  1.00  0.00     0.293 HD
ENDBRANCH   8  26
TORSDOF 6
ENDMDL
MODEL 7
REMARK VINA RESULT:    -6.183      2.103      4.072
REMARK INTER + INTRA:          -7.739
REMARK INTER:                  -7.462
REMARK INTRA:                  -0.276
REMARK UNBOUND:                -0.291
REMARK SMILES O=c1c(O)c(-c2ccc(O)c(O)c2)oc2cc(O)cc(O)c12
REMARK SMILES IDX 5 1 3 2 2 3 1 4 22 5 20 6 19 7 17 8 16 9 15 10 14 11 6 12
REMARK SMILES IDX 7 13 8 14 9 15 13 16 11 17 10 18 12 20 4 22 21 24 18 26
REMARK H PARENT 10 19 12 21 4 23 21 25 18 27
REMARK Flexibility Score: inf
ROOT
ATOM      1  C   UNL     1       8.866  12.757 -17.846  1.00  0.00     0.180 A 
ATOM      2  C   UNL     1       8.137  12.786 -16.644  1.00  0.00     0.208 A 
ATOM      3  C   UNL     1       8.271  11.720 -15.741  1.00  0.00     0.238 A 
ATOM      4  O   UNL     1       7.658  11.777 -14.642  1.00  0.00    -0.285 OA
ATOM      5  C   UNL     1       9.118  10.630 -16.057  1.00  0.00     0.111 A 
ATOM      6  C   UNL     1       9.297   9.478 -15.235  1.00  0.00     0.134 A 
ATOM      7  C   UNL     1      10.259   8.522 -15.585  1.00  0.00     0.093 A 
ATOM      8  C   UNL     1      11.001   8.643 -16.760  1.00  0.00     0.123 A 
ATOM      9  C   UNL     1      10.790   9.736 -17.603  1.00  0.00     0.094 A 
ATOM     10  C   UNL     1       9.863  10.724 -17.261  1.00  0.00     0.146 A 
ATOM     11  O   UNL     1       9.702  11.754 -18.084  1.00  0.00    -0.452 OA
ENDROOT
BRANCH   1  12
ATOM     12  C   UNL     1       8.757  13.832 -18.858  1.00  0.00     0.025 A 
ATOM     13  C   UNL     1       7.945  13.640 -19.985  1.00  0.00     0.016 A 
ATOM     14  C   UNL     1       7.812  14.648 -20.942  1.00  0.00     0.051 A 
ATOM     15  C   UNL     1       8.474  15.870 -20.786  1.00  0.00     0.157 A 
ATOM     16  C   UNL     1       9.406  15.067 -18.688  1.00  0.00     0.062 A 
ATOM     17  C   UNL     1       9.276  16.085 -19.641  1.00  0.00     0.158 A 
BRANCH  15  18
ATOM     18  O   UNL     1       8.306  16.834 -21.783  1.00  0.00    -0.504 OA
ATOM     19  H   UNL     1       8.947  17.599 -21.942  1.00  0.00     0.293 HD
ENDBRANCH  15  18
BRANCH  17  20
ATOM     20  O   UNL     1       9.950  17.286 -19.408  1.00  0.00    -0.504 OA
ATOM     21  H   UNL     1       9.774  17.889 -18.617  1.00  0.00     0.293 HD
ENDBRANCH  17  20
ENDBRANCH   1  12
BRANCH   2  22
ATOM     22  O   UNL     1       7.324  13.881 -16.341  1.00  0.00    -0.502 OA
ATOM     23  H   UNL     1       6.325  13.795 -16.197  1.00  0.00     0.293 HD
ENDBRANCH   2  22
BRANCH   6  24
ATOM     24  O   UNL     1       8.544   9.212 -14.087  1.00  0.00    -0.507 OA
ATOM     25  H   UNL     1       8.816   9.468 -13.150  1.00  0.00     0.293 HD
ENDBRANCH   6  24
BRANCH   8  26
ATOM     26  O   UNL     1      11.937   7.666 -17.086  1.00  0.00    -0.508 OA
ATOM     27  H   UNL     1      12.074   7.360 -18.042  1.00  0.00     0.293 HD
ENDBRANCH   8  26
TORSDOF 6
ENDMDL
MODEL 8
REMARK VINA RESULT:    -6.171      1.679      7.154
REMARK INTER + INTRA:          -7.725
REMARK INTER:                  -7.792
REMARK INTRA:                   0.067
REMARK UNBOUND:                -0.291
REMARK SMILES O=c1c(O)c(-c2ccc(O)c(O)c2)oc2cc(O)cc(O)c12
REMARK SMILES IDX 5 1 3 2 2 3 1 4 22 5 20 6 19 7 17 8 16 9 15 10 14 11 6 12
REMARK SMILES IDX 7 13 8 14 9 15 13 16 11 17 10 18 12 20 4 22 21 24 18 26
REMARK H PARENT 10 19 12 21 4 23 21 25 18 27
REMARK Flexibility Score: inf
ROOT
ATOM      1  C   UNL     1       8.417  11.278 -15.022  1.00  0.00     0.180 A 
ATOM      2  C   UNL     1       8.855  12.534 -14.565  1.00  0.00     0.208 A 
ATOM      3  C   UNL     1       9.268  13.493 -15.502  1.00  0.00     0.238 A 
ATOM      4  O   UNL     1       9.607  14.634 -15.090  1.00  0.00    -0.285 OA
ATOM      5  C   UNL     1       9.254  13.181 -16.883  1.00  0.00     0.111 A 
ATOM      6  C   UNL     1       9.689  14.063 -17.917  1.00  0.00     0.134 A 
ATOM      7  C   UNL     1       9.509  13.698 -19.257  1.00  0.00     0.093 A 
ATOM      8  C   UNL     1       8.970  12.458 -19.600  1.00  0.00     0.123 A 
ATOM      9  C   UNL     1       8.597  11.563 -18.596  1.00  0.00     0.094 A 
ATOM     10  C   UNL     1       8.732  11.915 -17.251  1.00  0.00     0.146 A 
ATOM     11  O   UNL     1       8.353  11.039 -16.326  1.00  0.00    -0.452 OA
ENDROOT
BRANCH   1  12
ATOM     12  C   UNL     1       7.990  10.207 -14.093  1.00  0.00     0.025 A 
ATOM     13  C   UNL     1       7.064  10.500 -13.081  1.00  0.00     0.016 A 
ATOM     14  C   UNL     1       6.633   9.501 -12.206  1.00  0.00     0.051 A 
ATOM     15  C   UNL     1       7.104   8.189 -12.334  1.00  0.00     0.157 A 
ATOM     16  C   UNL     1       8.448   8.886 -14.237  1.00  0.00     0.062 A 
ATOM     17  C   UNL     1       8.018   7.877 -13.367  1.00  0.00     0.158 A 
BRANCH  15  18
ATOM     18  O   UNL     1       6.639   7.238 -11.423  1.00  0.00    -0.504 OA
ATOM     19  H   UNL     1       6.807   6.246 -11.508  1.00  0.00     0.293 HD
ENDBRANCH  15  18
BRANCH  17  20
ATOM     20  O   UNL     1       8.515   6.587 -13.568  1.00  0.00    -0.504 OA
ATOM     21  H   UNL     1       7.950   5.801 -13.855  1.00  0.00     0.293 HD
ENDBRANCH  17  20
ENDBRANCH   1  12
BRANCH   2  22
ATOM     22  O   UNL     1       8.839  12.829 -13.199  1.00  0.00    -0.502 OA
ATOM     23  H   UNL     1       8.242  12.339 -12.543  1.00  0.00     0.293 HD
ENDBRANCH   2  22
BRANCH   6  24
ATOM     24  O   UNL     1      10.325  15.287 -17.685  1.00  0.00    -0.507 OA
ATOM     25  H   UNL     1      10.322  16.065 -18.326  1.00  0.00     0.293 HD
ENDBRANCH   6  24
BRANCH   8  26
ATOM     26  O   UNL     1       8.820  12.122 -20.943  1.00  0.00    -0.508 OA
ATOM     27  H   UNL     1       8.893  12.818 -21.675  1.00  0.00     0.293 HD
ENDBRANCH   8  26
TORSDOF 6
ENDMDL
MODEL 9
REMARK VINA RESULT:    -5.965      1.668      2.963
REMARK INTER + INTRA:          -7.476
REMARK INTER:                  -7.169
REMARK INTRA:                  -0.307
REMARK UNBOUND:                -0.291
REMARK SMILES O=c1c(O)c(-c2ccc(O)c(O)c2)oc2cc(O)cc(O)c12
REMARK SMILES IDX 5 1 3 2 2 3 1 4 22 5 20 6 19 7 17 8 16 9 15 10 14 11 6 12
REMARK SMILES IDX 7 13 8 14 9 15 13 16 11 17 10 18 12 20 4 22 21 24 18 26
REMARK H PARENT 10 19 12 21 4 23 21 25 18 27
REMARK Flexibility Score: inf
ROOT
ATOM      1  C   UNL     1       8.551  11.408 -15.306  1.00  0.00     0.180 A 
ATOM      2  C   UNL     1       8.167  11.512 -13.957  1.00  0.00     0.208 A 
ATOM      3  C   UNL     1       7.639  10.383 -13.311  1.00  0.00     0.238 A 
ATOM      4  O   UNL     1       7.348  10.468 -12.088  1.00  0.00    -0.285 OA
ATOM      5  C   UNL     1       7.485   9.170 -14.024  1.00  0.00     0.111 A 
ATOM      6  C   UNL     1       6.923   7.976 -13.480  1.00  0.00     0.134 A 
ATOM      7  C   UNL     1       6.940   6.798 -14.236  1.00  0.00     0.093 A 
ATOM      8  C   UNL     1       7.437   6.785 -15.539  1.00  0.00     0.123 A 
ATOM      9  C   UNL     1       7.934   7.962 -16.103  1.00  0.00     0.094 A 
ATOM     10  C   UNL     1       7.963   9.144 -15.359  1.00  0.00     0.146 A 
ATOM     11  O   UNL     1       8.455  10.239 -15.928  1.00  0.00    -0.452 OA
ENDROOT
BRANCH   1  12
ATOM     12  C   UNL     1       9.092  12.560 -16.062  1.00  0.00     0.025 A 
ATOM     13  C   UNL     1      10.459  12.860 -15.977  1.00  0.00     0.016 A 
ATOM     14  C   UNL     1      10.994  13.930 -16.697  1.00  0.00     0.051 A 
ATOM     15  C   UNL     1      10.181  14.710 -17.526  1.00  0.00     0.157 A 
ATOM     16  C   UNL     1       8.277  13.328 -16.911  1.00  0.00     0.062 A 
ATOM     17  C   UNL     1       8.805  14.401 -17.639  1.00  0.00     0.158 A 
BRANCH  15  18
ATOM     18  O   UNL     1      10.777  15.770 -18.213  1.00  0.00    -0.504 OA
ATOM     19  H   UNL     1      10.260  16.521 -18.649  1.00  0.00     0.293 HD
ENDBRANCH  15  18
BRANCH  17  20
ATOM     20  O   UNL     1       7.936  15.121 -18.462  1.00  0.00    -0.504 OA
ATOM     21  H   UNL     1       7.820  14.949 -19.450  1.00  0.00     0.293 HD
ENDBRANCH  17  20
ENDBRANCH   1  12
BRANCH   2  22
ATOM     22  O   UNL     1       8.349  12.713 -13.266  1.00  0.00    -0.502 OA
ATOM     23  H   UNL     1       7.739  13.004 -12.511  1.00  0.00     0.293 HD
ENDBRANCH   2  22
BRANCH   6  24
ATOM     24  O   UNL     1       6.316   7.901 -12.222  1.00  0.00    -0.507 OA
ATOM     25  H   UNL     1       5.463   8.374 -11.968  1.00  0.00     0.293 HD
ENDBRANCH   6  24
BRANCH   8  26
ATOM     26  O   UNL     1       7.423   5.599 -16.269  1.00  0.00    -0.508 OA
ATOM     27  H   UNL     1       8.025   5.464 -17.073  1.00  0.00     0.293 HD
ENDBRANCH   8  26
TORSDOF 6
ENDMDL
