MODEL 1
REMARK VINA RESULT:    -5.573      0.000      0.000
REMARK INTER + INTRA:          -6.715
REMARK INTER:                  -6.550
REMARK INTRA:                  -0.165
REMARK UNBOUND:                -0.165
REMARK SMILES O=C([O-])C=Cc1ccc(O)c(O)c1
REMARK SMILES IDX 6 1 13 2 7 3 11 4 8 5 9 6 5 7 4 8 2 9 1 10 3 11 12 12 10 14
REMARK H PARENT 12 13 10 15
REMARK Flexibility Score: inf
ROOT
ATOM      1  C   UNL     1     -33.049   9.960 -34.782  1.00  0.00    -0.022 A 
ATOM      2  C   UNL     1     -33.982   9.247 -34.016  1.00  0.00     0.058 A 
ATOM      3  C   UNL     1     -32.732  11.281 -34.423  1.00  0.00     0.012 A 
ATOM      4  C   UNL     1     -34.555   9.823 -32.873  1.00  0.00     0.157 A 
ATOM      5  C   UNL     1     -33.301  11.859 -33.285  1.00  0.00     0.051 A 
ATOM      6  C   UNL     1     -34.209  11.135 -32.504  1.00  0.00     0.157 A 
ENDROOT
BRANCH   1   7
ATOM      7  C   UNL     1     -32.501   9.349 -36.010  1.00  0.00     0.010 C 
ATOM      8  C   UNL     1     -33.102   9.345 -37.210  1.00  0.00     0.025 C 
BRANCH   8   9
ATOM      9  C   UNL     1     -34.315  10.107 -37.562  1.00  0.00     0.064 C 
ATOM     10  O   UNL     1     -35.301   9.501 -38.056  1.00  0.00    -0.545 OA
ATOM     11  O   UNL     1     -34.368  11.489 -37.428  1.00  0.00    -0.545 OA
ENDBRANCH   8   9
ENDBRANCH   1   7
BRANCH   4  12
ATOM     12  O   UNL     1     -35.468   9.100 -32.107  1.00  0.00    -0.504 OA
ATOM     13  H   UNL     1     -35.222   8.213 -31.685  1.00  0.00     0.293 HD
ENDBRANCH   4  12
BRANCH   6  14
ATOM     14  O   UNL     1     -34.760  11.736 -31.373  1.00  0.00    -0.504 OA
ATOM     15  H   UNL     1     -35.308  11.214 -30.699  1.00  0.00     0.293 HD
ENDBRANCH   6  14
TORSDOF 4
ENDMDL
MODEL 2
REMARK VINA RESULT:    -5.417      1.543      4.538
REMARK INTER + INTRA:          -6.532
REMARK INTER:                  -6.501
REMARK INTRA:                  -0.031
REMARK UNBOUND:                -0.165
REMARK SMILES O=C([O-])C=Cc1ccc(O)c(O)c1
REMARK SMILES IDX 6 1 13 2 7 3 11 4 8 5 9 6 5 7 4 8 2 9 1 10 3 11 12 12 10 14
REMARK H PARENT 12 13 10 15
REMARK Flexibility Score: inf
ROOT
ATOM      1  C   UNL     1     -32.655  10.061 -35.215  1.00  0.00    -0.022 A 
ATOM      2  C   UNL     1     -33.320   9.574 -36.349  1.00  0.00     0.058 A 
ATOM      3  C   UNL     1     -32.757  11.424 -34.890  1.00  0.00     0.012 A 
ATOM      4  C   UNL     1     -34.123  10.424 -37.124  1.00  0.00     0.157 A 
ATOM      5  C   UNL     1     -33.556  12.274 -35.659  1.00  0.00     0.051 A 
ATOM      6  C   UNL     1     -34.244  11.780 -36.773  1.00  0.00     0.157 A 
ENDROOT
BRANCH   1   7
ATOM      7  C   UNL     1     -31.773   9.156 -34.448  1.00  0.00     0.010 C 
ATOM      8  C   UNL     1     -31.772   9.020 -33.114  1.00  0.00     0.025 C 
BRANCH   8   9
ATOM      9  C   UNL     1     -32.769   9.600 -32.194  1.00  0.00     0.064 C 
ATOM     10  O   UNL     1     -32.418  10.513 -31.403  1.00  0.00    -0.545 OA
ATOM     11  O   UNL     1     -34.069   9.112 -32.130  1.00  0.00    -0.545 OA
ENDBRANCH   8   9
ENDBRANCH   1   7
BRANCH   4  12
ATOM     12  O   UNL     1     -34.796   9.928 -38.239  1.00  0.00    -0.504 OA
ATOM     13  H   UNL     1     -34.388   9.964 -39.165  1.00  0.00     0.293 HD
ENDBRANCH   4  12
BRANCH   6  14
ATOM     14  O   UNL     1     -35.036  12.652 -37.522  1.00  0.00    -0.504 OA
ATOM     15  H   UNL     1     -35.459  12.374 -38.399  1.00  0.00     0.293 HD
ENDBRANCH   6  14
TORSDOF 4
ENDMDL
MODEL 3
REMARK VINA RESULT:    -5.354      1.189      4.847
REMARK INTER + INTRA:          -6.458
REMARK INTER:                  -6.233
REMARK INTRA:                  -0.225
REMARK UNBOUND:                -0.165
REMARK SMILES O=C([O-])C=Cc1ccc(O)c(O)c1
REMARK SMILES IDX 6 1 13 2 7 3 11 4 8 5 9 6 5 7 4 8 2 9 1 10 3 11 12 12 10 14
REMARK H PARENT 12 13 10 15
REMARK Flexibility Score: inf
ROOT
ATOM      1  C   UNL     1     -33.033  10.244 -35.485  1.00  0.00    -0.022 A 
ATOM      2  C   UNL     1     -33.468  11.505 -35.916  1.00  0.00     0.058 A 
ATOM      3  C   UNL     1     -33.526   9.092 -36.121  1.00  0.00     0.012 A 
ATOM      4  C   UNL     1     -34.346  11.622 -37.004  1.00  0.00     0.157 A 
ATOM      5  C   UNL     1     -34.401   9.205 -37.205  1.00  0.00     0.051 A 
ATOM      6  C   UNL     1     -34.811  10.465 -37.653  1.00  0.00     0.157 A 
ENDROOT
BRANCH   1   7
ATOM      7  C   UNL     1     -32.150  10.146 -34.304  1.00  0.00     0.010 C 
ATOM      8  C   UNL     1     -32.529  10.352 -33.034  1.00  0.00     0.025 C 
BRANCH   8   9
ATOM      9  C   UNL     1     -33.919  10.522 -32.572  1.00  0.00     0.064 C 
ATOM     10  O   UNL     1     -34.300  11.651 -32.169  1.00  0.00    -0.545 OA
ATOM     11  O   UNL     1     -34.798   9.447 -32.503  1.00  0.00    -0.545 OA
ENDBRANCH   8   9
ENDBRANCH   1   7
BRANCH   4  12
ATOM     12  O   UNL     1     -34.760  12.880 -37.437  1.00  0.00    -0.504 OA
ATOM     13  H   UNL     1     -34.720  13.146 -38.414  1.00  0.00     0.293 HD
ENDBRANCH   4  12
BRANCH   6  14
ATOM     14  O   UNL     1     -35.683  10.548 -38.739  1.00  0.00    -0.504 OA
ATOM     15  H   UNL     1     -35.838   9.766 -39.365  1.00  0.00     0.293 HD
ENDBRANCH   6  14
TORSDOF 4
ENDMDL
MODEL 4
REMARK VINA RESULT:    -5.326      1.557      1.706
REMARK INTER + INTRA:          -6.425
REMARK INTER:                  -6.535
REMARK INTRA:                   0.110
REMARK UNBOUND:                -0.165
REMARK SMILES O=C([O-])C=Cc1ccc(O)c(O)c1
REMARK SMILES IDX 6 1 13 2 7 3 11 4 8 5 9 6 5 7 4 8 2 9 1 10 3 11 12 12 10 14
REMARK H PARENT 12 13 10 15
REMARK Flexibility Score: inf
ROOT
ATOM      1  C   UNL     1     -33.141   9.179 -35.078  1.00  0.00    -0.022 A 
ATOM      2  C   UNL     1     -34.295   9.115 -34.283  1.00  0.00     0.058 A 
ATOM      3  C   UNL     1     -31.906   9.467 -34.473  1.00  0.00     0.012 A 
ATOM      4  C   UNL     1     -34.212   9.284 -32.893  1.00  0.00     0.157 A 
ATOM      5  C   UNL     1     -31.820   9.635 -33.089  1.00  0.00     0.051 A 
ATOM      6  C   UNL     1     -32.967   9.541 -32.294  1.00  0.00     0.157 A 
ENDROOT
BRANCH   1   7
ATOM      7  C   UNL     1     -33.264   9.051 -36.544  1.00  0.00     0.010 C 
ATOM      8  C   UNL     1     -33.772   9.982 -37.365  1.00  0.00     0.025 C 
BRANCH   8   9
ATOM      9  C   UNL     1     -34.122  11.363 -36.980  1.00  0.00     0.064 C 
ATOM     10  O   UNL     1     -35.065  11.947 -37.574  1.00  0.00    -0.545 OA
ATOM     11  O   UNL     1     -33.387  12.060 -36.029  1.00  0.00    -0.545 OA
ENDBRANCH   8   9
ENDBRANCH   1   7
BRANCH   4  12
ATOM     12  O   UNL     1     -35.361   9.201 -32.109  1.00  0.00    -0.504 OA
ATOM     13  H   UNL     1     -36.218   9.675 -32.368  1.00  0.00     0.293 HD
ENDBRANCH   4  12
BRANCH   6  14
ATOM     14  O   UNL     1     -32.852   9.712 -30.914  1.00  0.00    -0.504 OA
ATOM     15  H   UNL     1     -32.780  10.630 -30.490  1.00  0.00     0.293 HD
ENDBRANCH   6  14
TORSDOF 4
ENDMDL
MODEL 5
REMARK VINA RESULT:    -5.256      1.600      2.170
REMARK INTER + INTRA:          -6.342
REMARK INTER:                  -6.398
REMARK INTRA:                   0.056
REMARK UNBOUND:                -0.165
REMARK SMILES O=C([O-])C=Cc1ccc(O)c(O)c1
REMARK SMILES IDX 6 1 13 2 7 3 11 4 8 5 9 6 5 7 4 8 2 9 1 10 3 11 12 12 10 14
REMARK H PARENT 12 13 10 15
REMARK Flexibility Score: inf
ROOT
ATOM      1  C   UNL     1     -33.467   9.531 -33.794  1.00  0.00    -0.022 A 
ATOM      2  C   UNL     1     -34.331  10.458 -33.195  1.00  0.00     0.058 A 
ATOM      3  C   UNL     1     -32.193   9.320 -33.239  1.00  0.00     0.012 A 
ATOM      4  C   UNL     1     -33.953  11.131 -32.024  1.00  0.00     0.157 A 
ATOM      5  C   UNL     1     -31.813   9.989 -32.073  1.00  0.00     0.051 A 
ATOM      6  C   UNL     1     -32.688  10.892 -31.459  1.00  0.00     0.157 A 
ENDROOT
BRANCH   1   7
ATOM      7  C   UNL     1     -33.870   8.875 -35.055  1.00  0.00     0.010 C 
ATOM      8  C   UNL     1     -34.026   9.493 -36.235  1.00  0.00     0.025 C 
BRANCH   8   9
ATOM      9  C   UNL     1     -33.643  10.888 -36.528  1.00  0.00     0.064 C 
ATOM     10  O   UNL     1     -32.516  11.308 -36.158  1.00  0.00    -0.545 OA
ATOM     11  O   UNL     1     -34.526  11.770 -37.139  1.00  0.00    -0.545 OA
ENDBRANCH   8   9
ENDBRANCH   1   7
BRANCH   4  12
ATOM     12  O   UNL     1     -34.825  12.038 -31.424  1.00  0.00    -0.504 OA
ATOM     13  H   UNL     1     -35.738  12.234 -31.815  1.00  0.00     0.293 HD
ENDBRANCH   4  12
BRANCH   6  14
ATOM     14  O   UNL     1     -32.282  11.544 -30.294  1.00  0.00    -0.504 OA
ATOM     15  H   UNL     1     -31.472  12.153 -30.274  1.00  0.00     0.293 HD
ENDBRANCH   6  14
TORSDOF 4
ENDMDL
MODEL 6
REMARK VINA RESULT:    -4.819      2.776      5.741
REMARK INTER + INTRA:          -5.828
REMARK INTER:                  -5.929
REMARK INTRA:                   0.101
REMARK UNBOUND:                -0.165
REMARK SMILES O=C([O-])C=Cc1ccc(O)c(O)c1
REMARK SMILES IDX 6 1 13 2 7 3 11 4 8 5 9 6 5 7 4 8 2 9 1 10 3 11 12 12 10 14
REMARK H PARENT 12 13 10 15
REMARK Flexibility Score: inf
ROOT
ATOM      1  C   UNL     1     -33.333  11.315 -32.595  1.00  0.00    -0.022 A 
ATOM      2  C   UNL     1     -33.186  11.652 -33.948  1.00  0.00     0.058 A 
ATOM      3  C   UNL     1     -32.727  10.143 -32.109  1.00  0.00     0.012 A 
ATOM      4  C   UNL     1     -32.400  10.860 -34.799  1.00  0.00     0.157 A 
ATOM      5  C   UNL     1     -31.944   9.352 -32.953  1.00  0.00     0.051 A 
ATOM      6  C   UNL     1     -31.773   9.707 -34.296  1.00  0.00     0.157 A 
ENDROOT
BRANCH   1   7
ATOM      7  C   UNL     1     -34.209  12.136 -31.735  1.00  0.00     0.010 C 
ATOM      8  C   UNL     1     -33.878  12.622 -30.529  1.00  0.00     0.025 C 
BRANCH   8   9
ATOM      9  C   UNL     1     -32.530  12.585 -29.932  1.00  0.00     0.064 C 
ATOM     10  O   UNL     1     -32.396  12.226 -28.734  1.00  0.00    -0.545 OA
ATOM     11  O   UNL     1     -31.411  13.008 -30.640  1.00  0.00    -0.545 OA
ENDBRANCH   8   9
ENDBRANCH   1   7
BRANCH   4  12
ATOM     12  O   UNL     1     -32.244  11.213 -36.138  1.00  0.00    -0.504 OA
ATOM     13  H   UNL     1     -32.513  12.127 -36.481  1.00  0.00     0.293 HD
ENDBRANCH   4  12
BRANCH   6  14
ATOM     14  O   UNL     1     -30.984   8.899 -35.115  1.00  0.00    -0.504 OA
ATOM     15  H   UNL     1     -30.140   8.453 -34.777  1.00  0.00     0.293 HD
ENDBRANCH   6  14
TORSDOF 4
ENDMDL
MODEL 7
REMARK VINA RESULT:    -4.267      1.828      4.877
REMARK INTER + INTRA:          -5.180
REMARK INTER:                  -5.044
REMARK INTRA:                  -0.136
REMARK UNBOUND:                -0.165
REMARK SMILES O=C([O-])C=Cc1ccc(O)c(O)c1
REMARK SMILES IDX 6 1 13 2 7 3 11 4 8 5 9 6 5 7 4 8 2 9 1 10 3 11 12 12 10 14
REMARK H PARENT 12 13 10 15
REMARK Flexibility Score: inf
ROOT
ATOM      1  C   UNL     1     -32.721   9.089 -33.695  1.00  0.00    -0.022 A 
ATOM      2  C   UNL     1     -33.825   8.955 -34.550  1.00  0.00     0.058 A 
ATOM      3  C   UNL     1     -31.438   9.241 -34.247  1.00  0.00     0.012 A 
ATOM      4  C   UNL     1     -33.660   9.025 -35.941  1.00  0.00     0.157 A 
ATOM      5  C   UNL     1     -31.271   9.311 -35.632  1.00  0.00     0.051 A 
ATOM      6  C   UNL     1     -32.376   9.208 -36.484  1.00  0.00     0.157 A 
ENDROOT
BRANCH   1   7
ATOM      7  C   UNL     1     -32.916   8.958 -32.236  1.00  0.00     0.010 C 
ATOM      8  C   UNL     1     -32.977   9.977 -31.367  1.00  0.00     0.025 C 
BRANCH   8   9
ATOM      9  C   UNL     1     -33.054  11.406 -31.727  1.00  0.00     0.064 C 
ATOM     10  O   UNL     1     -32.306  12.230 -31.140  1.00  0.00    -0.545 OA
ATOM     11  O   UNL     1     -33.983  11.874 -32.648  1.00  0.00    -0.545 OA
ENDBRANCH   8   9
ENDBRANCH   1   7
BRANCH   4  12
ATOM     12  O   UNL     1     -34.764   8.910 -36.784  1.00  0.00    -0.504 OA
ATOM     13  H   UNL     1     -35.643   9.368 -36.574  1.00  0.00     0.293 HD
ENDBRANCH   4  12
BRANCH   6  14
ATOM     14  O   UNL     1     -32.179   9.284 -37.863  1.00  0.00    -0.504 OA
ATOM     15  H   UNL     1     -31.574   9.980 -38.282  1.00  0.00     0.293 HD
ENDBRANCH   6  14
TORSDOF 4
ENDMDL
MODEL 8
REMARK VINA RESULT:    -2.763      1.568      2.190
REMARK INTER + INTRA:          -3.412
REMARK INTER:                  -3.551
REMARK INTRA:                   0.139
REMARK UNBOUND:                -0.165
REMARK SMILES O=C([O-])C=Cc1ccc(O)c(O)c1
REMARK SMILES IDX 6 1 13 2 7 3 11 4 8 5 9 6 5 7 4 8 2 9 1 10 3 11 12 12 10 14
REMARK H PARENT 12 13 10 15
REMARK Flexibility Score: inf
ROOT
ATOM      1  C   UNL     1     -33.377  11.279 -34.848  1.00  0.00    -0.022 A 
ATOM      2  C   UNL     1     -34.045  11.840 -33.751  1.00  0.00     0.058 A 
ATOM      3  C   UNL     1     -32.393  10.301 -34.628  1.00  0.00     0.012 A 
ATOM      4  C   UNL     1     -33.774  11.394 -32.448  1.00  0.00     0.157 A 
ATOM      5  C   UNL     1     -32.120   9.855 -33.332  1.00  0.00     0.051 A 
ATOM      6  C   UNL     1     -32.809  10.393 -32.240  1.00  0.00     0.157 A 
ENDROOT
BRANCH   1   7
ATOM      7  C   UNL     1     -33.644  11.804 -36.203  1.00  0.00     0.010 C 
ATOM      8  C   UNL     1     -33.708  11.067 -37.322  1.00  0.00     0.025 C 
BRANCH   8   9
ATOM      9  C   UNL     1     -33.715   9.593 -37.377  1.00  0.00     0.064 C 
ATOM     10  O   UNL     1     -34.740   8.968 -36.999  1.00  0.00    -0.545 OA
ATOM     11  O   UNL     1     -32.591   8.875 -37.767  1.00  0.00    -0.545 OA
ENDBRANCH   8   9
ENDBRANCH   1   7
BRANCH   4  12
ATOM     12  O   UNL     1     -34.456  11.944 -31.364  1.00  0.00    -0.504 OA
ATOM     13  H   UNL     1     -35.021  11.373 -30.747  1.00  0.00     0.293 HD
ENDBRANCH   4  12
BRANCH   6  14
ATOM     14  O   UNL     1     -32.517   9.927 -30.958  1.00  0.00    -0.504 OA
ATOM     15  H   UNL     1     -31.666   9.417 -30.752  1.00  0.00     0.293 HD
ENDBRANCH   6  14
TORSDOF 4
ENDMDL
