MODEL 1
REMARK VINA RESULT:    15.682      0.000      0.000
REMARK INTER + INTRA:          24.601
REMARK INTER:                  25.767
REMARK INTRA:                  -1.166
REMARK UNBOUND:                -1.166
REMARK SMILES C[C@@H]1O[C@@H](OC[C@@H]2O[C@H](Oc3c(-c4ccc(O)c(O)c4)oc4cc(O)cc(O)c4c3=O)[C@@H](O)[C@@H](O)[C@H]2O)[C@@H](O)[C@H](O)[C@H]1O
REMARK SMILES IDX 7 1 36 2 34 3 32 4 9 5 8 6 6 7 5 8 4 9 1 10 2 11 42 12 3 13
REMARK SMILES IDX 40 14 38 15 43 16 41 18 39 20 37 22 35 24 10 26 11 27 12 28
REMARK SMILES IDX 30 29 21 30 29 31 31 32 22 33 27 34 23 35 26 36 24 37 13 38
REMARK SMILES IDX 20 39 14 40 18 41 15 42 16 43 19 44 17 46 28 48 25 50 33 52
REMARK H PARENT 43 17 41 19 39 21 37 23 35 25 19 45 17 47 28 49 25 51 33 53
REMARK Flexibility Score: inf
ROOT
ATOM      1  C   UNL     1       4.133  10.569  11.690  1.00  0.00     0.180 C 
ATOM      2  C   UNL     1       3.347   9.336  12.224  1.00  0.00     0.177 C 
ATOM      3  C   UNL     1       2.029   9.765  12.903  1.00  0.00     0.180 C 
ATOM      4  C   UNL     1       1.377  10.935  12.137  1.00  0.00     0.214 C 
ATOM      5  C   UNL     1       2.398  12.099  11.959  1.00  0.00     0.339 C 
ATOM      6  O   UNL     1       3.710  11.740  12.375  1.00  0.00    -0.332 OA
ENDROOT
BRANCH   1   7
ATOM      7  C   UNL     1       5.649  10.398  11.866  1.00  0.00     0.198 C 
BRANCH   7   8
ATOM      8  O   UNL     1       5.920   9.044  12.189  1.00  0.00    -0.347 OA
BRANCH   8   9
ATOM      9  C   UNL     1       6.905   8.854  13.201  1.00  0.00     0.281 C 
ATOM     10  C   UNL     1       9.711   7.946  14.370  1.00  0.00     0.041 C 
ATOM     11  C   UNL     1       9.058   7.765  12.983  1.00  0.00     0.150 C 
ATOM     12  C   UNL     1       8.373   6.387  12.741  1.00  0.00     0.174 C 
ATOM     13  O   UNL     1       8.233   8.875  12.668  1.00  0.00    -0.344 OA
ATOM     14  C   UNL     1       6.895   6.333  13.192  1.00  0.00     0.179 C 
ATOM     15  C   UNL     1       6.509   7.582  13.994  1.00  0.00     0.202 C 
BRANCH  12  16
ATOM     16  O   UNL     1       8.478   6.009  11.383  1.00  0.00    -0.388 OA
ATOM     17  H   UNL     1       8.520   5.020  11.345  1.00  0.00     0.211 HD
ENDBRANCH  12  16
BRANCH  14  18
ATOM     18  O   UNL     1       6.690   5.163  13.947  1.00  0.00    -0.387 OA
ATOM     19  H   UNL     1       5.880   5.291  14.504  1.00  0.00     0.211 HD
ENDBRANCH  14  18
BRANCH  15  20
ATOM     20  O   UNL     1       5.127   7.596  14.290  1.00  0.00    -0.385 OA
ATOM     21  H   UNL     1       4.909   8.460  14.725  1.00  0.00     0.211 HD
ENDBRANCH  15  20
ENDBRANCH   8   9
ENDBRANCH   7   8
ENDBRANCH   1   7
BRANCH   2  22
ATOM     22  O   UNL     1       3.051   8.464  11.156  1.00  0.00    -0.387 OA
ATOM     23  H   UNL     1       2.212   8.811  10.741  1.00  0.00     0.211 HD
ENDBRANCH   2  22
BRANCH   3  24
ATOM     24  O   UNL     1       1.142   8.674  12.983  1.00  0.00    -0.387 OA
ATOM     25  H   UNL     1       1.013   8.327  12.060  1.00  0.00     0.211 HD
ENDBRANCH   3  24
BRANCH   5  26
ATOM     26  O   UNL     1       1.968  13.280  12.649  1.00  0.00    -0.454 OA
BRANCH  26  27
ATOM     27  C   UNL     1       2.216  13.509  14.007  1.00  0.00     0.214 A 
ATOM     28  C   UNL     1       3.083  14.541  14.427  1.00  0.00     0.180 A 
ATOM     29  C   UNL     1       1.517  12.780  14.990  1.00  0.00     0.239 A 
ATOM     30  O   UNL     1       3.382  14.670  15.717  1.00  0.00    -0.452 OA
ATOM     31  C   UNL     1       1.810  12.985  16.349  1.00  0.00     0.111 A 
ATOM     32  O   UNL     1       0.601  11.990  14.646  1.00  0.00    -0.285 OA
ATOM     33  C   UNL     1       2.828  13.918  16.669  1.00  0.00     0.146 A 
ATOM     34  C   UNL     1       1.112  12.343  17.403  1.00  0.00     0.134 A 
ATOM     35  C   UNL     1       3.225  14.111  17.997  1.00  0.00     0.094 A 
ATOM     36  C   UNL     1       1.507  12.573  18.729  1.00  0.00     0.093 A 
ATOM     37  C   UNL     1       2.574  13.433  19.030  1.00  0.00     0.123 A 
BRANCH  28  38
ATOM     38  C   UNL     1       3.532  15.604  13.495  1.00  0.00     0.025 A 
ATOM     39  C   UNL     1       4.579  15.312  12.605  1.00  0.00     0.062 A 
ATOM     40  C   UNL     1       2.937  16.875  13.445  1.00  0.00     0.016 A 
ATOM     41  C   UNL     1       5.068  16.282  11.715  1.00  0.00     0.158 A 
ATOM     42  C   UNL     1       3.419  17.849  12.563  1.00  0.00     0.051 A 
ATOM     43  C   UNL     1       4.499  17.578  11.715  1.00  0.00     0.157 A 
BRANCH  41  44
ATOM     44  O   UNL     1       6.125  15.922  10.878  1.00  0.00    -0.504 OA
ATOM     45  H   UNL     1       6.741  15.138  11.040  1.00  0.00     0.293 HD
ENDBRANCH  41  44
BRANCH  43  46
ATOM     46  O   UNL     1       4.944  18.598  10.875  1.00  0.00    -0.504 OA
ATOM     47  H   UNL     1       5.416  19.423  11.213  1.00  0.00     0.293 HD
ENDBRANCH  43  46
ENDBRANCH  28  38
BRANCH  34  48
ATOM     48  O   UNL     1       0.019  11.511  17.147  1.00  0.00    -0.507 OA
ATOM     49  H   UNL     1      -0.911  11.887  16.999  1.00  0.00     0.293 HD
ENDBRANCH  34  48
BRANCH  37  50
ATOM     50  O   UNL     1       2.976  13.642  20.350  1.00  0.00    -0.508 OA
ATOM     51  H   UNL     1       2.294  13.794  21.081  1.00  0.00     0.293 HD
ENDBRANCH  37  50
ENDBRANCH  26  27
ENDBRANCH   5  26
BRANCH   4  52
ATOM     52  O   UNL     1       0.956  10.482  10.877  1.00  0.00    -0.384 OA
ATOM     53  H   UNL     1       1.187   9.519  10.805  1.00  0.00     0.211 HD
ENDBRANCH   4  52
TORSDOF 16
ENDMDL
MODEL 2
REMARK VINA RESULT:    17.140      1.431      5.337
REMARK INTER + INTRA:          26.997
REMARK INTER:                  27.759
REMARK INTRA:                  -0.763
REMARK UNBOUND:                -1.166
REMARK SMILES C[C@@H]1O[C@@H](OC[C@@H]2O[C@H](Oc3c(-c4ccc(O)c(O)c4)oc4cc(O)cc(O)c4c3=O)[C@@H](O)[C@@H](O)[C@H]2O)[C@@H](O)[C@H](O)[C@H]1O
REMARK SMILES IDX 7 1 36 2 34 3 32 4 9 5 8 6 6 7 5 8 4 9 1 10 2 11 42 12 3 13
REMARK SMILES IDX 40 14 38 15 43 16 41 18 39 20 37 22 35 24 10 26 11 27 12 28
REMARK SMILES IDX 30 29 21 30 29 31 31 32 22 33 27 34 23 35 26 36 24 37 13 38
REMARK SMILES IDX 20 39 14 40 18 41 15 42 16 43 19 44 17 46 28 48 25 50 33 52
REMARK H PARENT 43 17 41 19 39 21 37 23 35 25 19 45 17 47 28 49 25 51 33 53
REMARK Flexibility Score: inf
ROOT
ATOM      1  C   UNL     1       2.801   9.553  12.949  1.00  0.00     0.180 C 
ATOM      2  C   UNL     1       1.304   9.951  12.796  1.00  0.00     0.177 C 
ATOM      3  C   UNL     1       1.116  11.477  12.935  1.00  0.00     0.180 C 
ATOM      4  C   UNL     1       2.280  12.233  12.262  1.00  0.00     0.214 C 
ATOM      5  C   UNL     1       3.645  11.719  12.808  1.00  0.00     0.339 C 
ATOM      6  O   UNL     1       3.501  10.576  13.643  1.00  0.00    -0.332 OA
ENDROOT
BRANCH   1   7
ATOM      7  C   UNL     1       2.963   8.225  13.703  1.00  0.00     0.198 C 
BRANCH   7   8
ATOM      8  O   UNL     1       4.343   8.002  13.943  1.00  0.00    -0.347 OA
BRANCH   8   9
ATOM      9  C   UNL     1       4.977   7.121  13.021  1.00  0.00     0.281 C 
ATOM     10  C   UNL     1       7.031   4.880  12.109  1.00  0.00     0.041 C 
ATOM     11  C   UNL     1       6.851   5.643  13.439  1.00  0.00     0.150 C 
ATOM     12  C   UNL     1       7.804   6.857  13.647  1.00  0.00     0.174 C 
ATOM     13  O   UNL     1       5.484   5.947  13.663  1.00  0.00    -0.344 OA
ATOM     14  C   UNL     1       7.261   8.187  13.074  1.00  0.00     0.179 C 
ATOM     15  C   UNL     1       6.008   7.958  12.220  1.00  0.00     0.202 C 
BRANCH  12  16
ATOM     16  O   UNL     1       8.121   7.013  15.016  1.00  0.00    -0.388 OA
ATOM     17  H   UNL     1       7.276   7.176  15.507  1.00  0.00     0.211 HD
ENDBRANCH  12  16
BRANCH  14  18
ATOM     18  O   UNL     1       8.277   8.811  12.326  1.00  0.00    -0.387 OA
ATOM     19  H   UNL     1       8.538   9.646  12.793  1.00  0.00     0.211 HD
ENDBRANCH  14  18
BRANCH  15  20
ATOM     20  O   UNL     1       5.436   9.182  11.809  1.00  0.00    -0.385 OA
ATOM     21  H   UNL     1       6.127   9.704  11.325  1.00  0.00     0.211 HD
ENDBRANCH  15  20
ENDBRANCH   8   9
ENDBRANCH   7   8
ENDBRANCH   1   7
BRANCH   2  22
ATOM     22  O   UNL     1       0.831   9.543  11.533  1.00  0.00    -0.387 OA
ATOM     23  H   UNL     1       0.506   8.606  11.649  1.00  0.00     0.211 HD
ENDBRANCH   2  22
BRANCH   3  24
ATOM     24  O   UNL     1      -0.116  11.871  12.376  1.00  0.00    -0.387 OA
ATOM     25  H   UNL     1      -0.186  11.445  11.480  1.00  0.00     0.211 HD
ENDBRANCH   3  24
BRANCH   5  26
ATOM     26  O   UNL     1       4.351  12.753  13.508  1.00  0.00    -0.454 OA
BRANCH  26  27
ATOM     27  C   UNL     1       4.000  14.106  13.435  1.00  0.00     0.214 A 
ATOM     28  C   UNL     1       3.063  14.666  14.331  1.00  0.00     0.180 A 
ATOM     29  C   UNL     1       4.660  14.964  12.533  1.00  0.00     0.239 A 
ATOM     30  O   UNL     1       2.670  15.927  14.175  1.00  0.00    -0.452 OA
ATOM     31  C   UNL     1       4.265  16.310  12.436  1.00  0.00     0.111 A 
ATOM     32  O   UNL     1       5.630  14.533  11.859  1.00  0.00    -0.285 OA
ATOM     33  C   UNL     1       3.188  16.739  13.253  1.00  0.00     0.146 A 
ATOM     34  C   UNL     1       4.914  17.255  11.604  1.00  0.00     0.134 A 
ATOM     35  C   UNL     1       2.692  18.044  13.148  1.00  0.00     0.094 A 
ATOM     36  C   UNL     1       4.419  18.566  11.536  1.00  0.00     0.093 A 
ATOM     37  C   UNL     1       3.298  18.958  12.283  1.00  0.00     0.123 A 
BRANCH  28  38
ATOM     38  C   UNL     1       2.635  13.946  15.556  1.00  0.00     0.025 A 
ATOM     39  C   UNL     1       3.160  14.361  16.791  1.00  0.00     0.062 A 
ATOM     40  C   UNL     1       1.706  12.893  15.535  1.00  0.00     0.016 A 
ATOM     41  C   UNL     1       2.814  13.705  17.984  1.00  0.00     0.158 A 
ATOM     42  C   UNL     1       1.356  12.233  16.718  1.00  0.00     0.051 A 
ATOM     43  C   UNL     1       1.922  12.606  17.942  1.00  0.00     0.157 A 
BRANCH  41  44
ATOM     44  O   UNL     1       3.395  14.161  19.169  1.00  0.00    -0.504 OA
ATOM     45  H   UNL     1       3.547  13.590  19.987  1.00  0.00     0.293 HD
ENDBRANCH  41  44
BRANCH  43  46
ATOM     46  O   UNL     1       1.548  11.894  19.081  1.00  0.00    -0.504 OA
ATOM     47  H   UNL     1       0.960  12.279  19.804  1.00  0.00     0.293 HD
ENDBRANCH  43  46
ENDBRANCH  28  38
BRANCH  34  48
ATOM     48  O   UNL     1       6.057  16.915  10.875  1.00  0.00    -0.507 OA
ATOM     49  H   UNL     1       5.993  16.503   9.951  1.00  0.00     0.293 HD
ENDBRANCH  34  48
BRANCH  37  50
ATOM     50  O   UNL     1       2.797  20.257  12.196  1.00  0.00    -0.508 OA
ATOM     51  H   UNL     1       2.914  20.802  11.351  1.00  0.00     0.293 HD
ENDBRANCH  37  50
ENDBRANCH  26  27
ENDBRANCH   5  26
BRANCH   4  52
ATOM     52  O   UNL     1       2.221  12.028  10.875  1.00  0.00    -0.384 OA
ATOM     53  H   UNL     1       1.312  12.280  10.566  1.00  0.00     0.211 HD
ENDBRANCH   4  52
TORSDOF 16
ENDMDL
MODEL 3
REMARK VINA RESULT:    18.371      1.490      5.100
REMARK INTER + INTRA:          29.019
REMARK INTER:                  30.272
REMARK INTRA:                  -1.253
REMARK UNBOUND:                -1.166
REMARK SMILES C[C@@H]1O[C@@H](OC[C@@H]2O[C@H](Oc3c(-c4ccc(O)c(O)c4)oc4cc(O)cc(O)c4c3=O)[C@@H](O)[C@@H](O)[C@H]2O)[C@@H](O)[C@H](O)[C@H]1O
REMARK SMILES IDX 7 1 36 2 34 3 32 4 9 5 8 6 6 7 5 8 4 9 1 10 2 11 42 12 3 13
REMARK SMILES IDX 40 14 38 15 43 16 41 18 39 20 37 22 35 24 10 26 11 27 12 28
REMARK SMILES IDX 30 29 21 30 29 31 31 32 22 33 27 34 23 35 26 36 24 37 13 38
REMARK SMILES IDX 20 39 14 40 18 41 15 42 16 43 19 44 17 46 28 48 25 50 33 52
REMARK H PARENT 43 17 41 19 39 21 37 23 35 25 19 45 17 47 28 49 25 51 33 53
REMARK Flexibility Score: inf
ROOT
ATOM      1  C   UNL     1       4.429   9.115  11.885  1.00  0.00     0.180 C 
ATOM      2  C   UNL     1       3.668   7.894  12.480  1.00  0.00     0.177 C 
ATOM      3  C   UNL     1       2.884   8.289  13.749  1.00  0.00     0.180 C 
ATOM      4  C   UNL     1       2.266   9.695  13.592  1.00  0.00     0.214 C 
ATOM      5  C   UNL     1       3.363  10.724  13.187  1.00  0.00     0.339 C 
ATOM      6  O   UNL     1       4.608  10.103  12.888  1.00  0.00    -0.332 OA
ENDROOT
BRANCH   1   7
ATOM      7  C   UNL     1       5.798   8.712  11.318  1.00  0.00     0.198 C 
BRANCH   7   8
ATOM      8  O   UNL     1       6.769   8.831  12.345  1.00  0.00    -0.347 OA
BRANCH   8   9
ATOM      9  C   UNL     1       7.755   7.803  12.360  1.00  0.00     0.281 C 
ATOM     10  C   UNL     1       8.889   4.878  11.881  1.00  0.00     0.041 C 
ATOM     11  C   UNL     1       7.471   5.474  11.757  1.00  0.00     0.150 C 
ATOM     12  C   UNL     1       6.537   5.237  12.980  1.00  0.00     0.174 C 
ATOM     13  O   UNL     1       7.529   6.828  11.338  1.00  0.00    -0.344 OA
ATOM     14  C   UNL     1       6.649   6.323  14.076  1.00  0.00     0.179 C 
ATOM     15  C   UNL     1       7.832   7.263  13.812  1.00  0.00     0.202 C 
BRANCH  12  16
ATOM     16  O   UNL     1       5.192   5.108  12.564  1.00  0.00    -0.388 OA
ATOM     17  H   UNL     1       4.818   4.296  12.990  1.00  0.00     0.211 HD
ENDBRANCH  12  16
BRANCH  14  18
ATOM     18  O   UNL     1       6.771   5.695  15.330  1.00  0.00    -0.387 OA
ATOM     19  H   UNL     1       7.736   5.573  15.523  1.00  0.00     0.211 HD
ENDBRANCH  14  18
BRANCH  15  20
ATOM     20  O   UNL     1       7.855   8.332  14.735  1.00  0.00    -0.385 OA
ATOM     21  H   UNL     1       7.979   9.177  14.232  1.00  0.00     0.211 HD
ENDBRANCH  15  20
ENDBRANCH   8   9
ENDBRANCH   7   8
ENDBRANCH   1   7
BRANCH   2  22
ATOM     22  O   UNL     1       2.767   7.384  11.524  1.00  0.00    -0.387 OA
ATOM     23  H   UNL     1       3.328   6.977  10.805  1.00  0.00     0.211 HD
ENDBRANCH   2  22
BRANCH   3  24
ATOM     24  O   UNL     1       1.882   7.339  14.022  1.00  0.00    -0.387 OA
ATOM     25  H   UNL     1       1.738   7.332  15.006  1.00  0.00     0.211 HD
ENDBRANCH   3  24
BRANCH   5  26
ATOM     26  O   UNL     1       3.542  11.723  14.201  1.00  0.00    -0.454 OA
BRANCH  26  27
ATOM     27  C   UNL     1       3.429  13.095  13.955  1.00  0.00     0.214 A 
ATOM     28  C   UNL     1       2.693  13.934  14.821  1.00  0.00     0.180 A 
ATOM     29  C   UNL     1       4.141  13.689  12.893  1.00  0.00     0.239 A 
ATOM     30  O   UNL     1       2.514  15.215  14.508  1.00  0.00    -0.452 OA
ATOM     31  C   UNL     1       3.980  15.060  12.627  1.00  0.00     0.111 A 
ATOM     32  O   UNL     1       4.953  12.999  12.225  1.00  0.00    -0.285 OA
ATOM     33  C   UNL     1       3.078  15.787  13.443  1.00  0.00     0.146 A 
ATOM     34  C   UNL     1       4.704  15.749  11.623  1.00  0.00     0.134 A 
ATOM     35  C   UNL     1       2.810  17.136  13.182  1.00  0.00     0.094 A 
ATOM     36  C   UNL     1       4.442  17.108  11.396  1.00  0.00     0.093 A 
ATOM     37  C   UNL     1       3.483  17.799  12.153  1.00  0.00     0.123 A 
BRANCH  28  38
ATOM     38  C   UNL     1       2.262  13.475  16.164  1.00  0.00     0.025 A 
ATOM     39  C   UNL     1       2.903  14.016  17.291  1.00  0.00     0.062 A 
ATOM     40  C   UNL     1       1.223  12.551  16.356  1.00  0.00     0.016 A 
ATOM     41  C   UNL     1       2.559  13.605  18.590  1.00  0.00     0.158 A 
ATOM     42  C   UNL     1       0.874  12.134  17.646  1.00  0.00     0.051 A 
ATOM     43  C   UNL     1       1.550  12.628  18.767  1.00  0.00     0.157 A 
BRANCH  41  44
ATOM     44  O   UNL     1       3.258  14.171  19.657  1.00  0.00    -0.504 OA
ATOM     45  H   UNL     1       2.956  14.988  20.168  1.00  0.00     0.293 HD
ENDBRANCH  41  44
BRANCH  43  46
ATOM     46  O   UNL     1       1.169  12.156  20.022  1.00  0.00    -0.504 OA
ATOM     47  H   UNL     1       0.531  11.386  20.151  1.00  0.00     0.293 HD
ENDBRANCH  43  46
ENDBRANCH  28  38
BRANCH  34  48
ATOM     48  O   UNL     1       5.696  15.108  10.875  1.00  0.00    -0.507 OA
ATOM     49  H   UNL     1       5.959  14.146  11.057  1.00  0.00     0.293 HD
ENDBRANCH  34  48
BRANCH  37  50
ATOM     50  O   UNL     1       3.211  19.145  11.910  1.00  0.00    -0.508 OA
ATOM     51  H   UNL     1       3.081  19.485  10.966  1.00  0.00     0.293 HD
ENDBRANCH  37  50
ENDBRANCH  26  27
ENDBRANCH   5  26
BRANCH   4  52
ATOM     52  O   UNL     1       1.273   9.652  12.602  1.00  0.00    -0.384 OA
ATOM     53  H   UNL     1       1.662   9.221  11.796  1.00  0.00     0.211 HD
ENDBRANCH   4  52
TORSDOF 16
ENDMDL
