MODEL 1
REMARK VINA RESULT:    -5.227      0.000      0.000
REMARK INTER + INTRA:         -17.736
REMARK INTER:                 -13.171
REMARK INTRA:                  -4.565
REMARK UNBOUND:                -4.565
REMARK SMILES CCCCCCCCCCCCCCCCCCCCCCCCCCCC(=O)[O-]
REMARK SMILES IDX 15 1 16 2 17 3 18 4 19 5 20 6 21 7 22 8 23 9 24 10 25 11
REMARK SMILES IDX 26 12 27 13 28 14 29 15 30 16 14 17 13 18 12 19 11 20 10 21
REMARK SMILES IDX 9 22 8 23 7 24 6 25 5 26 4 27 3 28 2 29 1 30
REMARK H PARENT
REMARK Flexibility Score: inf
ROOT
ATOM      1  C   UNL     1      24.860  14.887 -13.838  1.00  0.00     0.000 C 
ENDROOT
BRANCH   1   2
ATOM      2  C   UNL     1      25.307  15.709 -15.057  1.00  0.00     0.000 C 
BRANCH   2   3
ATOM      3  C   UNL     1      24.731  17.136 -15.055  1.00  0.00     0.000 C 
BRANCH   3   4
ATOM      4  C   UNL     1      23.296  17.188 -15.620  1.00  0.00     0.000 C 
BRANCH   4   5
ATOM      5  C   UNL     1      22.221  17.485 -14.557  1.00  0.00     0.000 C 
BRANCH   5   6
ATOM      6  C   UNL     1      22.637  18.502 -13.477  1.00  0.00     0.000 C 
BRANCH   6   7
ATOM      7  C   UNL     1      22.294  18.098 -12.031  1.00  0.00     0.000 C 
BRANCH   7   8
ATOM      8  C   UNL     1      21.903  16.616 -11.895  1.00  0.00     0.000 C 
BRANCH   8   9
ATOM      9  C   UNL     1      21.663  16.207 -10.426  1.00  0.00     0.000 C 
BRANCH   9  10
ATOM     10  C   UNL     1      21.833  17.363  -9.424  1.00  0.00     0.000 C 
BRANCH  10  11
ATOM     11  C   UNL     1      21.848  16.891  -7.962  1.00  0.00     0.000 C 
BRANCH  11  12
ATOM     12  C   UNL     1      20.984  17.802  -7.080  1.00  0.00     0.006 C 
BRANCH  12  13
ATOM     13  C   UNL     1      19.647  18.154  -7.747  1.00  0.00     0.053 C 
BRANCH  13  14
ATOM     14  C   UNL     1      18.643  17.048  -7.624  1.00  0.00     0.041 C 
ATOM     15  O   UNL     1      17.911  16.743  -8.605  1.00  0.00    -0.550 OA
ATOM     16  O   UNL     1      18.528  16.341  -6.433  1.00  0.00    -0.550 OA
ENDBRANCH  13  14
ENDBRANCH  12  13
ENDBRANCH  11  12
ENDBRANCH  10  11
ENDBRANCH   9  10
ENDBRANCH   8   9
ENDBRANCH   7   8
ENDBRANCH   6   7
ENDBRANCH   5   6
ENDBRANCH   4   5
ENDBRANCH   3   4
ENDBRANCH   2   3
ENDBRANCH   1   2
BRANCH   1  17
ATOM     17  C   UNL     1      25.365  13.435 -13.880  1.00  0.00     0.000 C 
BRANCH  17  18
ATOM     18  C   UNL     1      26.867  13.315 -13.565  1.00  0.00     0.000 C 
BRANCH  18  19
ATOM     19  C   UNL     1      27.168  12.925 -12.103  1.00  0.00     0.000 C 
BRANCH  19  20
ATOM     20  C   UNL     1      28.668  13.006 -11.774  1.00  0.00     0.000 C 
BRANCH  20  21
ATOM     21  C   UNL     1      28.895  13.118 -10.264  1.00  0.00     0.000 C 
BRANCH  21  22
ATOM     22  C   UNL     1      28.903  14.585  -9.813  1.00  0.00    -0.000 C 
BRANCH  22  23
ATOM     23  C   UNL     1      28.041  14.832  -8.562  1.00  0.00    -0.000 C 
BRANCH  23  24
ATOM     24  C   UNL     1      26.871  13.836  -8.421  1.00  0.00    -0.000 C 
BRANCH  24  25
ATOM     25  C   UNL     1      25.605  14.316  -9.153  1.00  0.00    -0.000 C 
BRANCH  25  26
ATOM     26  C   UNL     1      25.563  15.843  -9.324  1.00  0.00    -0.000 C 
BRANCH  26  27
ATOM     27  C   UNL     1      25.377  16.270 -10.787  1.00  0.00    -0.000 C 
BRANCH  27  28
ATOM     28  C   UNL     1      26.692  16.791 -11.377  1.00  0.00    -0.000 C 
BRANCH  28  29
ATOM     29  C   UNL     1      26.479  18.124 -12.104  1.00  0.00    -0.003 C 
ATOM     30  C   UNL     1      25.557  19.044 -11.309  1.00  0.00     0.004 C 
ENDBRANCH  28  29
ENDBRANCH  27  28
ENDBRANCH  26  27
ENDBRANCH  25  26
ENDBRANCH  24  25
ENDBRANCH  23  24
ENDBRANCH  22  23
ENDBRANCH  21  22
ENDBRANCH  20  21
ENDBRANCH  19  20
ENDBRANCH  18  19
ENDBRANCH  17  18
ENDBRANCH   1  17
TORSDOF 26
ENDMDL
MODEL 2
REMARK VINA RESULT:    -5.149      3.334      6.654
REMARK INTER + INTRA:         -17.540
REMARK INTER:                 -12.273
REMARK INTRA:                  -5.267
REMARK UNBOUND:                -4.565
REMARK SMILES CCCCCCCCCCCCCCCCCCCCCCCCCCCC(=O)[O-]
REMARK SMILES IDX 15 1 16 2 17 3 18 4 19 5 20 6 21 7 22 8 23 9 24 10 25 11
REMARK SMILES IDX 26 12 27 13 28 14 29 15 30 16 14 17 13 18 12 19 11 20 10 21
REMARK SMILES IDX 9 22 8 23 7 24 6 25 5 26 4 27 3 28 2 29 1 30
REMARK H PARENT
REMARK Flexibility Score: inf
ROOT
ATOM      1  C   UNL     1      27.655  12.619 -12.857  1.00  0.00     0.000 C 
ENDROOT
BRANCH   1   2
ATOM      2  C   UNL     1      27.861  12.731 -11.338  1.00  0.00     0.000 C 
BRANCH   2   3
ATOM      3  C   UNL     1      29.175  13.441 -10.969  1.00  0.00     0.000 C 
BRANCH   3   4
ATOM      4  C   UNL     1      28.932  14.770 -10.221  1.00  0.00     0.000 C 
BRANCH   4   5
ATOM      5  C   UNL     1      27.914  14.657  -9.070  1.00  0.00     0.000 C 
BRANCH   5   6
ATOM      6  C   UNL     1      26.541  15.298  -9.349  1.00  0.00     0.000 C 
BRANCH   6   7
ATOM      7  C   UNL     1      26.405  15.980 -10.723  1.00  0.00     0.000 C 
BRANCH   7   8
ATOM      8  C   UNL     1      25.579  17.278 -10.675  1.00  0.00     0.000 C 
BRANCH   8   9
ATOM      9  C   UNL     1      26.016  18.290 -11.756  1.00  0.00     0.000 C 
BRANCH   9  10
ATOM     10  C   UNL     1      27.317  17.901 -12.481  1.00  0.00     0.000 C 
BRANCH  10  11
ATOM     11  C   UNL     1      27.152  17.823 -14.007  1.00  0.00     0.000 C 
BRANCH  11  12
ATOM     12  C   UNL     1      25.679  17.644 -14.393  1.00  0.00     0.006 C 
BRANCH  12  13
ATOM     13  C   UNL     1      25.485  16.536 -15.438  1.00  0.00     0.053 C 
BRANCH  13  14
ATOM     14  C   UNL     1      25.021  17.075 -16.758  1.00  0.00     0.041 C 
ATOM     15  O   UNL     1      24.089  16.503 -17.385  1.00  0.00    -0.550 OA
ATOM     16  O   UNL     1      25.604  18.221 -17.286  1.00  0.00    -0.550 OA
ENDBRANCH  13  14
ENDBRANCH  12  13
ENDBRANCH  11  12
ENDBRANCH  10  11
ENDBRANCH   9  10
ENDBRANCH   8   9
ENDBRANCH   7   8
ENDBRANCH   6   7
ENDBRANCH   5   6
ENDBRANCH   4   5
ENDBRANCH   3   4
ENDBRANCH   2   3
ENDBRANCH   1   2
BRANCH   1  17
ATOM     17  C   UNL     1      26.796  13.760 -13.428  1.00  0.00     0.000 C 
BRANCH  17  18
ATOM     18  C   UNL     1      25.316  13.368 -13.595  1.00  0.00     0.000 C 
BRANCH  18  19
ATOM     19  C   UNL     1      24.396  13.918 -12.484  1.00  0.00     0.000 C 
BRANCH  19  20
ATOM     20  C   UNL     1      24.292  12.961 -11.286  1.00  0.00     0.000 C 
BRANCH  20  21
ATOM     21  C   UNL     1      22.838  12.549 -11.037  1.00  0.00     0.000 C 
BRANCH  21  22
ATOM     22  C   UNL     1      22.010  13.732 -10.514  1.00  0.00    -0.000 C 
BRANCH  22  23
ATOM     23  C   UNL     1      22.724  14.513  -9.397  1.00  0.00    -0.000 C 
BRANCH  23  24
ATOM     24  C   UNL     1      22.143  15.925  -9.171  1.00  0.00    -0.000 C 
BRANCH  24  25
ATOM     25  C   UNL     1      21.543  16.522 -10.457  1.00  0.00    -0.000 C 
BRANCH  25  26
ATOM     26  C   UNL     1      21.904  18.003 -10.646  1.00  0.00    -0.000 C 
BRANCH  26  27
ATOM     27  C   UNL     1      22.440  18.306 -12.053  1.00  0.00    -0.000 C 
BRANCH  27  28
ATOM     28  C   UNL     1      22.428  17.048 -12.927  1.00  0.00    -0.000 C 
BRANCH  28  29
ATOM     29  C   UNL     1      21.802  17.335 -14.297  1.00  0.00    -0.003 C 
ATOM     30  C   UNL     1      22.294  18.665 -14.860  1.00  0.00     0.004 C 
ENDBRANCH  28  29
ENDBRANCH  27  28
ENDBRANCH  26  27
ENDBRANCH  25  26
ENDBRANCH  24  25
ENDBRANCH  23  24
ENDBRANCH  22  23
ENDBRANCH  21  22
ENDBRANCH  20  21
ENDBRANCH  19  20
ENDBRANCH  18  19
ENDBRANCH  17  18
ENDBRANCH   1  17
TORSDOF 26
ENDMDL
MODEL 3
REMARK VINA RESULT:    -5.114      1.615      3.479
REMARK INTER + INTRA:         -17.452
REMARK INTER:                 -12.259
REMARK INTRA:                  -5.193
REMARK UNBOUND:                -4.565
REMARK SMILES CCCCCCCCCCCCCCCCCCCCCCCCCCCC(=O)[O-]
REMARK SMILES IDX 15 1 16 2 17 3 18 4 19 5 20 6 21 7 22 8 23 9 24 10 25 11
REMARK SMILES IDX 26 12 27 13 28 14 29 15 30 16 14 17 13 18 12 19 11 20 10 21
REMARK SMILES IDX 9 22 8 23 7 24 6 25 5 26 4 27 3 28 2 29 1 30
REMARK H PARENT
REMARK Flexibility Score: inf
ROOT
ATOM      1  C   UNL     1      27.255  16.568 -11.374  1.00  0.00     0.000 C 
ENDROOT
BRANCH   1   2
ATOM      2  C   UNL     1      26.679  17.823 -12.048  1.00  0.00     0.000 C 
BRANCH   2   3
ATOM      3  C   UNL     1      25.453  18.384 -11.307  1.00  0.00     0.000 C 
BRANCH   3   4
ATOM      4  C   UNL     1      24.559  19.247 -12.224  1.00  0.00     0.000 C 
BRANCH   4   5
ATOM      5  C   UNL     1      23.067  18.869 -12.170  1.00  0.00     0.000 C 
BRANCH   5   6
ATOM      6  C   UNL     1      22.744  17.426 -12.604  1.00  0.00     0.000 C 
BRANCH   6   7
ATOM      7  C   UNL     1      21.929  16.604 -11.589  1.00  0.00     0.000 C 
BRANCH   7   8
ATOM      8  C   UNL     1      22.782  15.584 -10.814  1.00  0.00     0.000 C 
BRANCH   8   9
ATOM      9  C   UNL     1      22.628  15.734  -9.285  1.00  0.00     0.000 C 
BRANCH   9  10
ATOM     10  C   UNL     1      23.094  17.099  -8.745  1.00  0.00     0.000 C 
BRANCH  10  11
ATOM     11  C   UNL     1      22.106  17.715  -7.743  1.00  0.00     0.000 C 
BRANCH  11  12
ATOM     12  C   UNL     1      20.768  18.042  -8.418  1.00  0.00     0.006 C 
BRANCH  12  13
ATOM     13  C   UNL     1      19.726  18.561  -7.417  1.00  0.00     0.053 C 
BRANCH  13  14
ATOM     14  C   UNL     1      20.241  19.715  -6.610  1.00  0.00     0.041 C 
ATOM     15  O   UNL     1      20.450  20.831  -7.159  1.00  0.00    -0.550 OA
ATOM     16  O   UNL     1      20.472  19.564  -5.248  1.00  0.00    -0.550 OA
ENDBRANCH  13  14
ENDBRANCH  12  13
ENDBRANCH  11  12
ENDBRANCH  10  11
ENDBRANCH   9  10
ENDBRANCH   8   9
ENDBRANCH   7   8
ENDBRANCH   6   7
ENDBRANCH   5   6
ENDBRANCH   4   5
ENDBRANCH   3   4
ENDBRANCH   2   3
ENDBRANCH   1   2
BRANCH   1  17
ATOM     17  C   UNL     1      26.290  15.944 -10.352  1.00  0.00     0.000 C 
BRANCH  17  18
ATOM     18  C   UNL     1      27.020  15.225  -9.203  1.00  0.00     0.000 C 
BRANCH  18  19
ATOM     19  C   UNL     1      28.494  14.889  -9.514  1.00  0.00     0.000 C 
BRANCH  19  20
ATOM     20  C   UNL     1      28.681  13.424  -9.938  1.00  0.00     0.000 C 
BRANCH  20  21
ATOM     21  C   UNL     1      27.386  12.627  -9.749  1.00  0.00     0.000 C 
BRANCH  21  22
ATOM     22  C   UNL     1      26.757  12.267 -11.102  1.00  0.00    -0.000 C 
BRANCH  22  23
ATOM     23  C   UNL     1      27.655  12.633 -12.296  1.00  0.00    -0.000 C 
BRANCH  23  24
ATOM     24  C   UNL     1      26.872  13.198 -13.500  1.00  0.00    -0.000 C 
BRANCH  24  25
ATOM     25  C   UNL     1      25.417  13.544 -13.139  1.00  0.00    -0.000 C 
BRANCH  25  26
ATOM     26  C   UNL     1      24.928  14.831 -13.822  1.00  0.00    -0.000 C 
BRANCH  26  27
ATOM     27  C   UNL     1      25.914  15.353 -14.877  1.00  0.00    -0.000 C 
BRANCH  27  28
ATOM     28  C   UNL     1      25.388  16.635 -15.532  1.00  0.00    -0.000 C 
BRANCH  28  29
ATOM     29  C   UNL     1      26.532  17.611 -15.829  1.00  0.00    -0.003 C 
ATOM     30  C   UNL     1      26.132  19.046 -15.501  1.00  0.00     0.004 C 
ENDBRANCH  28  29
ENDBRANCH  27  28
ENDBRANCH  26  27
ENDBRANCH  25  26
ENDBRANCH  24  25
ENDBRANCH  23  24
ENDBRANCH  22  23
ENDBRANCH  21  22
ENDBRANCH  20  21
ENDBRANCH  19  20
ENDBRANCH  18  19
ENDBRANCH  17  18
ENDBRANCH   1  17
TORSDOF 26
ENDMDL
MODEL 4
REMARK VINA RESULT:    -5.019      1.535      5.027
REMARK INTER + INTRA:         -17.212
REMARK INTER:                 -12.254
REMARK INTRA:                  -4.958
REMARK UNBOUND:                -4.565
REMARK SMILES CCCCCCCCCCCCCCCCCCCCCCCCCCCC(=O)[O-]
REMARK SMILES IDX 15 1 16 2 17 3 18 4 19 5 20 6 21 7 22 8 23 9 24 10 25 11
REMARK SMILES IDX 26 12 27 13 28 14 29 15 30 16 14 17 13 18 12 19 11 20 10 21
REMARK SMILES IDX 9 22 8 23 7 24 6 25 5 26 4 27 3 28 2 29 1 30
REMARK H PARENT
REMARK Flexibility Score: inf
ROOT
ATOM      1  C   UNL     1      27.133  12.850 -12.121  1.00  0.00     0.000 C 
ENDROOT
BRANCH   1   2
ATOM      2  C   UNL     1      28.627  12.972 -11.785  1.00  0.00     0.000 C 
BRANCH   2   3
ATOM      3  C   UNL     1      28.879  13.240 -10.291  1.00  0.00     0.000 C 
BRANCH   3   4
ATOM      4  C   UNL     1      29.129  14.735  -9.999  1.00  0.00     0.000 C 
BRANCH   4   5
ATOM      5  C   UNL     1      27.850  15.524  -9.662  1.00  0.00     0.000 C 
BRANCH   5   6
ATOM      6  C   UNL     1      26.792  14.739  -8.863  1.00  0.00     0.000 C 
BRANCH   6   7
ATOM      7  C   UNL     1      25.330  15.090  -9.193  1.00  0.00     0.000 C 
BRANCH   7   8
ATOM      8  C   UNL     1      24.369  13.901  -9.017  1.00  0.00     0.000 C 
BRANCH   8   9
ATOM      9  C   UNL     1      22.888  14.341  -9.016  1.00  0.00     0.000 C 
BRANCH   9  10
ATOM     10  C   UNL     1      22.683  15.831  -8.691  1.00  0.00     0.000 C 
BRANCH  10  11
ATOM     11  C   UNL     1      21.311  16.359  -9.136  1.00  0.00     0.000 C 
BRANCH  11  12
ATOM     12  C   UNL     1      20.501  16.869  -7.937  1.00  0.00     0.006 C 
BRANCH  12  13
ATOM     13  C   UNL     1      21.002  18.231  -7.438  1.00  0.00     0.053 C 
BRANCH  13  14
ATOM     14  C   UNL     1      20.223  18.723  -6.255  1.00  0.00     0.041 C 
ATOM     15  O   UNL     1      19.089  19.248  -6.416  1.00  0.00    -0.550 OA
ATOM     16  O   UNL     1      20.743  18.586  -4.973  1.00  0.00    -0.550 OA
ENDBRANCH  13  14
ENDBRANCH  12  13
ENDBRANCH  11  12
ENDBRANCH  10  11
ENDBRANCH   9  10
ENDBRANCH   8   9
ENDBRANCH   7   8
ENDBRANCH   6   7
ENDBRANCH   5   6
ENDBRANCH   4   5
ENDBRANCH   3   4
ENDBRANCH   2   3
ENDBRANCH   1   2
BRANCH   1  17
ATOM     17  C   UNL     1      26.614  14.026 -12.966  1.00  0.00     0.000 C 
BRANCH  17  18
ATOM     18  C   UNL     1      25.125  13.888 -13.332  1.00  0.00     0.000 C 
BRANCH  18  19
ATOM     19  C   UNL     1      24.411  15.238 -13.557  1.00  0.00     0.000 C 
BRANCH  19  20
ATOM     20  C   UNL     1      23.759  15.773 -12.271  1.00  0.00     0.000 C 
BRANCH  20  21
ATOM     21  C   UNL     1      22.930  17.029 -12.557  1.00  0.00     0.000 C 
BRANCH  21  22
ATOM     22  C   UNL     1      23.356  18.191 -11.648  1.00  0.00    -0.000 C 
BRANCH  22  23
ATOM     23  C   UNL     1      24.768  18.006 -11.064  1.00  0.00    -0.000 C 
BRANCH  23  24
ATOM     24  C   UNL     1      25.852  18.797 -11.825  1.00  0.00    -0.000 C 
BRANCH  24  25
ATOM     25  C   UNL     1      26.883  17.873 -12.499  1.00  0.00    -0.000 C 
BRANCH  25  26
ATOM     26  C   UNL     1      26.716  17.814 -14.025  1.00  0.00    -0.000 C 
BRANCH  26  27
ATOM     27  C   UNL     1      25.895  18.989 -14.577  1.00  0.00    -0.000 C 
BRANCH  27  28
ATOM     28  C   UNL     1      24.700  18.486 -15.395  1.00  0.00    -0.000 C 
BRANCH  28  29
ATOM     29  C   UNL     1      25.160  17.882 -16.727  1.00  0.00    -0.003 C 
ATOM     30  C   UNL     1      24.455  16.558 -17.005  1.00  0.00     0.004 C 
ENDBRANCH  28  29
ENDBRANCH  27  28
ENDBRANCH  26  27
ENDBRANCH  25  26
ENDBRANCH  24  25
ENDBRANCH  23  24
ENDBRANCH  22  23
ENDBRANCH  21  22
ENDBRANCH  20  21
ENDBRANCH  19  20
ENDBRANCH  18  19
ENDBRANCH  17  18
ENDBRANCH   1  17
TORSDOF 26
ENDMDL
MODEL 5
REMARK VINA RESULT:    -5.006      2.546      6.954
REMARK INTER + INTRA:         -17.181
REMARK INTER:                 -12.019
REMARK INTRA:                  -5.162
REMARK UNBOUND:                -4.565
REMARK SMILES CCCCCCCCCCCCCCCCCCCCCCCCCCCC(=O)[O-]
REMARK SMILES IDX 15 1 16 2 17 3 18 4 19 5 20 6 21 7 22 8 23 9 24 10 25 11
REMARK SMILES IDX 26 12 27 13 28 14 29 15 30 16 14 17 13 18 12 19 11 20 10 21
REMARK SMILES IDX 9 22 8 23 7 24 6 25 5 26 4 27 3 28 2 29 1 30
REMARK H PARENT
REMARK Flexibility Score: inf
ROOT
ATOM      1  C   UNL     1      26.957  17.781 -12.659  1.00  0.00     0.000 C 
ENDROOT
BRANCH   1   2
ATOM      2  C   UNL     1      26.431  17.678 -14.099  1.00  0.00     0.000 C 
BRANCH   2   3
ATOM      3  C   UNL     1      26.187  16.224 -14.539  1.00  0.00     0.000 C 
BRANCH   3   4
ATOM      4  C   UNL     1      25.707  15.333 -13.374  1.00  0.00     0.000 C 
BRANCH   4   5
ATOM      5  C   UNL     1      25.730  13.827 -13.695  1.00  0.00     0.000 C 
BRANCH   5   6
ATOM      6  C   UNL     1      27.054  13.110 -13.366  1.00  0.00     0.000 C 
BRANCH   6   7
ATOM      7  C   UNL     1      27.283  12.812 -11.873  1.00  0.00     0.000 C 
BRANCH   7   8
ATOM      8  C   UNL     1      28.736  13.049 -11.425  1.00  0.00     0.000 C 
BRANCH   8   9
ATOM      9  C   UNL     1      28.827  13.999 -10.212  1.00  0.00     0.000 C 
BRANCH   9  10
ATOM     10  C   UNL     1      27.872  15.204 -10.293  1.00  0.00     0.000 C 
BRANCH  10  11
ATOM     11  C   UNL     1      26.869  15.253  -9.131  1.00  0.00     0.000 C 
BRANCH  11  12
ATOM     12  C   UNL     1      25.453  15.558  -9.637  1.00  0.00     0.006 C 
BRANCH  12  13
ATOM     13  C   UNL     1      24.615  14.285  -9.816  1.00  0.00     0.053 C 
BRANCH  13  14
ATOM     14  C   UNL     1      23.557  14.149  -8.763  1.00  0.00     0.041 C 
ATOM     15  O   UNL     1      23.552  13.151  -7.993  1.00  0.00    -0.550 OA
ATOM     16  O   UNL     1      22.587  15.134  -8.619  1.00  0.00    -0.550 OA
ENDBRANCH  13  14
ENDBRANCH  12  13
ENDBRANCH  11  12
ENDBRANCH  10  11
ENDBRANCH   9  10
ENDBRANCH   8   9
ENDBRANCH   7   8
ENDBRANCH   6   7
ENDBRANCH   5   6
ENDBRANCH   4   5
ENDBRANCH   3   4
ENDBRANCH   2   3
ENDBRANCH   1   2
BRANCH   1  17
ATOM     17  C   UNL     1      26.030  18.597 -11.742  1.00  0.00     0.000 C 
BRANCH  17  18
ATOM     18  C   UNL     1      24.718  19.009 -12.434  1.00  0.00     0.000 C 
BRANCH  18  19
ATOM     19  C   UNL     1      23.492  18.183 -11.987  1.00  0.00     0.000 C 
BRANCH  19  20
ATOM     20  C   UNL     1      22.326  18.284 -12.984  1.00  0.00     0.000 C 
BRANCH  20  21
ATOM     21  C   UNL     1      22.767  17.867 -14.390  1.00  0.00     0.000 C 
BRANCH  21  22
ATOM     22  C   UNL     1      21.856  18.483 -15.461  1.00  0.00    -0.000 C 
BRANCH  22  23
ATOM     23  C   UNL     1      22.580  18.722 -16.797  1.00  0.00    -0.000 C 
BRANCH  23  24
ATOM     24  C   UNL     1      24.108  18.525 -16.708  1.00  0.00    -0.000 C 
BRANCH  24  25
ATOM     25  C   UNL     1      24.866  19.368 -17.750  1.00  0.00    -0.000 C 
BRANCH  25  26
ATOM     26  C   UNL     1      25.068  20.823 -17.301  1.00  0.00    -0.000 C 
BRANCH  26  27
ATOM     27  C   UNL     1      25.238  20.956 -15.781  1.00  0.00    -0.000 C 
BRANCH  27  28
ATOM     28  C   UNL     1      24.537  22.215 -15.258  1.00  0.00    -0.000 C 
BRANCH  28  29
ATOM     29  C   UNL     1      23.211  21.863 -14.575  1.00  0.00    -0.003 C 
ATOM     30  C   UNL     1      22.023  22.179 -15.479  1.00  0.00     0.004 C 
ENDBRANCH  28  29
ENDBRANCH  27  28
ENDBRANCH  26  27
ENDBRANCH  25  26
ENDBRANCH  24  25
ENDBRANCH  23  24
ENDBRANCH  22  23
ENDBRANCH  21  22
ENDBRANCH  20  21
ENDBRANCH  19  20
ENDBRANCH  18  19
ENDBRANCH  17  18
ENDBRANCH   1  17
TORSDOF 26
ENDMDL
MODEL 6
REMARK VINA RESULT:    -4.981      1.600      4.480
REMARK INTER + INTRA:         -17.118
REMARK INTER:                 -12.807
REMARK INTRA:                  -4.312
REMARK UNBOUND:                -4.565
REMARK SMILES CCCCCCCCCCCCCCCCCCCCCCCCCCCC(=O)[O-]
REMARK SMILES IDX 15 1 16 2 17 3 18 4 19 5 20 6 21 7 22 8 23 9 24 10 25 11
REMARK SMILES IDX 26 12 27 13 28 14 29 15 30 16 14 17 13 18 12 19 11 20 10 21
REMARK SMILES IDX 9 22 8 23 7 24 6 25 5 26 4 27 3 28 2 29 1 30
REMARK H PARENT
REMARK Flexibility Score: inf
ROOT
ATOM      1  C   UNL     1      28.800  15.315 -10.276  1.00  0.00     0.000 C 
ENDROOT
BRANCH   1   2
ATOM      2  C   UNL     1      27.361  15.851 -10.222  1.00  0.00     0.000 C 
BRANCH   2   3
ATOM      3  C   UNL     1      26.529  15.206  -9.100  1.00  0.00     0.000 C 
BRANCH   3   4
ATOM      4  C   UNL     1      25.032  15.568  -9.199  1.00  0.00     0.000 C 
BRANCH   4   5
ATOM      5  C   UNL     1      24.131  14.380  -9.584  1.00  0.00     0.000 C 
BRANCH   5   6
ATOM      6  C   UNL     1      22.621  14.619  -9.392  1.00  0.00     0.000 C 
BRANCH   6   7
ATOM      7  C   UNL     1      21.959  15.513 -10.457  1.00  0.00     0.000 C 
BRANCH   7   8
ATOM      8  C   UNL     1      21.096  16.635  -9.853  1.00  0.00     0.000 C 
BRANCH   8   9
ATOM      9  C   UNL     1      21.865  17.463  -8.801  1.00  0.00     0.000 C 
BRANCH   9  10
ATOM     10  C   UNL     1      21.187  17.496  -7.420  1.00  0.00     0.000 C 
BRANCH  10  11
ATOM     11  C   UNL     1      19.742  16.975  -7.449  1.00  0.00     0.000 C 
BRANCH  11  12
ATOM     12  C   UNL     1      18.838  17.806  -6.531  1.00  0.00     0.006 C 
BRANCH  12  13
ATOM     13  C   UNL     1      18.036  18.860  -7.308  1.00  0.00     0.053 C 
BRANCH  13  14
ATOM     14  C   UNL     1      18.444  20.258  -6.952  1.00  0.00     0.041 C 
ATOM     15  O   UNL     1      18.113  20.754  -5.841  1.00  0.00    -0.550 OA
ATOM     16  O   UNL     1      19.206  21.009  -7.841  1.00  0.00    -0.550 OA
ENDBRANCH  13  14
ENDBRANCH  12  13
ENDBRANCH  11  12
ENDBRANCH  10  11
ENDBRANCH   9  10
ENDBRANCH   8   9
ENDBRANCH   7   8
ENDBRANCH   6   7
ENDBRANCH   5   6
ENDBRANCH   4   5
ENDBRANCH   3   4
ENDBRANCH   2   3
ENDBRANCH   1   2
BRANCH   1  17
ATOM     17  C   UNL     1      28.878  13.793 -10.067  1.00  0.00     0.000 C 
BRANCH  17  18
ATOM     18  C   UNL     1      28.816  13.005 -11.388  1.00  0.00     0.000 C 
BRANCH  18  19
ATOM     19  C   UNL     1      27.385  12.608 -11.810  1.00  0.00     0.000 C 
BRANCH  19  20
ATOM     20  C   UNL     1      27.056  13.054 -13.244  1.00  0.00     0.000 C 
BRANCH  20  21
ATOM     21  C   UNL     1      25.609  13.544 -13.349  1.00  0.00     0.000 C 
BRANCH  21  22
ATOM     22  C   UNL     1      25.543  15.078 -13.343  1.00  0.00    -0.000 C 
BRANCH  22  23
ATOM     23  C   UNL     1      24.415  15.632 -14.231  1.00  0.00    -0.000 C 
BRANCH  23  24
ATOM     24  C   UNL     1      24.724  17.026 -14.814  1.00  0.00    -0.000 C 
BRANCH  24  25
ATOM     25  C   UNL     1      23.501  17.961 -14.771  1.00  0.00    -0.000 C 
BRANCH  25  26
ATOM     26  C   UNL     1      22.724  17.858 -13.450  1.00  0.00    -0.000 C 
BRANCH  26  27
ATOM     27  C   UNL     1      23.190  18.884 -12.407  1.00  0.00    -0.000 C 
BRANCH  27  28
ATOM     28  C   UNL     1      24.147  18.242 -11.397  1.00  0.00    -0.000 C 
BRANCH  28  29
ATOM     29  C   UNL     1      25.436  19.060 -11.264  1.00  0.00    -0.003 C 
ATOM     30  C   UNL     1      26.509  18.561 -12.228  1.00  0.00     0.004 C 
ENDBRANCH  28  29
ENDBRANCH  27  28
ENDBRANCH  26  27
ENDBRANCH  25  26
ENDBRANCH  24  25
ENDBRANCH  23  24
ENDBRANCH  22  23
ENDBRANCH  21  22
ENDBRANCH  20  21
ENDBRANCH  19  20
ENDBRANCH  18  19
ENDBRANCH  17  18
ENDBRANCH   1  17
TORSDOF 26
ENDMDL
MODEL 7
REMARK VINA RESULT:    -4.964      3.596      5.720
REMARK INTER + INTRA:         -17.074
REMARK INTER:                 -11.818
REMARK INTRA:                  -5.256
REMARK UNBOUND:                -4.565
REMARK SMILES CCCCCCCCCCCCCCCCCCCCCCCCCCCC(=O)[O-]
REMARK SMILES IDX 15 1 16 2 17 3 18 4 19 5 20 6 21 7 22 8 23 9 24 10 25 11
REMARK SMILES IDX 26 12 27 13 28 14 29 15 30 16 14 17 13 18 12 19 11 20 10 21
REMARK SMILES IDX 9 22 8 23 7 24 6 25 5 26 4 27 3 28 2 29 1 30
REMARK H PARENT
REMARK Flexibility Score: inf
ROOT
ATOM      1  C   UNL     1      24.946  14.869 -12.896  1.00  0.00     0.000 C 
ENDROOT
BRANCH   1   2
ATOM      2  C   UNL     1      25.199  15.565 -14.243  1.00  0.00     0.000 C 
BRANCH   2   3
ATOM      3  C   UNL     1      26.079  16.820 -14.106  1.00  0.00     0.000 C 
BRANCH   3   4
ATOM      4  C   UNL     1      26.312  17.213 -12.631  1.00  0.00     0.000 C 
BRANCH   4   5
ATOM      5  C   UNL     1      25.712  18.579 -12.251  1.00  0.00     0.000 C 
BRANCH   5   6
ATOM      6  C   UNL     1      24.349  18.515 -11.535  1.00  0.00     0.000 C 
BRANCH   6   7
ATOM      7  C   UNL     1      23.139  18.931 -12.393  1.00  0.00     0.000 C 
BRANCH   7   8
ATOM      8  C   UNL     1      22.498  17.752 -13.145  1.00  0.00     0.000 C 
BRANCH   8   9
ATOM      9  C   UNL     1      22.283  18.060 -14.643  1.00  0.00     0.000 C 
BRANCH   9  10
ATOM     10  C   UNL     1      22.686  19.490 -15.047  1.00  0.00     0.000 C 
BRANCH  10  11
ATOM     11  C   UNL     1      23.578  19.531 -16.296  1.00  0.00     0.000 C 
BRANCH  11  12
ATOM     12  C   UNL     1      25.048  19.750 -15.916  1.00  0.00     0.006 C 
BRANCH  12  13
ATOM     13  C   UNL     1      25.339  21.211 -15.545  1.00  0.00     0.053 C 
BRANCH  13  14
ATOM     14  C   UNL     1      24.814  22.171 -16.570  1.00  0.00     0.041 C 
ATOM     15  O   UNL     1      25.322  22.209 -17.723  1.00  0.00    -0.550 OA
ATOM     16  O   UNL     1      23.752  23.012 -16.257  1.00  0.00    -0.550 OA
ENDBRANCH  13  14
ENDBRANCH  12  13
ENDBRANCH  11  12
ENDBRANCH  10  11
ENDBRANCH   9  10
ENDBRANCH   8   9
ENDBRANCH   7   8
ENDBRANCH   6   7
ENDBRANCH   5   6
ENDBRANCH   4   5
ENDBRANCH   3   4
ENDBRANCH   2   3
ENDBRANCH   1   2
BRANCH   1  17
ATOM     17  C   UNL     1      25.403  13.401 -12.890  1.00  0.00     0.000 C 
BRANCH  17  18
ATOM     18  C   UNL     1      26.935  13.251 -12.905  1.00  0.00     0.000 C 
BRANCH  18  19
ATOM     19  C   UNL     1      27.510  12.602 -11.628  1.00  0.00     0.000 C 
BRANCH  19  20
ATOM     20  C   UNL     1      28.976  12.998 -11.382  1.00  0.00     0.000 C 
BRANCH  20  21
ATOM     21  C   UNL     1      29.070  14.198 -10.436  1.00  0.00     0.000 C 
BRANCH  21  22
ATOM     22  C   UNL     1      28.128  14.031  -9.235  1.00  0.00    -0.000 C 
BRANCH  22  23
ATOM     23  C   UNL     1      27.387  15.329  -8.871  1.00  0.00    -0.000 C 
BRANCH  23  24
ATOM     24  C   UNL     1      25.917  15.347  -9.342  1.00  0.00    -0.000 C 
BRANCH  24  25
ATOM     25  C   UNL     1      25.210  14.002  -9.098  1.00  0.00    -0.000 C 
BRANCH  25  26
ATOM     26  C   UNL     1      23.723  14.169  -8.749  1.00  0.00    -0.000 C 
BRANCH  26  27
ATOM     27  C   UNL     1      23.190  15.570  -9.086  1.00  0.00    -0.000 C 
BRANCH  27  28
ATOM     28  C   UNL     1      22.326  15.537 -10.351  1.00  0.00    -0.000 C 
BRANCH  28  29
ATOM     29  C   UNL     1      21.021  16.317 -10.147  1.00  0.00    -0.003 C 
ATOM     30  C   UNL     1      21.197  17.423  -9.111  1.00  0.00     0.004 C 
ENDBRANCH  28  29
ENDBRANCH  27  28
ENDBRANCH  26  27
ENDBRANCH  25  26
ENDBRANCH  24  25
ENDBRANCH  23  24
ENDBRANCH  22  23
ENDBRANCH  21  22
ENDBRANCH  20  21
ENDBRANCH  19  20
ENDBRANCH  18  19
ENDBRANCH  17  18
ENDBRANCH   1  17
TORSDOF 26
ENDMDL
MODEL 8
REMARK VINA RESULT:    -4.938      1.556      5.160
REMARK INTER + INTRA:         -17.008
REMARK INTER:                 -12.292
REMARK INTRA:                  -4.717
REMARK UNBOUND:                -4.565
REMARK SMILES CCCCCCCCCCCCCCCCCCCCCCCCCCCC(=O)[O-]
REMARK SMILES IDX 15 1 16 2 17 3 18 4 19 5 20 6 21 7 22 8 23 9 24 10 25 11
REMARK SMILES IDX 26 12 27 13 28 14 29 15 30 16 14 17 13 18 12 19 11 20 10 21
REMARK SMILES IDX 9 22 8 23 7 24 6 25 5 26 4 27 3 28 2 29 1 30
REMARK H PARENT
REMARK Flexibility Score: inf
ROOT
ATOM      1  C   UNL     1      28.537  13.096 -10.372  1.00  0.00     0.000 C 
ENDROOT
BRANCH   1   2
ATOM      2  C   UNL     1      27.716  12.260  -9.378  1.00  0.00     0.000 C 
BRANCH   2   3
ATOM      3  C   UNL     1      26.200  12.365  -9.624  1.00  0.00     0.000 C 
BRANCH   3   4
ATOM      4  C   UNL     1      25.448  12.944  -8.407  1.00  0.00     0.000 C 
BRANCH   4   5
ATOM      5  C   UNL     1      23.921  12.764  -8.478  1.00  0.00     0.000 C 
BRANCH   5   6
ATOM      6  C   UNL     1      23.131  14.034  -8.851  1.00  0.00     0.000 C 
BRANCH   6   7
ATOM      7  C   UNL     1      22.375  13.964 -10.191  1.00  0.00     0.000 C 
BRANCH   7   8
ATOM      8  C   UNL     1      22.611  15.196 -11.082  1.00  0.00     0.000 C 
BRANCH   8   9
ATOM      9  C   UNL     1      21.443  16.203 -11.009  1.00  0.00     0.000 C 
BRANCH   9  10
ATOM     10  C   UNL     1      21.843  17.579 -10.448  1.00  0.00     0.000 C 
BRANCH  10  11
ATOM     11  C   UNL     1      21.492  17.746  -8.962  1.00  0.00     0.000 C 
BRANCH  11  12
ATOM     12  C   UNL     1      20.184  17.021  -8.620  1.00  0.00     0.006 C 
BRANCH  12  13
ATOM     13  C   UNL     1      19.940  16.952  -7.106  1.00  0.00     0.053 C 
BRANCH  13  14
ATOM     14  C   UNL     1      19.994  18.304  -6.460  1.00  0.00     0.041 C 
ATOM     15  O   UNL     1      20.856  18.550  -5.573  1.00  0.00    -0.550 OA
ATOM     16  O   UNL     1      19.104  19.298  -6.849  1.00  0.00    -0.550 OA
ENDBRANCH  13  14
ENDBRANCH  12  13
ENDBRANCH  11  12
ENDBRANCH  10  11
ENDBRANCH   9  10
ENDBRANCH   8   9
ENDBRANCH   7   8
ENDBRANCH   6   7
ENDBRANCH   5   6
ENDBRANCH   4   5
ENDBRANCH   3   4
ENDBRANCH   2   3
ENDBRANCH   1   2
BRANCH   1  17
ATOM     17  C   UNL     1      29.037  14.419  -9.768  1.00  0.00     0.000 C 
BRANCH  17  18
ATOM     18  C   UNL     1      28.654  15.646 -10.616  1.00  0.00     0.000 C 
BRANCH  18  19
ATOM     19  C   UNL     1      27.143  15.749 -10.916  1.00  0.00     0.000 C 
BRANCH  19  20
ATOM     20  C   UNL     1      26.769  17.088 -11.573  1.00  0.00     0.000 C 
BRANCH  20  21
ATOM     21  C   UNL     1      25.460  17.636 -10.997  1.00  0.00     0.000 C 
BRANCH  21  22
ATOM     22  C   UNL     1      25.164  19.042 -11.538  1.00  0.00    -0.000 C 
BRANCH  22  23
ATOM     23  C   UNL     1      25.070  19.085 -13.074  1.00  0.00    -0.000 C 
BRANCH  23  24
ATOM     24  C   UNL     1      23.620  19.152 -13.596  1.00  0.00    -0.000 C 
BRANCH  24  25
ATOM     25  C   UNL     1      23.067  17.762 -13.962  1.00  0.00    -0.000 C 
BRANCH  25  26
ATOM     26  C   UNL     1      24.032  16.955 -14.844  1.00  0.00    -0.000 C 
BRANCH  26  27
ATOM     27  C   UNL     1      24.503  15.657 -14.173  1.00  0.00    -0.000 C 
BRANCH  27  28
ATOM     28  C   UNL     1      25.912  15.278 -14.641  1.00  0.00    -0.000 C 
BRANCH  28  29
ATOM     29  C   UNL     1      26.312  13.894 -14.115  1.00  0.00    -0.003 C 
ATOM     30  C   UNL     1      25.314  13.387 -13.079  1.00  0.00     0.004 C 
ENDBRANCH  28  29
ENDBRANCH  27  28
ENDBRANCH  26  27
ENDBRANCH  25  26
ENDBRANCH  24  25
ENDBRANCH  23  24
ENDBRANCH  22  23
ENDBRANCH  21  22
ENDBRANCH  20  21
ENDBRANCH  19  20
ENDBRANCH  18  19
ENDBRANCH  17  18
ENDBRANCH   1  17
TORSDOF 26
ENDMDL
MODEL 9
REMARK VINA RESULT:    -4.904      3.517      6.357
REMARK INTER + INTRA:         -16.923
REMARK INTER:                 -12.085
REMARK INTRA:                  -4.838
REMARK UNBOUND:                -4.565
REMARK SMILES CCCCCCCCCCCCCCCCCCCCCCCCCCCC(=O)[O-]
REMARK SMILES IDX 15 1 16 2 17 3 18 4 19 5 20 6 21 7 22 8 23 9 24 10 25 11
REMARK SMILES IDX 26 12 27 13 28 14 29 15 30 16 14 17 13 18 12 19 11 20 10 21
REMARK SMILES IDX 9 22 8 23 7 24 6 25 5 26 4 27 3 28 2 29 1 30
REMARK H PARENT
REMARK Flexibility Score: inf
ROOT
ATOM      1  C   UNL     1      27.651  15.404 -10.221  1.00  0.00     0.000 C 
ENDROOT
BRANCH   1   2
ATOM      2  C   UNL     1      27.538  16.484 -11.309  1.00  0.00     0.000 C 
BRANCH   2   3
ATOM      3  C   UNL     1      26.123  17.080 -11.408  1.00  0.00     0.000 C 
BRANCH   3   4
ATOM      4  C   UNL     1      26.145  18.586 -11.749  1.00  0.00     0.000 C 
BRANCH   4   5
ATOM      5  C   UNL     1      24.745  19.220 -11.849  1.00  0.00     0.000 C 
BRANCH   5   6
ATOM      6  C   UNL     1      23.573  18.219 -11.829  1.00  0.00     0.000 C 
BRANCH   6   7
ATOM      7  C   UNL     1      22.819  18.067 -13.163  1.00  0.00     0.000 C 
BRANCH   7   8
ATOM      8  C   UNL     1      23.140  16.750 -13.892  1.00  0.00     0.000 C 
BRANCH   8   9
ATOM      9  C   UNL     1      23.875  16.986 -15.229  1.00  0.00     0.000 C 
BRANCH   9  10
ATOM     10  C   UNL     1      25.409  16.987 -15.102  1.00  0.00     0.000 C 
BRANCH  10  11
ATOM     11  C   UNL     1      26.026  18.379 -15.306  1.00  0.00     0.000 C 
BRANCH  11  12
ATOM     12  C   UNL     1      25.022  19.336 -15.960  1.00  0.00     0.006 C 
BRANCH  12  13
ATOM     13  C   UNL     1      24.883  20.651 -15.180  1.00  0.00     0.053 C 
BRANCH  13  14
ATOM     14  C   UNL     1      25.076  21.853 -16.055  1.00  0.00     0.041 C 
ATOM     15  O   UNL     1      25.249  21.714 -17.296  1.00  0.00    -0.550 OA
ATOM     16  O   UNL     1      25.047  23.129 -15.503  1.00  0.00    -0.550 OA
ENDBRANCH  13  14
ENDBRANCH  12  13
ENDBRANCH  11  12
ENDBRANCH  10  11
ENDBRANCH   9  10
ENDBRANCH   8   9
ENDBRANCH   7   8
ENDBRANCH   6   7
ENDBRANCH   5   6
ENDBRANCH   4   5
ENDBRANCH   3   4
ENDBRANCH   2   3
ENDBRANCH   1   2
BRANCH   1  17
ATOM     17  C   UNL     1      29.004  14.673 -10.246  1.00  0.00     0.000 C 
BRANCH  17  18
ATOM     18  C   UNL     1      28.963  13.369 -11.062  1.00  0.00     0.000 C 
BRANCH  18  19
ATOM     19  C   UNL     1      27.535  12.880 -11.384  1.00  0.00     0.000 C 
BRANCH  19  20
ATOM     20  C   UNL     1      27.201  13.001 -12.880  1.00  0.00     0.000 C 
BRANCH  20  21
ATOM     21  C   UNL     1      25.884  13.755 -13.090  1.00  0.00     0.000 C 
BRANCH  21  22
ATOM     22  C   UNL     1      24.809  13.276 -12.104  1.00  0.00    -0.000 C 
BRANCH  22  23
ATOM     23  C   UNL     1      24.052  14.437 -11.435  1.00  0.00    -0.000 C 
BRANCH  23  24
ATOM     24  C   UNL     1      24.082  14.379  -9.893  1.00  0.00    -0.000 C 
BRANCH  24  25
ATOM     25  C   UNL     1      22.710  14.695  -9.271  1.00  0.00    -0.000 C 
BRANCH  25  26
ATOM     26  C   UNL     1      21.787  15.463 -10.229  1.00  0.00    -0.000 C 
BRANCH  26  27
ATOM     27  C   UNL     1      21.139  16.690  -9.571  1.00  0.00    -0.000 C 
BRANCH  27  28
ATOM     28  C   UNL     1      21.494  16.764  -8.082  1.00  0.00    -0.000 C 
BRANCH  28  29
ATOM     29  C   UNL     1      20.271  17.153  -7.243  1.00  0.00    -0.003 C 
ATOM     30  C   UNL     1      19.977  18.646  -7.355  1.00  0.00     0.004 C 
ENDBRANCH  28  29
ENDBRANCH  27  28
ENDBRANCH  26  27
ENDBRANCH  25  26
ENDBRANCH  24  25
ENDBRANCH  23  24
ENDBRANCH  22  23
ENDBRANCH  21  22
ENDBRANCH  20  21
ENDBRANCH  19  20
ENDBRANCH  18  19
ENDBRANCH  17  18
ENDBRANCH   1  17
TORSDOF 26
ENDMDL
