MODEL 1
REMARK VINA RESULT:    -5.129      0.000      0.000
REMARK INTER + INTRA:         -14.786
REMARK INTER:                 -11.125
REMARK INTRA:                  -3.662
REMARK UNBOUND:                -3.662
REMARK SMILES CCCCCCCCCCCCCCCCCCCCCC(=O)[O-]
REMARK SMILES IDX 12 1 11 2 10 3 9 4 8 5 7 6 6 7 5 8 4 9 3 10 2 11 1 12 13 13
REMARK SMILES IDX 14 14 15 15 16 16 17 17 18 18 19 19 20 20 21 21 22 22 23 23
REMARK SMILES IDX 24 24
REMARK H PARENT
REMARK Flexibility Score: inf
ROOT
ATOM      1  C   UNL     1       0.609  54.796  20.521  1.00  0.00     0.000 C 
ENDROOT
BRANCH   1   2
ATOM      2  C   UNL     1       2.136  54.853  20.678  1.00  0.00     0.000 C 
BRANCH   2   3
ATOM      3  C   UNL     1       2.833  53.603  20.113  1.00  0.00     0.000 C 
BRANCH   3   4
ATOM      4  C   UNL     1       1.863  52.667  19.376  1.00  0.00    -0.000 C 
BRANCH   4   5
ATOM      5  C   UNL     1       2.137  52.603  17.864  1.00  0.00    -0.000 C 
BRANCH   5   6
ATOM      6  C   UNL     1       1.130  53.441  17.047  1.00  0.00    -0.000 C 
BRANCH   6   7
ATOM      7  C   UNL     1       1.666  54.827  16.638  1.00  0.00    -0.000 C 
BRANCH   7   8
ATOM      8  C   UNL     1       3.114  54.835  16.113  1.00  0.00    -0.000 C 
BRANCH   8   9
ATOM      9  C   UNL     1       4.187  55.155  17.170  1.00  0.00    -0.000 C 
BRANCH   9  10
ATOM     10  C   UNL     1       4.602  56.633  17.174  1.00  0.00    -0.000 C 
BRANCH  10  11
ATOM     11  C   UNL     1       4.140  57.329  18.459  1.00  0.00    -0.003 C 
ATOM     12  C   UNL     1       2.706  57.835  18.328  1.00  0.00     0.004 C 
ENDBRANCH  10  11
ENDBRANCH   9  10
ENDBRANCH   8   9
ENDBRANCH   7   8
ENDBRANCH   6   7
ENDBRANCH   5   6
ENDBRANCH   4   5
ENDBRANCH   3   4
ENDBRANCH   2   3
ENDBRANCH   1   2
BRANCH   1  13
ATOM     13  C   UNL     1       0.055  55.990  19.721  1.00  0.00     0.000 C 
BRANCH  13  14
ATOM     14  C   UNL     1      -1.459  55.887  19.477  1.00  0.00     0.000 C 
BRANCH  14  15
ATOM     15  C   UNL     1      -1.809  55.789  17.984  1.00  0.00     0.000 C 
BRANCH  15  16
ATOM     16  C   UNL     1      -2.560  54.483  17.684  1.00  0.00     0.000 C 
BRANCH  16  17
ATOM     17  C   UNL     1      -2.636  53.542  18.901  1.00  0.00     0.000 C 
BRANCH  17  18
ATOM     18  C   UNL     1      -1.864  52.215  18.750  1.00  0.00     0.000 C 
BRANCH  18  19
ATOM     19  C   UNL     1      -1.429  51.560  20.074  1.00  0.00     0.000 C 
BRANCH  19  20
ATOM     20  C   UNL     1      -2.451  51.764  21.205  1.00  0.00     0.006 C 
BRANCH  20  21
ATOM     21  C   UNL     1      -1.979  52.803  22.230  1.00  0.00     0.053 C 
BRANCH  21  22
ATOM     22  C   UNL     1      -2.771  52.729  23.500  1.00  0.00     0.041 C 
ATOM     23  O   UNL     1      -2.379  52.001  24.450  1.00  0.00    -0.550 OA
ATOM     24  O   UNL     1      -3.928  53.486  23.645  1.00  0.00    -0.550 OA
ENDBRANCH  21  22
ENDBRANCH  20  21
ENDBRANCH  19  20
ENDBRANCH  18  19
ENDBRANCH  17  18
ENDBRANCH  16  17
ENDBRANCH  15  16
ENDBRANCH  14  15
ENDBRANCH  13  14
ENDBRANCH   1  13
TORSDOF 20
ENDMDL
MODEL 2
REMARK VINA RESULT:    -5.100      2.519      4.683
REMARK INTER + INTRA:         -14.725
REMARK INTER:                 -10.754
REMARK INTRA:                  -3.970
REMARK UNBOUND:                -3.662
REMARK SMILES CCCCCCCCCCCCCCCCCCCCCC(=O)[O-]
REMARK SMILES IDX 12 1 11 2 10 3 9 4 8 5 7 6 6 7 5 8 4 9 3 10 2 11 1 12 13 13
REMARK SMILES IDX 14 14 15 15 16 16 17 17 18 18 19 19 20 20 21 21 22 22 23 23
REMARK SMILES IDX 24 24
REMARK H PARENT
REMARK Flexibility Score: inf
ROOT
ATOM      1  C   UNL     1      -1.618  52.382  16.996  1.00  0.00     0.000 C 
ENDROOT
BRANCH   1   2
ATOM      2  C   UNL     1      -0.541  53.224  17.697  1.00  0.00     0.000 C 
BRANCH   2   3
ATOM      3  C   UNL     1       0.768  53.294  16.892  1.00  0.00     0.000 C 
BRANCH   3   4
ATOM      4  C   UNL     1       1.919  52.530  17.566  1.00  0.00    -0.000 C 
BRANCH   4   5
ATOM      5  C   UNL     1       1.742  52.419  19.090  1.00  0.00    -0.000 C 
BRANCH   5   6
ATOM      6  C   UNL     1       2.600  53.447  19.859  1.00  0.00    -0.000 C 
BRANCH   6   7
ATOM      7  C   UNL     1       1.772  54.530  20.578  1.00  0.00    -0.000 C 
BRANCH   7   8
ATOM      8  C   UNL     1       1.985  55.964  20.055  1.00  0.00    -0.000 C 
BRANCH   8   9
ATOM      9  C   UNL     1       1.076  56.369  18.880  1.00  0.00    -0.000 C 
BRANCH   9  10
ATOM     10  C   UNL     1       1.862  56.693  17.601  1.00  0.00    -0.000 C 
BRANCH  10  11
ATOM     11  C   UNL     1       3.372  56.632  17.855  1.00  0.00    -0.003 C 
ATOM     12  C   UNL     1       4.035  55.563  16.990  1.00  0.00     0.004 C 
ENDBRANCH  10  11
ENDBRANCH   9  10
ENDBRANCH   8   9
ENDBRANCH   7   8
ENDBRANCH   6   7
ENDBRANCH   5   6
ENDBRANCH   4   5
ENDBRANCH   3   4
ENDBRANCH   2   3
ENDBRANCH   1   2
BRANCH   1  13
ATOM     13  C   UNL     1      -2.407  51.498  17.980  1.00  0.00     0.000 C 
BRANCH  13  14
ATOM     14  C   UNL     1      -1.492  50.627  18.855  1.00  0.00     0.000 C 
BRANCH  14  15
ATOM     15  C   UNL     1      -1.509  51.053  20.331  1.00  0.00     0.000 C 
BRANCH  15  16
ATOM     16  C   UNL     1      -2.948  51.260  20.824  1.00  0.00     0.000 C 
BRANCH  16  17
ATOM     17  C   UNL     1      -3.183  52.661  21.418  1.00  0.00     0.000 C 
BRANCH  17  18
ATOM     18  C   UNL     1      -2.422  53.805  20.716  1.00  0.00     0.000 C 
BRANCH  18  19
ATOM     19  C   UNL     1      -3.284  54.703  19.810  1.00  0.00     0.000 C 
BRANCH  19  20
ATOM     20  C   UNL     1      -2.515  55.923  19.275  1.00  0.00     0.006 C 
BRANCH  20  21
ATOM     21  C   UNL     1      -2.826  56.199  17.798  1.00  0.00     0.053 C 
BRANCH  21  22
ATOM     22  C   UNL     1      -3.640  57.445  17.626  1.00  0.00     0.041 C 
ATOM     23  O   UNL     1      -3.309  58.304  16.766  1.00  0.00    -0.550 OA
ATOM     24  O   UNL     1      -4.780  57.645  18.395  1.00  0.00    -0.550 OA
ENDBRANCH  21  22
ENDBRANCH  20  21
ENDBRANCH  19  20
ENDBRANCH  18  19
ENDBRANCH  17  18
ENDBRANCH  16  17
ENDBRANCH  15  16
ENDBRANCH  14  15
ENDBRANCH  13  14
ENDBRANCH   1  13
TORSDOF 20
ENDMDL
MODEL 3
REMARK VINA RESULT:    -5.080      4.212      7.151
REMARK INTER + INTRA:         -14.681
REMARK INTER:                 -11.636
REMARK INTRA:                  -3.045
REMARK UNBOUND:                -3.662
REMARK SMILES CCCCCCCCCCCCCCCCCCCCCC(=O)[O-]
REMARK SMILES IDX 12 1 11 2 10 3 9 4 8 5 7 6 6 7 5 8 4 9 3 10 2 11 1 12 13 13
REMARK SMILES IDX 14 14 15 15 16 16 17 17 18 18 19 19 20 20 21 21 22 22 23 23
REMARK SMILES IDX 24 24
REMARK H PARENT
REMARK Flexibility Score: inf
ROOT
ATOM      1  C   UNL     1       1.100  55.542  20.166  1.00  0.00     0.000 C 
ENDROOT
BRANCH   1   2
ATOM      2  C   UNL     1       1.715  54.223  20.658  1.00  0.00     0.000 C 
BRANCH   2   3
ATOM      3  C   UNL     1       2.440  53.458  19.538  1.00  0.00     0.000 C 
BRANCH   3   4
ATOM      4  C   UNL     1       1.800  52.092  19.243  1.00  0.00    -0.000 C 
BRANCH   4   5
ATOM      5  C   UNL     1       0.274  52.099  19.438  1.00  0.00    -0.000 C 
BRANCH   5   6
ATOM      6  C   UNL     1      -0.491  52.011  18.100  1.00  0.00    -0.000 C 
BRANCH   6   7
ATOM      7  C   UNL     1      -0.883  53.383  17.518  1.00  0.00    -0.000 C 
BRANCH   7   8
ATOM      8  C   UNL     1      -2.286  53.881  17.917  1.00  0.00    -0.000 C 
BRANCH   8   9
ATOM      9  C   UNL     1      -2.347  54.653  19.247  1.00  0.00    -0.000 C 
BRANCH   9  10
ATOM     10  C   UNL     1      -2.963  56.052  19.099  1.00  0.00    -0.000 C 
BRANCH  10  11
ATOM     11  C   UNL     1      -2.478  56.732  17.814  1.00  0.00    -0.003 C 
ATOM     12  C   UNL     1      -3.577  57.590  17.194  1.00  0.00     0.004 C 
ENDBRANCH  10  11
ENDBRANCH   9  10
ENDBRANCH   8   9
ENDBRANCH   7   8
ENDBRANCH   6   7
ENDBRANCH   5   6
ENDBRANCH   4   5
ENDBRANCH   3   4
ENDBRANCH   2   3
ENDBRANCH   1   2
BRANCH   1  13
ATOM     13  C   UNL     1       1.939  56.205  19.058  1.00  0.00     0.000 C 
BRANCH  13  14
ATOM     14  C   UNL     1       1.072  56.905  17.998  1.00  0.00     0.000 C 
BRANCH  14  15
ATOM     15  C   UNL     1       1.207  56.261  16.610  1.00  0.00     0.000 C 
BRANCH  15  16
ATOM     16  C   UNL     1       2.104  55.017  16.669  1.00  0.00     0.000 C 
BRANCH  16  17
ATOM     17  C   UNL     1       3.021  54.880  15.439  1.00  0.00     0.000 C 
BRANCH  17  18
ATOM     18  C   UNL     1       4.509  55.197  15.694  1.00  0.00     0.000 C 
BRANCH  18  19
ATOM     19  C   UNL     1       4.862  55.541  17.152  1.00  0.00     0.000 C 
BRANCH  19  20
ATOM     20  C   UNL     1       5.589  56.889  17.288  1.00  0.00     0.006 C 
BRANCH  20  21
ATOM     21  C   UNL     1       6.989  56.733  17.898  1.00  0.00     0.053 C 
BRANCH  21  22
ATOM     22  C   UNL     1       7.542  58.046  18.360  1.00  0.00     0.041 C 
ATOM     23  O   UNL     1       7.051  58.621  19.367  1.00  0.00    -0.550 OA
ATOM     24  O   UNL     1       8.619  58.622  17.696  1.00  0.00    -0.550 OA
ENDBRANCH  21  22
ENDBRANCH  20  21
ENDBRANCH  19  20
ENDBRANCH  18  19
ENDBRANCH  17  18
ENDBRANCH  16  17
ENDBRANCH  15  16
ENDBRANCH  14  15
ENDBRANCH  13  14
ENDBRANCH   1  13
TORSDOF 20
ENDMDL
MODEL 4
REMARK VINA RESULT:    -5.074      4.339      7.150
REMARK INTER + INTRA:         -14.669
REMARK INTER:                 -11.255
REMARK INTRA:                  -3.414
REMARK UNBOUND:                -3.662
REMARK SMILES CCCCCCCCCCCCCCCCCCCCCC(=O)[O-]
REMARK SMILES IDX 12 1 11 2 10 3 9 4 8 5 7 6 6 7 5 8 4 9 3 10 2 11 1 12 13 13
REMARK SMILES IDX 14 14 15 15 16 16 17 17 18 18 19 19 20 20 21 21 22 22 23 23
REMARK SMILES IDX 24 24
REMARK H PARENT
REMARK Flexibility Score: inf
ROOT
ATOM      1  C   UNL     1      -2.313  54.373  18.143  1.00  0.00     0.000 C 
ENDROOT
BRANCH   1   2
ATOM      2  C   UNL     1      -2.870  54.176  19.562  1.00  0.00     0.000 C 
BRANCH   2   3
ATOM      3  C   UNL     1      -2.126  53.076  20.338  1.00  0.00     0.000 C 
BRANCH   3   4
ATOM      4  C   UNL     1      -0.599  53.201  20.224  1.00  0.00    -0.000 C 
BRANCH   4   5
ATOM      5  C   UNL     1      -0.031  54.333  21.097  1.00  0.00    -0.000 C 
BRANCH   5   6
ATOM      6  C   UNL     1       1.129  55.083  20.408  1.00  0.00    -0.000 C 
BRANCH   6   7
ATOM      7  C   UNL     1       2.525  54.639  20.888  1.00  0.00    -0.000 C 
BRANCH   7   8
ATOM      8  C   UNL     1       3.042  53.329  20.261  1.00  0.00    -0.000 C 
BRANCH   8   9
ATOM      9  C   UNL     1       4.045  53.513  19.107  1.00  0.00    -0.000 C 
BRANCH   9  10
ATOM     10  C   UNL     1       3.383  53.450  17.723  1.00  0.00    -0.000 C 
BRANCH  10  11
ATOM     11  C   UNL     1       2.150  52.540  17.746  1.00  0.00    -0.003 C 
ATOM     12  C   UNL     1       1.007  53.138  16.930  1.00  0.00     0.004 C 
ENDBRANCH  10  11
ENDBRANCH   9  10
ENDBRANCH   8   9
ENDBRANCH   7   8
ENDBRANCH   6   7
ENDBRANCH   5   6
ENDBRANCH   4   5
ENDBRANCH   3   4
ENDBRANCH   2   3
ENDBRANCH   1   2
BRANCH   1  13
ATOM     13  C   UNL     1      -2.164  55.860  17.772  1.00  0.00     0.000 C 
BRANCH  13  14
ATOM     14  C   UNL     1      -0.777  56.421  18.126  1.00  0.00     0.000 C 
BRANCH  14  15
ATOM     15  C   UNL     1      -0.021  56.943  16.895  1.00  0.00     0.000 C 
BRANCH  15  16
ATOM     16  C   UNL     1       1.482  56.649  17.013  1.00  0.00     0.000 C 
BRANCH  16  17
ATOM     17  C   UNL     1       2.187  57.538  18.054  1.00  0.00     0.000 C 
BRANCH  17  18
ATOM     18  C   UNL     1       3.648  57.153  18.361  1.00  0.00     0.000 C 
BRANCH  18  19
ATOM     19  C   UNL     1       4.523  56.873  17.125  1.00  0.00     0.000 C 
BRANCH  19  20
ATOM     20  C   UNL     1       5.948  56.425  17.492  1.00  0.00     0.006 C 
BRANCH  20  21
ATOM     21  C   UNL     1       6.625  57.396  18.469  1.00  0.00     0.053 C 
BRANCH  21  22
ATOM     22  C   UNL     1       7.999  57.777  18.008  1.00  0.00     0.041 C 
ATOM     23  O   UNL     1       8.297  58.988  17.837  1.00  0.00    -0.550 OA
ATOM     24  O   UNL     1       8.960  56.795  17.796  1.00  0.00    -0.550 OA
ENDBRANCH  21  22
ENDBRANCH  20  21
ENDBRANCH  19  20
ENDBRANCH  18  19
ENDBRANCH  17  18
ENDBRANCH  16  17
ENDBRANCH  15  16
ENDBRANCH  14  15
ENDBRANCH  13  14
ENDBRANCH   1  13
TORSDOF 20
ENDMDL
MODEL 5
REMARK VINA RESULT:    -5.072      1.196      3.079
REMARK INTER + INTRA:         -14.663
REMARK INTER:                 -10.948
REMARK INTRA:                  -3.715
REMARK UNBOUND:                -3.662
REMARK SMILES CCCCCCCCCCCCCCCCCCCCCC(=O)[O-]
REMARK SMILES IDX 12 1 11 2 10 3 9 4 8 5 7 6 6 7 5 8 4 9 3 10 2 11 1 12 13 13
REMARK SMILES IDX 14 14 15 15 16 16 17 17 18 18 19 19 20 20 21 21 22 22 23 23
REMARK SMILES IDX 24 24
REMARK H PARENT
REMARK Flexibility Score: inf
ROOT
ATOM      1  C   UNL     1      -0.232  57.131  16.591  1.00  0.00     0.000 C 
ENDROOT
BRANCH   1   2
ATOM      2  C   UNL     1       0.863  56.347  17.330  1.00  0.00     0.000 C 
BRANCH   2   3
ATOM      3  C   UNL     1       1.329  55.107  16.548  1.00  0.00     0.000 C 
BRANCH   3   4
ATOM      4  C   UNL     1       2.800  55.200  16.112  1.00  0.00    -0.000 C 
BRANCH   4   5
ATOM      5  C   UNL     1       3.672  55.950  17.132  1.00  0.00    -0.000 C 
BRANCH   5   6
ATOM      6  C   UNL     1       4.668  55.018  17.855  1.00  0.00    -0.000 C 
BRANCH   6   7
ATOM      7  C   UNL     1       4.471  53.525  17.525  1.00  0.00    -0.000 C 
BRANCH   7   8
ATOM      8  C   UNL     1       4.195  52.621  18.742  1.00  0.00    -0.000 C 
BRANCH   8   9
ATOM      9  C   UNL     1       3.431  53.299  19.894  1.00  0.00    -0.000 C 
BRANCH   9  10
ATOM     10  C   UNL     1       1.906  53.194  19.744  1.00  0.00    -0.000 C 
BRANCH  10  11
ATOM     11  C   UNL     1       1.208  54.400  20.382  1.00  0.00    -0.003 C 
ATOM     12  C   UNL     1       2.191  55.542  20.625  1.00  0.00     0.004 C 
ENDBRANCH  10  11
ENDBRANCH   9  10
ENDBRANCH   8   9
ENDBRANCH   7   8
ENDBRANCH   6   7
ENDBRANCH   5   6
ENDBRANCH   4   5
ENDBRANCH   3   4
ENDBRANCH   2   3
ENDBRANCH   1   2
BRANCH   1  13
ATOM     13  C   UNL     1      -1.633  56.883  17.182  1.00  0.00     0.000 C 
BRANCH  13  14
ATOM     14  C   UNL     1      -1.589  56.070  18.486  1.00  0.00     0.000 C 
BRANCH  14  15
ATOM     15  C   UNL     1      -2.678  54.988  18.541  1.00  0.00     0.000 C 
BRANCH  15  16
ATOM     16  C   UNL     1      -2.339  53.823  17.599  1.00  0.00     0.000 C 
BRANCH  16  17
ATOM     17  C   UNL     1      -1.426  52.769  18.253  1.00  0.00     0.000 C 
BRANCH  17  18
ATOM     18  C   UNL     1      -2.147  51.754  19.163  1.00  0.00     0.000 C 
BRANCH  18  19
ATOM     19  C   UNL     1      -1.679  51.745  20.630  1.00  0.00     0.000 C 
BRANCH  19  20
ATOM     20  C   UNL     1      -1.998  53.058  21.365  1.00  0.00     0.006 C 
BRANCH  20  21
ATOM     21  C   UNL     1      -3.480  53.159  21.751  1.00  0.00     0.053 C 
BRANCH  21  22
ATOM     22  C   UNL     1      -3.661  53.248  23.236  1.00  0.00     0.041 C 
ATOM     23  O   UNL     1      -4.668  53.832  23.717  1.00  0.00    -0.550 OA
ATOM     24  O   UNL     1      -2.734  52.660  24.088  1.00  0.00    -0.550 OA
ENDBRANCH  21  22
ENDBRANCH  20  21
ENDBRANCH  19  20
ENDBRANCH  18  19
ENDBRANCH  17  18
ENDBRANCH  16  17
ENDBRANCH  15  16
ENDBRANCH  14  15
ENDBRANCH  13  14
ENDBRANCH   1  13
TORSDOF 20
ENDMDL
MODEL 6
REMARK VINA RESULT:    -5.067      2.314      4.039
REMARK INTER + INTRA:         -14.654
REMARK INTER:                 -10.782
REMARK INTRA:                  -3.871
REMARK UNBOUND:                -3.662
REMARK SMILES CCCCCCCCCCCCCCCCCCCCCC(=O)[O-]
REMARK SMILES IDX 12 1 11 2 10 3 9 4 8 5 7 6 6 7 5 8 4 9 3 10 2 11 1 12 13 13
REMARK SMILES IDX 14 14 15 15 16 16 17 17 18 18 19 19 20 20 21 21 22 22 23 23
REMARK SMILES IDX 24 24
REMARK H PARENT
REMARK Flexibility Score: inf
ROOT
ATOM      1  C   UNL     1      -1.758  53.614  21.357  1.00  0.00     0.000 C 
ENDROOT
BRANCH   1   2
ATOM      2  C   UNL     1      -0.303  53.368  20.928  1.00  0.00     0.000 C 
BRANCH   2   3
ATOM      3  C   UNL     1       0.320  54.591  20.234  1.00  0.00     0.000 C 
BRANCH   3   4
ATOM      4  C   UNL     1       1.771  54.846  20.673  1.00  0.00    -0.000 C 
BRANCH   4   5
ATOM      5  C   UNL     1       2.786  54.012  19.874  1.00  0.00    -0.000 C 
BRANCH   5   6
ATOM      6  C   UNL     1       2.104  52.949  18.984  1.00  0.00    -0.000 C 
BRANCH   6   7
ATOM      7  C   UNL     1       2.261  53.212  17.474  1.00  0.00    -0.000 C 
BRANCH   7   8
ATOM      8  C   UNL     1       3.311  54.278  17.106  1.00  0.00    -0.000 C 
BRANCH   8   9
ATOM      9  C   UNL     1       2.736  55.575  16.507  1.00  0.00    -0.000 C 
BRANCH   9  10
ATOM     10  C   UNL     1       1.232  55.740  16.770  1.00  0.00    -0.000 C 
BRANCH  10  11
ATOM     11  C   UNL     1       0.927  57.121  17.360  1.00  0.00    -0.003 C 
ATOM     12  C   UNL     1       2.076  57.612  18.238  1.00  0.00     0.004 C 
ENDBRANCH  10  11
ENDBRANCH   9  10
ENDBRANCH   8   9
ENDBRANCH   7   8
ENDBRANCH   6   7
ENDBRANCH   5   6
ENDBRANCH   4   5
ENDBRANCH   3   4
ENDBRANCH   2   3
ENDBRANCH   1   2
BRANCH   1  13
ATOM     13  C   UNL     1      -2.650  52.377  21.146  1.00  0.00     0.000 C 
BRANCH  13  14
ATOM     14  C   UNL     1      -1.904  51.218  20.467  1.00  0.00     0.000 C 
BRANCH  14  15
ATOM     15  C   UNL     1      -2.791  50.444  19.480  1.00  0.00     0.000 C 
BRANCH  15  16
ATOM     16  C   UNL     1      -2.651  51.009  18.059  1.00  0.00     0.000 C 
BRANCH  16  17
ATOM     17  C   UNL     1      -1.274  51.648  17.802  1.00  0.00     0.000 C 
BRANCH  17  18
ATOM     18  C   UNL     1      -1.312  53.105  17.298  1.00  0.00     0.000 C 
BRANCH  18  19
ATOM     19  C   UNL     1      -2.578  53.894  17.680  1.00  0.00     0.000 C 
BRANCH  19  20
ATOM     20  C   UNL     1      -2.308  55.396  17.873  1.00  0.00     0.006 C 
BRANCH  20  21
ATOM     21  C   UNL     1      -3.101  55.978  19.052  1.00  0.00     0.053 C 
BRANCH  21  22
ATOM     22  C   UNL     1      -4.151  56.943  18.591  1.00  0.00     0.041 C 
ATOM     23  O   UNL     1      -5.263  56.996  19.178  1.00  0.00    -0.550 OA
ATOM     24  O   UNL     1      -3.890  57.804  17.531  1.00  0.00    -0.550 OA
ENDBRANCH  21  22
ENDBRANCH  20  21
ENDBRANCH  19  20
ENDBRANCH  18  19
ENDBRANCH  17  18
ENDBRANCH  16  17
ENDBRANCH  15  16
ENDBRANCH  14  15
ENDBRANCH  13  14
ENDBRANCH   1  13
TORSDOF 20
ENDMDL
MODEL 7
REMARK VINA RESULT:    -5.066      2.768      4.165
REMARK INTER + INTRA:         -14.651
REMARK INTER:                 -11.357
REMARK INTRA:                  -3.294
REMARK UNBOUND:                -3.662
REMARK SMILES CCCCCCCCCCCCCCCCCCCCCC(=O)[O-]
REMARK SMILES IDX 12 1 11 2 10 3 9 4 8 5 7 6 6 7 5 8 4 9 3 10 2 11 1 12 13 13
REMARK SMILES IDX 14 14 15 15 16 16 17 17 18 18 19 19 20 20 21 21 22 22 23 23
REMARK SMILES IDX 24 24
REMARK H PARENT
REMARK Flexibility Score: inf
ROOT
ATOM      1  C   UNL     1       2.795  53.899  20.437  1.00  0.00     0.000 C 
ENDROOT
BRANCH   1   2
ATOM      2  C   UNL     1       2.415  55.358  20.142  1.00  0.00     0.000 C 
BRANCH   2   3
ATOM      3  C   UNL     1       0.906  55.536  19.902  1.00  0.00     0.000 C 
BRANCH   3   4
ATOM      4  C   UNL     1       0.600  56.404  18.671  1.00  0.00    -0.000 C 
BRANCH   4   5
ATOM      5  C   UNL     1       0.565  55.590  17.367  1.00  0.00    -0.000 C 
BRANCH   5   6
ATOM      6  C   UNL     1       1.649  56.039  16.363  1.00  0.00    -0.000 C 
BRANCH   6   7
ATOM      7  C   UNL     1       2.538  54.888  15.855  1.00  0.00    -0.000 C 
BRANCH   7   8
ATOM      8  C   UNL     1       4.055  55.142  15.961  1.00  0.00    -0.000 C 
BRANCH   8   9
ATOM      9  C   UNL     1       4.452  56.340  16.842  1.00  0.00    -0.000 C 
BRANCH   9  10
ATOM     10  C   UNL     1       5.740  56.094  17.641  1.00  0.00    -0.000 C 
BRANCH  10  11
ATOM     11  C   UNL     1       6.829  57.100  17.250  1.00  0.00    -0.003 C 
ATOM     12  C   UNL     1       7.887  57.222  18.343  1.00  0.00     0.004 C 
ENDBRANCH  10  11
ENDBRANCH   9  10
ENDBRANCH   8   9
ENDBRANCH   7   8
ENDBRANCH   6   7
ENDBRANCH   5   6
ENDBRANCH   4   5
ENDBRANCH   3   4
ENDBRANCH   2   3
ENDBRANCH   1   2
BRANCH   1  13
ATOM     13  C   UNL     1       3.846  53.354  19.453  1.00  0.00     0.000 C 
BRANCH  13  14
ATOM     14  C   UNL     1       3.263  52.322  18.475  1.00  0.00     0.000 C 
BRANCH  14  15
ATOM     15  C   UNL     1       1.730  52.388  18.394  1.00  0.00     0.000 C 
BRANCH  15  16
ATOM     16  C   UNL     1       1.094  51.142  19.028  1.00  0.00     0.000 C 
BRANCH  16  17
ATOM     17  C   UNL     1      -0.441  51.127  18.912  1.00  0.00     0.000 C 
BRANCH  17  18
ATOM     18  C   UNL     1      -1.044  52.271  18.071  1.00  0.00     0.000 C 
BRANCH  18  19
ATOM     19  C   UNL     1      -2.266  52.967  18.698  1.00  0.00     0.000 C 
BRANCH  19  20
ATOM     20  C   UNL     1      -2.688  54.233  17.934  1.00  0.00     0.006 C 
BRANCH  20  21
ATOM     21  C   UNL     1      -2.855  55.441  18.866  1.00  0.00     0.053 C 
BRANCH  21  22
ATOM     22  C   UNL     1      -3.306  56.660  18.119  1.00  0.00     0.041 C 
ATOM     23  O   UNL     1      -2.594  57.136  17.195  1.00  0.00    -0.550 OA
ATOM     24  O   UNL     1      -4.525  57.252  18.423  1.00  0.00    -0.550 OA
ENDBRANCH  21  22
ENDBRANCH  20  21
ENDBRANCH  19  20
ENDBRANCH  18  19
ENDBRANCH  17  18
ENDBRANCH  16  17
ENDBRANCH  15  16
ENDBRANCH  14  15
ENDBRANCH  13  14
ENDBRANCH   1  13
TORSDOF 20
ENDMDL
MODEL 8
REMARK VINA RESULT:    -5.029      1.127      2.159
REMARK INTER + INTRA:         -14.572
REMARK INTER:                 -10.553
REMARK INTRA:                  -4.019
REMARK UNBOUND:                -3.662
REMARK SMILES CCCCCCCCCCCCCCCCCCCCCC(=O)[O-]
REMARK SMILES IDX 12 1 11 2 10 3 9 4 8 5 7 6 6 7 5 8 4 9 3 10 2 11 1 12 13 13
REMARK SMILES IDX 14 14 15 15 16 16 17 17 18 18 19 19 20 20 21 21 22 22 23 23
REMARK SMILES IDX 24 24
REMARK H PARENT
REMARK Flexibility Score: inf
ROOT
ATOM      1  C   UNL     1      -1.217  55.824  19.493  1.00  0.00     0.000 C 
ENDROOT
BRANCH   1   2
ATOM      2  C   UNL     1      -0.644  54.706  20.377  1.00  0.00     0.000 C 
BRANCH   2   3
ATOM      3  C   UNL     1       0.820  54.960  20.773  1.00  0.00     0.000 C 
BRANCH   3   4
ATOM      4  C   UNL     1       1.809  54.101  19.968  1.00  0.00    -0.000 C 
BRANCH   4   5
ATOM      5  C   UNL     1       1.183  52.786  19.474  1.00  0.00    -0.000 C 
BRANCH   5   6
ATOM      6  C   UNL     1       1.794  52.308  18.139  1.00  0.00    -0.000 C 
BRANCH   6   7
ATOM      7  C   UNL     1       2.651  53.376  17.433  1.00  0.00    -0.000 C 
BRANCH   7   8
ATOM      8  C   UNL     1       1.909  54.202  16.365  1.00  0.00    -0.000 C 
BRANCH   8   9
ATOM      9  C   UNL     1       2.282  55.695  16.324  1.00  0.00    -0.000 C 
BRANCH   9  10
ATOM     10  C   UNL     1       1.186  56.602  16.901  1.00  0.00    -0.000 C 
BRANCH  10  11
ATOM     11  C   UNL     1       1.725  57.443  18.063  1.00  0.00    -0.003 C 
ATOM     12  C   UNL     1       3.203  57.156  18.314  1.00  0.00     0.004 C 
ENDBRANCH  10  11
ENDBRANCH   9  10
ENDBRANCH   8   9
ENDBRANCH   7   8
ENDBRANCH   6   7
ENDBRANCH   5   6
ENDBRANCH   4   5
ENDBRANCH   3   4
ENDBRANCH   2   3
ENDBRANCH   1   2
BRANCH   1  13
ATOM     13  C   UNL     1      -1.818  55.287  18.181  1.00  0.00     0.000 C 
BRANCH  13  14
ATOM     14  C   UNL     1      -2.489  53.915  18.356  1.00  0.00     0.000 C 
BRANCH  14  15
ATOM     15  C   UNL     1      -1.941  52.863  17.379  1.00  0.00     0.000 C 
BRANCH  15  16
ATOM     16  C   UNL     1      -2.559  51.485  17.658  1.00  0.00     0.000 C 
BRANCH  16  17
ATOM     17  C   UNL     1      -1.600  50.538  18.403  1.00  0.00     0.000 C 
BRANCH  17  18
ATOM     18  C   UNL     1      -2.051  50.135  19.822  1.00  0.00     0.000 C 
BRANCH  18  19
ATOM     19  C   UNL     1      -1.860  51.218  20.900  1.00  0.00     0.000 C 
BRANCH  19  20
ATOM     20  C   UNL     1      -3.187  51.850  21.352  1.00  0.00     0.006 C 
BRANCH  20  21
ATOM     21  C   UNL     1      -2.973  52.977  22.372  1.00  0.00     0.053 C 
BRANCH  21  22
ATOM     22  C   UNL     1      -4.000  52.941  23.462  1.00  0.00     0.041 C 
ATOM     23  O   UNL     1      -4.104  51.928  24.202  1.00  0.00    -0.550 OA
ATOM     24  O   UNL     1      -4.824  54.040  23.679  1.00  0.00    -0.550 OA
ENDBRANCH  21  22
ENDBRANCH  20  21
ENDBRANCH  19  20
ENDBRANCH  18  19
ENDBRANCH  17  18
ENDBRANCH  16  17
ENDBRANCH  15  16
ENDBRANCH  14  15
ENDBRANCH  13  14
ENDBRANCH   1  13
TORSDOF 20
ENDMDL
MODEL 9
REMARK VINA RESULT:    -4.997      4.504      8.015
REMARK INTER + INTRA:         -14.500
REMARK INTER:                 -11.520
REMARK INTRA:                  -2.980
REMARK UNBOUND:                -3.662
REMARK SMILES CCCCCCCCCCCCCCCCCCCCCC(=O)[O-]
REMARK SMILES IDX 12 1 11 2 10 3 9 4 8 5 7 6 6 7 5 8 4 9 3 10 2 11 1 12 13 13
REMARK SMILES IDX 14 14 15 15 16 16 17 17 18 18 19 19 20 20 21 21 22 22 23 23
REMARK SMILES IDX 24 24
REMARK H PARENT
REMARK Flexibility Score: inf
ROOT
ATOM      1  C   UNL     1       1.421  55.908  19.522  1.00  0.00     0.000 C 
ENDROOT
BRANCH   1   2
ATOM      2  C   UNL     1       2.025  57.069  18.717  1.00  0.00     0.000 C 
BRANCH   2   3
ATOM      3  C   UNL     1       1.176  57.439  17.488  1.00  0.00     0.000 C 
BRANCH   3   4
ATOM      4  C   UNL     1       0.057  56.421  17.214  1.00  0.00    -0.000 C 
BRANCH   4   5
ATOM      5  C   UNL     1      -1.284  57.094  16.877  1.00  0.00    -0.000 C 
BRANCH   5   6
ATOM      6  C   UNL     1      -2.475  56.432  17.604  1.00  0.00    -0.000 C 
BRANCH   6   7
ATOM      7  C   UNL     1      -2.250  56.246  19.117  1.00  0.00    -0.000 C 
BRANCH   7   8
ATOM      8  C   UNL     1      -2.653  54.865  19.669  1.00  0.00    -0.000 C 
BRANCH   8   9
ATOM      9  C   UNL     1      -1.552  54.135  20.460  1.00  0.00    -0.000 C 
BRANCH   9  10
ATOM     10  C   UNL     1      -1.084  52.840  19.781  1.00  0.00    -0.000 C 
BRANCH  10  11
ATOM     11  C   UNL     1      -0.952  53.033  18.266  1.00  0.00    -0.003 C 
ATOM     12  C   UNL     1      -2.036  52.265  17.514  1.00  0.00     0.004 C 
ENDBRANCH  10  11
ENDBRANCH   9  10
ENDBRANCH   8   9
ENDBRANCH   7   8
ENDBRANCH   6   7
ENDBRANCH   5   6
ENDBRANCH   4   5
ENDBRANCH   3   4
ENDBRANCH   2   3
ENDBRANCH   1   2
BRANCH   1  13
ATOM     13  C   UNL     1       2.463  55.199  20.405  1.00  0.00     0.000 C 
BRANCH  13  14
ATOM     14  C   UNL     1       2.523  53.685  20.149  1.00  0.00     0.000 C 
BRANCH  14  15
ATOM     15  C   UNL     1       3.657  53.294  19.188  1.00  0.00     0.000 C 
BRANCH  15  16
ATOM     16  C   UNL     1       3.275  53.613  17.735  1.00  0.00     0.000 C 
BRANCH  16  17
ATOM     17  C   UNL     1       4.458  54.155  16.911  1.00  0.00     0.000 C 
BRANCH  17  18
ATOM     18  C   UNL     1       4.486  55.688  16.738  1.00  0.00     0.000 C 
BRANCH  18  19
ATOM     19  C   UNL     1       5.443  56.434  17.686  1.00  0.00     0.000 C 
BRANCH  19  20
ATOM     20  C   UNL     1       6.647  57.050  16.954  1.00  0.00     0.006 C 
BRANCH  20  21
ATOM     21  C   UNL     1       7.925  57.003  17.803  1.00  0.00     0.053 C 
BRANCH  21  22
ATOM     22  C   UNL     1       8.430  58.377  18.122  1.00  0.00     0.041 C 
ATOM     23  O   UNL     1       9.523  58.778  17.641  1.00  0.00    -0.550 OA
ATOM     24  O   UNL     1       7.679  59.227  18.926  1.00  0.00    -0.550 OA
ENDBRANCH  21  22
ENDBRANCH  20  21
ENDBRANCH  19  20
ENDBRANCH  18  19
ENDBRANCH  17  18
ENDBRANCH  16  17
ENDBRANCH  15  16
ENDBRANCH  14  15
ENDBRANCH  13  14
ENDBRANCH   1  13
TORSDOF 20
ENDMDL
