MODEL 1
REMARK VINA RESULT:    -6.776      0.000      0.000
REMARK INTER + INTRA:          -8.251
REMARK INTER:                  -7.964
REMARK INTRA:                  -0.287
REMARK UNBOUND:                -0.287
REMARK SMILES O=c1c(O)c(-c2ccc(O)cc2)oc2cc(O)cc(O)c12
REMARK SMILES IDX 5 1 3 2 2 3 1 4 21 5 19 6 18 7 16 8 15 9 14 10 13 11 6 12
REMARK SMILES IDX 7 13 8 14 9 15 12 16 11 17 10 18 4 20 20 22 17 24
REMARK H PARENT 10 19 4 21 20 23 17 25
REMARK Flexibility Score: inf
ROOT
ATOM      1  C   UNL     1     135.439 101.622  94.044  1.00  0.00     0.180 A 
ATOM      2  C   UNL     1     136.034 102.766  93.482  1.00  0.00     0.208 A 
ATOM      3  C   UNL     1     135.319 103.974  93.481  1.00  0.00     0.238 A 
ATOM      4  O   UNL     1     135.835 104.981  92.928  1.00  0.00    -0.285 OA
ATOM      5  C   UNL     1     134.026 104.029  94.055  1.00  0.00     0.111 A 
ATOM      6  C   UNL     1     133.229 105.209  94.144  1.00  0.00     0.134 A 
ATOM      7  C   UNL     1     131.912 105.119  94.614  1.00  0.00     0.093 A 
ATOM      8  C   UNL     1     131.388 103.903  95.058  1.00  0.00     0.123 A 
ATOM      9  C   UNL     1     132.179 102.757  95.030  1.00  0.00     0.094 A 
ATOM     10  C   UNL     1     133.483 102.809  94.533  1.00  0.00     0.146 A 
ATOM     11  O   UNL     1     134.199 101.691  94.514  1.00  0.00    -0.452 OA
ENDROOT
BRANCH   1  12
ATOM     12  C   UNL     1     136.139 100.320  94.105  1.00  0.00     0.021 A 
ATOM     13  C   UNL     1     136.003  99.366  93.079  1.00  0.00     0.016 A 
ATOM     14  C   UNL     1     136.692  98.151  93.147  1.00  0.00     0.047 A 
ATOM     15  C   UNL     1     137.536  97.880  94.232  1.00  0.00     0.115 A 
ATOM     16  C   UNL     1     137.003 100.047  95.178  1.00  0.00     0.016 A 
ATOM     17  C   UNL     1     137.691  98.832  95.244  1.00  0.00     0.047 A 
BRANCH  15  18
ATOM     18  O   UNL     1     138.228  96.674  94.311  1.00  0.00    -0.508 OA
ATOM     19  H   UNL     1     137.740  95.785  94.337  1.00  0.00     0.293 HD
ENDBRANCH  15  18
ENDBRANCH   1  12
BRANCH   2  20
ATOM     20  O   UNL     1     137.303 102.685  92.901  1.00  0.00    -0.502 OA
ATOM     21  H   UNL     1     137.650 101.837  92.469  1.00  0.00     0.293 HD
ENDBRANCH   2  20
BRANCH   6  22
ATOM     22  O   UNL     1     133.686 106.488  93.813  1.00  0.00    -0.507 OA
ATOM     23  H   UNL     1     133.820 106.823  92.871  1.00  0.00     0.293 HD
ENDBRANCH   6  22
BRANCH   8  24
ATOM     24  O   UNL     1     130.082 103.825  95.539  1.00  0.00    -0.508 OA
ATOM     25  H   UNL     1     129.641 104.610  96.005  1.00  0.00     0.293 HD
ENDBRANCH   8  24
TORSDOF 5
ENDMDL
MODEL 2
REMARK VINA RESULT:    -6.770      0.118      1.063
REMARK INTER + INTRA:          -8.244
REMARK INTER:                  -7.947
REMARK INTRA:                  -0.297
REMARK UNBOUND:                -0.287
REMARK SMILES O=c1c(O)c(-c2ccc(O)cc2)oc2cc(O)cc(O)c12
REMARK SMILES IDX 5 1 3 2 2 3 1 4 21 5 19 6 18 7 16 8 15 9 14 10 13 11 6 12
REMARK SMILES IDX 7 13 8 14 9 15 12 16 11 17 10 18 4 20 20 22 17 24
REMARK H PARENT 10 19 4 21 20 23 17 25
REMARK Flexibility Score: inf
ROOT
ATOM      1  C   UNL     1     135.551 101.707  94.088  1.00  0.00     0.180 A 
ATOM      2  C   UNL     1     136.121 102.851  93.504  1.00  0.00     0.208 A 
ATOM      3  C   UNL     1     135.382 104.045  93.481  1.00  0.00     0.238 A 
ATOM      4  O   UNL     1     135.876 105.051  92.909  1.00  0.00    -0.285 OA
ATOM      5  C   UNL     1     134.088 104.083  94.055  1.00  0.00     0.111 A 
ATOM      6  C   UNL     1     133.267 105.249  94.123  1.00  0.00     0.134 A 
ATOM      7  C   UNL     1     131.953 105.140  94.596  1.00  0.00     0.093 A 
ATOM      8  C   UNL     1     131.454 103.922  95.064  1.00  0.00     0.123 A 
ATOM      9  C   UNL     1     132.269 102.793  95.056  1.00  0.00     0.094 A 
ATOM     10  C   UNL     1     133.571 102.861  94.557  1.00  0.00     0.146 A 
ATOM     11  O   UNL     1     134.310 101.758  94.558  1.00  0.00    -0.452 OA
ENDROOT
BRANCH   1  12
ATOM     12  C   UNL     1     136.277 100.420  94.173  1.00  0.00     0.021 A 
ATOM     13  C   UNL     1     137.151 100.141  95.240  1.00  0.00     0.016 A 
ATOM     14  C   UNL     1     137.808  98.909  95.311  1.00  0.00     0.047 A 
ATOM     15  C   UNL     1     137.591  97.936  94.327  1.00  0.00     0.115 A 
ATOM     16  C   UNL     1     136.050  99.431  93.201  1.00  0.00     0.016 A 
ATOM     17  C   UNL     1     136.709  98.201  93.275  1.00  0.00     0.047 A 
BRANCH  15  18
ATOM     18  O   UNL     1     138.241  96.706  94.387  1.00  0.00    -0.508 OA
ATOM     19  H   UNL     1     137.854  95.880  93.944  1.00  0.00     0.293 HD
ENDBRANCH  15  18
ENDBRANCH   1  12
BRANCH   2  20
ATOM     20  O   UNL     1     137.391 102.786  92.923  1.00  0.00    -0.502 OA
ATOM     21  H   UNL     1     137.658 103.362  92.134  1.00  0.00     0.293 HD
ENDBRANCH   2  20
BRANCH   6  22
ATOM     22  O   UNL     1     133.698 106.530  93.767  1.00  0.00    -0.507 OA
ATOM     23  H   UNL     1     134.063 106.781  92.861  1.00  0.00     0.293 HD
ENDBRANCH   6  22
BRANCH   8  24
ATOM     24  O   UNL     1     130.151 103.826  95.548  1.00  0.00    -0.508 OA
ATOM     25  H   UNL     1     129.400 103.455  94.977  1.00  0.00     0.293 HD
ENDBRANCH   8  24
TORSDOF 5
ENDMDL
MODEL 3
REMARK VINA RESULT:    -6.215      1.761      6.272
REMARK INTER + INTRA:          -7.592
REMARK INTER:                  -7.304
REMARK INTRA:                  -0.288
REMARK UNBOUND:                -0.287
REMARK SMILES O=c1c(O)c(-c2ccc(O)cc2)oc2cc(O)cc(O)c12
REMARK SMILES IDX 5 1 3 2 2 3 1 4 21 5 19 6 18 7 16 8 15 9 14 10 13 11 6 12
REMARK SMILES IDX 7 13 8 14 9 15 12 16 11 17 10 18 4 20 20 22 17 24
REMARK H PARENT 10 19 4 21 20 23 17 25
REMARK Flexibility Score: inf
ROOT
ATOM      1  C   UNL     1     135.000 102.196  94.276  1.00  0.00     0.180 A 
ATOM      2  C   UNL     1     135.836 103.317  94.127  1.00  0.00     0.208 A 
ATOM      3  C   UNL     1     137.226 103.149  94.240  1.00  0.00     0.238 A 
ATOM      4  O   UNL     1     137.966 104.165  94.159  1.00  0.00    -0.285 OA
ATOM      5  C   UNL     1     137.763 101.862  94.484  1.00  0.00     0.111 A 
ATOM      6  C   UNL     1     139.157 101.571  94.577  1.00  0.00     0.134 A 
ATOM      7  C   UNL     1     139.571 100.285  94.951  1.00  0.00     0.093 A 
ATOM      8  C   UNL     1     138.641  99.266  95.172  1.00  0.00     0.123 A 
ATOM      9  C   UNL     1     137.281  99.527  95.026  1.00  0.00     0.094 A 
ATOM     10  C   UNL     1     136.837 100.807  94.689  1.00  0.00     0.146 A 
ATOM     11  O   UNL     1     135.531 101.015  94.571  1.00  0.00    -0.452 OA
ENDROOT
BRANCH   1  12
ATOM     12  C   UNL     1     133.529 102.288  94.146  1.00  0.00     0.021 A 
ATOM     13  C   UNL     1     132.714 102.609  95.247  1.00  0.00     0.016 A 
ATOM     14  C   UNL     1     131.328 102.714  95.095  1.00  0.00     0.047 A 
ATOM     15  C   UNL     1     130.740 102.514  93.840  1.00  0.00     0.115 A 
ATOM     16  C   UNL     1     132.933 102.109  92.887  1.00  0.00     0.016 A 
ATOM     17  C   UNL     1     131.547 102.214  92.737  1.00  0.00     0.047 A 
BRANCH  15  18
ATOM     18  O   UNL     1     129.361 102.615  93.676  1.00  0.00    -0.508 OA
ATOM     19  H   UNL     1     128.717 102.249  94.369  1.00  0.00     0.293 HD
ENDBRANCH  15  18
ENDBRANCH   1  12
BRANCH   2  20
ATOM     20  O   UNL     1     135.284 104.582  93.908  1.00  0.00    -0.502 OA
ATOM     21  H   UNL     1     135.790 105.321  93.435  1.00  0.00     0.293 HD
ENDBRANCH   2  20
BRANCH   6  22
ATOM     22  O   UNL     1     140.169 102.491  94.288  1.00  0.00    -0.507 OA
ATOM     23  H   UNL     1     140.338 103.339  94.807  1.00  0.00     0.293 HD
ENDBRANCH   6  22
BRANCH   8  24
ATOM     24  O   UNL     1     139.061  97.986  95.530  1.00  0.00    -0.508 OA
ATOM     25  H   UNL     1     139.876  97.558  95.105  1.00  0.00     0.293 HD
ENDBRANCH   8  24
TORSDOF 5
ENDMDL
MODEL 4
REMARK VINA RESULT:    -5.785      1.907      2.032
REMARK INTER + INTRA:          -7.086
REMARK INTER:                  -6.851
REMARK INTRA:                  -0.236
REMARK UNBOUND:                -0.287
REMARK SMILES O=c1c(O)c(-c2ccc(O)cc2)oc2cc(O)cc(O)c12
REMARK SMILES IDX 5 1 3 2 2 3 1 4 21 5 19 6 18 7 16 8 15 9 14 10 13 11 6 12
REMARK SMILES IDX 7 13 8 14 9 15 12 16 11 17 10 18 4 20 20 22 17 24
REMARK H PARENT 10 19 4 21 20 23 17 25
REMARK Flexibility Score: inf
ROOT
ATOM      1  C   UNL     1     135.355 101.219  93.744  1.00  0.00     0.180 A 
ATOM      2  C   UNL     1     135.262 101.478  92.365  1.00  0.00     0.208 A 
ATOM      3  C   UNL     1     134.175 102.225  91.884  1.00  0.00     0.238 A 
ATOM      4  O   UNL     1     134.068 102.407  90.643  1.00  0.00    -0.285 OA
ATOM      5  C   UNL     1     133.202 102.716  92.788  1.00  0.00     0.111 A 
ATOM      6  C   UNL     1     132.082 103.517  92.416  1.00  0.00     0.134 A 
ATOM      7  C   UNL     1     131.112 103.838  93.375  1.00  0.00     0.093 A 
ATOM      8  C   UNL     1     131.259 103.441  94.707  1.00  0.00     0.123 A 
ATOM      9  C   UNL     1     132.380 102.710  95.091  1.00  0.00     0.094 A 
ATOM     10  C   UNL     1     133.345 102.344  94.150  1.00  0.00     0.146 A 
ATOM     11  O   UNL     1     134.393 101.637  94.557  1.00  0.00    -0.452 OA
ENDROOT
BRANCH   1  12
ATOM     12  C   UNL     1     136.484 100.462  94.329  1.00  0.00     0.021 A 
ATOM     13  C   UNL     1     136.569  99.063  94.209  1.00  0.00     0.016 A 
ATOM     14  C   UNL     1     137.658  98.371  94.749  1.00  0.00     0.047 A 
ATOM     15  C   UNL     1     138.681  99.069  95.403  1.00  0.00     0.115 A 
ATOM     16  C   UNL     1     137.525 101.155  94.969  1.00  0.00     0.016 A 
ATOM     17  C   UNL     1     138.612 100.461  95.509  1.00  0.00     0.047 A 
BRANCH  15  18
ATOM     18  O   UNL     1     139.769  98.391  95.946  1.00  0.00    -0.508 OA
ATOM     19  H   UNL     1     140.720  98.607  95.669  1.00  0.00     0.293 HD
ENDBRANCH  15  18
ENDBRANCH   1  12
BRANCH   2  20
ATOM     20  O   UNL     1     136.222 100.965  91.487  1.00  0.00    -0.502 OA
ATOM     21  H   UNL     1     137.216 101.042  91.663  1.00  0.00     0.293 HD
ENDBRANCH   2  20
BRANCH   6  22
ATOM     22  O   UNL     1     131.887 104.041  91.134  1.00  0.00    -0.507 OA
ATOM     23  H   UNL     1     130.994 104.320  90.758  1.00  0.00     0.293 HD
ENDBRANCH   6  22
BRANCH   8  24
ATOM     24  O   UNL     1     130.298 103.777  95.658  1.00  0.00    -0.508 OA
ATOM     25  H   UNL     1     129.574 103.124  95.934  1.00  0.00     0.293 HD
ENDBRANCH   8  24
TORSDOF 5
ENDMDL
MODEL 5
REMARK VINA RESULT:    -5.559      1.962      6.602
REMARK INTER + INTRA:          -6.821
REMARK INTER:                  -6.546
REMARK INTRA:                  -0.274
REMARK UNBOUND:                -0.287
REMARK SMILES O=c1c(O)c(-c2ccc(O)cc2)oc2cc(O)cc(O)c12
REMARK SMILES IDX 5 1 3 2 2 3 1 4 21 5 19 6 18 7 16 8 15 9 14 10 13 11 6 12
REMARK SMILES IDX 7 13 8 14 9 15 12 16 11 17 10 18 4 20 20 22 17 24
REMARK H PARENT 10 19 4 21 20 23 17 25
REMARK Flexibility Score: inf
ROOT
ATOM      1  C   UNL     1     134.280 102.614  94.136  1.00  0.00     0.180 A 
ATOM      2  C   UNL     1     135.508 102.766  94.803  1.00  0.00     0.208 A 
ATOM      3  C   UNL     1     136.570 101.907  94.478  1.00  0.00     0.238 A 
ATOM      4  O   UNL     1     137.650 102.012  95.116  1.00  0.00    -0.285 OA
ATOM      5  C   UNL     1     136.397 100.919  93.479  1.00  0.00     0.111 A 
ATOM      6  C   UNL     1     137.417 100.023  93.040  1.00  0.00     0.134 A 
ATOM      7  C   UNL     1     137.097  98.999  92.138  1.00  0.00     0.093 A 
ATOM      8  C   UNL     1     135.809  98.883  91.610  1.00  0.00     0.123 A 
ATOM      9  C   UNL     1     134.822  99.790  91.987  1.00  0.00     0.094 A 
ATOM     10  C   UNL     1     135.101 100.798  92.912  1.00  0.00     0.146 A 
ATOM     11  O   UNL     1     134.129 101.636  93.252  1.00  0.00    -0.452 OA
ENDROOT
BRANCH   1  12
ATOM     12  C   UNL     1     133.122 103.496  94.406  1.00  0.00     0.021 A 
ATOM     13  C   UNL     1     133.035 104.784  93.845  1.00  0.00     0.016 A 
ATOM     14  C   UNL     1     131.920 105.590  94.095  1.00  0.00     0.047 A 
ATOM     15  C   UNL     1     130.874 105.116  94.897  1.00  0.00     0.115 A 
ATOM     16  C   UNL     1     132.059 103.022  95.192  1.00  0.00     0.016 A 
ATOM     17  C   UNL     1     130.946 103.831  95.442  1.00  0.00     0.047 A 
BRANCH  15  18
ATOM     18  O   UNL     1     129.759 105.911  95.154  1.00  0.00    -0.508 OA
ATOM     19  H   UNL     1     129.814 106.719  95.764  1.00  0.00     0.293 HD
ENDBRANCH  15  18
ENDBRANCH   1  12
BRANCH   2  20
ATOM     20  O   UNL     1     135.651 103.733  95.802  1.00  0.00    -0.502 OA
ATOM     21  H   UNL     1     135.196 103.656  96.703  1.00  0.00     0.293 HD
ENDBRANCH   2  20
BRANCH   6  22
ATOM     22  O   UNL     1     138.755 100.108  93.436  1.00  0.00    -0.507 OA
ATOM     23  H   UNL     1     139.451  99.400  93.260  1.00  0.00     0.293 HD
ENDBRANCH   6  22
BRANCH   8  24
ATOM     24  O   UNL     1     135.502  97.872  90.702  1.00  0.00    -0.508 OA
ATOM     25  H   UNL     1     134.936  98.052  89.880  1.00  0.00     0.293 HD
ENDBRANCH   8  24
TORSDOF 5
ENDMDL
MODEL 6
REMARK VINA RESULT:    -5.501      1.943      6.842
REMARK INTER + INTRA:          -6.753
REMARK INTER:                  -6.465
REMARK INTRA:                  -0.288
REMARK UNBOUND:                -0.287
REMARK SMILES O=c1c(O)c(-c2ccc(O)cc2)oc2cc(O)cc(O)c12
REMARK SMILES IDX 5 1 3 2 2 3 1 4 21 5 19 6 18 7 16 8 15 9 14 10 13 11 6 12
REMARK SMILES IDX 7 13 8 14 9 15 12 16 11 17 10 18 4 20 20 22 17 24
REMARK H PARENT 10 19 4 21 20 23 17 25
REMARK Flexibility Score: inf
ROOT
ATOM      1  C   UNL     1     133.779 102.053  93.501  1.00  0.00     0.180 A 
ATOM      2  C   UNL     1     133.658 101.451  92.236  1.00  0.00     0.208 A 
ATOM      3  C   UNL     1     134.587 100.468  91.858  1.00  0.00     0.238 A 
ATOM      4  O   UNL     1     134.506  99.971  90.704  1.00  0.00    -0.285 OA
ATOM      5  C   UNL     1     135.614 100.088  92.755  1.00  0.00     0.111 A 
ATOM      6  C   UNL     1     136.585  99.075  92.493  1.00  0.00     0.134 A 
ATOM      7  C   UNL     1     137.635  98.873  93.398  1.00  0.00     0.093 A 
ATOM      8  C   UNL     1     137.710  99.603  94.587  1.00  0.00     0.123 A 
ATOM      9  C   UNL     1     136.734 100.552  94.879  1.00  0.00     0.094 A 
ATOM     10  C   UNL     1     135.696 100.801  93.979  1.00  0.00     0.146 A 
ATOM     11  O   UNL     1     134.792 101.722  94.292  1.00  0.00    -0.452 OA
ENDROOT
BRANCH   1  12
ATOM     12  C   UNL     1     132.824 103.078  93.980  1.00  0.00     0.021 A 
ATOM     13  C   UNL     1     133.007 104.442  93.690  1.00  0.00     0.016 A 
ATOM     14  C   UNL     1     132.079 105.390  94.133  1.00  0.00     0.047 A 
ATOM     15  C   UNL     1     130.951 104.986  94.858  1.00  0.00     0.115 A 
ATOM     16  C   UNL     1     131.679 102.680  94.690  1.00  0.00     0.016 A 
ATOM     17  C   UNL     1     130.754 103.629  95.132  1.00  0.00     0.047 A 
BRANCH  15  18
ATOM     18  O   UNL     1     130.021 105.921  95.305  1.00  0.00    -0.508 OA
ATOM     19  H   UNL     1     129.929 106.830  94.865  1.00  0.00     0.293 HD
ENDBRANCH  15  18
ENDBRANCH   1  12
BRANCH   2  20
ATOM     20  O   UNL     1     132.649 101.857  91.357  1.00  0.00    -0.502 OA
ATOM     21  H   UNL     1     132.748 101.797  90.352  1.00  0.00     0.293 HD
ENDBRANCH   2  20
BRANCH   6  22
ATOM     22  O   UNL     1     136.549  98.228  91.381  1.00  0.00    -0.507 OA
ATOM     23  H   UNL     1     137.085  98.367  90.538  1.00  0.00     0.293 HD
ENDBRANCH   6  22
BRANCH   8  24
ATOM     24  O   UNL     1     138.749  99.385  95.490  1.00  0.00    -0.508 OA
ATOM     25  H   UNL     1     139.530 100.026  95.563  1.00  0.00     0.293 HD
ENDBRANCH   8  24
TORSDOF 5
ENDMDL
MODEL 7
REMARK VINA RESULT:    -5.474      2.371      3.370
REMARK INTER + INTRA:          -6.721
REMARK INTER:                  -6.465
REMARK INTRA:                  -0.255
REMARK UNBOUND:                -0.287
REMARK SMILES O=c1c(O)c(-c2ccc(O)cc2)oc2cc(O)cc(O)c12
REMARK SMILES IDX 5 1 3 2 2 3 1 4 21 5 19 6 18 7 16 8 15 9 14 10 13 11 6 12
REMARK SMILES IDX 7 13 8 14 9 15 12 16 11 17 10 18 4 20 20 22 17 24
REMARK H PARENT 10 19 4 21 20 23 17 25
REMARK Flexibility Score: inf
ROOT
ATOM      1  C   UNL     1     135.295 102.576  94.320  1.00  0.00     0.180 A 
ATOM      2  C   UNL     1     134.789 103.489  95.262  1.00  0.00     0.208 A 
ATOM      3  C   UNL     1     133.405 103.717  95.314  1.00  0.00     0.238 A 
ATOM      4  O   UNL     1     132.963 104.575  96.123  1.00  0.00    -0.285 OA
ATOM      5  C   UNL     1     132.542 103.019  94.435  1.00  0.00     0.111 A 
ATOM      6  C   UNL     1     131.120 103.143  94.428  1.00  0.00     0.134 A 
ATOM      7  C   UNL     1     130.377 102.503  93.427  1.00  0.00     0.093 A 
ATOM      8  C   UNL     1     130.999 101.692  92.475  1.00  0.00     0.123 A 
ATOM      9  C   UNL     1     132.380 101.519  92.511  1.00  0.00     0.094 A 
ATOM     10  C   UNL     1     133.152 102.172  93.474  1.00  0.00     0.146 A 
ATOM     11  O   UNL     1     134.467 101.988  93.466  1.00  0.00    -0.452 OA
ENDROOT
BRANCH   1  12
ATOM     12  C   UNL     1     136.739 102.264  94.222  1.00  0.00     0.021 A 
ATOM     13  C   UNL     1     137.632 103.129  93.564  1.00  0.00     0.016 A 
ATOM     14  C   UNL     1     138.996 102.825  93.504  1.00  0.00     0.047 A 
ATOM     15  C   UNL     1     139.486 101.662  94.113  1.00  0.00     0.115 A 
ATOM     16  C   UNL     1     137.242 101.111  94.847  1.00  0.00     0.016 A 
ATOM     17  C   UNL     1     138.605 100.809  94.785  1.00  0.00     0.047 A 
BRANCH  15  18
ATOM     18  O   UNL     1     140.841 101.348  94.059  1.00  0.00    -0.508 OA
ATOM     19  H   UNL     1     141.553 102.071  94.063  1.00  0.00     0.293 HD
ENDBRANCH  15  18
ENDBRANCH   1  12
BRANCH   2  20
ATOM     20  O   UNL     1     135.661 104.184  96.107  1.00  0.00    -0.502 OA
ATOM     21  H   UNL     1     136.433 104.736  95.755  1.00  0.00     0.293 HD
ENDBRANCH   2  20
BRANCH   6  22
ATOM     22  O   UNL     1     130.393 103.853  95.387  1.00  0.00    -0.507 OA
ATOM     23  H   UNL     1     129.403 104.040  95.334  1.00  0.00     0.293 HD
ENDBRANCH   6  22
BRANCH   8  24
ATOM     24  O   UNL     1     130.251 101.047  91.493  1.00  0.00    -0.508 OA
ATOM     25  H   UNL     1     129.767 100.177  91.681  1.00  0.00     0.293 HD
ENDBRANCH   8  24
TORSDOF 5
ENDMDL
MODEL 8
REMARK VINA RESULT:    -5.468      2.113      2.593
REMARK INTER + INTRA:          -6.714
REMARK INTER:                  -6.417
REMARK INTRA:                  -0.297
REMARK UNBOUND:                -0.287
REMARK SMILES O=c1c(O)c(-c2ccc(O)cc2)oc2cc(O)cc(O)c12
REMARK SMILES IDX 5 1 3 2 2 3 1 4 21 5 19 6 18 7 16 8 15 9 14 10 13 11 6 12
REMARK SMILES IDX 7 13 8 14 9 15 12 16 11 17 10 18 4 20 20 22 17 24
REMARK H PARENT 10 19 4 21 20 23 17 25
REMARK Flexibility Score: inf
ROOT
ATOM      1  C   UNL     1     135.228 101.403  92.994  1.00  0.00     0.180 A 
ATOM      2  C   UNL     1     135.994 102.222  93.842  1.00  0.00     0.208 A 
ATOM      3  C   UNL     1     135.336 103.102  94.716  1.00  0.00     0.238 A 
ATOM      4  O   UNL     1     136.027 103.871  95.434  1.00  0.00    -0.285 OA
ATOM      5  C   UNL     1     133.921 103.142  94.741  1.00  0.00     0.111 A 
ATOM      6  C   UNL     1     133.149 103.966  95.615  1.00  0.00     0.134 A 
ATOM      7  C   UNL     1     131.757 104.020  95.463  1.00  0.00     0.093 A 
ATOM      8  C   UNL     1     131.106 103.230  94.513  1.00  0.00     0.123 A 
ATOM      9  C   UNL     1     131.846 102.379  93.696  1.00  0.00     0.094 A 
ATOM     10  C   UNL     1     133.238 102.330  93.800  1.00  0.00     0.146 A 
ATOM     11  O   UNL     1     133.905 101.512  92.995  1.00  0.00    -0.452 OA
ENDROOT
BRANCH   1  12
ATOM     12  C   UNL     1     135.849 100.433  92.064  1.00  0.00     0.021 A 
ATOM     13  C   UNL     1     136.115  99.108  92.457  1.00  0.00     0.016 A 
ATOM     14  C   UNL     1     136.680  98.202  91.554  1.00  0.00     0.047 A 
ATOM     15  C   UNL     1     136.974  98.604  90.245  1.00  0.00     0.115 A 
ATOM     16  C   UNL     1     136.129 100.821  90.743  1.00  0.00     0.016 A 
ATOM     17  C   UNL     1     136.694  99.914  89.843  1.00  0.00     0.047 A 
BRANCH  15  18
ATOM     18  O   UNL     1     137.538  97.711  89.337  1.00  0.00    -0.508 OA
ATOM     19  H   UNL     1     137.552  97.905  88.342  1.00  0.00     0.293 HD
ENDBRANCH  15  18
ENDBRANCH   1  12
BRANCH   2  20
ATOM     20  O   UNL     1     137.391 102.183  93.785  1.00  0.00    -0.502 OA
ATOM     21  H   UNL     1     137.912 101.316  93.829  1.00  0.00     0.293 HD
ENDBRANCH   2  20
BRANCH   6  22
ATOM     22  O   UNL     1     133.693 104.724  96.656  1.00  0.00    -0.507 OA
ATOM     23  H   UNL     1     133.915 105.706  96.595  1.00  0.00     0.293 HD
ENDBRANCH   6  22
BRANCH   8  24
ATOM     24  O   UNL     1     129.720 103.278  94.379  1.00  0.00    -0.508 OA
ATOM     25  H   UNL     1     129.109 102.750  94.992  1.00  0.00     0.293 HD
ENDBRANCH   8  24
TORSDOF 5
ENDMDL
MODEL 9
REMARK VINA RESULT:    -5.467      4.583      6.041
REMARK INTER + INTRA:          -6.713
REMARK INTER:                  -6.446
REMARK INTRA:                  -0.268
REMARK UNBOUND:                -0.287
REMARK SMILES O=c1c(O)c(-c2ccc(O)cc2)oc2cc(O)cc(O)c12
REMARK SMILES IDX 5 1 3 2 2 3 1 4 21 5 19 6 18 7 16 8 15 9 14 10 13 11 6 12
REMARK SMILES IDX 7 13 8 14 9 15 12 16 11 17 10 18 4 20 20 22 17 24
REMARK H PARENT 10 19 4 21 20 23 17 25
REMARK Flexibility Score: inf
ROOT
ATOM      1  C   UNL     1     136.023  99.251  92.037  1.00  0.00     0.180 A 
ATOM      2  C   UNL     1     136.851  99.912  91.113  1.00  0.00     0.208 A 
ATOM      3  C   UNL     1     138.008 100.559  91.577  1.00  0.00     0.238 A 
ATOM      4  O   UNL     1     138.717 101.194  90.753  1.00  0.00    -0.285 OA
ATOM      5  C   UNL     1     138.330 100.524  92.955  1.00  0.00     0.111 A 
ATOM      6  C   UNL     1     139.498 101.110  93.529  1.00  0.00     0.134 A 
ATOM      7  C   UNL     1     139.649 101.128  94.922  1.00  0.00     0.093 A 
ATOM      8  C   UNL     1     138.706 100.522  95.755  1.00  0.00     0.123 A 
ATOM      9  C   UNL     1     137.594  99.895  95.200  1.00  0.00     0.094 A 
ATOM     10  C   UNL     1     137.397  99.893  93.818  1.00  0.00     0.146 A 
ATOM     11  O   UNL     1     136.317  99.293  93.331  1.00  0.00    -0.452 OA
ENDROOT
BRANCH   1  12
ATOM     12  C   UNL     1     134.801  98.526  91.622  1.00  0.00     0.021 A 
ATOM     13  C   UNL     1     134.796  97.128  91.464  1.00  0.00     0.016 A 
ATOM     14  C   UNL     1     133.624  96.462  91.094  1.00  0.00     0.047 A 
ATOM     15  C   UNL     1     132.439  97.181  90.891  1.00  0.00     0.115 A 
ATOM     16  C   UNL     1     133.603  99.236  91.437  1.00  0.00     0.016 A 
ATOM     17  C   UNL     1     132.433  98.568  91.066  1.00  0.00     0.047 A 
BRANCH  15  18
ATOM     18  O   UNL     1     131.266  96.529  90.522  1.00  0.00    -0.508 OA
ATOM     19  H   UNL     1     130.389  97.029  90.425  1.00  0.00     0.293 HD
ENDBRANCH  15  18
ENDBRANCH   1  12
BRANCH   2  20
ATOM     20  O   UNL     1     136.503  99.952  89.760  1.00  0.00    -0.502 OA
ATOM     21  H   UNL     1     135.892 100.663  89.377  1.00  0.00     0.293 HD
ENDBRANCH   2  20
BRANCH   6  22
ATOM     22  O   UNL     1     140.543 101.661  92.782  1.00  0.00    -0.507 OA
ATOM     23  H   UNL     1     141.454 101.888  93.150  1.00  0.00     0.293 HD
ENDBRANCH   6  22
BRANCH   8  24
ATOM     24  O   UNL     1     138.872 100.529  97.139  1.00  0.00    -0.508 OA
ATOM     25  H   UNL     1     138.181 100.946  97.753  1.00  0.00     0.293 HD
ENDBRANCH   8  24
TORSDOF 5
ENDMDL
