MODEL 1
REMARK VINA RESULT:    -5.205      0.000      0.000
REMARK INTER + INTRA:          -6.381
REMARK INTER:                  -6.117
REMARK INTRA:                  -0.263
REMARK UNBOUND:                -0.263
REMARK SMILES O=c1cc(-c2ccc(O)c(O)c2)oc2cc(O)cc(O)c12
REMARK SMILES IDX 4 1 3 2 2 3 1 4 21 5 19 6 18 7 16 8 15 9 14 10 13 11 5 12
REMARK SMILES IDX 6 13 7 14 8 15 12 16 10 17 9 18 11 20 20 22 17 24
REMARK H PARENT 9 19 11 21 20 23 17 25
REMARK Flexibility Score: inf
ROOT
ATOM      1  C   UNL     1     147.341 150.979 137.133  1.00  0.00     0.138 A 
ATOM      2  C   UNL     1     148.075 151.940 136.420  1.00  0.00     0.100 A 
ATOM      3  C   UNL     1     149.467 151.958 136.523  1.00  0.00     0.197 A 
ATOM      4  O   UNL     1     150.117 152.825 135.878  1.00  0.00    -0.289 OA
ATOM      5  C   UNL     1     150.116 151.008 137.336  1.00  0.00     0.107 A 
ATOM      6  C   UNL     1     151.522 150.955 137.496  1.00  0.00     0.134 A 
ATOM      7  C   UNL     1     152.091 149.974 138.320  1.00  0.00     0.093 A 
ATOM      8  C   UNL     1     151.286 149.047 138.985  1.00  0.00     0.123 A 
ATOM      9  C   UNL     1     149.896 149.093 138.831  1.00  0.00     0.094 A 
ATOM     10  C   UNL     1     149.308 150.064 138.015  1.00  0.00     0.146 A 
ATOM     11  O   UNL     1     147.986 150.089 137.885  1.00  0.00    -0.456 OA
ENDROOT
BRANCH   1  12
ATOM     12  C   UNL     1     145.860 150.912 137.062  1.00  0.00     0.021 A 
ATOM     13  C   UNL     1     145.200 150.087 136.132  1.00  0.00     0.016 A 
ATOM     14  C   UNL     1     143.804 150.052 136.081  1.00  0.00     0.051 A 
ATOM     15  C   UNL     1     143.044 150.841 136.948  1.00  0.00     0.157 A 
ATOM     16  C   UNL     1     145.089 151.715 137.922  1.00  0.00     0.062 A 
ATOM     17  C   UNL     1     143.688 151.679 137.873  1.00  0.00     0.158 A 
BRANCH  15  18
ATOM     18  O   UNL     1     141.652 150.783 136.874  1.00  0.00    -0.504 OA
ATOM     19  H   UNL     1     141.089 150.396 137.622  1.00  0.00     0.293 HD
ENDBRANCH  15  18
BRANCH  17  20
ATOM     20  O   UNL     1     142.936 152.472 138.738  1.00  0.00    -0.504 OA
ATOM     21  H   UNL     1     143.021 153.482 138.742  1.00  0.00     0.293 HD
ENDBRANCH  17  20
ENDBRANCH   1  12
BRANCH   6  22
ATOM     22  O   UNL     1     152.352 151.868 136.844  1.00  0.00    -0.507 OA
ATOM     23  H   UNL     1     153.273 152.097 137.198  1.00  0.00     0.293 HD
ENDBRANCH   6  22
BRANCH   8  24
ATOM     24  O   UNL     1     151.877 148.082 139.797  1.00  0.00    -0.508 OA
ATOM     25  H   UNL     1     151.550 147.911 140.741  1.00  0.00     0.293 HD
ENDBRANCH   8  24
TORSDOF 5
ENDMDL
MODEL 2
REMARK VINA RESULT:    -5.202      5.559      8.329
REMARK INTER + INTRA:          -6.377
REMARK INTER:                  -6.114
REMARK INTRA:                  -0.264
REMARK UNBOUND:                -0.263
REMARK SMILES O=c1cc(-c2ccc(O)c(O)c2)oc2cc(O)cc(O)c12
REMARK SMILES IDX 4 1 3 2 2 3 1 4 21 5 19 6 18 7 16 8 15 9 14 10 13 11 5 12
REMARK SMILES IDX 6 13 7 14 8 15 12 16 10 17 9 18 11 20 20 22 17 24
REMARK H PARENT 9 19 11 21 20 23 17 25
REMARK Flexibility Score: inf
ROOT
ATOM      1  C   UNL     1     151.011 145.299 137.109  1.00  0.00     0.138 A 
ATOM      2  C   UNL     1     151.972 144.564 136.396  1.00  0.00     0.100 A 
ATOM      3  C   UNL     1     151.987 143.172 136.498  1.00  0.00     0.197 A 
ATOM      4  O   UNL     1     152.853 142.522 135.853  1.00  0.00    -0.289 OA
ATOM      5  C   UNL     1     151.036 142.524 137.311  1.00  0.00     0.107 A 
ATOM      6  C   UNL     1     150.982 141.118 137.470  1.00  0.00     0.134 A 
ATOM      7  C   UNL     1     149.999 140.550 138.294  1.00  0.00     0.093 A 
ATOM      8  C   UNL     1     149.074 141.356 138.959  1.00  0.00     0.123 A 
ATOM      9  C   UNL     1     149.122 142.745 138.806  1.00  0.00     0.094 A 
ATOM     10  C   UNL     1     150.093 143.333 137.990  1.00  0.00     0.146 A 
ATOM     11  O   UNL     1     150.120 144.655 137.861  1.00  0.00    -0.456 OA
ENDROOT
BRANCH   1  12
ATOM     12  C   UNL     1     150.947 146.781 137.039  1.00  0.00     0.021 A 
ATOM     13  C   UNL     1     150.144 147.443 136.091  1.00  0.00     0.016 A 
ATOM     14  C   UNL     1     150.110 148.838 136.042  1.00  0.00     0.051 A 
ATOM     15  C   UNL     1     150.879 149.597 136.929  1.00  0.00     0.157 A 
ATOM     16  C   UNL     1     151.729 147.550 137.919  1.00  0.00     0.062 A 
ATOM     17  C   UNL     1     151.695 148.951 137.872  1.00  0.00     0.158 A 
BRANCH  15  18
ATOM     18  O   UNL     1     150.823 150.988 136.855  1.00  0.00    -0.504 OA
ATOM     19  H   UNL     1     151.657 151.563 136.883  1.00  0.00     0.293 HD
ENDBRANCH  15  18
BRANCH  17  20
ATOM     20  O   UNL     1     152.468 149.701 138.756  1.00  0.00    -0.504 OA
ATOM     21  H   UNL     1     152.151 149.905 139.697  1.00  0.00     0.293 HD
ENDBRANCH  17  20
ENDBRANCH   1  12
BRANCH   6  22
ATOM     22  O   UNL     1     151.894 140.288 136.818  1.00  0.00    -0.507 OA
ATOM     23  H   UNL     1     151.590 139.547 136.197  1.00  0.00     0.293 HD
ENDBRANCH   6  22
BRANCH   8  24
ATOM     24  O   UNL     1     148.108 140.765 139.771  1.00  0.00    -0.508 OA
ATOM     25  H   UNL     1     148.202 140.749 140.780  1.00  0.00     0.293 HD
ENDBRANCH   8  24
TORSDOF 5
ENDMDL
MODEL 3
REMARK VINA RESULT:    -5.195      5.594      8.334
REMARK INTER + INTRA:          -6.370
REMARK INTER:                  -6.106
REMARK INTRA:                  -0.263
REMARK UNBOUND:                -0.263
REMARK SMILES O=c1cc(-c2ccc(O)c(O)c2)oc2cc(O)cc(O)c12
REMARK SMILES IDX 4 1 3 2 2 3 1 4 21 5 19 6 18 7 16 8 15 9 14 10 13 11 5 12
REMARK SMILES IDX 6 13 7 14 8 15 12 16 10 17 9 18 11 20 20 22 17 24
REMARK H PARENT 9 19 11 21 20 23 17 25
REMARK Flexibility Score: inf
ROOT
ATOM      1  C   UNL     1     141.627 147.370 137.179  1.00  0.00     0.138 A 
ATOM      2  C   UNL     1     140.660 148.104 136.475  1.00  0.00     0.100 A 
ATOM      3  C   UNL     1     140.640 149.496 136.584  1.00  0.00     0.197 A 
ATOM      4  O   UNL     1     139.767 150.146 135.946  1.00  0.00    -0.289 OA
ATOM      5  C   UNL     1     141.592 150.144 137.395  1.00  0.00     0.107 A 
ATOM      6  C   UNL     1     141.642 151.549 137.561  1.00  0.00     0.134 A 
ATOM      7  C   UNL     1     142.626 152.117 138.382  1.00  0.00     0.093 A 
ATOM      8  C   UNL     1     143.559 151.312 139.039  1.00  0.00     0.123 A 
ATOM      9  C   UNL     1     143.515 149.923 138.879  1.00  0.00     0.094 A 
ATOM     10  C   UNL     1     142.542 149.336 138.065  1.00  0.00     0.146 A 
ATOM     11  O   UNL     1     142.520 148.014 137.930  1.00  0.00    -0.456 OA
ENDROOT
BRANCH   1  12
ATOM     12  C   UNL     1     141.697 145.889 137.102  1.00  0.00     0.021 A 
ATOM     13  C   UNL     1     142.516 145.235 136.161  1.00  0.00     0.016 A 
ATOM     14  C   UNL     1     142.555 143.840 136.105  1.00  0.00     0.051 A 
ATOM     15  C   UNL     1     141.775 143.074 136.976  1.00  0.00     0.157 A 
ATOM     16  C   UNL     1     140.905 145.113 137.966  1.00  0.00     0.062 A 
ATOM     17  C   UNL     1     140.944 143.712 137.911  1.00  0.00     0.158 A 
BRANCH  15  18
ATOM     18  O   UNL     1     141.837 141.683 136.895  1.00  0.00    -0.504 OA
ATOM     19  H   UNL     1     141.269 141.084 137.483  1.00  0.00     0.293 HD
ENDBRANCH  15  18
BRANCH  17  20
ATOM     20  O   UNL     1     140.161 142.954 138.780  1.00  0.00    -0.504 OA
ATOM     21  H   UNL     1     139.616 142.165 138.453  1.00  0.00     0.293 HD
ENDBRANCH  17  20
ENDBRANCH   1  12
BRANCH   6  22
ATOM     22  O   UNL     1     140.723 152.380 136.917  1.00  0.00    -0.507 OA
ATOM     23  H   UNL     1     140.862 153.381 136.857  1.00  0.00     0.293 HD
ENDBRANCH   6  22
BRANCH   8  24
ATOM     24  O   UNL     1     144.527 151.903 139.848  1.00  0.00    -0.508 OA
ATOM     25  H   UNL     1     144.632 151.644 140.822  1.00  0.00     0.293 HD
ENDBRANCH   8  24
TORSDOF 5
ENDMDL
MODEL 4
REMARK VINA RESULT:    -5.184      8.389     11.789
REMARK INTER + INTRA:          -6.357
REMARK INTER:                  -6.094
REMARK INTRA:                  -0.263
REMARK UNBOUND:                -0.263
REMARK SMILES O=c1cc(-c2ccc(O)c(O)c2)oc2cc(O)cc(O)c12
REMARK SMILES IDX 4 1 3 2 2 3 1 4 21 5 19 6 18 7 16 8 15 9 14 10 13 11 5 12
REMARK SMILES IDX 6 13 7 14 8 15 12 16 10 17 9 18 11 20 20 22 17 24
REMARK H PARENT 9 19 11 21 20 23 17 25
REMARK Flexibility Score: inf
ROOT
ATOM      1  C   UNL     1     145.355 141.627 137.136  1.00  0.00     0.138 A 
ATOM      2  C   UNL     1     144.643 140.654 136.417  1.00  0.00     0.100 A 
ATOM      3  C   UNL     1     143.249 140.619 136.503  1.00  0.00     0.197 A 
ATOM      4  O   UNL     1     142.619 139.742 135.853  1.00  0.00    -0.289 OA
ATOM      5  C   UNL     1     142.578 141.563 137.306  1.00  0.00     0.107 A 
ATOM      6  C   UNL     1     141.171 141.597 137.449  1.00  0.00     0.134 A 
ATOM      7  C   UNL     1     140.579 142.574 138.263  1.00  0.00     0.093 A 
ATOM      8  C   UNL     1     141.363 143.513 138.935  1.00  0.00     0.123 A 
ATOM      9  C   UNL     1     142.755 143.484 138.798  1.00  0.00     0.094 A 
ATOM     10  C   UNL     1     143.365 142.519 137.991  1.00  0.00     0.146 A 
ATOM     11  O   UNL     1     144.689 142.511 137.878  1.00  0.00    -0.456 OA
ENDROOT
BRANCH   1  12
ATOM     12  C   UNL     1     146.836 141.713 137.083  1.00  0.00     0.021 A 
ATOM     13  C   UNL     1     147.496 142.592 136.203  1.00  0.00     0.016 A 
ATOM     14  C   UNL     1     148.891 142.644 136.168  1.00  0.00     0.051 A 
ATOM     15  C   UNL     1     149.652 141.818 137.001  1.00  0.00     0.157 A 
ATOM     16  C   UNL     1     147.608 140.875 137.909  1.00  0.00     0.062 A 
ATOM     17  C   UNL     1     149.009 140.928 137.875  1.00  0.00     0.158 A 
BRANCH  15  18
ATOM     18  O   UNL     1     151.044 141.895 136.943  1.00  0.00    -0.504 OA
ATOM     19  H   UNL     1     151.539 142.773 137.047  1.00  0.00     0.293 HD
ENDBRANCH  15  18
BRANCH  17  20
ATOM     20  O   UNL     1     149.761 140.099 138.705  1.00  0.00    -0.504 OA
ATOM     21  H   UNL     1     150.480 139.488 138.336  1.00  0.00     0.293 HD
ENDBRANCH  17  20
ENDBRANCH   1  12
BRANCH   6  22
ATOM     22  O   UNL     1     140.360 140.672 136.789  1.00  0.00    -0.507 OA
ATOM     23  H   UNL     1     140.089 139.798 137.223  1.00  0.00     0.293 HD
ENDBRANCH   6  22
BRANCH   8  24
ATOM     24  O   UNL     1     140.750 144.473 139.737  1.00  0.00    -0.508 OA
ATOM     25  H   UNL     1     139.774 144.718 139.617  1.00  0.00     0.293 HD
ENDBRANCH   8  24
TORSDOF 5
ENDMDL
MODEL 5
REMARK VINA RESULT:    -4.988      9.844     11.167
REMARK INTER + INTRA:          -6.126
REMARK INTER:                  -5.807
REMARK INTRA:                  -0.318
REMARK UNBOUND:                -0.263
REMARK SMILES O=c1cc(-c2ccc(O)c(O)c2)oc2cc(O)cc(O)c12
REMARK SMILES IDX 4 1 3 2 2 3 1 4 21 5 19 6 18 7 16 8 15 9 14 10 13 11 5 12
REMARK SMILES IDX 6 13 7 14 8 15 12 16 10 17 9 18 11 20 20 22 17 24
REMARK H PARENT 9 19 11 21 20 23 17 25
REMARK Flexibility Score: inf
ROOT
ATOM      1  C   UNL     1     147.800 139.609 136.441  1.00  0.00     0.138 A 
ATOM      2  C   UNL     1     149.120 139.134 136.484  1.00  0.00     0.100 A 
ATOM      3  C   UNL     1     150.157 140.014 136.801  1.00  0.00     0.197 A 
ATOM      4  O   UNL     1     151.339 139.577 136.838  1.00  0.00    -0.289 OA
ATOM      5  C   UNL     1     149.864 141.364 137.077  1.00  0.00     0.107 A 
ATOM      6  C   UNL     1     150.853 142.321 137.405  1.00  0.00     0.134 A 
ATOM      7  C   UNL     1     150.477 143.645 137.673  1.00  0.00     0.093 A 
ATOM      8  C   UNL     1     149.137 144.031 137.618  1.00  0.00     0.123 A 
ATOM      9  C   UNL     1     148.154 143.090 137.293  1.00  0.00     0.094 A 
ATOM     10  C   UNL     1     148.507 141.764 137.023  1.00  0.00     0.146 A 
ATOM     11  O   UNL     1     147.555 140.889 136.716  1.00  0.00    -0.456 OA
ENDROOT
BRANCH   1  12
ATOM     12  C   UNL     1     146.658 138.720 136.110  1.00  0.00     0.021 A 
ATOM     13  C   UNL     1     146.849 137.372 135.751  1.00  0.00     0.016 A 
ATOM     14  C   UNL     1     145.757 136.561 135.436  1.00  0.00     0.051 A 
ATOM     15  C   UNL     1     144.459 137.078 135.465  1.00  0.00     0.157 A 
ATOM     16  C   UNL     1     145.351 139.238 136.124  1.00  0.00     0.062 A 
ATOM     17  C   UNL     1     144.252 138.424 135.809  1.00  0.00     0.158 A 
BRANCH  15  18
ATOM     18  O   UNL     1     143.388 136.243 135.146  1.00  0.00    -0.504 OA
ATOM     19  H   UNL     1     143.289 135.318 135.549  1.00  0.00     0.293 HD
ENDBRANCH  15  18
BRANCH  17  20
ATOM     20  O   UNL     1     142.962 138.948 135.836  1.00  0.00    -0.504 OA
ATOM     21  H   UNL     1     142.228 138.583 135.241  1.00  0.00     0.293 HD
ENDBRANCH  17  20
ENDBRANCH   1  12
BRANCH   6  22
ATOM     22  O   UNL     1     152.201 141.965 137.468  1.00  0.00    -0.507 OA
ATOM     23  H   UNL     1     152.498 140.997 137.447  1.00  0.00     0.293 HD
ENDBRANCH   6  22
BRANCH   8  24
ATOM     24  O   UNL     1     148.791 145.353 137.888  1.00  0.00    -0.508 OA
ATOM     25  H   UNL     1     149.305 145.908 138.561  1.00  0.00     0.293 HD
ENDBRANCH   8  24
TORSDOF 5
ENDMDL
MODEL 6
REMARK VINA RESULT:    -4.963      1.770      2.715
REMARK INTER + INTRA:          -6.097
REMARK INTER:                  -5.833
REMARK INTRA:                  -0.265
REMARK UNBOUND:                -0.263
REMARK SMILES O=c1cc(-c2ccc(O)c(O)c2)oc2cc(O)cc(O)c12
REMARK SMILES IDX 4 1 3 2 2 3 1 4 21 5 19 6 18 7 16 8 15 9 14 10 13 11 5 12
REMARK SMILES IDX 6 13 7 14 8 15 12 16 10 17 9 18 11 20 20 22 17 24
REMARK H PARENT 9 19 11 21 20 23 17 25
REMARK Flexibility Score: inf
ROOT
ATOM      1  C   UNL     1     145.105 151.407 136.882  1.00  0.00     0.138 A 
ATOM      2  C   UNL     1     145.736 152.609 136.522  1.00  0.00     0.100 A 
ATOM      3  C   UNL     1     147.130 152.682 136.528  1.00  0.00     0.197 A 
ATOM      4  O   UNL     1     147.687 153.765 136.203  1.00  0.00    -0.289 OA
ATOM      5  C   UNL     1     147.884 151.547 136.890  1.00  0.00     0.107 A 
ATOM      6  C   UNL     1     149.299 151.536 136.923  1.00  0.00     0.134 A 
ATOM      7  C   UNL     1     149.976 150.363 137.288  1.00  0.00     0.093 A 
ATOM      8  C   UNL     1     149.269 149.206 137.621  1.00  0.00     0.123 A 
ATOM      9  C   UNL     1     147.870 149.211 137.591  1.00  0.00     0.094 A 
ATOM     10  C   UNL     1     147.176 150.370 137.230  1.00  0.00     0.146 A 
ATOM     11  O   UNL     1     145.847 150.351 137.210  1.00  0.00    -0.456 OA
ENDROOT
BRANCH   1  12
ATOM     12  C   UNL     1     143.627 151.271 136.894  1.00  0.00     0.021 A 
ATOM     13  C   UNL     1     142.913 151.056 138.088  1.00  0.00     0.016 A 
ATOM     14  C   UNL     1     141.523 150.923 138.068  1.00  0.00     0.051 A 
ATOM     15  C   UNL     1     140.822 150.993 136.861  1.00  0.00     0.157 A 
ATOM     16  C   UNL     1     142.917 151.327 135.681  1.00  0.00     0.062 A 
ATOM     17  C   UNL     1     141.520 151.195 135.660  1.00  0.00     0.158 A 
BRANCH  15  18
ATOM     18  O   UNL     1     139.434 150.857 136.875  1.00  0.00    -0.504 OA
ATOM     19  H   UNL     1     138.977 149.972 136.684  1.00  0.00     0.293 HD
ENDBRANCH  15  18
BRANCH  17  20
ATOM     20  O   UNL     1     140.828 151.262 134.453  1.00  0.00    -0.504 OA
ATOM     21  H   UNL     1     141.165 150.792 133.621  1.00  0.00     0.293 HD
ENDBRANCH  17  20
ENDBRANCH   1  12
BRANCH   6  22
ATOM     22  O   UNL     1     150.033 152.676 136.595  1.00  0.00    -0.507 OA
ATOM     23  H   UNL     1     150.878 152.624 136.039  1.00  0.00     0.293 HD
ENDBRANCH   6  22
BRANCH   8  24
ATOM     24  O   UNL     1     149.966 148.055 137.981  1.00  0.00    -0.508 OA
ATOM     25  H   UNL     1     150.107 147.803 138.952  1.00  0.00     0.293 HD
ENDBRANCH   8  24
TORSDOF 5
ENDMDL
MODEL 7
REMARK VINA RESULT:    -4.953      4.963      7.351
REMARK INTER + INTRA:          -6.085
REMARK INTER:                  -5.823
REMARK INTRA:                  -0.262
REMARK UNBOUND:                -0.263
REMARK SMILES O=c1cc(-c2ccc(O)c(O)c2)oc2cc(O)cc(O)c12
REMARK SMILES IDX 4 1 3 2 2 3 1 4 21 5 19 6 18 7 16 8 15 9 14 10 13 11 5 12
REMARK SMILES IDX 6 13 7 14 8 15 12 16 10 17 9 18 11 20 20 22 17 24
REMARK H PARENT 9 19 11 21 20 23 17 25
REMARK Flexibility Score: inf
ROOT
ATOM      1  C   UNL     1     151.678 147.326 136.844  1.00  0.00     0.138 A 
ATOM      2  C   UNL     1     152.886 146.736 136.437  1.00  0.00     0.100 A 
ATOM      3  C   UNL     1     152.990 145.344 136.393  1.00  0.00     0.197 A 
ATOM      4  O   UNL     1     154.078 144.824 136.025  1.00  0.00    -0.289 OA
ATOM      5  C   UNL     1     151.881 144.552 136.753  1.00  0.00     0.107 A 
ATOM      6  C   UNL     1     151.902 143.137 136.737  1.00  0.00     0.134 A 
ATOM      7  C   UNL     1     150.753 142.421 137.104  1.00  0.00     0.093 A 
ATOM      8  C   UNL     1     149.588 143.090 137.486  1.00  0.00     0.123 A 
ATOM      9  C   UNL     1     149.561 144.488 137.504  1.00  0.00     0.094 A 
ATOM     10  C   UNL     1     150.696 145.221 137.142  1.00  0.00     0.146 A 
ATOM     11  O   UNL     1     150.646 146.549 137.169  1.00  0.00    -0.456 OA
ENDROOT
BRANCH   1  12
ATOM     12  C   UNL     1     151.510 148.799 136.910  1.00  0.00     0.021 A 
ATOM     13  C   UNL     1     151.263 149.462 138.128  1.00  0.00     0.016 A 
ATOM     14  C   UNL     1     151.100 150.849 138.158  1.00  0.00     0.051 A 
ATOM     15  C   UNL     1     151.170 151.597 136.980  1.00  0.00     0.157 A 
ATOM     16  C   UNL     1     151.567 149.556 135.726  1.00  0.00     0.062 A 
ATOM     17  C   UNL     1     151.404 150.949 135.756  1.00  0.00     0.158 A 
BRANCH  15  18
ATOM     18  O   UNL     1     151.004 152.980 137.044  1.00  0.00    -0.504 OA
ATOM     19  H   UNL     1     150.117 153.405 137.289  1.00  0.00     0.293 HD
ENDBRANCH  15  18
BRANCH  17  20
ATOM     20  O   UNL     1     151.471 151.688 134.577  1.00  0.00    -0.504 OA
ATOM     21  H   UNL     1     152.205 152.369 134.418  1.00  0.00     0.293 HD
ENDBRANCH  17  20
ENDBRANCH   1  12
BRANCH   6  22
ATOM     22  O   UNL     1     153.051 142.441 136.359  1.00  0.00    -0.507 OA
ATOM     23  H   UNL     1     153.828 142.903 135.903  1.00  0.00     0.293 HD
ENDBRANCH   6  22
BRANCH   8  24
ATOM     24  O   UNL     1     148.461 142.354 137.845  1.00  0.00    -0.508 OA
ATOM     25  H   UNL     1     148.023 141.707 137.201  1.00  0.00     0.293 HD
ENDBRANCH   8  24
TORSDOF 5
ENDMDL
MODEL 8
REMARK VINA RESULT:    -4.922      8.784     12.060
REMARK INTER + INTRA:          -6.049
REMARK INTER:                  -5.784
REMARK INTRA:                  -0.265
REMARK UNBOUND:                -0.263
REMARK SMILES O=c1cc(-c2ccc(O)c(O)c2)oc2cc(O)cc(O)c12
REMARK SMILES IDX 4 1 3 2 2 3 1 4 21 5 19 6 18 7 16 8 15 9 14 10 13 11 5 12
REMARK SMILES IDX 6 13 7 14 8 15 12 16 10 17 9 18 11 20 20 22 17 24
REMARK H PARENT 9 19 11 21 20 23 17 25
REMARK Flexibility Score: inf
ROOT
ATOM      1  C   UNL     1     147.270 140.906 136.916  1.00  0.00     0.138 A 
ATOM      2  C   UNL     1     146.674 139.699 136.517  1.00  0.00     0.100 A 
ATOM      3  C   UNL     1     145.282 139.606 136.459  1.00  0.00     0.197 A 
ATOM      4  O   UNL     1     144.756 138.519 136.099  1.00  0.00    -0.289 OA
ATOM      5  C   UNL     1     144.496 140.726 136.797  1.00  0.00     0.107 A 
ATOM      6  C   UNL     1     143.081 140.717 136.766  1.00  0.00     0.134 A 
ATOM      7  C   UNL     1     142.371 141.877 137.112  1.00  0.00     0.093 A 
ATOM      8  C   UNL     1     143.046 143.040 137.488  1.00  0.00     0.123 A 
ATOM      9  C   UNL     1     144.444 143.055 137.521  1.00  0.00     0.094 A 
ATOM     10  C   UNL     1     145.171 141.910 137.180  1.00  0.00     0.146 A 
ATOM     11  O   UNL     1     146.499 141.948 137.220  1.00  0.00    -0.456 OA
ENDROOT
BRANCH   1  12
ATOM     12  C   UNL     1     148.744 141.062 136.996  1.00  0.00     0.021 A 
ATOM     13  C   UNL     1     149.400 141.284 138.223  1.00  0.00     0.016 A 
ATOM     14  C   UNL     1     150.787 141.436 138.267  1.00  0.00     0.051 A 
ATOM     15  C   UNL     1     151.544 141.380 137.093  1.00  0.00     0.157 A 
ATOM     16  C   UNL     1     149.510 141.021 135.818  1.00  0.00     0.062 A 
ATOM     17  C   UNL     1     150.904 141.173 135.861  1.00  0.00     0.158 A 
BRANCH  15  18
ATOM     18  O   UNL     1     152.928 141.536 137.171  1.00  0.00    -0.504 OA
ATOM     19  H   UNL     1     153.361 142.196 137.806  1.00  0.00     0.293 HD
ENDBRANCH  15  18
BRANCH  17  20
ATOM     20  O   UNL     1     151.651 141.120 134.686  1.00  0.00    -0.504 OA
ATOM     21  H   UNL     1     152.517 140.596 134.630  1.00  0.00     0.293 HD
ENDBRANCH  17  20
ENDBRANCH   1  12
BRANCH   6  22
ATOM     22  O   UNL     1     142.379 139.570 136.395  1.00  0.00    -0.507 OA
ATOM     23  H   UNL     1     141.811 139.541 135.557  1.00  0.00     0.293 HD
ENDBRANCH   6  22
BRANCH   8  24
ATOM     24  O   UNL     1     142.317 144.178 137.826  1.00  0.00    -0.508 OA
ATOM     25  H   UNL     1     142.768 145.075 137.962  1.00  0.00     0.293 HD
ENDBRANCH   8  24
TORSDOF 5
ENDMDL
MODEL 9
REMARK VINA RESULT:    -4.894      6.092      9.788
REMARK INTER + INTRA:          -6.015
REMARK INTER:                  -5.742
REMARK INTRA:                  -0.273
REMARK UNBOUND:                -0.263
REMARK SMILES O=c1cc(-c2ccc(O)c(O)c2)oc2cc(O)cc(O)c12
REMARK SMILES IDX 4 1 3 2 2 3 1 4 21 5 19 6 18 7 16 8 15 9 14 10 13 11 5 12
REMARK SMILES IDX 6 13 7 14 8 15 12 16 10 17 9 18 11 20 20 22 17 24
REMARK H PARENT 9 19 11 21 20 23 17 25
REMARK Flexibility Score: inf
ROOT
ATOM      1  C   UNL     1     140.924 145.498 136.834  1.00  0.00     0.138 A 
ATOM      2  C   UNL     1     139.738 146.102 136.386  1.00  0.00     0.100 A 
ATOM      3  C   UNL     1     139.640 147.494 136.366  1.00  0.00     0.197 A 
ATOM      4  O   UNL     1     138.571 148.026 135.961  1.00  0.00    -0.289 OA
ATOM      5  C   UNL     1     140.734 148.274 136.793  1.00  0.00     0.107 A 
ATOM      6  C   UNL     1     140.718 149.689 136.806  1.00  0.00     0.134 A 
ATOM      7  C   UNL     1     141.851 150.393 137.239  1.00  0.00     0.093 A 
ATOM      8  C   UNL     1     142.995 149.712 137.659  1.00  0.00     0.123 A 
ATOM      9  C   UNL     1     143.017 148.313 137.649  1.00  0.00     0.094 A 
ATOM     10  C   UNL     1     141.898 147.593 137.221  1.00  0.00     0.146 A 
ATOM     11  O   UNL     1     141.943 146.265 137.221  1.00  0.00    -0.456 OA
ENDROOT
BRANCH   1  12
ATOM     12  C   UNL     1     141.085 144.023 136.877  1.00  0.00     0.021 A 
ATOM     13  C   UNL     1     141.604 143.368 138.010  1.00  0.00     0.016 A 
ATOM     14  C   UNL     1     141.753 141.979 138.018  1.00  0.00     0.051 A 
ATOM     15  C   UNL     1     141.398 141.222 136.899  1.00  0.00     0.157 A 
ATOM     16  C   UNL     1     140.742 143.257 135.749  1.00  0.00     0.062 A 
ATOM     17  C   UNL     1     140.891 141.862 135.756  1.00  0.00     0.158 A 
BRANCH  15  18
ATOM     18  O   UNL     1     141.558 139.837 136.938  1.00  0.00    -0.504 OA
ATOM     19  H   UNL     1     141.114 139.224 136.265  1.00  0.00     0.293 HD
ENDBRANCH  15  18
BRANCH  17  20
ATOM     20  O   UNL     1     140.538 141.113 134.635  1.00  0.00    -0.504 OA
ATOM     21  H   UNL     1     139.666 141.271 134.144  1.00  0.00     0.293 HD
ENDBRANCH  17  20
ENDBRANCH   1  12
BRANCH   6  22
ATOM     22  O   UNL     1     139.589 150.397 136.392  1.00  0.00    -0.507 OA
ATOM     23  H   UNL     1     138.738 150.412 136.941  1.00  0.00     0.293 HD
ENDBRANCH   6  22
BRANCH   8  24
ATOM     24  O   UNL     1     144.107 150.435 138.085  1.00  0.00    -0.508 OA
ATOM     25  H   UNL     1     144.766 150.832 137.425  1.00  0.00     0.293 HD
ENDBRANCH   8  24
TORSDOF 5
ENDMDL
