MODEL 1
REMARK VINA RESULT:    -7.452      0.000      0.000
REMARK INTER + INTRA:         -12.696
REMARK INTER:                 -10.719
REMARK INTRA:                  -1.977
REMARK UNBOUND:                -1.977
REMARK SMILES C[C@H]1O[C@H](OC[C@@H]2O[C@H](Oc3c(-c4ccc(O)c(O)c4)oc4cc(O)cc(O)c4c3=O)[C@H](O)[C@@H](O)[C@@H]2O)[C@@H](O)[C@H](O)[C@@H]1O
REMARK SMILES IDX 7 1 36 2 34 3 32 4 9 5 8 6 6 7 5 8 4 9 1 10 2 11 42 12 3 13
REMARK SMILES IDX 40 14 38 15 43 16 41 18 39 20 37 22 35 24 10 26 11 27 12 28
REMARK SMILES IDX 30 29 21 30 29 31 31 32 22 33 27 34 23 35 26 36 24 37 13 38
REMARK SMILES IDX 20 39 14 40 18 41 15 42 16 43 19 44 17 46 28 48 25 50 33 52
REMARK H PARENT 43 17 41 19 39 21 37 23 35 25 19 45 17 47 28 49 25 51 33 53
REMARK Flexibility Score: inf
ROOT
ATOM      1  C   UNL     1       2.129  -2.863  20.389  1.00  0.00     0.180 C 
ATOM      2  C   UNL     1       2.380  -4.223  19.633  1.00  0.00     0.177 C 
ATOM      3  C   UNL     1       1.769  -3.862  18.213  1.00  0.00     0.180 C 
ATOM      4  C   UNL     1       0.563  -2.788  17.937  1.00  0.00     0.214 C 
ATOM      5  C   UNL     1       0.088  -2.017  19.343  1.00  0.00     0.339 C 
ATOM      6  O   UNL     1       0.739  -2.919  20.220  1.00  0.00    -0.332 OA
ENDROOT
BRANCH   1   7
ATOM      7  C   UNL     1       2.263  -2.389  21.841  1.00  0.00     0.198 C 
BRANCH   7   8
ATOM      8  O   UNL     1       3.070  -3.496  22.498  1.00  0.00    -0.347 OA
BRANCH   8   9
ATOM      9  C   UNL     1       2.537  -4.276  23.675  1.00  0.00     0.281 C 
ATOM     10  C   UNL     1       3.415  -4.870  28.115  1.00  0.00     0.041 C 
ATOM     11  C   UNL     1       2.916  -3.894  27.020  1.00  0.00     0.150 C 
ATOM     12  C   UNL     1       0.983  -3.548  27.314  1.00  0.00     0.174 C 
ATOM     13  O   UNL     1       3.546  -4.207  25.274  1.00  0.00    -0.344 OA
ATOM     14  C   UNL     1      -0.257  -3.446  25.711  1.00  0.00     0.179 C 
ATOM     15  C   UNL     1       0.401  -4.032  23.851  1.00  0.00     0.202 C 
BRANCH  12  16
ATOM     16  O   UNL     1       0.928  -2.652  28.474  1.00  0.00    -0.388 OA
ATOM     17  H   UNL     1       0.317  -1.832  28.270  1.00  0.00     0.211 HD
ENDBRANCH  12  16
BRANCH  14  18
ATOM     18  O   UNL     1      -0.771  -2.115  25.634  1.00  0.00    -0.387 OA
ATOM     19  H   UNL     1      -0.016  -1.506  25.878  1.00  0.00     0.211 HD
ENDBRANCH  14  18
BRANCH  15  20
ATOM     20  O   UNL     1      -0.864  -4.335  23.107  1.00  0.00    -0.385 OA
ATOM     21  H   UNL     1      -0.824  -4.241  22.081  1.00  0.00     0.211 HD
ENDBRANCH  15  20
ENDBRANCH   8   9
ENDBRANCH   7   8
ENDBRANCH   1   7
BRANCH   2  22
ATOM     22  O   UNL     1       1.705  -5.328  20.331  1.00  0.00    -0.387 OA
ATOM     23  H   UNL     1       2.091  -6.271  20.124  1.00  0.00     0.211 HD
ENDBRANCH   2  22
BRANCH   3  24
ATOM     24  O   UNL     1       2.804  -3.596  17.257  1.00  0.00    -0.387 OA
ATOM     25  H   UNL     1       2.517  -2.691  16.918  1.00  0.00     0.211 HD
ENDBRANCH   3  24
BRANCH   5  26
ATOM     26  O   UNL     1      -1.501  -0.924  20.198  1.00  0.00    -0.454 OA
BRANCH  26  27
ATOM     27  C   UNL     1      -2.584  -0.448  21.171  1.00  0.00     0.214 A 
ATOM     28  C   UNL     1      -3.432   0.582  20.753  1.00  0.00     0.180 A 
ATOM     29  C   UNL     1      -2.854  -0.887  22.582  1.00  0.00     0.239 A 
ATOM     30  O   UNL     1      -4.091   1.372  21.658  1.00  0.00    -0.452 OA
ATOM     31  C   UNL     1      -3.609  -0.067  23.479  1.00  0.00     0.111 A 
ATOM     32  O   UNL     1      -2.472  -2.018  23.019  1.00  0.00    -0.285 OA
ATOM     33  C   UNL     1      -4.251   1.081  22.917  1.00  0.00     0.146 A 
ATOM     34  C   UNL     1      -3.994  -0.352  24.858  1.00  0.00     0.134 A 
ATOM     35  C   UNL     1      -5.222   1.809  23.563  1.00  0.00     0.094 A 
ATOM     36  C   UNL     1      -5.124   0.375  25.453  1.00  0.00     0.093 A 
ATOM     37  C   UNL     1      -5.745   1.352  24.766  1.00  0.00     0.123 A 
BRANCH  28  38
ATOM     38  C   UNL     1      -4.229   0.547  19.603  1.00  0.00     0.025 A 
ATOM     39  C   UNL     1      -5.271   1.432  19.563  1.00  0.00     0.062 A 
ATOM     40  C   UNL     1      -3.583   0.240  18.449  1.00  0.00     0.016 A 
ATOM     41  C   UNL     1      -6.126   1.467  18.437  1.00  0.00     0.158 A 
ATOM     42  C   UNL     1      -4.352   0.192  17.264  1.00  0.00     0.051 A 
ATOM     43  C   UNL     1      -5.660   0.767  17.307  1.00  0.00     0.157 A 
BRANCH  41  44
ATOM     44  O   UNL     1      -7.363   2.074  18.532  1.00  0.00    -0.504 OA
ATOM     45  H   UNL     1      -7.893   2.052  19.402  1.00  0.00     0.293 HD
ENDBRANCH  41  44
BRANCH  43  46
ATOM     46  O   UNL     1      -6.408   0.666  16.104  1.00  0.00    -0.504 OA
ATOM     47  H   UNL     1      -6.031   0.866  15.169  1.00  0.00     0.293 HD
ENDBRANCH  43  46
ENDBRANCH  28  38
BRANCH  34  48
ATOM     48  O   UNL     1      -3.293  -1.221  25.697  1.00  0.00    -0.507 OA
ATOM     49  H   UNL     1      -2.276  -1.293  25.782  1.00  0.00     0.293 HD
ENDBRANCH  34  48
BRANCH  37  50
ATOM     50  O   UNL     1      -6.860   2.000  25.263  1.00  0.00    -0.508 OA
ATOM     51  H   UNL     1      -7.629   1.300  25.551  1.00  0.00     0.293 HD
ENDBRANCH  37  50
ENDBRANCH  26  27
ENDBRANCH   5  26
BRANCH   4  52
ATOM     52  O   UNL     1      -0.412  -3.639  17.374  1.00  0.00    -0.384 OA
ATOM     53  H   UNL     1      -1.037  -3.017  16.911  1.00  0.00     0.211 HD
ENDBRANCH   4  52
TORSDOF 16
ENDMDL
MODEL 2
REMARK VINA RESULT:    -6.940      1.950      7.568
REMARK INTER + INTRA:         -11.960
REMARK INTER:                  -9.764
REMARK INTRA:                  -2.196
REMARK UNBOUND:                -1.977
REMARK SMILES C[C@H]1O[C@H](OC[C@@H]2O[C@H](Oc3c(-c4ccc(O)c(O)c4)oc4cc(O)cc(O)c4c3=O)[C@H](O)[C@@H](O)[C@@H]2O)[C@@H](O)[C@H](O)[C@@H]1O
REMARK SMILES IDX 7 1 36 2 34 3 32 4 9 5 8 6 6 7 5 8 4 9 1 10 2 11 42 12 3 13
REMARK SMILES IDX 40 14 38 15 43 16 41 18 39 20 37 22 35 24 10 26 11 27 12 28
REMARK SMILES IDX 30 29 21 30 29 31 31 32 22 33 27 34 23 35 26 36 24 37 13 38
REMARK SMILES IDX 20 39 14 40 18 41 15 42 16 43 19 44 17 46 28 48 25 50 33 52
REMARK H PARENT 43 17 41 19 39 21 37 23 35 25 19 45 17 47 28 49 25 51 33 53
REMARK Flexibility Score: inf
ROOT
ATOM      1  C   UNL     1      -2.734  -0.995  18.771  1.00  0.00     0.180 C 
ATOM      2  C   UNL     1      -4.065  -0.331  18.248  1.00  0.00     0.177 C 
ATOM      3  C   UNL     1      -4.139   0.926  19.215  1.00  0.00     0.180 C 
ATOM      4  C   UNL     1      -3.529   1.001  20.734  1.00  0.00     0.214 C 
ATOM      5  C   UNL     1      -2.712  -0.401  21.141  1.00  0.00     0.339 C 
ATOM      6  O   UNL     1      -3.224  -1.174  20.071  1.00  0.00    -0.332 OA
ENDROOT
BRANCH   1   7
ATOM      7  C   UNL     1      -2.010  -2.321  18.510  1.00  0.00     0.198 C 
BRANCH   7   8
ATOM      8  O   UNL     1      -0.794  -1.904  17.701  1.00  0.00    -0.347 OA
BRANCH   8   9
ATOM      9  C   UNL     1       0.608  -2.046  18.244  1.00  0.00     0.281 C 
ATOM     10  C   UNL     1       2.737  -2.463  22.260  1.00  0.00     0.041 C 
ATOM     11  C   UNL     1       1.796  -3.130  21.226  1.00  0.00     0.150 C 
ATOM     12  C   UNL     1       2.742  -4.676  20.414  1.00  0.00     0.174 C 
ATOM     13  O   UNL     1       0.809  -1.966  20.123  1.00  0.00    -0.344 OA
ATOM     14  C   UNL     1       2.546  -5.021  18.424  1.00  0.00     0.179 C 
ATOM     15  C   UNL     1       1.674  -3.608  17.207  1.00  0.00     0.202 C 
BRANCH  12  16
ATOM     16  O   UNL     1       2.732  -5.716  21.450  1.00  0.00    -0.388 OA
ATOM     17  H   UNL     1       1.896  -5.608  22.063  1.00  0.00     0.211 HD
ENDBRANCH  12  16
BRANCH  14  18
ATOM     18  O   UNL     1       1.873  -6.271  18.256  1.00  0.00    -0.387 OA
ATOM     19  H   UNL     1       2.587  -6.968  18.181  1.00  0.00     0.211 HD
ENDBRANCH  14  18
BRANCH  15  20
ATOM     20  O   UNL     1       2.193  -3.948  15.843  1.00  0.00    -0.385 OA
ATOM     21  H   UNL     1       1.517  -3.878  15.068  1.00  0.00     0.211 HD
ENDBRANCH  15  20
ENDBRANCH   8   9
ENDBRANCH   7   8
ENDBRANCH   1   7
BRANCH   2  22
ATOM     22  O   UNL     1      -5.189  -1.271  18.373  1.00  0.00    -0.387 OA
ATOM     23  H   UNL     1      -5.062  -2.169  17.866  1.00  0.00     0.211 HD
ENDBRANCH   2  22
BRANCH   3  24
ATOM     24  O   UNL     1      -3.741   2.125  18.536  1.00  0.00    -0.387 OA
ATOM     25  H   UNL     1      -3.147   2.546  19.234  1.00  0.00     0.211 HD
ENDBRANCH   3  24
BRANCH   5  26
ATOM     26  O   UNL     1      -2.011  -1.509  22.793  1.00  0.00    -0.454 OA
BRANCH  26  27
ATOM     27  C   UNL     1      -1.096  -2.087  23.877  1.00  0.00     0.214 A 
ATOM     28  C   UNL     1      -0.811  -1.287  24.989  1.00  0.00     0.180 A 
ATOM     29  C   UNL     1      -0.377  -3.406  23.911  1.00  0.00     0.239 A 
ATOM     30  O   UNL     1       0.310  -1.498  25.748  1.00  0.00    -0.452 OA
ATOM     31  C   UNL     1       0.748  -3.613  24.771  1.00  0.00     0.111 A 
ATOM     32  O   UNL     1      -0.766  -4.402  23.223  1.00  0.00    -0.285 OA
ATOM     33  C   UNL     1       1.027  -2.584  25.725  1.00  0.00     0.146 A 
ATOM     34  C   UNL     1       1.532  -4.830  24.957  1.00  0.00     0.134 A 
ATOM     35  C   UNL     1       1.881  -2.740  26.791  1.00  0.00     0.094 A 
ATOM     36  C   UNL     1       2.331  -4.990  26.180  1.00  0.00     0.093 A 
ATOM     37  C   UNL     1       2.406  -3.993  27.081  1.00  0.00     0.123 A 
BRANCH  28  38
ATOM     38  C   UNL     1      -1.771  -0.733  25.843  1.00  0.00     0.025 A 
ATOM     39  C   UNL     1      -2.824  -1.541  26.173  1.00  0.00     0.062 A 
ATOM     40  C   UNL     1      -1.300   0.142  26.769  1.00  0.00     0.016 A 
ATOM     41  C   UNL     1      -3.839  -1.064  27.034  1.00  0.00     0.158 A 
ATOM     42  C   UNL     1      -2.237   0.725  27.651  1.00  0.00     0.051 A 
ATOM     43  C   UNL     1      -3.534   0.129  27.718  1.00  0.00     0.157 A 
BRANCH  41  44
ATOM     44  O   UNL     1      -5.059  -1.709  27.083  1.00  0.00    -0.504 OA
ATOM     45  H   UNL     1      -5.128  -2.679  27.386  1.00  0.00     0.293 HD
ENDBRANCH  41  44
BRANCH  43  46
ATOM     46  O   UNL     1      -4.452   0.769  28.592  1.00  0.00    -0.504 OA
ATOM     47  H   UNL     1      -4.805   0.357  29.464  1.00  0.00     0.293 HD
ENDBRANCH  43  46
ENDBRANCH  28  38
BRANCH  34  48
ATOM     48  O   UNL     1       1.649  -5.834  23.993  1.00  0.00    -0.507 OA
ATOM     49  H   UNL     1       2.473  -6.415  23.820  1.00  0.00     0.293 HD
ENDBRANCH  34  48
BRANCH  37  50
ATOM     50  O   UNL     1       3.082  -4.138  28.278  1.00  0.00    -0.508 OA
ATOM     51  H   UNL     1       2.740  -5.004  28.823  1.00  0.00     0.293 HD
ENDBRANCH  37  50
ENDBRANCH  26  27
ENDBRANCH   5  26
BRANCH   4  52
ATOM     52  O   UNL     1      -4.710   1.229  21.472  1.00  0.00    -0.384 OA
ATOM     53  H   UNL     1      -4.546   2.099  21.928  1.00  0.00     0.211 HD
ENDBRANCH   4  52
TORSDOF 16
ENDMDL
MODEL 3
REMARK VINA RESULT:    -6.767      1.871      6.420
REMARK INTER + INTRA:         -11.712
REMARK INTER:                  -9.549
REMARK INTRA:                  -2.163
REMARK UNBOUND:                -1.977
REMARK SMILES C[C@H]1O[C@H](OC[C@@H]2O[C@H](Oc3c(-c4ccc(O)c(O)c4)oc4cc(O)cc(O)c4c3=O)[C@H](O)[C@@H](O)[C@@H]2O)[C@@H](O)[C@H](O)[C@@H]1O
REMARK SMILES IDX 7 1 36 2 34 3 32 4 9 5 8 6 6 7 5 8 4 9 1 10 2 11 42 12 3 13
REMARK SMILES IDX 40 14 38 15 43 16 41 18 39 20 37 22 35 24 10 26 11 27 12 28
REMARK SMILES IDX 30 29 21 30 29 31 31 32 22 33 27 34 23 35 26 36 24 37 13 38
REMARK SMILES IDX 20 39 14 40 18 41 15 42 16 43 19 44 17 46 28 48 25 50 33 52
REMARK H PARENT 43 17 41 19 39 21 37 23 35 25 19 45 17 47 28 49 25 51 33 53
REMARK Flexibility Score: inf
ROOT
ATOM      1  C   UNL     1       0.311  -1.811  25.861  1.00  0.00     0.180 C 
ATOM      2  C   UNL     1       0.772  -3.194  26.460  1.00  0.00     0.177 C 
ATOM      3  C   UNL     1       1.300  -3.900  25.139  1.00  0.00     0.180 C 
ATOM      4  C   UNL     1       0.756  -3.614  23.621  1.00  0.00     0.214 C 
ATOM      5  C   UNL     1      -0.388  -2.394  23.594  1.00  0.00     0.339 C 
ATOM      6  O   UNL     1      -0.620  -2.392  24.991  1.00  0.00    -0.332 OA
ENDROOT
BRANCH   1   7
ATOM      7  C   UNL     1      -0.459  -0.600  26.401  1.00  0.00     0.198 C 
BRANCH   7   8
ATOM      8  O   UNL     1      -1.082  -1.122  27.683  1.00  0.00    -0.347 OA
BRANCH   8   9
ATOM      9  C   UNL     1      -2.578  -1.241  27.849  1.00  0.00     0.281 C 
ATOM     10  C   UNL     1      -6.044   1.066  29.719  1.00  0.00     0.041 C 
ATOM     11  C   UNL     1      -4.973   1.035  28.601  1.00  0.00     0.150 C 
ATOM     12  C   UNL     1      -5.888   0.816  26.852  1.00  0.00     0.174 C 
ATOM     13  O   UNL     1      -3.418   0.037  28.963  1.00  0.00    -0.344 OA
ATOM     14  C   UNL     1      -5.073  -0.410  25.456  1.00  0.00     0.179 C 
ATOM     15  C   UNL     1      -3.525  -1.670  25.959  1.00  0.00     0.202 C 
BRANCH  12  16
ATOM     16  O   UNL     1      -6.488   2.125  26.569  1.00  0.00    -0.388 OA
ATOM     17  H   UNL     1      -7.394   2.225  27.076  1.00  0.00     0.211 HD
ENDBRANCH  12  16
BRANCH  14  18
ATOM     18  O   UNL     1      -4.688   0.389  24.336  1.00  0.00    -0.387 OA
ATOM     19  H   UNL     1      -3.691   0.327  24.274  1.00  0.00     0.211 HD
ENDBRANCH  14  18
BRANCH  15  20
ATOM     20  O   UNL     1      -3.580  -2.736  24.907  1.00  0.00    -0.385 OA
ATOM     21  H   UNL     1      -4.513  -2.949  24.522  1.00  0.00     0.211 HD
ENDBRANCH  15  20
ENDBRANCH   8   9
ENDBRANCH   7   8
ENDBRANCH   1   7
BRANCH   2  22
ATOM     22  O   UNL     1      -0.359  -3.873  27.110  1.00  0.00    -0.387 OA
ATOM     23  H   UNL     1      -1.139  -3.245  27.390  1.00  0.00     0.211 HD
ENDBRANCH   2  22
BRANCH   3  24
ATOM     24  O   UNL     1       2.733  -3.894  25.088  1.00  0.00    -0.387 OA
ATOM     25  H   UNL     1       2.938  -4.789  25.503  1.00  0.00     0.211 HD
ENDBRANCH   3  24
BRANCH   5  26
ATOM     26  O   UNL     1      -1.949  -1.590  22.425  1.00  0.00    -0.454 OA
BRANCH  26  27
ATOM     27  C   UNL     1      -2.733  -1.001  21.247  1.00  0.00     0.214 A 
ATOM     28  C   UNL     1      -2.010  -0.563  20.133  1.00  0.00     0.180 A 
ATOM     29  C   UNL     1      -4.209  -0.753  21.117  1.00  0.00     0.239 A 
ATOM     30  O   UNL     1      -2.529   0.365  19.269  1.00  0.00    -0.452 OA
ATOM     31  C   UNL     1      -4.720   0.172  20.152  1.00  0.00     0.111 A 
ATOM     32  O   UNL     1      -5.062  -1.386  21.815  1.00  0.00    -0.285 OA
ATOM     33  C   UNL     1      -3.787   0.692  19.200  1.00  0.00     0.146 A 
ATOM     34  C   UNL     1      -6.113   0.503  19.866  1.00  0.00     0.134 A 
ATOM     35  C   UNL     1      -4.153   1.361  18.056  1.00  0.00     0.094 A 
ATOM     36  C   UNL     1      -6.456   1.106  18.571  1.00  0.00     0.093 A 
ATOM     37  C   UNL     1      -5.491   1.427  17.690  1.00  0.00     0.123 A 
BRANCH  28  38
ATOM     38  C   UNL     1      -1.134  -1.357  19.385  1.00  0.00     0.025 A 
ATOM     39  C   UNL     1      -0.164  -2.015  20.089  1.00  0.00     0.062 A 
ATOM     40  C   UNL     1      -1.672  -1.956  18.291  1.00  0.00     0.016 A 
ATOM     41  C   UNL     1       0.762  -2.843  19.413  1.00  0.00     0.158 A 
ATOM     42  C   UNL     1      -0.821  -2.766  17.506  1.00  0.00     0.051 A 
ATOM     43  C   UNL     1       0.432  -3.148  18.078  1.00  0.00     0.157 A 
BRANCH  41  44
ATOM     44  O   UNL     1       1.938  -3.210  20.036  1.00  0.00    -0.504 OA
ATOM     45  H   UNL     1       1.928  -3.774  20.885  1.00  0.00     0.293 HD
ENDBRANCH  41  44
BRANCH  43  46
ATOM     46  O   UNL     1       1.268  -3.934  17.241  1.00  0.00    -0.504 OA
ATOM     47  H   UNL     1       1.192  -4.953  17.140  1.00  0.00     0.293 HD
ENDBRANCH  43  46
ENDBRANCH  28  38
BRANCH  34  48
ATOM     48  O   UNL     1      -7.150   0.366  20.792  1.00  0.00    -0.507 OA
ATOM     49  H   UNL     1      -7.187  -0.300  21.567  1.00  0.00     0.293 HD
ENDBRANCH  34  48
BRANCH  37  50
ATOM     50  O   UNL     1      -5.783   1.922  16.432  1.00  0.00    -0.508 OA
ATOM     51  H   UNL     1      -5.571   2.977  16.363  1.00  0.00     0.293 HD
ENDBRANCH  37  50
ENDBRANCH  26  27
ENDBRANCH   5  26
BRANCH   4  52
ATOM     52  O   UNL     1       0.263  -4.892  23.282  1.00  0.00    -0.384 OA
ATOM     53  H   UNL     1      -0.435  -4.708  22.596  1.00  0.00     0.211 HD
ENDBRANCH   4  52
TORSDOF 16
ENDMDL
MODEL 4
REMARK VINA RESULT:    -6.726      1.838      7.911
REMARK INTER + INTRA:         -11.652
REMARK INTER:                  -9.900
REMARK INTRA:                  -1.751
REMARK UNBOUND:                -1.977
REMARK SMILES C[C@H]1O[C@H](OC[C@@H]2O[C@H](Oc3c(-c4ccc(O)c(O)c4)oc4cc(O)cc(O)c4c3=O)[C@H](O)[C@@H](O)[C@@H]2O)[C@@H](O)[C@H](O)[C@@H]1O
REMARK SMILES IDX 7 1 36 2 34 3 32 4 9 5 8 6 6 7 5 8 4 9 1 10 2 11 42 12 3 13
REMARK SMILES IDX 40 14 38 15 43 16 41 18 39 20 37 22 35 24 10 26 11 27 12 28
REMARK SMILES IDX 30 29 21 30 29 31 31 32 22 33 27 34 23 35 26 36 24 37 13 38
REMARK SMILES IDX 20 39 14 40 18 41 15 42 16 43 19 44 17 46 28 48 25 50 33 52
REMARK H PARENT 43 17 41 19 39 21 37 23 35 25 19 45 17 47 28 49 25 51 33 53
REMARK Flexibility Score: inf
ROOT
ATOM      1  C   UNL     1      -0.523  -1.792  18.870  1.00  0.00     0.180 C 
ATOM      2  C   UNL     1       0.236  -1.521  17.515  1.00  0.00     0.177 C 
ATOM      3  C   UNL     1       1.004  -2.900  17.352  1.00  0.00     0.180 C 
ATOM      4  C   UNL     1       1.490  -3.874  18.577  1.00  0.00     0.214 C 
ATOM      5  C   UNL     1       0.995  -3.290  20.064  1.00  0.00     0.339 C 
ATOM      6  O   UNL     1       0.656  -1.996  19.598  1.00  0.00    -0.332 OA
ENDROOT
BRANCH   1   7
ATOM      7  C   UNL     1      -1.358  -0.942  19.834  1.00  0.00     0.198 C 
BRANCH   7   8
ATOM      8  O   UNL     1      -2.708  -0.853  19.144  1.00  0.00    -0.347 OA
BRANCH   8   9
ATOM      9  C   UNL     1      -3.416   0.466  18.949  1.00  0.00     0.281 C 
ATOM     10  C   UNL     1      -7.163   2.116  16.931  1.00  0.00     0.041 C 
ATOM     11  C   UNL     1      -6.598   1.235  18.073  1.00  0.00     0.150 C 
ATOM     12  C   UNL     1      -6.979   2.125  19.807  1.00  0.00     0.174 C 
ATOM     13  O   UNL     1      -4.901   0.474  17.776  1.00  0.00    -0.344 OA
ATOM     14  C   UNL     1      -5.562   2.110  21.258  1.00  0.00     0.179 C 
ATOM     15  C   UNL     1      -3.644   1.497  20.830  1.00  0.00     0.202 C 
BRANCH  12  16
ATOM     16  O   UNL     1      -8.414   1.916  20.034  1.00  0.00    -0.388 OA
ATOM     17  H   UNL     1      -8.974   2.497  19.375  1.00  0.00     0.211 HD
ENDBRANCH  12  16
BRANCH  14  18
ATOM     18  O   UNL     1      -6.066   1.354  22.361  1.00  0.00    -0.387 OA
ATOM     19  H   UNL     1      -5.690   1.775  23.187  1.00  0.00     0.211 HD
ENDBRANCH  14  18
BRANCH  15  20
ATOM     20  O   UNL     1      -2.821   2.125  21.913  1.00  0.00    -0.385 OA
ATOM     21  H   UNL     1      -1.881   1.728  22.060  1.00  0.00     0.211 HD
ENDBRANCH  15  20
ENDBRANCH   8   9
ENDBRANCH   7   8
ENDBRANCH   1   7
BRANCH   2  22
ATOM     22  O   UNL     1       1.107  -0.343  17.645  1.00  0.00    -0.387 OA
ATOM     23  H   UNL     1       1.669  -0.124  16.798  1.00  0.00     0.211 HD
ENDBRANCH   2  22
BRANCH   3  24
ATOM     24  O   UNL     1       0.370  -3.732  16.371  1.00  0.00    -0.387 OA
ATOM     25  H   UNL     1      -0.293  -4.227  16.947  1.00  0.00     0.211 HD
ENDBRANCH   3  24
BRANCH   5  26
ATOM     26  O   UNL     1       1.395  -3.422  22.131  1.00  0.00    -0.454 OA
BRANCH  26  27
ATOM     27  C   UNL     1       1.206  -3.521  23.648  1.00  0.00     0.214 A 
ATOM     28  C   UNL     1       0.281  -2.662  24.250  1.00  0.00     0.180 A 
ATOM     29  C   UNL     1       1.927  -4.387  24.642  1.00  0.00     0.239 A 
ATOM     30  O   UNL     1       0.367  -2.345  25.580  1.00  0.00    -0.452 OA
ATOM     31  C   UNL     1       1.934  -4.064  26.036  1.00  0.00     0.111 A 
ATOM     32  O   UNL     1       2.513  -5.462  24.297  1.00  0.00    -0.285 OA
ATOM     33  C   UNL     1       1.071  -3.004  26.455  1.00  0.00     0.146 A 
ATOM     34  C   UNL     1       2.546  -4.807  27.132  1.00  0.00     0.134 A 
ATOM     35  C   UNL     1       0.751  -2.752  27.768  1.00  0.00     0.094 A 
ATOM     36  C   UNL     1       2.073  -4.580  28.505  1.00  0.00     0.093 A 
ATOM     37  C   UNL     1       1.145  -3.640  28.761  1.00  0.00     0.123 A 
BRANCH  28  38
ATOM     38  C   UNL     1      -1.073  -2.576  23.907  1.00  0.00     0.025 A 
ATOM     39  C   UNL     1      -1.898  -3.513  24.466  1.00  0.00     0.062 A 
ATOM     40  C   UNL     1      -1.549  -1.322  23.701  1.00  0.00     0.016 A 
ATOM     41  C   UNL     1      -3.282  -3.499  24.178  1.00  0.00     0.158 A 
ATOM     42  C   UNL     1      -2.912  -1.191  23.351  1.00  0.00     0.051 A 
ATOM     43  C   UNL     1      -3.752  -2.331  23.547  1.00  0.00     0.157 A 
BRANCH  41  44
ATOM     44  O   UNL     1      -4.047  -4.621  24.427  1.00  0.00    -0.504 OA
ATOM     45  H   UNL     1      -5.015  -4.538  24.736  1.00  0.00     0.293 HD
ENDBRANCH  41  44
BRANCH  43  46
ATOM     46  O   UNL     1      -5.106  -2.164  23.151  1.00  0.00    -0.504 OA
ATOM     47  H   UNL     1      -5.542  -2.653  22.361  1.00  0.00     0.293 HD
ENDBRANCH  43  46
ENDBRANCH  28  38
BRANCH  34  48
ATOM     48  O   UNL     1       3.634  -5.670  26.976  1.00  0.00    -0.507 OA
ATOM     49  H   UNL     1       3.779  -6.329  26.209  1.00  0.00     0.293 HD
ENDBRANCH  34  48
BRANCH  37  50
ATOM     50  O   UNL     1       0.619  -3.455  30.026  1.00  0.00    -0.508 OA
ATOM     51  H   UNL     1      -0.233  -4.093  30.197  1.00  0.00     0.293 HD
ENDBRANCH  37  50
ENDBRANCH  26  27
ENDBRANCH   5  26
BRANCH   4  52
ATOM     52  O   UNL     1       2.886  -3.862  18.374  1.00  0.00    -0.384 OA
ATOM     53  H   UNL     1       3.012  -4.360  17.521  1.00  0.00     0.211 HD
ENDBRANCH   4  52
TORSDOF 16
ENDMDL
MODEL 5
REMARK VINA RESULT:    -6.683      2.146     10.524
REMARK INTER + INTRA:         -11.591
REMARK INTER:                  -9.772
REMARK INTRA:                  -1.819
REMARK UNBOUND:                -1.977
REMARK SMILES C[C@H]1O[C@H](OC[C@@H]2O[C@H](Oc3c(-c4ccc(O)c(O)c4)oc4cc(O)cc(O)c4c3=O)[C@H](O)[C@@H](O)[C@@H]2O)[C@@H](O)[C@H](O)[C@@H]1O
REMARK SMILES IDX 7 1 36 2 34 3 32 4 9 5 8 6 6 7 5 8 4 9 1 10 2 11 42 12 3 13
REMARK SMILES IDX 40 14 38 15 43 16 41 18 39 20 37 22 35 24 10 26 11 27 12 28
REMARK SMILES IDX 30 29 21 30 29 31 31 32 22 33 27 34 23 35 26 36 24 37 13 38
REMARK SMILES IDX 20 39 14 40 18 41 15 42 16 43 19 44 17 46 28 48 25 50 33 52
REMARK H PARENT 43 17 41 19 39 21 37 23 35 25 19 45 17 47 28 49 25 51 33 53
REMARK Flexibility Score: inf
ROOT
ATOM      1  C   UNL     1      -3.755   1.320  26.279  1.00  0.00     0.180 C 
ATOM      2  C   UNL     1      -4.935   1.094  27.300  1.00  0.00     0.177 C 
ATOM      3  C   UNL     1      -4.103   0.881  28.635  1.00  0.00     0.180 C 
ATOM      4  C   UNL     1      -2.587   0.267  28.728  1.00  0.00     0.214 C 
ATOM      5  C   UNL     1      -1.950  -0.037  27.211  1.00  0.00     0.339 C 
ATOM      6  O   UNL     1      -3.182   0.065  26.521  1.00  0.00    -0.332 OA
ENDROOT
BRANCH   1   7
ATOM      7  C   UNL     1      -3.650   1.439  24.754  1.00  0.00     0.198 C 
BRANCH   7   8
ATOM      8  O   UNL     1      -5.095   1.592  24.313  1.00  0.00    -0.347 OA
BRANCH   8   9
ATOM      9  C   UNL     1      -5.607   0.966  23.039  1.00  0.00     0.281 C 
ATOM     10  C   UNL     1      -6.413   2.121  18.697  1.00  0.00     0.041 C 
ATOM     11  C   UNL     1      -5.339   1.875  19.786  1.00  0.00     0.150 C 
ATOM     12  C   UNL     1      -4.304   0.251  19.300  1.00  0.00     0.174 C 
ATOM     13  O   UNL     1      -5.888   2.125  21.570  1.00  0.00    -0.344 OA
ATOM     14  C   UNL     1      -3.780  -1.059  20.758  1.00  0.00     0.179 C 
ATOM     15  C   UNL     1      -4.595  -0.897  22.642  1.00  0.00     0.202 C 
BRANCH  12  16
ATOM     16  O   UNL     1      -3.432   0.671  18.198  1.00  0.00    -0.388 OA
ATOM     17  H   UNL     1      -2.492   0.938  18.561  1.00  0.00     0.211 HD
ENDBRANCH  12  16
BRANCH  14  18
ATOM     18  O   UNL     1      -2.354  -1.062  20.858  1.00  0.00    -0.387 OA
ATOM     19  H   UNL     1      -2.043  -0.189  20.480  1.00  0.00     0.211 HD
ENDBRANCH  14  18
BRANCH  15  20
ATOM     20  O   UNL     1      -4.425  -2.268  23.220  1.00  0.00    -0.385 OA
ATOM     21  H   UNL     1      -4.003  -2.976  22.600  1.00  0.00     0.211 HD
ENDBRANCH  15  20
ENDBRANCH   8   9
ENDBRANCH   7   8
ENDBRANCH   1   7
BRANCH   2  22
ATOM     22  O   UNL     1      -5.751  -0.060  26.891  1.00  0.00    -0.387 OA
ATOM     23  H   UNL     1      -6.730  -0.044  27.240  1.00  0.00     0.211 HD
ENDBRANCH   2  22
BRANCH   3  24
ATOM     24  O   UNL     1      -4.140   2.052  29.460  1.00  0.00    -0.387 OA
ATOM     25  H   UNL     1      -4.176   1.633  30.377  1.00  0.00     0.211 HD
ENDBRANCH   3  24
BRANCH   5  26
ATOM     26  O   UNL     1      -0.453  -1.141  26.216  1.00  0.00    -0.454 OA
BRANCH  26  27
ATOM     27  C   UNL     1       0.263  -2.046  25.207  1.00  0.00     0.214 A 
ATOM     28  C   UNL     1       1.381  -2.761  25.648  1.00  0.00     0.180 A 
ATOM     29  C   UNL     1      -0.020  -2.250  23.746  1.00  0.00     0.239 A 
ATOM     30  O   UNL     1       2.332  -3.206  24.767  1.00  0.00    -0.452 OA
ATOM     31  C   UNL     1       0.975  -2.786  22.869  1.00  0.00     0.111 A 
ATOM     32  O   UNL     1      -1.162  -2.008  23.241  1.00  0.00    -0.285 OA
ATOM     33  C   UNL     1       2.166  -3.293  23.478  1.00  0.00     0.146 A 
ATOM     34  C   UNL     1       0.860  -3.083  21.445  1.00  0.00     0.134 A 
ATOM     35  C   UNL     1       3.086  -4.079  22.825  1.00  0.00     0.094 A 
ATOM     36  C   UNL     1       1.801  -4.029  20.830  1.00  0.00     0.093 A 
ATOM     37  C   UNL     1       2.810  -4.554  21.549  1.00  0.00     0.123 A 
BRANCH  28  38
ATOM     38  C   UNL     1       1.387  -3.655  26.724  1.00  0.00     0.025 A 
ATOM     39  C   UNL     1       2.582  -4.260  27.000  1.00  0.00     0.062 A 
ATOM     40  C   UNL     1       0.556  -3.344  27.752  1.00  0.00     0.016 A 
ATOM     41  C   UNL     1       2.680  -5.176  28.073  1.00  0.00     0.158 A 
ATOM     42  C   UNL     1       0.530  -4.222  28.858  1.00  0.00     0.051 A 
ATOM     43  C   UNL     1       1.587  -5.180  28.960  1.00  0.00     0.157 A 
BRANCH  41  44
ATOM     44  O   UNL     1       3.747  -6.049  28.135  1.00  0.00    -0.504 OA
ATOM     45  H   UNL     1       3.860  -6.684  28.925  1.00  0.00     0.293 HD
ENDBRANCH  41  44
BRANCH  43  46
ATOM     46  O   UNL     1       1.501  -6.062  30.070  1.00  0.00    -0.504 OA
ATOM     47  H   UNL     1       0.880  -5.921  30.875  1.00  0.00     0.293 HD
ENDBRANCH  43  46
ENDBRANCH  28  38
BRANCH  34  48
ATOM     48  O   UNL     1      -0.044  -2.449  20.589  1.00  0.00    -0.507 OA
ATOM     49  H   UNL     1       0.184  -1.958  19.722  1.00  0.00     0.293 HD
ENDBRANCH  34  48
BRANCH  37  50
ATOM     50  O   UNL     1       3.665  -5.506  21.026  1.00  0.00    -0.508 OA
ATOM     51  H   UNL     1       3.631  -6.422  21.596  1.00  0.00     0.293 HD
ENDBRANCH  37  50
ENDBRANCH  26  27
ENDBRANCH   5  26
BRANCH   4  52
ATOM     52  O   UNL     1      -2.826  -0.885  29.507  1.00  0.00    -0.384 OA
ATOM     53  H   UNL     1      -3.392  -1.459  28.924  1.00  0.00     0.211 HD
ENDBRANCH   4  52
TORSDOF 16
ENDMDL
MODEL 6
REMARK VINA RESULT:    -6.576      1.936      3.496
REMARK INTER + INTRA:         -11.437
REMARK INTER:                  -9.407
REMARK INTRA:                  -2.030
REMARK UNBOUND:                -1.977
REMARK SMILES C[C@H]1O[C@H](OC[C@@H]2O[C@H](Oc3c(-c4ccc(O)c(O)c4)oc4cc(O)cc(O)c4c3=O)[C@H](O)[C@@H](O)[C@@H]2O)[C@@H](O)[C@H](O)[C@@H]1O
REMARK SMILES IDX 7 1 36 2 34 3 32 4 9 5 8 6 6 7 5 8 4 9 1 10 2 11 42 12 3 13
REMARK SMILES IDX 40 14 38 15 43 16 41 18 39 20 37 22 35 24 10 26 11 27 12 28
REMARK SMILES IDX 30 29 21 30 29 31 31 32 22 33 27 34 23 35 26 36 24 37 13 38
REMARK SMILES IDX 20 39 14 40 18 41 15 42 16 43 19 44 17 46 28 48 25 50 33 52
REMARK H PARENT 43 17 41 19 39 21 37 23 35 25 19 45 17 47 28 49 25 51 33 53
REMARK Flexibility Score: inf
ROOT
ATOM      1  C   UNL     1       1.841  -4.352  23.467  1.00  0.00     0.180 C 
ATOM      2  C   UNL     1       2.577  -4.923  22.195  1.00  0.00     0.177 C 
ATOM      3  C   UNL     1       2.534  -3.643  21.258  1.00  0.00     0.180 C 
ATOM      4  C   UNL     1       1.388  -2.472  21.292  1.00  0.00     0.214 C 
ATOM      5  C   UNL     1       0.281  -2.726  22.520  1.00  0.00     0.339 C 
ATOM      6  O   UNL     1       0.659  -4.068  22.770  1.00  0.00    -0.332 OA
ENDROOT
BRANCH   1   7
ATOM      7  C   UNL     1       1.312  -4.954  24.774  1.00  0.00     0.198 C 
BRANCH   7   8
ATOM      8  O   UNL     1       2.388  -4.597  25.785  1.00  0.00    -0.347 OA
BRANCH   8   9
ATOM      9  C   UNL     1       2.246  -3.414  26.713  1.00  0.00     0.281 C 
ATOM     10  C   UNL     1      -0.302   0.347  27.156  1.00  0.00     0.041 C 
ATOM     11  C   UNL     1      -0.271  -1.200  27.210  1.00  0.00     0.150 C 
ATOM     12  C   UNL     1      -0.555  -1.774  29.090  1.00  0.00     0.174 C 
ATOM     13  O   UNL     1       1.056  -2.045  26.175  1.00  0.00    -0.344 OA
ATOM     14  C   UNL     1       0.528  -3.325  29.824  1.00  0.00     0.179 C 
ATOM     15  C   UNL     1       2.132  -4.063  28.766  1.00  0.00     0.202 C 
BRANCH  12  16
ATOM     16  O   UNL     1      -1.984  -1.557  29.342  1.00  0.00    -0.388 OA
ATOM     17  H   UNL     1      -2.213  -1.770  30.337  1.00  0.00     0.211 HD
ENDBRANCH  12  16
BRANCH  14  18
ATOM     18  O   UNL     1      -0.374  -4.392  30.124  1.00  0.00    -0.387 OA
ATOM     19  H   UNL     1      -0.229  -4.622  31.087  1.00  0.00     0.211 HD
ENDBRANCH  14  18
BRANCH  15  20
ATOM     20  O   UNL     1       2.957  -4.753  29.810  1.00  0.00    -0.385 OA
ATOM     21  H   UNL     1       2.638  -4.650  30.785  1.00  0.00     0.211 HD
ENDBRANCH  15  20
ENDBRANCH   8   9
ENDBRANCH   7   8
ENDBRANCH   1   7
BRANCH   2  22
ATOM     22  O   UNL     1       1.858  -6.094  21.671  1.00  0.00    -0.387 OA
ATOM     23  H   UNL     1       0.850  -5.933  21.475  1.00  0.00     0.211 HD
ENDBRANCH   2  22
BRANCH   3  24
ATOM     24  O   UNL     1       3.810  -2.990  21.214  1.00  0.00    -0.387 OA
ATOM     25  H   UNL     1       3.710  -2.443  20.374  1.00  0.00     0.211 HD
ENDBRANCH   3  24
BRANCH   5  26
ATOM     26  O   UNL     1      -1.663  -2.209  23.154  1.00  0.00    -0.454 OA
BRANCH  26  27
ATOM     27  C   UNL     1      -2.838  -1.452  23.781  1.00  0.00     0.214 A 
ATOM     28  C   UNL     1      -3.362  -0.360  23.082  1.00  0.00     0.180 A 
ATOM     29  C   UNL     1      -3.506  -1.666  25.110  1.00  0.00     0.239 A 
ATOM     30  O   UNL     1      -4.058   0.628  23.726  1.00  0.00    -0.452 OA
ATOM     31  C   UNL     1      -4.287  -0.633  25.719  1.00  0.00     0.111 A 
ATOM     32  O   UNL     1      -3.451  -2.781  25.719  1.00  0.00    -0.285 OA
ATOM     33  C   UNL     1      -4.558   0.524  24.923  1.00  0.00     0.146 A 
ATOM     34  C   UNL     1      -5.029  -0.683  26.975  1.00  0.00     0.134 A 
ATOM     35  C   UNL     1      -5.504   1.469  25.244  1.00  0.00     0.094 A 
ATOM     36  C   UNL     1      -6.114   0.281  27.207  1.00  0.00     0.093 A 
ATOM     37  C   UNL     1      -6.368   1.251  26.310  1.00  0.00     0.123 A 
BRANCH  28  38
ATOM     38  C   UNL     1      -3.861  -0.411  21.776  1.00  0.00     0.025 A 
ATOM     39  C   UNL     1      -2.930  -0.419  20.773  1.00  0.00     0.062 A 
ATOM     40  C   UNL     1      -5.008  -1.119  21.611  1.00  0.00     0.016 A 
ATOM     41  C   UNL     1      -3.345  -0.472  19.423  1.00  0.00     0.158 A 
ATOM     42  C   UNL     1      -5.546  -1.194  20.306  1.00  0.00     0.051 A 
ATOM     43  C   UNL     1      -4.700  -0.801  19.224  1.00  0.00     0.157 A 
BRANCH  41  44
ATOM     44  O   UNL     1      -2.466  -0.117  18.419  1.00  0.00    -0.504 OA
ATOM     45  H   UNL     1      -2.639  -0.384  17.451  1.00  0.00     0.293 HD
ENDBRANCH  41  44
BRANCH  43  46
ATOM     46  O   UNL     1      -5.294  -0.861  17.935  1.00  0.00    -0.504 OA
ATOM     47  H   UNL     1      -4.815  -0.603  17.064  1.00  0.00     0.293 HD
ENDBRANCH  43  46
ENDBRANCH  28  38
BRANCH  34  48
ATOM     48  O   UNL     1      -4.714  -1.542  28.031  1.00  0.00    -0.507 OA
ATOM     49  H   UNL     1      -5.348  -2.204  28.483  1.00  0.00     0.293 HD
ENDBRANCH  34  48
BRANCH  37  50
ATOM     50  O   UNL     1      -7.430   2.124  26.456  1.00  0.00    -0.508 OA
ATOM     51  H   UNL     1      -7.899   2.338  25.509  1.00  0.00     0.293 HD
ENDBRANCH  37  50
ENDBRANCH  26  27
ENDBRANCH   5  26
BRANCH   4  52
ATOM     52  O   UNL     1       0.860  -2.594  19.989  1.00  0.00    -0.384 OA
ATOM     53  H   UNL     1      -0.126  -2.554  20.123  1.00  0.00     0.211 HD
ENDBRANCH   4  52
TORSDOF 16
ENDMDL
MODEL 7
REMARK VINA RESULT:    -6.156      2.265      7.887
REMARK INTER + INTRA:         -10.833
REMARK INTER:                  -8.842
REMARK INTRA:                  -1.990
REMARK UNBOUND:                -1.977
REMARK SMILES C[C@H]1O[C@H](OC[C@@H]2O[C@H](Oc3c(-c4ccc(O)c(O)c4)oc4cc(O)cc(O)c4c3=O)[C@H](O)[C@@H](O)[C@@H]2O)[C@@H](O)[C@H](O)[C@@H]1O
REMARK SMILES IDX 7 1 36 2 34 3 32 4 9 5 8 6 6 7 5 8 4 9 1 10 2 11 42 12 3 13
REMARK SMILES IDX 40 14 38 15 43 16 41 18 39 20 37 22 35 24 10 26 11 27 12 28
REMARK SMILES IDX 30 29 21 30 29 31 31 32 22 33 27 34 23 35 26 36 24 37 13 38
REMARK SMILES IDX 20 39 14 40 18 41 15 42 16 43 19 44 17 46 28 48 25 50 33 52
REMARK H PARENT 43 17 41 19 39 21 37 23 35 25 19 45 17 47 28 49 25 51 33 53
REMARK Flexibility Score: inf
ROOT
ATOM      1  C   UNL     1      -4.392   1.176  20.860  1.00  0.00     0.180 C 
ATOM      2  C   UNL     1      -4.526   1.344  19.298  1.00  0.00     0.177 C 
ATOM      3  C   UNL     1      -4.586  -0.182  18.865  1.00  0.00     0.180 C 
ATOM      4  C   UNL     1      -3.892  -1.431  19.666  1.00  0.00     0.214 C 
ATOM      5  C   UNL     1      -3.167  -0.927  21.087  1.00  0.00     0.339 C 
ATOM      6  O   UNL     1      -3.195   0.454  20.773  1.00  0.00    -0.332 OA
ENDROOT
BRANCH   1   7
ATOM      7  C   UNL     1      -4.116   2.125  22.032  1.00  0.00     0.198 C 
BRANCH   7   8
ATOM      8  O   UNL     1      -5.426   2.125  22.800  1.00  0.00    -0.347 OA
BRANCH   8   9
ATOM      9  C   UNL     1      -5.865   0.938  23.622  1.00  0.00     0.281 C 
ATOM     10  C   UNL     1      -4.024  -2.565  25.897  1.00  0.00     0.041 C 
ATOM     11  C   UNL     1      -4.222  -1.030  25.838  1.00  0.00     0.150 C 
ATOM     12  C   UNL     1      -5.380  -0.481  27.355  1.00  0.00     0.174 C 
ATOM     13  O   UNL     1      -4.521  -0.293  24.131  1.00  0.00    -0.344 OA
ATOM     14  C   UNL     1      -6.802   0.934  27.052  1.00  0.00     0.179 C 
ATOM     15  C   UNL     1      -7.273   1.539  25.142  1.00  0.00     0.202 C 
BRANCH  12  16
ATOM     16  O   UNL     1      -4.519  -0.564  28.541  1.00  0.00    -0.388 OA
ATOM     17  H   UNL     1      -3.608  -0.092  28.360  1.00  0.00     0.211 HD
ENDBRANCH  12  16
BRANCH  14  18
ATOM     18  O   UNL     1      -6.464   2.077  27.841  1.00  0.00    -0.387 OA
ATOM     19  H   UNL     1      -5.513   2.300  27.621  1.00  0.00     0.211 HD
ENDBRANCH  14  18
BRANCH  15  20
ATOM     20  O   UNL     1      -8.649   2.116  25.283  1.00  0.00    -0.385 OA
ATOM     21  H   UNL     1      -8.883   2.519  26.203  1.00  0.00     0.211 HD
ENDBRANCH  15  20
ENDBRANCH   8   9
ENDBRANCH   7   8
ENDBRANCH   1   7
BRANCH   2  22
ATOM     22  O   UNL     1      -3.377   2.091  18.763  1.00  0.00    -0.387 OA
ATOM     23  H   UNL     1      -3.345   2.153  17.726  1.00  0.00     0.211 HD
ENDBRANCH   2  22
BRANCH   3  24
ATOM     24  O   UNL     1      -5.926  -0.575  18.539  1.00  0.00    -0.387 OA
ATOM     25  H   UNL     1      -6.411   0.300  18.659  1.00  0.00     0.211 HD
ENDBRANCH   3  24
BRANCH   5  26
ATOM     26  O   UNL     1      -1.730  -1.491  22.525  1.00  0.00    -0.454 OA
BRANCH  26  27
ATOM     27  C   UNL     1      -1.070  -1.867  23.855  1.00  0.00     0.214 A 
ATOM     28  C   UNL     1      -0.522  -3.148  23.976  1.00  0.00     0.180 A 
ATOM     29  C   UNL     1      -0.964  -1.068  25.123  1.00  0.00     0.239 A 
ATOM     30  O   UNL     1      -0.341  -3.730  25.202  1.00  0.00    -0.452 OA
ATOM     31  C   UNL     1      -0.701  -1.704  26.378  1.00  0.00     0.111 A 
ATOM     32  O   UNL     1      -1.051   0.201  25.128  1.00  0.00    -0.285 OA
ATOM     33  C   UNL     1      -0.353  -3.091  26.336  1.00  0.00     0.146 A 
ATOM     34  C   UNL     1      -0.531  -1.083  27.687  1.00  0.00     0.134 A 
ATOM     35  C   UNL     1       0.190  -3.776  27.397  1.00  0.00     0.094 A 
ATOM     36  C   UNL     1       0.169  -1.823  28.747  1.00  0.00     0.093 A 
ATOM     37  C   UNL     1       0.577  -3.089  28.541  1.00  0.00     0.123 A 
BRANCH  28  38
ATOM     38  C   UNL     1       0.459  -3.681  23.133  1.00  0.00     0.025 A 
ATOM     39  C   UNL     1       1.587  -2.926  22.965  1.00  0.00     0.062 A 
ATOM     40  C   UNL     1       0.571  -5.035  23.143  1.00  0.00     0.016 A 
ATOM     41  C   UNL     1       2.632  -3.391  22.134  1.00  0.00     0.158 A 
ATOM     42  C   UNL     1       1.549  -5.615  22.305  1.00  0.00     0.051 A 
ATOM     43  C   UNL     1       2.544  -4.745  21.759  1.00  0.00     0.157 A 
BRANCH  41  44
ATOM     44  O   UNL     1       3.587  -2.507  21.671  1.00  0.00    -0.504 OA
ATOM     45  H   UNL     1       3.701  -2.334  20.673  1.00  0.00     0.293 HD
ENDBRANCH  41  44
BRANCH  43  46
ATOM     46  O   UNL     1       3.487  -5.366  20.897  1.00  0.00    -0.504 OA
ATOM     47  H   UNL     1       4.003  -4.877  20.155  1.00  0.00     0.293 HD
ENDBRANCH  43  46
ENDBRANCH  28  38
BRANCH  34  48
ATOM     48  O   UNL     1      -1.078   0.153  28.039  1.00  0.00    -0.507 OA
ATOM     49  H   UNL     1      -1.790   0.671  27.520  1.00  0.00     0.293 HD
ENDBRANCH  34  48
BRANCH  37  50
ATOM     50  O   UNL     1       1.308  -3.785  29.485  1.00  0.00    -0.508 OA
ATOM     51  H   UNL     1       1.891  -3.120  30.103  1.00  0.00     0.293 HD
ENDBRANCH  37  50
ENDBRANCH  26  27
ENDBRANCH   5  26
BRANCH   4  52
ATOM     52  O   UNL     1      -2.996  -1.900  18.682  1.00  0.00    -0.384 OA
ATOM     53  H   UNL     1      -2.098  -1.657  19.037  1.00  0.00     0.211 HD
ENDBRANCH   4  52
TORSDOF 16
ENDMDL
MODEL 8
REMARK VINA RESULT:    -6.078      1.877      6.590
REMARK INTER + INTRA:         -10.721
REMARK INTER:                  -8.781
REMARK INTRA:                  -1.940
REMARK UNBOUND:                -1.977
REMARK SMILES C[C@H]1O[C@H](OC[C@@H]2O[C@H](Oc3c(-c4ccc(O)c(O)c4)oc4cc(O)cc(O)c4c3=O)[C@H](O)[C@@H](O)[C@@H]2O)[C@@H](O)[C@H](O)[C@@H]1O
REMARK SMILES IDX 7 1 36 2 34 3 32 4 9 5 8 6 6 7 5 8 4 9 1 10 2 11 42 12 3 13
REMARK SMILES IDX 40 14 38 15 43 16 41 18 39 20 37 22 35 24 10 26 11 27 12 28
REMARK SMILES IDX 30 29 21 30 29 31 31 32 22 33 27 34 23 35 26 36 24 37 13 38
REMARK SMILES IDX 20 39 14 40 18 41 15 42 16 43 19 44 17 46 28 48 25 50 33 52
REMARK H PARENT 43 17 41 19 39 21 37 23 35 25 19 45 17 47 28 49 25 51 33 53
REMARK Flexibility Score: inf
ROOT
ATOM      1  C   UNL     1       1.811  -2.703  26.638  1.00  0.00     0.180 C 
ATOM      2  C   UNL     1       2.032  -4.146  27.234  1.00  0.00     0.177 C 
ATOM      3  C   UNL     1       2.633  -4.878  25.960  1.00  0.00     0.180 C 
ATOM      4  C   UNL     1       2.315  -4.495  24.400  1.00  0.00     0.214 C 
ATOM      5  C   UNL     1       1.331  -3.147  24.283  1.00  0.00     0.339 C 
ATOM      6  O   UNL     1       0.933  -3.149  25.642  1.00  0.00    -0.332 OA
ENDROOT
BRANCH   1   7
ATOM      7  C   UNL     1       1.127  -1.422  27.127  1.00  0.00     0.198 C 
BRANCH   7   8
ATOM      8  O   UNL     1      -0.228  -1.464  26.442  1.00  0.00    -0.347 OA
BRANCH   8   9
ATOM      9  C   UNL     1      -1.516  -1.341  27.221  1.00  0.00     0.281 C 
ATOM     10  C   UNL     1      -3.812   1.779  29.636  1.00  0.00     0.041 C 
ATOM     11  C   UNL     1      -3.315   1.346  28.234  1.00  0.00     0.150 C 
ATOM     12  C   UNL     1      -4.889   0.849  27.130  1.00  0.00     0.174 C 
ATOM     13  O   UNL     1      -1.776   0.262  28.193  1.00  0.00    -0.344 OA
ATOM     14  C   UNL     1      -4.769  -0.766  25.908  1.00  0.00     0.179 C 
ATOM     15  C   UNL     1      -3.182  -2.069  26.062  1.00  0.00     0.202 C 
BRANCH  12  16
ATOM     16  O   UNL     1      -5.523   2.123  26.774  1.00  0.00    -0.388 OA
ATOM     17  H   UNL     1      -5.626   2.200  25.739  1.00  0.00     0.211 HD
ENDBRANCH  12  16
BRANCH  14  18
ATOM     18  O   UNL     1      -4.876  -0.309  24.558  1.00  0.00    -0.387 OA
ATOM     19  H   UNL     1      -5.745  -0.663  24.208  1.00  0.00     0.211 HD
ENDBRANCH  14  18
BRANCH  15  20
ATOM     20  O   UNL     1      -3.702  -3.333  25.449  1.00  0.00    -0.385 OA
ATOM     21  H   UNL     1      -3.467  -4.209  25.941  1.00  0.00     0.211 HD
ENDBRANCH  15  20
ENDBRANCH   8   9
ENDBRANCH   7   8
ENDBRANCH   1   7
BRANCH   2  22
ATOM     22  O   UNL     1       0.759  -4.699  27.720  1.00  0.00    -0.387 OA
ATOM     23  H   UNL     1       0.838  -5.279  28.579  1.00  0.00     0.211 HD
ENDBRANCH   2  22
BRANCH   3  24
ATOM     24  O   UNL     1       4.052  -5.043  26.079  1.00  0.00    -0.387 OA
ATOM     25  H   UNL     1       4.191  -5.870  25.520  1.00  0.00     0.211 HD
ENDBRANCH   3  24
BRANCH   5  26
ATOM     26  O   UNL     1       0.029  -2.135  22.968  1.00  0.00    -0.454 OA
BRANCH  26  27
ATOM     27  C   UNL     1      -0.959  -1.843  21.834  1.00  0.00     0.214 A 
ATOM     28  C   UNL     1      -0.445  -1.681  20.543  1.00  0.00     0.180 A 
ATOM     29  C   UNL     1      -2.446  -1.635  21.898  1.00  0.00     0.239 A 
ATOM     30  O   UNL     1      -1.136  -0.985  19.586  1.00  0.00    -0.452 OA
ATOM     31  C   UNL     1      -3.145  -0.967  20.843  1.00  0.00     0.111 A 
ATOM     32  O   UNL     1      -3.147  -2.086  22.858  1.00  0.00    -0.285 OA
ATOM     33  C   UNL     1      -2.401  -0.686  19.654  1.00  0.00     0.146 A 
ATOM     34  C   UNL     1      -4.577  -0.715  20.726  1.00  0.00     0.134 A 
ATOM     35  C   UNL     1      -2.975  -0.308  18.463  1.00  0.00     0.094 A 
ATOM     36  C   UNL     1      -5.151  -0.437  19.402  1.00  0.00     0.093 A 
ATOM     37  C   UNL     1      -4.356  -0.332  18.321  1.00  0.00     0.123 A 
BRANCH  28  38
ATOM     38  C   UNL     1       0.329  -2.629  19.865  1.00  0.00     0.025 A 
ATOM     39  C   UNL     1       0.362  -2.518  18.503  1.00  0.00     0.062 A 
ATOM     40  C   UNL     1       1.441  -3.055  20.516  1.00  0.00     0.016 A 
ATOM     41  C   UNL     1       1.123  -3.432  17.737  1.00  0.00     0.158 A 
ATOM     42  C   UNL     1       2.251  -4.014  19.867  1.00  0.00     0.051 A 
ATOM     43  C   UNL     1       2.024  -4.227  18.472  1.00  0.00     0.157 A 
BRANCH  41  44
ATOM     44  O   UNL     1       0.881  -3.563  16.383  1.00  0.00    -0.504 OA
ATOM     45  H   UNL     1       1.388  -4.248  15.824  1.00  0.00     0.293 HD
ENDBRANCH  41  44
BRANCH  43  46
ATOM     46  O   UNL     1       2.837  -5.223  17.869  1.00  0.00    -0.504 OA
ATOM     47  H   UNL     1       2.563  -5.775  17.047  1.00  0.00     0.293 HD
ENDBRANCH  43  46
ENDBRANCH  28  38
BRANCH  34  48
ATOM     48  O   UNL     1      -5.444  -0.630  21.818  1.00  0.00    -0.507 OA
ATOM     49  H   UNL     1      -6.065  -1.367  22.158  1.00  0.00     0.293 HD
ENDBRANCH  34  48
BRANCH  37  50
ATOM     50  O   UNL     1      -4.869  -0.151  17.050  1.00  0.00    -0.508 OA
ATOM     51  H   UNL     1      -5.924  -0.372  17.014  1.00  0.00     0.293 HD
ENDBRANCH  37  50
ENDBRANCH  26  27
ENDBRANCH   5  26
BRANCH   4  52
ATOM     52  O   UNL     1       1.722  -5.697  23.957  1.00  0.00    -0.384 OA
ATOM     53  H   UNL     1       1.453  -5.502  23.018  1.00  0.00     0.211 HD
ENDBRANCH   4  52
TORSDOF 16
ENDMDL
MODEL 9
REMARK VINA RESULT:    -6.018      1.749      6.818
REMARK INTER + INTRA:         -10.634
REMARK INTER:                  -9.138
REMARK INTRA:                  -1.497
REMARK UNBOUND:                -1.977
REMARK SMILES C[C@H]1O[C@H](OC[C@@H]2O[C@H](Oc3c(-c4ccc(O)c(O)c4)oc4cc(O)cc(O)c4c3=O)[C@H](O)[C@@H](O)[C@@H]2O)[C@@H](O)[C@H](O)[C@@H]1O
REMARK SMILES IDX 7 1 36 2 34 3 32 4 9 5 8 6 6 7 5 8 4 9 1 10 2 11 42 12 3 13
REMARK SMILES IDX 40 14 38 15 43 16 41 18 39 20 37 22 35 24 10 26 11 27 12 28
REMARK SMILES IDX 30 29 21 30 29 31 31 32 22 33 27 34 23 35 26 36 24 37 13 38
REMARK SMILES IDX 20 39 14 40 18 41 15 42 16 43 19 44 17 46 28 48 25 50 33 52
REMARK H PARENT 43 17 41 19 39 21 37 23 35 25 19 45 17 47 28 49 25 51 33 53
REMARK Flexibility Score: inf
ROOT
ATOM      1  C   UNL     1      -3.293  -0.640  18.826  1.00  0.00     0.180 C 
ATOM      2  C   UNL     1      -4.730  -0.319  18.263  1.00  0.00     0.177 C 
ATOM      3  C   UNL     1      -4.912   1.161  18.810  1.00  0.00     0.180 C 
ATOM      4  C   UNL     1      -4.225   1.768  20.168  1.00  0.00     0.214 C 
ATOM      5  C   UNL     1      -3.204   0.659  20.893  1.00  0.00     0.339 C 
ATOM      6  O   UNL     1      -3.673  -0.459  20.161  1.00  0.00    -0.332 OA
ENDROOT
BRANCH   1   7
ATOM      7  C   UNL     1      -2.416  -1.895  18.904  1.00  0.00     0.198 C 
BRANCH   7   8
ATOM      8  O   UNL     1      -1.194  -1.521  18.082  1.00  0.00    -0.347 OA
BRANCH   8   9
ATOM      9  C   UNL     1       0.206  -1.659  18.632  1.00  0.00     0.281 C 
ATOM     10  C   UNL     1       2.295  -2.770  22.535  1.00  0.00     0.041 C 
ATOM     11  C   UNL     1       1.437  -3.270  21.346  1.00  0.00     0.150 C 
ATOM     12  C   UNL     1       2.535  -4.512  20.251  1.00  0.00     0.174 C 
ATOM     13  O   UNL     1       0.366  -1.980  20.489  1.00  0.00    -0.344 OA
ATOM     14  C   UNL     1       2.404  -4.423  18.228  1.00  0.00     0.179 C 
ATOM     15  C   UNL     1       1.428  -2.856  17.318  1.00  0.00     0.202 C 
BRANCH  12  16
ATOM     16  O   UNL     1       2.602  -5.751  21.033  1.00  0.00    -0.388 OA
ATOM     17  H   UNL     1       3.133  -6.481  20.511  1.00  0.00     0.211 HD
ENDBRANCH  12  16
BRANCH  14  18
ATOM     18  O   UNL     1       1.852  -5.658  17.766  1.00  0.00    -0.387 OA
ATOM     19  H   UNL     1       2.290  -6.381  18.301  1.00  0.00     0.211 HD
ENDBRANCH  14  18
BRANCH  15  20
ATOM     20  O   UNL     1       1.998  -2.840  15.933  1.00  0.00    -0.385 OA
ATOM     21  H   UNL     1       2.229  -3.758  15.524  1.00  0.00     0.211 HD
ENDBRANCH  15  20
ENDBRANCH   8   9
ENDBRANCH   7   8
ENDBRANCH   1   7
BRANCH   2  22
ATOM     22  O   UNL     1      -5.709  -1.289  18.777  1.00  0.00    -0.387 OA
ATOM     23  H   UNL     1      -5.295  -2.167  19.148  1.00  0.00     0.211 HD
ENDBRANCH   2  22
BRANCH   3  24
ATOM     24  O   UNL     1      -4.720   2.125  17.767  1.00  0.00    -0.387 OA
ATOM     25  H   UNL     1      -5.505   2.736  17.932  1.00  0.00     0.211 HD
ENDBRANCH   3  24
BRANCH   5  26
ATOM     26  O   UNL     1      -2.260   0.202  22.724  1.00  0.00    -0.454 OA
BRANCH  26  27
ATOM     27  C   UNL     1      -1.932  -0.450  24.071  1.00  0.00     0.214 A 
ATOM     28  C   UNL     1      -2.251   0.256  25.235  1.00  0.00     0.180 A 
ATOM     29  C   UNL     1      -1.241  -1.754  24.353  1.00  0.00     0.239 A 
ATOM     30  O   UNL     1      -1.610   0.001  26.418  1.00  0.00    -0.452 OA
ATOM     31  C   UNL     1      -0.644  -2.013  25.627  1.00  0.00     0.111 A 
ATOM     32  O   UNL     1      -1.202  -2.694  23.497  1.00  0.00    -0.285 OA
ATOM     33  C   UNL     1      -0.906  -1.066  26.666  1.00  0.00     0.146 A 
ATOM     34  C   UNL     1       0.028  -3.227  26.080  1.00  0.00     0.134 A 
ATOM     35  C   UNL     1      -0.648  -1.297  27.996  1.00  0.00     0.094 A 
ATOM     36  C   UNL     1       0.164  -3.477  27.522  1.00  0.00     0.093 A 
ATOM     37  C   UNL     1      -0.251  -2.560  28.416  1.00  0.00     0.123 A 
BRANCH  28  38
ATOM     38  C   UNL     1      -3.530   0.717  25.567  1.00  0.00     0.025 A 
ATOM     39  C   UNL     1      -4.357   1.010  24.518  1.00  0.00     0.062 A 
ATOM     40  C   UNL     1      -4.067   0.197  26.700  1.00  0.00     0.016 A 
ATOM     41  C   UNL     1      -5.669   1.479  24.761  1.00  0.00     0.158 A 
ATOM     42  C   UNL     1      -5.357   0.637  27.072  1.00  0.00     0.051 A 
ATOM     43  C   UNL     1      -6.120   1.338  26.088  1.00  0.00     0.157 A 
BRANCH  41  44
ATOM     44  O   UNL     1      -6.370   2.113  23.755  1.00  0.00    -0.504 OA
ATOM     45  H   UNL     1      -5.929   2.829  23.179  1.00  0.00     0.293 HD
ENDBRANCH  41  44
BRANCH  43  46
ATOM     46  O   UNL     1      -7.397   1.790  26.517  1.00  0.00    -0.504 OA
ATOM     47  H   UNL     1      -8.279   1.568  26.041  1.00  0.00     0.293 HD
ENDBRANCH  43  46
ENDBRANCH  28  38
BRANCH  34  48
ATOM     48  O   UNL     1       0.642  -4.142  25.223  1.00  0.00    -0.507 OA
ATOM     49  H   UNL     1       1.646  -4.231  25.050  1.00  0.00     0.293 HD
ENDBRANCH  34  48
BRANCH  37  50
ATOM     50  O   UNL     1      -0.212  -2.795  29.778  1.00  0.00    -0.508 OA
ATOM     51  H   UNL     1       0.025  -3.825  29.994  1.00  0.00     0.293 HD
ENDBRANCH  37  50
ENDBRANCH  26  27
ENDBRANCH   5  26
BRANCH   4  52
ATOM     52  O   UNL     1      -5.378   2.085  20.917  1.00  0.00    -0.384 OA
ATOM     53  H   UNL     1      -5.702   2.936  20.514  1.00  0.00     0.211 HD
ENDBRANCH   4  52
TORSDOF 16
ENDMDL
