MODEL 1
REMARK VINA RESULT:    -8.017      0.000      0.000
REMARK INTER + INTRA:          -9.470
REMARK INTER:                  -9.658
REMARK INTRA:                   0.188
REMARK UNBOUND:                 0.188
REMARK SMILES O=c1c(O)c(-c2ccc(O)c(O)c2)oc2cc(O)cc(O)c12
REMARK SMILES IDX 5 1 3 2 2 3 1 4 22 5 20 6 19 7 17 8 16 9 15 10 14 11 6 12
REMARK SMILES IDX 7 13 8 14 9 15 13 16 11 17 10 18 12 20 4 22 21 24 18 26
REMARK H PARENT 10 19 12 21 4 23 21 25 18 27
REMARK Flexibility Score: inf
ROOT
ATOM      1  C   UNL     1      34.254  26.949  20.566  1.00  0.00     0.180 A 
ATOM      2  C   UNL     1      34.543  25.571  20.545  1.00  0.00     0.208 A 
ATOM      3  C   UNL     1      34.373  24.861  19.345  1.00  0.00     0.238 A 
ATOM      4  O   UNL     1      34.639  23.629  19.311  1.00  0.00    -0.285 OA
ATOM      5  C   UNL     1      33.898  25.532  18.200  1.00  0.00     0.111 A 
ATOM      6  C   UNL     1      33.695  24.889  16.954  1.00  0.00     0.134 A 
ATOM      7  C   UNL     1      33.211  25.624  15.862  1.00  0.00     0.093 A 
ATOM      8  C   UNL     1      32.927  26.986  15.990  1.00  0.00     0.123 A 
ATOM      9  C   UNL     1      33.126  27.626  17.218  1.00  0.00     0.094 A 
ATOM     10  C   UNL     1      33.609  26.912  18.317  1.00  0.00     0.146 A 
ATOM     11  O   UNL     1      33.794  27.545  19.469  1.00  0.00    -0.452 OA
ENDROOT
BRANCH   1  12
ATOM     12  C   UNL     1      34.426  27.769  21.786  1.00  0.00     0.025 A 
ATOM     13  C   UNL     1      34.949  29.068  21.677  1.00  0.00     0.016 A 
ATOM     14  C   UNL     1      35.140  29.853  22.816  1.00  0.00     0.051 A 
ATOM     15  C   UNL     1      34.826  29.345  24.084  1.00  0.00     0.157 A 
ATOM     16  C   UNL     1      34.133  27.257  23.062  1.00  0.00     0.062 A 
ATOM     17  C   UNL     1      34.327  28.043  24.208  1.00  0.00     0.158 A 
BRANCH  15  18
ATOM     18  O   UNL     1      35.014  30.125  25.223  1.00  0.00    -0.504 OA
ATOM     19  H   UNL     1      35.140  29.706  26.138  1.00  0.00     0.293 HD
ENDBRANCH  15  18
BRANCH  17  20
ATOM     20  O   UNL     1      34.029  27.535  25.471  1.00  0.00    -0.504 OA
ATOM     21  H   UNL     1      33.864  26.546  25.620  1.00  0.00     0.293 HD
ENDBRANCH  17  20
ENDBRANCH   1  12
BRANCH   2  22
ATOM     22  O   UNL     1      34.964  24.920  21.706  1.00  0.00    -0.502 OA
ATOM     23  H   UNL     1      34.955  23.911  21.797  1.00  0.00     0.293 HD
ENDBRANCH   2  22
BRANCH   6  24
ATOM     24  O   UNL     1      33.970  23.530  16.795  1.00  0.00    -0.507 OA
ATOM     25  H   UNL     1      34.872  23.137  17.035  1.00  0.00     0.293 HD
ENDBRANCH   6  24
BRANCH   8  26
ATOM     26  O   UNL     1      32.447  27.693  14.890  1.00  0.00    -0.508 OA
ATOM     27  H   UNL     1      31.642  27.372  14.365  1.00  0.00     0.293 HD
ENDBRANCH   8  26
TORSDOF 6
ENDMDL
MODEL 2
REMARK VINA RESULT:    -7.539      1.146      2.876
REMARK INTER + INTRA:          -8.893
REMARK INTER:                  -9.115
REMARK INTRA:                   0.221
REMARK UNBOUND:                 0.188
REMARK SMILES O=c1c(O)c(-c2ccc(O)c(O)c2)oc2cc(O)cc(O)c12
REMARK SMILES IDX 5 1 3 2 2 3 1 4 22 5 20 6 19 7 17 8 16 9 15 10 14 11 6 12
REMARK SMILES IDX 7 13 8 14 9 15 13 16 11 17 10 18 12 20 4 22 21 24 18 26
REMARK H PARENT 10 19 12 21 4 23 21 25 18 27
REMARK Flexibility Score: inf
ROOT
ATOM      1  C   UNL     1      33.827  27.903  20.297  1.00  0.00     0.180 A 
ATOM      2  C   UNL     1      33.342  28.759  19.289  1.00  0.00     0.208 A 
ATOM      3  C   UNL     1      33.050  28.222  18.026  1.00  0.00     0.238 A 
ATOM      4  O   UNL     1      32.606  28.977  17.119  1.00  0.00    -0.285 OA
ATOM      5  C   UNL     1      33.266  26.850  17.785  1.00  0.00     0.111 A 
ATOM      6  C   UNL     1      33.001  26.231  16.539  1.00  0.00     0.134 A 
ATOM      7  C   UNL     1      33.250  24.861  16.375  1.00  0.00     0.093 A 
ATOM      8  C   UNL     1      33.758  24.098  17.430  1.00  0.00     0.123 A 
ATOM      9  C   UNL     1      34.021  24.703  18.663  1.00  0.00     0.094 A 
ATOM     10  C   UNL     1      33.778  26.067  18.847  1.00  0.00     0.146 A 
ATOM     11  O   UNL     1      34.031  26.616  20.029  1.00  0.00    -0.452 OA
ENDROOT
BRANCH   1  12
ATOM     12  C   UNL     1      34.140  28.390  21.659  1.00  0.00     0.025 A 
ATOM     13  C   UNL     1      34.733  29.652  21.823  1.00  0.00     0.016 A 
ATOM     14  C   UNL     1      35.055  30.123  23.098  1.00  0.00     0.051 A 
ATOM     15  C   UNL     1      34.805  29.333  24.226  1.00  0.00     0.157 A 
ATOM     16  C   UNL     1      33.910  27.591  22.794  1.00  0.00     0.062 A 
ATOM     17  C   UNL     1      34.235  28.063  24.075  1.00  0.00     0.158 A 
BRANCH  15  18
ATOM     18  O   UNL     1      35.124  29.799  25.500  1.00  0.00    -0.504 OA
ATOM     19  H   UNL     1      35.779  30.561  25.638  1.00  0.00     0.293 HD
ENDBRANCH  15  18
BRANCH  17  20
ATOM     20  O   UNL     1      34.000  27.272  25.198  1.00  0.00    -0.504 OA
ATOM     21  H   UNL     1      34.761  26.905  25.757  1.00  0.00     0.293 HD
ENDBRANCH  17  20
ENDBRANCH   1  12
BRANCH   2  22
ATOM     22  O   UNL     1      33.185  30.125  19.539  1.00  0.00    -0.502 OA
ATOM     23  H   UNL     1      32.281  30.580  19.510  1.00  0.00     0.293 HD
ENDBRANCH   2  22
BRANCH   6  24
ATOM     24  O   UNL     1      32.493  26.966  15.466  1.00  0.00    -0.507 OA
ATOM     25  H   UNL     1      33.013  27.078  14.603  1.00  0.00     0.293 HD
ENDBRANCH   6  24
BRANCH   8  26
ATOM     26  O   UNL     1      33.997  22.738  17.241  1.00  0.00    -0.508 OA
ATOM     27  H   UNL     1      34.652  22.409  16.541  1.00  0.00     0.293 HD
ENDBRANCH   8  26
TORSDOF 6
ENDMDL
MODEL 3
REMARK VINA RESULT:    -7.172      1.337      2.163
REMARK INTER + INTRA:          -8.451
REMARK INTER:                  -8.963
REMARK INTRA:                   0.511
REMARK UNBOUND:                 0.188
REMARK SMILES O=c1c(O)c(-c2ccc(O)c(O)c2)oc2cc(O)cc(O)c12
REMARK SMILES IDX 5 1 3 2 2 3 1 4 22 5 20 6 19 7 17 8 16 9 15 10 14 11 6 12
REMARK SMILES IDX 7 13 8 14 9 15 13 16 11 17 10 18 12 20 4 22 21 24 18 26
REMARK H PARENT 10 19 12 21 4 23 21 25 18 27
REMARK Flexibility Score: inf
ROOT
ATOM      1  C   UNL     1      33.936  26.589  20.255  1.00  0.00     0.180 A 
ATOM      2  C   UNL     1      34.253  25.444  19.498  1.00  0.00     0.208 A 
ATOM      3  C   UNL     1      34.032  25.465  18.112  1.00  0.00     0.238 A 
ATOM      4  O   UNL     1      34.322  24.449  17.423  1.00  0.00    -0.285 OA
ATOM      5  C   UNL     1      33.482  26.615  17.511  1.00  0.00     0.111 A 
ATOM      6  C   UNL     1      33.224  26.715  16.122  1.00  0.00     0.134 A 
ATOM      7  C   UNL     1      32.666  27.892  15.601  1.00  0.00     0.093 A 
ATOM      8  C   UNL     1      32.361  28.968  16.438  1.00  0.00     0.123 A 
ATOM      9  C   UNL     1      32.613  28.875  17.811  1.00  0.00     0.094 A 
ATOM     10  C   UNL     1      33.170  27.712  18.349  1.00  0.00     0.146 A 
ATOM     11  O   UNL     1      33.405  27.651  19.655  1.00  0.00    -0.452 OA
ENDROOT
BRANCH   1  12
ATOM     12  C   UNL     1      34.158  26.652  21.717  1.00  0.00     0.025 A 
ATOM     13  C   UNL     1      34.469  25.476  22.420  1.00  0.00     0.016 A 
ATOM     14  C   UNL     1      34.662  25.509  23.803  1.00  0.00     0.051 A 
ATOM     15  C   UNL     1      34.531  26.713  24.506  1.00  0.00     0.157 A 
ATOM     16  C   UNL     1      34.006  27.854  22.431  1.00  0.00     0.062 A 
ATOM     17  C   UNL     1      34.197  27.887  23.820  1.00  0.00     0.158 A 
BRANCH  15  18
ATOM     18  O   UNL     1      34.724  26.750  25.886  1.00  0.00    -0.504 OA
ATOM     19  H   UNL     1      34.999  25.924  26.405  1.00  0.00     0.293 HD
ENDBRANCH  15  18
BRANCH  17  20
ATOM     20  O   UNL     1      34.053  29.081  24.524  1.00  0.00    -0.504 OA
ATOM     21  H   UNL     1      34.848  29.674  24.732  1.00  0.00     0.293 HD
ENDBRANCH  17  20
ENDBRANCH   1  12
BRANCH   2  22
ATOM     22  O   UNL     1      34.750  24.300  20.126  1.00  0.00    -0.502 OA
ATOM     23  H   UNL     1      34.146  23.554  20.450  1.00  0.00     0.293 HD
ENDBRANCH   2  22
BRANCH   6  24
ATOM     24  O   UNL     1      33.518  25.658  15.259  1.00  0.00    -0.507 OA
ATOM     25  H   UNL     1      33.643  25.802  14.264  1.00  0.00     0.293 HD
ENDBRANCH   6  24
BRANCH   8  26
ATOM     26  O   UNL     1      31.807  30.125  15.895  1.00  0.00    -0.508 OA
ATOM     27  H   UNL     1      30.808  30.291  15.912  1.00  0.00     0.293 HD
ENDBRANCH   8  26
TORSDOF 6
ENDMDL
MODEL 4
REMARK VINA RESULT:    -7.025      1.406      2.961
REMARK INTER + INTRA:          -8.274
REMARK INTER:                  -7.952
REMARK INTRA:                  -0.322
REMARK UNBOUND:                 0.188
REMARK SMILES O=c1c(O)c(-c2ccc(O)c(O)c2)oc2cc(O)cc(O)c12
REMARK SMILES IDX 5 1 3 2 2 3 1 4 22 5 20 6 19 7 17 8 16 9 15 10 14 11 6 12
REMARK SMILES IDX 7 13 8 14 9 15 13 16 11 17 10 18 12 20 4 22 21 24 18 26
REMARK H PARENT 10 19 12 21 4 23 21 25 18 27
REMARK Flexibility Score: inf
ROOT
ATOM      1  C   UNL     1      34.297  27.463  20.498  1.00  0.00     0.180 A 
ATOM      2  C   UNL     1      33.667  28.139  19.435  1.00  0.00     0.208 A 
ATOM      3  C   UNL     1      33.227  27.399  18.327  1.00  0.00     0.238 A 
ATOM      4  O   UNL     1      32.652  27.992  17.374  1.00  0.00    -0.285 OA
ATOM      5  C   UNL     1      33.440  26.006  18.290  1.00  0.00     0.111 A 
ATOM      6  C   UNL     1      33.030  25.188  17.208  1.00  0.00     0.134 A 
ATOM      7  C   UNL     1      33.287  23.810  17.242  1.00  0.00     0.093 A 
ATOM      8  C   UNL     1      33.943  23.234  18.332  1.00  0.00     0.123 A 
ATOM      9  C   UNL     1      34.350  24.036  19.403  1.00  0.00     0.094 A 
ATOM     10  C   UNL     1      34.102  25.411  19.390  1.00  0.00     0.146 A 
ATOM     11  O   UNL     1      34.494  26.149  20.421  1.00  0.00    -0.452 OA
ENDROOT
BRANCH   1  12
ATOM     12  C   UNL     1      34.772  28.170  21.709  1.00  0.00     0.025 A 
ATOM     13  C   UNL     1      36.063  28.723  21.724  1.00  0.00     0.016 A 
ATOM     14  C   UNL     1      36.540  29.377  22.862  1.00  0.00     0.051 A 
ATOM     15  C   UNL     1      35.740  29.472  24.008  1.00  0.00     0.157 A 
ATOM     16  C   UNL     1      33.981  28.250  22.869  1.00  0.00     0.062 A 
ATOM     17  C   UNL     1      34.460  28.905  24.013  1.00  0.00     0.158 A 
BRANCH  15  18
ATOM     18  O   UNL     1      36.211  30.125  25.146  1.00  0.00    -0.504 OA
ATOM     19  H   UNL     1      35.788  30.984  25.479  1.00  0.00     0.293 HD
ENDBRANCH  15  18
BRANCH  17  20
ATOM     20  O   UNL     1      33.672  28.989  25.160  1.00  0.00    -0.504 OA
ATOM     21  H   UNL     1      33.995  29.466  25.992  1.00  0.00     0.293 HD
ENDBRANCH  17  20
ENDBRANCH   1  12
BRANCH   2  22
ATOM     22  O   UNL     1      33.513  29.527  19.475  1.00  0.00    -0.502 OA
ATOM     23  H   UNL     1      33.596  30.057  20.334  1.00  0.00     0.293 HD
ENDBRANCH   2  22
BRANCH   6  24
ATOM     24  O   UNL     1      32.372  25.734  16.105  1.00  0.00    -0.507 OA
ATOM     25  H   UNL     1      31.743  26.523  16.196  1.00  0.00     0.293 HD
ENDBRANCH   6  24
BRANCH   8  26
ATOM     26  O   UNL     1      34.187  21.862  18.340  1.00  0.00    -0.508 OA
ATOM     27  H   UNL     1      33.902  21.278  19.118  1.00  0.00     0.293 HD
ENDBRANCH   8  26
TORSDOF 6
ENDMDL
MODEL 5
REMARK VINA RESULT:    -7.002      1.152      6.651
REMARK INTER + INTRA:          -8.247
REMARK INTER:                  -8.758
REMARK INTRA:                   0.511
REMARK UNBOUND:                 0.188
REMARK SMILES O=c1c(O)c(-c2ccc(O)c(O)c2)oc2cc(O)cc(O)c12
REMARK SMILES IDX 5 1 3 2 2 3 1 4 22 5 20 6 19 7 17 8 16 9 15 10 14 11 6 12
REMARK SMILES IDX 7 13 8 14 9 15 13 16 11 17 10 18 12 20 4 22 21 24 18 26
REMARK H PARENT 10 19 12 21 4 23 21 25 18 27
REMARK Flexibility Score: inf
ROOT
ATOM      1  C   UNL     1      33.979  26.485  19.521  1.00  0.00     0.180 A 
ATOM      2  C   UNL     1      34.338  25.250  20.095  1.00  0.00     0.208 A 
ATOM      3  C   UNL     1      34.669  25.208  21.458  1.00  0.00     0.238 A 
ATOM      4  O   UNL     1      34.982  24.105  21.986  1.00  0.00    -0.285 OA
ATOM      5  C   UNL     1      34.657  26.396  22.216  1.00  0.00     0.111 A 
ATOM      6  C   UNL     1      34.983  26.439  23.594  1.00  0.00     0.134 A 
ATOM      7  C   UNL     1      34.956  27.664  24.277  1.00  0.00     0.093 A 
ATOM      8  C   UNL     1      34.612  28.843  23.612  1.00  0.00     0.123 A 
ATOM      9  C   UNL     1      34.290  28.807  22.252  1.00  0.00     0.094 A 
ATOM     10  C   UNL     1      34.308  27.597  21.554  1.00  0.00     0.146 A 
ATOM     11  O   UNL     1      33.993  27.589  20.264  1.00  0.00    -0.452 OA
ENDROOT
BRANCH   1  12
ATOM     12  C   UNL     1      33.598  26.609  18.095  1.00  0.00     0.025 A 
ATOM     13  C   UNL     1      33.823  25.531  17.224  1.00  0.00     0.016 A 
ATOM     14  C   UNL     1      33.490  25.633  15.872  1.00  0.00     0.051 A 
ATOM     15  C   UNL     1      32.944  26.820  15.366  1.00  0.00     0.157 A 
ATOM     16  C   UNL     1      33.069  27.806  17.579  1.00  0.00     0.062 A 
ATOM     17  C   UNL     1      32.737  27.909  16.220  1.00  0.00     0.158 A 
BRANCH  15  18
ATOM     18  O   UNL     1      32.609  26.925  14.017  1.00  0.00    -0.504 OA
ATOM     19  H   UNL     1      32.554  26.109  13.419  1.00  0.00     0.293 HD
ENDBRANCH  15  18
BRANCH  17  20
ATOM     20  O   UNL     1      32.206  29.094  15.713  1.00  0.00    -0.504 OA
ATOM     21  H   UNL     1      31.321  29.463  16.041  1.00  0.00     0.293 HD
ENDBRANCH  17  20
ENDBRANCH   1  12
BRANCH   2  22
ATOM     22  O   UNL     1      34.390  24.097  19.310  1.00  0.00    -0.502 OA
ATOM     23  H   UNL     1      35.175  23.457  19.338  1.00  0.00     0.293 HD
ENDBRANCH   2  22
BRANCH   6  24
ATOM     24  O   UNL     1      35.330  25.279  24.286  1.00  0.00    -0.507 OA
ATOM     25  H   UNL     1      36.018  25.288  25.030  1.00  0.00     0.293 HD
ENDBRANCH   6  24
BRANCH   8  26
ATOM     26  O   UNL     1      34.594  30.047  24.315  1.00  0.00    -0.508 OA
ATOM     27  H   UNL     1      34.825  30.088  25.300  1.00  0.00     0.293 HD
ENDBRANCH   8  26
TORSDOF 6
ENDMDL
MODEL 6
REMARK VINA RESULT:    -6.416      2.332      6.428
REMARK INTER + INTRA:          -7.541
REMARK INTER:                  -8.081
REMARK INTRA:                   0.540
REMARK UNBOUND:                 0.188
REMARK SMILES O=c1c(O)c(-c2ccc(O)c(O)c2)oc2cc(O)cc(O)c12
REMARK SMILES IDX 5 1 3 2 2 3 1 4 22 5 20 6 19 7 17 8 16 9 15 10 14 11 6 12
REMARK SMILES IDX 7 13 8 14 9 15 13 16 11 17 10 18 12 20 4 22 21 24 18 26
REMARK H PARENT 10 19 12 21 4 23 21 25 18 27
REMARK Flexibility Score: inf
ROOT
ATOM      1  C   UNL     1      33.810  25.133  18.999  1.00  0.00     0.180 A 
ATOM      2  C   UNL     1      33.329  25.839  17.879  1.00  0.00     0.208 A 
ATOM      3  C   UNL     1      33.237  27.238  17.948  1.00  0.00     0.238 A 
ATOM      4  O   UNL     1      32.818  27.881  16.947  1.00  0.00    -0.285 OA
ATOM      5  C   UNL     1      33.606  27.903  19.135  1.00  0.00     0.111 A 
ATOM      6  C   UNL     1      33.540  29.310  19.287  1.00  0.00     0.134 A 
ATOM      7  C   UNL     1      33.917  29.897  20.504  1.00  0.00     0.093 A 
ATOM      8  C   UNL     1      34.357  29.108  21.569  1.00  0.00     0.123 A 
ATOM      9  C   UNL     1      34.425  27.718  21.424  1.00  0.00     0.094 A 
ATOM     10  C   UNL     1      34.056  27.114  20.220  1.00  0.00     0.146 A 
ATOM     11  O   UNL     1      34.135  25.794  20.107  1.00  0.00    -0.452 OA
ENDROOT
BRANCH   1  12
ATOM     12  C   UNL     1      33.954  23.659  18.998  1.00  0.00     0.025 A 
ATOM     13  C   UNL     1      33.610  22.933  17.846  1.00  0.00     0.016 A 
ATOM     14  C   UNL     1      33.719  21.540  17.829  1.00  0.00     0.051 A 
ATOM     15  C   UNL     1      34.156  20.852  18.969  1.00  0.00     0.157 A 
ATOM     16  C   UNL     1      34.372  22.963  20.145  1.00  0.00     0.062 A 
ATOM     17  C   UNL     1      34.479  21.564  20.130  1.00  0.00     0.158 A 
BRANCH  15  18
ATOM     18  O   UNL     1      34.266  19.463  18.956  1.00  0.00    -0.504 OA
ATOM     19  H   UNL     1      34.313  18.943  18.087  1.00  0.00     0.293 HD
ENDBRANCH  15  18
BRANCH  17  20
ATOM     20  O   UNL     1      34.900  20.876  21.267  1.00  0.00    -0.504 OA
ATOM     21  H   UNL     1      35.164  19.899  21.229  1.00  0.00     0.293 HD
ENDBRANCH  17  20
ENDBRANCH   1  12
BRANCH   2  22
ATOM     22  O   UNL     1      32.923  25.151  16.733  1.00  0.00    -0.502 OA
ATOM     23  H   UNL     1      32.315  24.342  16.773  1.00  0.00     0.293 HD
ENDBRANCH   2  22
BRANCH   6  24
ATOM     24  O   UNL     1      33.104  30.125  18.241  1.00  0.00    -0.507 OA
ATOM     25  H   UNL     1      32.324  30.763  18.352  1.00  0.00     0.293 HD
ENDBRANCH   6  24
BRANCH   8  26
ATOM     26  O   UNL     1      34.725  29.716  22.767  1.00  0.00    -0.508 OA
ATOM     27  H   UNL     1      35.671  29.650  23.126  1.00  0.00     0.293 HD
ENDBRANCH   8  26
TORSDOF 6
ENDMDL
MODEL 7
REMARK VINA RESULT:    -6.334      2.819      4.639
REMARK INTER + INTRA:          -7.442
REMARK INTER:                  -7.370
REMARK INTRA:                  -0.072
REMARK UNBOUND:                 0.188
REMARK SMILES O=c1c(O)c(-c2ccc(O)c(O)c2)oc2cc(O)cc(O)c12
REMARK SMILES IDX 5 1 3 2 2 3 1 4 22 5 20 6 19 7 17 8 16 9 15 10 14 11 6 12
REMARK SMILES IDX 7 13 8 14 9 15 13 16 11 17 10 18 12 20 4 22 21 24 18 26
REMARK H PARENT 10 19 12 21 4 23 21 25 18 27
REMARK Flexibility Score: inf
ROOT
ATOM      1  C   UNL     1      34.745  24.931  20.436  1.00  0.00     0.180 A 
ATOM      2  C   UNL     1      34.346  24.867  19.087  1.00  0.00     0.208 A 
ATOM      3  C   UNL     1      33.967  23.626  18.551  1.00  0.00     0.238 A 
ATOM      4  O   UNL     1      33.597  23.558  17.347  1.00  0.00    -0.285 OA
ATOM      5  C   UNL     1      34.011  22.474  19.362  1.00  0.00     0.111 A 
ATOM      6  C   UNL     1      33.648  21.186  18.897  1.00  0.00     0.134 A 
ATOM      7  C   UNL     1      33.728  20.086  19.763  1.00  0.00     0.093 A 
ATOM      8  C   UNL     1      34.162  20.247  21.081  1.00  0.00     0.123 A 
ATOM      9  C   UNL     1      34.520  21.516  21.546  1.00  0.00     0.094 A 
ATOM     10  C   UNL     1      34.446  22.625  20.699  1.00  0.00     0.146 A 
ATOM     11  O   UNL     1      34.788  23.820  21.167  1.00  0.00    -0.452 OA
ENDROOT
BRANCH   1  12
ATOM     12  C   UNL     1      35.141  26.205  21.079  1.00  0.00     0.025 A 
ATOM     13  C   UNL     1      34.245  27.286  21.080  1.00  0.00     0.016 A 
ATOM     14  C   UNL     1      34.606  28.503  21.663  1.00  0.00     0.051 A 
ATOM     15  C   UNL     1      35.873  28.663  22.239  1.00  0.00     0.157 A 
ATOM     16  C   UNL     1      36.419  26.376  21.639  1.00  0.00     0.062 A 
ATOM     17  C   UNL     1      36.783  27.599  22.223  1.00  0.00     0.158 A 
BRANCH  15  18
ATOM     18  O   UNL     1      36.236  29.875  22.822  1.00  0.00    -0.504 OA
ATOM     19  H   UNL     1      35.630  30.686  22.781  1.00  0.00     0.293 HD
ENDBRANCH  15  18
BRANCH  17  20
ATOM     20  O   UNL     1      38.048  27.764  22.784  1.00  0.00    -0.504 OA
ATOM     21  H   UNL     1      38.370  27.184  23.549  1.00  0.00     0.293 HD
ENDBRANCH  17  20
ENDBRANCH   1  12
BRANCH   2  22
ATOM     22  O   UNL     1      34.359  26.015  18.292  1.00  0.00    -0.502 OA
ATOM     23  H   UNL     1      34.761  26.026  17.362  1.00  0.00     0.293 HD
ENDBRANCH   2  22
BRANCH   6  24
ATOM     24  O   UNL     1      33.211  20.992  17.586  1.00  0.00    -0.507 OA
ATOM     25  H   UNL     1      33.615  21.502  16.808  1.00  0.00     0.293 HD
ENDBRANCH   6  24
BRANCH   8  26
ATOM     26  O   UNL     1      34.232  19.137  21.921  1.00  0.00    -0.508 OA
ATOM     27  H   UNL     1      34.018  18.205  21.586  1.00  0.00     0.293 HD
ENDBRANCH   8  26
TORSDOF 6
ENDMDL
MODEL 8
REMARK VINA RESULT:    -6.286      3.383      6.205
REMARK INTER + INTRA:          -7.384
REMARK INTER:                  -7.416
REMARK INTRA:                   0.032
REMARK UNBOUND:                 0.188
REMARK SMILES O=c1c(O)c(-c2ccc(O)c(O)c2)oc2cc(O)cc(O)c12
REMARK SMILES IDX 5 1 3 2 2 3 1 4 22 5 20 6 19 7 17 8 16 9 15 10 14 11 6 12
REMARK SMILES IDX 7 13 8 14 9 15 13 16 11 17 10 18 12 20 4 22 21 24 18 26
REMARK H PARENT 10 19 12 21 4 23 21 25 18 27
REMARK Flexibility Score: inf
ROOT
ATOM      1  C   UNL     1      33.365  24.940  17.783  1.00  0.00     0.180 A 
ATOM      2  C   UNL     1      33.598  25.351  16.456  1.00  0.00     0.208 A 
ATOM      3  C   UNL     1      33.370  26.693  16.112  1.00  0.00     0.238 A 
ATOM      4  O   UNL     1      33.586  27.075  14.930  1.00  0.00    -0.285 OA
ATOM      5  C   UNL     1      32.895  27.592  17.089  1.00  0.00     0.111 A 
ATOM      6  C   UNL     1      32.636  28.959  16.823  1.00  0.00     0.134 A 
ATOM      7  C   UNL     1      32.156  29.788  17.847  1.00  0.00     0.093 A 
ATOM      8  C   UNL     1      31.930  29.280  19.129  1.00  0.00     0.123 A 
ATOM      9  C   UNL     1      32.185  27.931  19.397  1.00  0.00     0.094 A 
ATOM     10  C   UNL     1      32.665  27.089  18.391  1.00  0.00     0.146 A 
ATOM     11  O   UNL     1      32.903  25.813  18.674  1.00  0.00    -0.452 OA
ENDROOT
BRANCH   1  12
ATOM     12  C   UNL     1      33.600  23.548  18.227  1.00  0.00     0.025 A 
ATOM     13  C   UNL     1      33.035  22.486  17.503  1.00  0.00     0.016 A 
ATOM     14  C   UNL     1      33.227  21.166  17.916  1.00  0.00     0.051 A 
ATOM     15  C   UNL     1      33.972  20.888  19.068  1.00  0.00     0.157 A 
ATOM     16  C   UNL     1      34.331  23.265  19.396  1.00  0.00     0.062 A 
ATOM     17  C   UNL     1      34.522  21.939  19.812  1.00  0.00     0.158 A 
BRANCH  15  18
ATOM     18  O   UNL     1      34.167  19.572  19.483  1.00  0.00    -0.504 OA
ATOM     19  H   UNL     1      34.304  19.339  20.461  1.00  0.00     0.293 HD
ENDBRANCH  15  18
BRANCH  17  20
ATOM     20  O   UNL     1      35.251  21.661  20.967  1.00  0.00    -0.504 OA
ATOM     21  H   UNL     1      36.010  22.259  21.272  1.00  0.00     0.293 HD
ENDBRANCH  17  20
ENDBRANCH   1  12
BRANCH   2  22
ATOM     22  O   UNL     1      34.021  24.429  15.496  1.00  0.00    -0.502 OA
ATOM     23  H   UNL     1      34.801  24.611  14.877  1.00  0.00     0.293 HD
ENDBRANCH   2  22
BRANCH   6  24
ATOM     24  O   UNL     1      32.852  29.496  15.553  1.00  0.00    -0.507 OA
ATOM     25  H   UNL     1      32.538  30.428  15.309  1.00  0.00     0.293 HD
ENDBRANCH   6  24
BRANCH   8  26
ATOM     26  O   UNL     1      31.452  30.125  20.128  1.00  0.00    -0.508 OA
ATOM     27  H   UNL     1      30.909  30.951  19.907  1.00  0.00     0.293 HD
ENDBRANCH   8  26
TORSDOF 6
ENDMDL
MODEL 9
REMARK VINA RESULT:    -6.220      2.459      5.837
REMARK INTER + INTRA:          -7.305
REMARK INTER:                  -7.733
REMARK INTRA:                   0.428
REMARK UNBOUND:                 0.188
REMARK SMILES O=c1c(O)c(-c2ccc(O)c(O)c2)oc2cc(O)cc(O)c12
REMARK SMILES IDX 5 1 3 2 2 3 1 4 22 5 20 6 19 7 17 8 16 9 15 10 14 11 6 12
REMARK SMILES IDX 7 13 8 14 9 15 13 16 11 17 10 18 12 20 4 22 21 24 18 26
REMARK H PARENT 10 19 12 21 4 23 21 25 18 27
REMARK Flexibility Score: inf
ROOT
ATOM      1  C   UNL     1      33.933  25.204  19.376  1.00  0.00     0.180 A 
ATOM      2  C   UNL     1      34.441  25.845  20.523  1.00  0.00     0.208 A 
ATOM      3  C   UNL     1      34.318  27.239  20.631  1.00  0.00     0.238 A 
ATOM      4  O   UNL     1      34.760  27.823  21.658  1.00  0.00    -0.285 OA
ATOM      5  C   UNL     1      33.711  27.968  19.587  1.00  0.00     0.111 A 
ATOM      6  C   UNL     1      33.552  29.375  19.617  1.00  0.00     0.134 A 
ATOM      7  C   UNL     1      32.945  30.030  18.534  1.00  0.00     0.093 A 
ATOM      8  C   UNL     1      32.496  29.307  17.426  1.00  0.00     0.123 A 
ATOM      9  C   UNL     1      32.650  27.918  17.392  1.00  0.00     0.094 A 
ATOM     10  C   UNL     1      33.250  27.247  18.461  1.00  0.00     0.146 A 
ATOM     11  O   UNL     1      33.380  25.926  18.406  1.00  0.00    -0.452 OA
ENDROOT
BRANCH   1  12
ATOM     12  C   UNL     1      34.008  23.736  19.198  1.00  0.00     0.025 A 
ATOM     13  C   UNL     1      33.644  23.171  17.965  1.00  0.00     0.016 A 
ATOM     14  C   UNL     1      33.687  21.787  17.781  1.00  0.00     0.051 A 
ATOM     15  C   UNL     1      34.078  20.947  18.831  1.00  0.00     0.157 A 
ATOM     16  C   UNL     1      34.379  22.887  20.255  1.00  0.00     0.062 A 
ATOM     17  C   UNL     1      34.421  21.497  20.071  1.00  0.00     0.158 A 
BRANCH  15  18
ATOM     18  O   UNL     1      34.123  19.566  18.651  1.00  0.00    -0.504 OA
ATOM     19  H   UNL     1      35.002  19.077  18.518  1.00  0.00     0.293 HD
ENDBRANCH  15  18
BRANCH  17  20
ATOM     20  O   UNL     1      34.796  20.658  21.119  1.00  0.00    -0.504 OA
ATOM     21  H   UNL     1      35.337  20.999  21.905  1.00  0.00     0.293 HD
ENDBRANCH  17  20
ENDBRANCH   1  12
BRANCH   2  22
ATOM     22  O   UNL     1      35.082  25.105  21.519  1.00  0.00    -0.502 OA
ATOM     23  H   UNL     1      35.047  24.093  21.550  1.00  0.00     0.293 HD
ENDBRANCH   2  22
BRANCH   6  24
ATOM     24  O   UNL     1      33.990  30.125  20.709  1.00  0.00    -0.507 OA
ATOM     25  H   UNL     1      33.342  30.620  21.310  1.00  0.00     0.293 HD
ENDBRANCH   6  24
BRANCH   8  26
ATOM     26  O   UNL     1      31.897  29.982  16.364  1.00  0.00    -0.508 OA
ATOM     27  H   UNL     1      31.398  30.852  16.504  1.00  0.00     0.293 HD
ENDBRANCH   8  26
TORSDOF 6
ENDMDL
