MODEL 1
REMARK VINA RESULT:    -3.690      0.000      0.000
REMARK INTER + INTRA:          -9.301
REMARK INTER:                  -6.710
REMARK INTRA:                  -2.590
REMARK UNBOUND:                -2.590
REMARK SMILES CCCCCCCCCCCCCCCC(=O)[O-]
REMARK SMILES IDX 9 1 10 2 11 3 12 4 13 5 14 6 15 7 16 8 17 9 18 10 8 11 7 12
REMARK SMILES IDX 6 13 5 14 4 15 3 16 2 17 1 18
REMARK H PARENT
REMARK Flexibility Score: inf
ROOT
ATOM      1  C   UNL     1      23.026  17.321   7.598  1.00  0.00     0.000 C 
ENDROOT
BRANCH   1   2
ATOM      2  C   UNL     1      22.279  18.654   7.794  1.00  0.00     0.000 C 
BRANCH   2   3
ATOM      3  C   UNL     1      20.744  18.536   7.872  1.00  0.00     0.000 C 
BRANCH   3   4
ATOM      4  C   UNL     1      20.091  19.253   9.068  1.00  0.00     0.000 C 
BRANCH   4   5
ATOM      5  C   UNL     1      18.773  18.595   9.512  1.00  0.00     0.000 C 
BRANCH   5   6
ATOM      6  C   UNL     1      17.674  18.679   8.436  1.00  0.00     0.006 C 
BRANCH   6   7
ATOM      7  C   UNL     1      17.308  17.331   7.793  1.00  0.00     0.053 C 
BRANCH   7   8
ATOM      8  C   UNL     1      17.170  17.435   6.306  1.00  0.00     0.041 C 
ATOM      9  O   UNL     1      16.160  16.954   5.728  1.00  0.00    -0.550 OA
ATOM     10  O   UNL     1      18.173  18.033   5.553  1.00  0.00    -0.550 OA
ENDBRANCH   7   8
ENDBRANCH   6   7
ENDBRANCH   5   6
ENDBRANCH   4   5
ENDBRANCH   3   4
ENDBRANCH   2   3
ENDBRANCH   1   2
BRANCH   1  11
ATOM     11  C   UNL     1      22.342  16.325   6.639  1.00  0.00     0.000 C 
BRANCH  11  12
ATOM     12  C   UNL     1      21.929  14.981   7.275  1.00  0.00    -0.000 C 
BRANCH  12  13
ATOM     13  C   UNL     1      20.433  14.853   7.615  1.00  0.00    -0.000 C 
BRANCH  13  14
ATOM     14  C   UNL     1      20.089  15.092   9.097  1.00  0.00    -0.000 C 
BRANCH  14  15
ATOM     15  C   UNL     1      21.331  15.146  10.017  1.00  0.00    -0.000 C 
BRANCH  15  16
ATOM     16  C   UNL     1      21.295  16.302  11.035  1.00  0.00    -0.000 C 
BRANCH  16  17
ATOM     17  C   UNL     1      22.670  16.944  11.302  1.00  0.00    -0.003 C 
ATOM     18  C   UNL     1      22.563  18.363  11.859  1.00  0.00     0.004 C 
ENDBRANCH  16  17
ENDBRANCH  15  16
ENDBRANCH  14  15
ENDBRANCH  13  14
ENDBRANCH  12  13
ENDBRANCH  11  12
ENDBRANCH   1  11
TORSDOF 14
ENDMDL
MODEL 2
REMARK VINA RESULT:    -3.674      1.587      3.114
REMARK INTER + INTRA:          -9.272
REMARK INTER:                  -7.057
REMARK INTRA:                  -2.214
REMARK UNBOUND:                -2.590
REMARK SMILES CCCCCCCCCCCCCCCC(=O)[O-]
REMARK SMILES IDX 9 1 10 2 11 3 12 4 13 5 14 6 15 7 16 8 17 9 18 10 8 11 7 12
REMARK SMILES IDX 6 13 5 14 4 15 3 16 2 17 1 18
REMARK H PARENT
REMARK Flexibility Score: inf
ROOT
ATOM      1  C   UNL     1      22.180  18.458   7.983  1.00  0.00     0.000 C 
ENDROOT
BRANCH   1   2
ATOM      2  C   UNL     1      20.652  18.275   8.052  1.00  0.00     0.000 C 
BRANCH   2   3
ATOM      3  C   UNL     1      19.940  19.122   9.127  1.00  0.00     0.000 C 
BRANCH   3   4
ATOM      4  C   UNL     1      18.402  19.059   9.099  1.00  0.00     0.000 C 
BRANCH   4   5
ATOM      5  C   UNL     1      17.868  17.692   8.637  1.00  0.00     0.000 C 
BRANCH   5   6
ATOM      6  C   UNL     1      17.081  17.778   7.315  1.00  0.00     0.006 C 
BRANCH   6   7
ATOM      7  C   UNL     1      17.322  19.067   6.513  1.00  0.00     0.053 C 
BRANCH   7   8
ATOM      8  C   UNL     1      16.065  19.859   6.329  1.00  0.00     0.041 C 
ATOM      9  O   UNL     1      15.858  20.479   5.252  1.00  0.00    -0.550 OA
ATOM     10  O   UNL     1      15.137  19.943   7.359  1.00  0.00    -0.550 OA
ENDBRANCH   7   8
ENDBRANCH   6   7
ENDBRANCH   5   6
ENDBRANCH   4   5
ENDBRANCH   3   4
ENDBRANCH   2   3
ENDBRANCH   1   2
BRANCH   1  11
ATOM     11  C   UNL     1      22.983  17.617   8.996  1.00  0.00     0.000 C 
BRANCH  11  12
ATOM     12  C   UNL     1      23.013  18.176  10.434  1.00  0.00    -0.000 C 
BRANCH  12  13
ATOM     13  C   UNL     1      22.234  17.347  11.472  1.00  0.00    -0.000 C 
BRANCH  13  14
ATOM     14  C   UNL     1      21.898  15.912  11.024  1.00  0.00    -0.000 C 
BRANCH  14  15
ATOM     15  C   UNL     1      20.397  15.697  10.718  1.00  0.00    -0.000 C 
BRANCH  15  16
ATOM     16  C   UNL     1      20.140  14.849   9.457  1.00  0.00    -0.000 C 
BRANCH  16  17
ATOM     17  C   UNL     1      21.419  14.286   8.811  1.00  0.00    -0.003 C 
ATOM     18  C   UNL     1      21.550  14.659   7.334  1.00  0.00     0.004 C 
ENDBRANCH  16  17
ENDBRANCH  15  16
ENDBRANCH  14  15
ENDBRANCH  13  14
ENDBRANCH  12  13
ENDBRANCH  11  12
ENDBRANCH   1  11
TORSDOF 14
ENDMDL
MODEL 3
REMARK VINA RESULT:    -3.669      3.803      6.262
REMARK INTER + INTRA:          -9.262
REMARK INTER:                  -7.012
REMARK INTRA:                  -2.250
REMARK UNBOUND:                -2.590
REMARK SMILES CCCCCCCCCCCCCCCC(=O)[O-]
REMARK SMILES IDX 9 1 10 2 11 3 12 4 13 5 14 6 15 7 16 8 17 9 18 10 8 11 7 12
REMARK SMILES IDX 6 13 5 14 4 15 3 16 2 17 1 18
REMARK H PARENT
REMARK Flexibility Score: inf
ROOT
ATOM      1  C   UNL     1      21.476  15.641  11.190  1.00  0.00     0.000 C 
ENDROOT
BRANCH   1   2
ATOM      2  C   UNL     1      20.439  15.917  10.085  1.00  0.00     0.000 C 
BRANCH   2   3
ATOM      3  C   UNL     1      20.256  14.777   9.062  1.00  0.00     0.000 C 
BRANCH   3   4
ATOM      4  C   UNL     1      21.496  14.456   8.208  1.00  0.00     0.000 C 
BRANCH   4   5
ATOM      5  C   UNL     1      21.931  12.985   8.316  1.00  0.00     0.000 C 
BRANCH   5   6
ATOM      6  C   UNL     1      21.548  12.348   9.666  1.00  0.00     0.006 C 
BRANCH   6   7
ATOM      7  C   UNL     1      22.742  12.028  10.580  1.00  0.00     0.053 C 
BRANCH   7   8
ATOM      8  C   UNL     1      22.367  12.066  12.030  1.00  0.00     0.041 C 
ATOM      9  O   UNL     1      21.439  11.333  12.463  1.00  0.00    -0.550 OA
ATOM     10  O   UNL     1      23.018  12.934  12.896  1.00  0.00    -0.550 OA
ENDBRANCH   7   8
ENDBRANCH   6   7
ENDBRANCH   5   6
ENDBRANCH   4   5
ENDBRANCH   3   4
ENDBRANCH   2   3
ENDBRANCH   1   2
BRANCH   1  11
ATOM     11  C   UNL     1      22.525  16.754  11.391  1.00  0.00     0.000 C 
BRANCH  11  12
ATOM     12  C   UNL     1      22.380  17.969  10.450  1.00  0.00    -0.000 C 
BRANCH  12  13
ATOM     13  C   UNL     1      23.401  18.027   9.299  1.00  0.00    -0.000 C 
BRANCH  13  14
ATOM     14  C   UNL     1      22.786  17.907   7.891  1.00  0.00    -0.000 C 
BRANCH  14  15
ATOM     15  C   UNL     1      21.626  18.897   7.638  1.00  0.00    -0.000 C 
BRANCH  15  16
ATOM     16  C   UNL     1      20.395  18.248   6.975  1.00  0.00    -0.000 C 
BRANCH  16  17
ATOM     17  C   UNL     1      19.090  18.424   7.774  1.00  0.00    -0.003 C 
ATOM     18  C   UNL     1      19.276  19.273   9.032  1.00  0.00     0.004 C 
ENDBRANCH  16  17
ENDBRANCH  15  16
ENDBRANCH  14  15
ENDBRANCH  13  14
ENDBRANCH  12  13
ENDBRANCH  11  12
ENDBRANCH   1  11
TORSDOF 14
ENDMDL
MODEL 4
REMARK VINA RESULT:    -3.619      3.698      5.794
REMARK INTER + INTRA:          -9.171
REMARK INTER:                  -6.752
REMARK INTRA:                  -2.419
REMARK UNBOUND:                -2.590
REMARK SMILES CCCCCCCCCCCCCCCC(=O)[O-]
REMARK SMILES IDX 9 1 10 2 11 3 12 4 13 5 14 6 15 7 16 8 17 9 18 10 8 11 7 12
REMARK SMILES IDX 6 13 5 14 4 15 3 16 2 17 1 18
REMARK H PARENT
REMARK Flexibility Score: inf
ROOT
ATOM      1  C   UNL     1      19.303  16.844   9.826  1.00  0.00     0.000 C 
ENDROOT
BRANCH   1   2
ATOM      2  C   UNL     1      18.603  15.980   8.759  1.00  0.00     0.000 C 
BRANCH   2   3
ATOM      3  C   UNL     1      19.387  14.728   8.315  1.00  0.00     0.000 C 
BRANCH   3   4
ATOM      4  C   UNL     1      20.884  14.730   8.674  1.00  0.00     0.000 C 
BRANCH   4   5
ATOM      5  C   UNL     1      21.395  13.347   9.113  1.00  0.00     0.000 C 
BRANCH   5   6
ATOM      6  C   UNL     1      21.048  13.022  10.578  1.00  0.00     0.006 C 
BRANCH   6   7
ATOM      7  C   UNL     1      21.545  14.060  11.596  1.00  0.00     0.053 C 
BRANCH   7   8
ATOM      8  C   UNL     1      22.589  13.498  12.509  1.00  0.00     0.041 C 
ATOM      9  O   UNL     1      23.771  13.933  12.466  1.00  0.00    -0.550 OA
ATOM     10  O   UNL     1      22.268  12.469  13.386  1.00  0.00    -0.550 OA
ENDBRANCH   7   8
ENDBRANCH   6   7
ENDBRANCH   5   6
ENDBRANCH   4   5
ENDBRANCH   3   4
ENDBRANCH   2   3
ENDBRANCH   1   2
BRANCH   1  11
ATOM     11  C   UNL     1      19.507  18.322   9.437  1.00  0.00     0.000 C 
BRANCH  11  12
ATOM     12  C   UNL     1      19.796  18.572   7.941  1.00  0.00    -0.000 C 
BRANCH  12  13
ATOM     13  C   UNL     1      21.251  18.953   7.614  1.00  0.00    -0.000 C 
BRANCH  13  14
ATOM     14  C   UNL     1      22.099  17.805   7.034  1.00  0.00    -0.000 C 
BRANCH  14  15
ATOM     15  C   UNL     1      23.264  17.373   7.955  1.00  0.00    -0.000 C 
BRANCH  15  16
ATOM     16  C   UNL     1      23.324  18.153   9.283  1.00  0.00    -0.000 C 
BRANCH  16  17
ATOM     17  C   UNL     1      22.933  17.318  10.516  1.00  0.00    -0.003 C 
ATOM     18  C   UNL     1      22.516  18.181  11.707  1.00  0.00     0.004 C 
ENDBRANCH  16  17
ENDBRANCH  15  16
ENDBRANCH  14  15
ENDBRANCH  13  14
ENDBRANCH  12  13
ENDBRANCH  11  12
ENDBRANCH   1  11
TORSDOF 14
ENDMDL
MODEL 5
REMARK VINA RESULT:    -3.582      3.192      5.168
REMARK INTER + INTRA:          -9.103
REMARK INTER:                  -6.818
REMARK INTRA:                  -2.285
REMARK UNBOUND:                -2.590
REMARK SMILES CCCCCCCCCCCCCCCC(=O)[O-]
REMARK SMILES IDX 9 1 10 2 11 3 12 4 13 5 14 6 15 7 16 8 17 9 18 10 8 11 7 12
REMARK SMILES IDX 6 13 5 14 4 15 3 16 2 17 1 18
REMARK H PARENT
REMARK Flexibility Score: inf
ROOT
ATOM      1  C   UNL     1      17.200  16.555   7.439  1.00  0.00     0.000 C 
ENDROOT
BRANCH   1   2
ATOM      2  C   UNL     1      17.343  17.951   8.076  1.00  0.00     0.000 C 
BRANCH   2   3
ATOM      3  C   UNL     1      18.435  18.844   7.454  1.00  0.00     0.000 C 
BRANCH   3   4
ATOM      4  C   UNL     1      19.635  19.146   8.370  1.00  0.00     0.000 C 
BRANCH   4   5
ATOM      5  C   UNL     1      19.491  18.522   9.769  1.00  0.00     0.000 C 
BRANCH   5   6
ATOM      6  C   UNL     1      20.539  17.426  10.042  1.00  0.00     0.006 C 
BRANCH   6   7
ATOM      7  C   UNL     1      21.987  17.935  10.119  1.00  0.00     0.053 C 
BRANCH   7   8
ATOM      8  C   UNL     1      22.575  17.756  11.484  1.00  0.00     0.041 C 
ATOM      9  O   UNL     1      23.256  16.731  11.752  1.00  0.00    -0.550 OA
ATOM     10  O   UNL     1      22.343  18.705  12.472  1.00  0.00    -0.550 OA
ENDBRANCH   7   8
ENDBRANCH   6   7
ENDBRANCH   5   6
ENDBRANCH   4   5
ENDBRANCH   3   4
ENDBRANCH   2   3
ENDBRANCH   1   2
BRANCH   1  11
ATOM     11  C   UNL     1      18.414  15.624   7.633  1.00  0.00     0.000 C 
BRANCH  11  12
ATOM     12  C   UNL     1      19.136  15.210   6.333  1.00  0.00    -0.000 C 
BRANCH  12  13
ATOM     13  C   UNL     1      20.322  16.107   5.932  1.00  0.00    -0.000 C 
BRANCH  13  14
ATOM     14  C   UNL     1      21.578  15.937   6.808  1.00  0.00    -0.000 C 
BRANCH  14  15
ATOM     15  C   UNL     1      22.651  17.024   6.566  1.00  0.00    -0.000 C 
BRANCH  15  16
ATOM     16  C   UNL     1      22.134  18.234   5.764  1.00  0.00    -0.000 C 
BRANCH  16  17
ATOM     17  C   UNL     1      22.579  19.596   6.330  1.00  0.00    -0.003 C 
ATOM     18  C   UNL     1      23.556  20.328   5.409  1.00  0.00     0.004 C 
ENDBRANCH  16  17
ENDBRANCH  15  16
ENDBRANCH  14  15
ENDBRANCH  13  14
ENDBRANCH  12  13
ENDBRANCH  11  12
ENDBRANCH   1  11
TORSDOF 14
ENDMDL
MODEL 6
REMARK VINA RESULT:    -3.582      2.371      5.115
REMARK INTER + INTRA:          -9.103
REMARK INTER:                  -6.947
REMARK INTRA:                  -2.156
REMARK UNBOUND:                -2.590
REMARK SMILES CCCCCCCCCCCCCCCC(=O)[O-]
REMARK SMILES IDX 9 1 10 2 11 3 12 4 13 5 14 6 15 7 16 8 17 9 18 10 8 11 7 12
REMARK SMILES IDX 6 13 5 14 4 15 3 16 2 17 1 18
REMARK H PARENT
REMARK Flexibility Score: inf
ROOT
ATOM      1  C   UNL     1      22.789  17.719   7.931  1.00  0.00     0.000 C 
ENDROOT
BRANCH   1   2
ATOM      2  C   UNL     1      23.562  18.209   9.171  1.00  0.00     0.000 C 
BRANCH   2   3
ATOM      3  C   UNL     1      23.321  17.391  10.456  1.00  0.00     0.000 C 
BRANCH   3   4
ATOM      4  C   UNL     1      21.985  17.666  11.168  1.00  0.00     0.000 C 
BRANCH   4   5
ATOM      5  C   UNL     1      20.962  16.533  10.977  1.00  0.00     0.000 C 
BRANCH   5   6
ATOM      6  C   UNL     1      21.586  15.265  10.365  1.00  0.00     0.006 C 
BRANCH   6   7
ATOM      7  C   UNL     1      20.856  14.734   9.120  1.00  0.00     0.053 C 
BRANCH   7   8
ATOM      8  C   UNL     1      21.740  13.869   8.276  1.00  0.00     0.041 C 
ATOM      9  O   UNL     1      22.065  12.718   8.670  1.00  0.00    -0.550 OA
ATOM     10  O   UNL     1      22.234  14.347   7.068  1.00  0.00    -0.550 OA
ENDBRANCH   7   8
ENDBRANCH   6   7
ENDBRANCH   5   6
ENDBRANCH   4   5
ENDBRANCH   3   4
ENDBRANCH   2   3
ENDBRANCH   1   2
BRANCH   1  11
ATOM     11  C   UNL     1      21.709  18.689   7.411  1.00  0.00     0.000 C 
BRANCH  11  12
ATOM     12  C   UNL     1      20.261  18.332   7.809  1.00  0.00    -0.000 C 
BRANCH  12  13
ATOM     13  C   UNL     1      19.655  19.212   8.917  1.00  0.00    -0.000 C 
BRANCH  13  14
ATOM     14  C   UNL     1      18.151  18.986   9.164  1.00  0.00    -0.000 C 
BRANCH  14  15
ATOM     15  C   UNL     1      17.644  17.613   8.665  1.00  0.00    -0.000 C 
BRANCH  15  16
ATOM     16  C   UNL     1      16.491  17.713   7.646  1.00  0.00    -0.000 C 
BRANCH  16  17
ATOM     17  C   UNL     1      16.930  17.507   6.184  1.00  0.00    -0.003 C 
ATOM     18  C   UNL     1      17.284  18.819   5.482  1.00  0.00     0.004 C 
ENDBRANCH  16  17
ENDBRANCH  15  16
ENDBRANCH  14  15
ENDBRANCH  13  14
ENDBRANCH  12  13
ENDBRANCH  11  12
ENDBRANCH   1  11
TORSDOF 14
ENDMDL
MODEL 7
REMARK VINA RESULT:    -3.564      2.009      4.874
REMARK INTER + INTRA:          -9.071
REMARK INTER:                  -6.381
REMARK INTRA:                  -2.690
REMARK UNBOUND:                -2.590
REMARK SMILES CCCCCCCCCCCCCCCC(=O)[O-]
REMARK SMILES IDX 9 1 10 2 11 3 12 4 13 5 14 6 15 7 16 8 17 9 18 10 8 11 7 12
REMARK SMILES IDX 6 13 5 14 4 15 3 16 2 17 1 18
REMARK H PARENT
REMARK Flexibility Score: inf
ROOT
ATOM      1  C   UNL     1      20.423  16.006  10.616  1.00  0.00     0.000 C 
ENDROOT
BRANCH   1   2
ATOM      2  C   UNL     1      20.228  14.928   9.532  1.00  0.00     0.000 C 
BRANCH   2   3
ATOM      3  C   UNL     1      21.530  14.309   8.986  1.00  0.00     0.000 C 
BRANCH   3   4
ATOM      4  C   UNL     1      21.730  14.437   7.465  1.00  0.00     0.000 C 
BRANCH   4   5
ATOM      5  C   UNL     1      20.444  14.160   6.668  1.00  0.00     0.000 C 
BRANCH   5   6
ATOM      6  C   UNL     1      20.257  15.129   5.485  1.00  0.00     0.006 C 
BRANCH   6   7
ATOM      7  C   UNL     1      21.431  15.157   4.493  1.00  0.00     0.053 C 
BRANCH   7   8
ATOM      8  C   UNL     1      22.164  16.462   4.526  1.00  0.00     0.041 C 
ATOM      9  O   UNL     1      23.389  16.495   4.820  1.00  0.00    -0.550 OA
ATOM     10  O   UNL     1      21.489  17.648   4.266  1.00  0.00    -0.550 OA
ENDBRANCH   7   8
ENDBRANCH   6   7
ENDBRANCH   5   6
ENDBRANCH   4   5
ENDBRANCH   3   4
ENDBRANCH   2   3
ENDBRANCH   1   2
BRANCH   1  11
ATOM     11  C   UNL     1      21.890  16.378  10.908  1.00  0.00     0.000 C 
BRANCH  11  12
ATOM     12  C   UNL     1      22.284  17.826  10.543  1.00  0.00    -0.000 C 
BRANCH  12  13
ATOM     13  C   UNL     1      23.227  17.958   9.332  1.00  0.00    -0.000 C 
BRANCH  13  14
ATOM     14  C   UNL     1      22.522  17.912   7.963  1.00  0.00    -0.000 C 
BRANCH  14  15
ATOM     15  C   UNL     1      21.255  18.795   7.891  1.00  0.00    -0.000 C 
BRANCH  15  16
ATOM     16  C   UNL     1      19.994  18.031   7.441  1.00  0.00    -0.000 C 
BRANCH  16  17
ATOM     17  C   UNL     1      18.723  18.406   8.226  1.00  0.00    -0.003 C 
ATOM     18  C   UNL     1      19.025  19.208   9.493  1.00  0.00     0.004 C 
ENDBRANCH  16  17
ENDBRANCH  15  16
ENDBRANCH  14  15
ENDBRANCH  13  14
ENDBRANCH  12  13
ENDBRANCH  11  12
ENDBRANCH   1  11
TORSDOF 14
ENDMDL
MODEL 8
REMARK VINA RESULT:    -3.554      3.081      5.757
REMARK INTER + INTRA:          -9.052
REMARK INTER:                  -7.121
REMARK INTRA:                  -1.931
REMARK UNBOUND:                -2.590
REMARK SMILES CCCCCCCCCCCCCCCC(=O)[O-]
REMARK SMILES IDX 9 1 10 2 11 3 12 4 13 5 14 6 15 7 16 8 17 9 18 10 8 11 7 12
REMARK SMILES IDX 6 13 5 14 4 15 3 16 2 17 1 18
REMARK H PARENT
REMARK Flexibility Score: inf
ROOT
ATOM      1  C   UNL     1      20.314  18.301   7.437  1.00  0.00     0.000 C 
ENDROOT
BRANCH   1   2
ATOM      2  C   UNL     1      21.630  18.908   6.915  1.00  0.00     0.000 C 
BRANCH   2   3
ATOM      3  C   UNL     1      22.903  18.426   7.640  1.00  0.00     0.000 C 
BRANCH   3   4
ATOM      4  C   UNL     1      22.669  17.404   8.767  1.00  0.00     0.000 C 
BRANCH   4   5
ATOM      5  C   UNL     1      22.984  17.971  10.162  1.00  0.00     0.000 C 
BRANCH   5   6
ATOM      6  C   UNL     1      22.543  17.031  11.300  1.00  0.00     0.006 C 
BRANCH   6   7
ATOM      7  C   UNL     1      21.605  15.896  10.860  1.00  0.00     0.053 C 
BRANCH   7   8
ATOM      8  C   UNL     1      21.951  14.594  11.512  1.00  0.00     0.041 C 
ATOM      9  O   UNL     1      23.025  14.475  12.160  1.00  0.00    -0.550 OA
ATOM     10  O   UNL     1      21.106  13.500  11.377  1.00  0.00    -0.550 OA
ENDBRANCH   7   8
ENDBRANCH   6   7
ENDBRANCH   5   6
ENDBRANCH   4   5
ENDBRANCH   3   4
ENDBRANCH   2   3
ENDBRANCH   1   2
BRANCH   1  11
ATOM     11  C   UNL     1      19.673  19.054   8.620  1.00  0.00     0.000 C 
BRANCH  11  12
ATOM     12  C   UNL     1      18.650  18.238   9.439  1.00  0.00    -0.000 C 
BRANCH  12  13
ATOM     13  C   UNL     1      18.563  16.745   9.072  1.00  0.00    -0.000 C 
BRANCH  13  14
ATOM     14  C   UNL     1      17.216  16.313   8.464  1.00  0.00    -0.000 C 
BRANCH  14  15
ATOM     15  C   UNL     1      17.082  16.646   6.959  1.00  0.00    -0.000 C 
BRANCH  15  16
ATOM     16  C   UNL     1      15.987  17.686   6.653  1.00  0.00    -0.000 C 
BRANCH  16  17
ATOM     17  C   UNL     1      16.511  19.130   6.537  1.00  0.00    -0.003 C 
ATOM     18  C   UNL     1      15.935  20.056   7.608  1.00  0.00     0.004 C 
ENDBRANCH  16  17
ENDBRANCH  15  16
ENDBRANCH  14  15
ENDBRANCH  13  14
ENDBRANCH  12  13
ENDBRANCH  11  12
ENDBRANCH   1  11
TORSDOF 14
ENDMDL
MODEL 9
REMARK VINA RESULT:    -3.546      3.150      5.475
REMARK INTER + INTRA:          -9.038
REMARK INTER:                  -6.969
REMARK INTRA:                  -2.069
REMARK UNBOUND:                -2.590
REMARK SMILES CCCCCCCCCCCCCCCC(=O)[O-]
REMARK SMILES IDX 9 1 10 2 11 3 12 4 13 5 14 6 15 7 16 8 17 9 18 10 8 11 7 12
REMARK SMILES IDX 6 13 5 14 4 15 3 16 2 17 1 18
REMARK H PARENT
REMARK Flexibility Score: inf
ROOT
ATOM      1  C   UNL     1      16.875  18.649   6.846  1.00  0.00     0.000 C 
ENDROOT
BRANCH   1   2
ATOM      2  C   UNL     1      17.243  18.260   8.290  1.00  0.00     0.000 C 
BRANCH   2   3
ATOM      3  C   UNL     1      18.070  19.310   9.059  1.00  0.00     0.000 C 
BRANCH   3   4
ATOM      4  C   UNL     1      19.411  18.805   9.622  1.00  0.00     0.000 C 
BRANCH   4   5
ATOM      5  C   UNL     1      19.497  17.270   9.674  1.00  0.00     0.000 C 
BRANCH   5   6
ATOM      6  C   UNL     1      20.949  16.755   9.668  1.00  0.00     0.006 C 
BRANCH   6   7
ATOM      7  C   UNL     1      22.002  17.818  10.019  1.00  0.00     0.053 C 
BRANCH   7   8
ATOM      8  C   UNL     1      22.495  17.680  11.426  1.00  0.00     0.041 C 
ATOM      9  O   UNL     1      22.364  18.632  12.240  1.00  0.00    -0.550 OA
ATOM     10  O   UNL     1      23.130  16.512  11.830  1.00  0.00    -0.550 OA
ENDBRANCH   7   8
ENDBRANCH   6   7
ENDBRANCH   5   6
ENDBRANCH   4   5
ENDBRANCH   3   4
ENDBRANCH   2   3
ENDBRANCH   1   2
BRANCH   1  11
ATOM     11  C   UNL     1      17.566  17.812   5.750  1.00  0.00     0.000 C 
BRANCH  11  12
ATOM     12  C   UNL     1      18.998  17.345   6.087  1.00  0.00    -0.000 C 
BRANCH  12  13
ATOM     13  C   UNL     1      20.122  18.233   5.521  1.00  0.00    -0.000 C 
BRANCH  13  14
ATOM     14  C   UNL     1      21.286  18.492   6.496  1.00  0.00    -0.000 C 
BRANCH  14  15
ATOM     15  C   UNL     1      22.682  18.337   5.847  1.00  0.00    -0.000 C 
BRANCH  15  16
ATOM     16  C   UNL     1      23.013  16.890   5.433  1.00  0.00    -0.000 C 
BRANCH  16  17
ATOM     17  C   UNL     1      22.901  15.871   6.582  1.00  0.00    -0.003 C 
ATOM     18  C   UNL     1      22.741  14.434   6.085  1.00  0.00     0.004 C 
ENDBRANCH  16  17
ENDBRANCH  15  16
ENDBRANCH  14  15
ENDBRANCH  13  14
ENDBRANCH  12  13
ENDBRANCH  11  12
ENDBRANCH   1  11
TORSDOF 14
ENDMDL
