MODEL 1
REMARK VINA RESULT:    -7.423      0.000      0.000
REMARK INTER + INTRA:         -12.336
REMARK INTER:                 -10.895
REMARK INTRA:                  -1.441
REMARK UNBOUND:                -1.441
REMARK SMILES O=c1c(O[C@@H]2O[C@@H](CO)[C@@H](O)[C@@H](O)[C@H]2O)c(-c2ccc(O)c(O)c2)oc2cc(O)cc(O)c12
REMARK SMILES IDX 4 1 3 2 16 3 25 4 2 5 26 6 1 7 33 8 27 9 31 10 28 11 30 12
REMARK SMILES IDX 17 13 18 14 19 15 20 16 24 17 22 18 21 19 23 21 32 23 29 25
REMARK SMILES IDX 5 27 14 28 6 29 12 30 7 31 10 32 15 33 13 35 8 37 9 38 11 40
REMARK H PARENT 21 20 23 22 32 24 29 26 15 34 13 36 9 39 11 41
REMARK Flexibility Score: inf
ROOT
ATOM      1  O   UNL     1       0.949 -21.751  28.774  1.00  0.00    -0.454 OA
ENDROOT
BRANCH   1   2
ATOM      2  C   UNL     1       1.695 -22.924  28.575  1.00  0.00     0.214 A 
ATOM      3  C   UNL     1       1.937 -23.457  27.293  1.00  0.00     0.180 A 
ATOM      4  O   UNL     1       2.375 -24.704  27.173  1.00  0.00    -0.452 OA
ATOM      5  C   UNL     1       2.172 -23.619  29.692  1.00  0.00     0.239 A 
ATOM      6  C   UNL     1       2.766 -25.435  28.213  1.00  0.00     0.146 A 
ATOM      7  O   UNL     1       1.946 -23.151  30.840  1.00  0.00    -0.285 OA
ATOM      8  C   UNL     1       2.806 -24.868  29.516  1.00  0.00     0.111 A 
ATOM      9  C   UNL     1       3.176 -26.754  28.007  1.00  0.00     0.094 A 
ATOM     10  C   UNL     1       3.470 -25.584  30.547  1.00  0.00     0.134 A 
ATOM     11  C   UNL     1       3.729 -27.490  29.053  1.00  0.00     0.123 A 
ATOM     12  C   UNL     1       3.912 -26.892  30.303  1.00  0.00     0.093 A 
BRANCH   3  13
ATOM     13  C   UNL     1       1.799 -22.638  26.070  1.00  0.00     0.025 A 
ATOM     14  C   UNL     1       0.538 -22.515  25.455  1.00  0.00     0.016 A 
ATOM     15  C   UNL     1       0.368 -21.635  24.380  1.00  0.00     0.051 A 
ATOM     16  C   UNL     1       1.440 -20.857  23.919  1.00  0.00     0.157 A 
ATOM     17  C   UNL     1       2.875 -21.869  25.602  1.00  0.00     0.062 A 
ATOM     18  C   UNL     1       2.699 -20.981  24.525  1.00  0.00     0.158 A 
BRANCH  16  19
ATOM     19  O   UNL     1       1.256 -19.951  22.875  1.00  0.00    -0.504 OA
ATOM     20  H   UNL     1       1.401 -18.954  23.011  1.00  0.00     0.293 HD
ENDBRANCH  16  19
BRANCH  18  21
ATOM     21  O   UNL     1       3.770 -20.213  24.062  1.00  0.00    -0.504 OA
ATOM     22  H   UNL     1       4.543 -20.623  23.566  1.00  0.00     0.293 HD
ENDBRANCH  18  21
ENDBRANCH   3  13
BRANCH  10  23
ATOM     23  O   UNL     1       3.800 -25.004  31.771  1.00  0.00    -0.507 OA
ATOM     24  H   UNL     1       4.748 -24.767  32.036  1.00  0.00     0.293 HD
ENDBRANCH  10  23
BRANCH  11  25
ATOM     25  O   UNL     1       4.122 -28.818  28.866  1.00  0.00    -0.508 OA
ATOM     26  H   UNL     1       4.253 -29.184  27.933  1.00  0.00     0.293 HD
ENDBRANCH  11  25
ENDBRANCH   1   2
BRANCH   1  27
ATOM     27  C   UNL     1      -0.477 -21.767  28.963  1.00  0.00     0.339 C 
ATOM     28  C   UNL     1      -0.855 -21.370  30.404  1.00  0.00     0.214 C 
ATOM     29  O   UNL     1      -1.132 -20.943  28.002  1.00  0.00    -0.332 OA
ATOM     30  C   UNL     1      -0.557 -19.867  30.629  1.00  0.00     0.180 C 
ATOM     31  C   UNL     1      -0.745 -19.577  28.137  1.00  0.00     0.179 C 
ATOM     32  C   UNL     1      -1.189 -19.020  29.503  1.00  0.00     0.177 C 
BRANCH  28  33
ATOM     33  O   UNL     1      -2.223 -21.645  30.591  1.00  0.00    -0.384 OA
ATOM     34  H   UNL     1      -2.605 -21.865  29.702  1.00  0.00     0.211 HD
ENDBRANCH  28  33
BRANCH  30  35
ATOM     35  O   UNL     1      -1.017 -19.445  31.891  1.00  0.00    -0.387 OA
ATOM     36  H   UNL     1      -1.545 -18.617  31.728  1.00  0.00     0.211 HD
ENDBRANCH  30  35
BRANCH  31  37
ATOM     37  C   UNL     1      -1.319 -18.772  26.956  1.00  0.00     0.191 C 
BRANCH  37  38
ATOM     38  O   UNL     1      -2.620 -19.188  26.633  1.00  0.00    -0.394 OA
ATOM     39  H   UNL     1      -2.638 -19.324  25.649  1.00  0.00     0.210 HD
ENDBRANCH  37  38
ENDBRANCH  31  37
BRANCH  32  40
ATOM     40  O   UNL     1      -2.595 -19.047  29.608  1.00  0.00    -0.387 OA
ATOM     41  H   UNL     1      -2.926 -19.696  28.935  1.00  0.00     0.211 HD
ENDBRANCH  32  40
ENDBRANCH   1  27
TORSDOF 12
ENDMDL
MODEL 2
REMARK VINA RESULT:    -7.160      2.741      4.049
REMARK INTER + INTRA:         -11.950
REMARK INTER:                 -10.376
REMARK INTRA:                  -1.574
REMARK UNBOUND:                -1.441
REMARK SMILES O=c1c(O[C@@H]2O[C@@H](CO)[C@@H](O)[C@@H](O)[C@H]2O)c(-c2ccc(O)c(O)c2)oc2cc(O)cc(O)c12
REMARK SMILES IDX 4 1 3 2 16 3 25 4 2 5 26 6 1 7 33 8 27 9 31 10 28 11 30 12
REMARK SMILES IDX 17 13 18 14 19 15 20 16 24 17 22 18 21 19 23 21 32 23 29 25
REMARK SMILES IDX 5 27 14 28 6 29 12 30 7 31 10 32 15 33 13 35 8 37 9 38 11 40
REMARK H PARENT 21 20 23 22 32 24 29 26 15 34 13 36 9 39 11 41
REMARK Flexibility Score: inf
ROOT
ATOM      1  O   UNL     1      -0.408 -20.711  28.405  1.00  0.00    -0.454 OA
ENDROOT
BRANCH   1   2
ATOM      2  C   UNL     1      -0.452 -22.004  28.950  1.00  0.00     0.214 A 
ATOM      3  C   UNL     1       0.119 -23.117  28.301  1.00  0.00     0.180 A 
ATOM      4  O   UNL     1      -0.205 -24.343  28.694  1.00  0.00    -0.452 OA
ATOM      5  C   UNL     1      -1.132 -22.205  30.156  1.00  0.00     0.239 A 
ATOM      6  C   UNL     1      -0.918 -24.584  29.791  1.00  0.00     0.146 A 
ATOM      7  O   UNL     1      -1.654 -21.213  30.733  1.00  0.00    -0.285 OA
ATOM      8  C   UNL     1      -1.301 -23.517  30.649  1.00  0.00     0.111 A 
ATOM      9  C   UNL     1      -1.252 -25.901  30.114  1.00  0.00     0.094 A 
ATOM     10  C   UNL     1      -1.825 -23.833  31.931  1.00  0.00     0.134 A 
ATOM     11  C   UNL     1      -1.866 -26.193  31.330  1.00  0.00     0.123 A 
ATOM     12  C   UNL     1      -2.112 -25.168  32.248  1.00  0.00     0.093 A 
BRANCH   3  13
ATOM     13  C   UNL     1       1.141 -22.964  27.244  1.00  0.00     0.025 A 
ATOM     14  C   UNL     1       2.496 -22.835  27.601  1.00  0.00     0.016 A 
ATOM     15  C   UNL     1       3.483 -22.829  26.609  1.00  0.00     0.051 A 
ATOM     16  C   UNL     1       3.136 -22.969  25.257  1.00  0.00     0.157 A 
ATOM     17  C   UNL     1       0.790 -23.093  25.891  1.00  0.00     0.062 A 
ATOM     18  C   UNL     1       1.785 -23.091  24.896  1.00  0.00     0.158 A 
BRANCH  16  19
ATOM     19  O   UNL     1       4.125 -23.004  24.275  1.00  0.00    -0.504 OA
ATOM     20  H   UNL     1       3.995 -22.540  23.380  1.00  0.00     0.293 HD
ENDBRANCH  16  19
BRANCH  18  21
ATOM     21  O   UNL     1       1.437 -23.223  23.550  1.00  0.00    -0.504 OA
ATOM     22  H   UNL     1       1.495 -24.105  23.070  1.00  0.00     0.293 HD
ENDBRANCH  18  21
ENDBRANCH   3  13
BRANCH  10  23
ATOM     23  O   UNL     1      -1.972 -22.879  32.937  1.00  0.00    -0.507 OA
ATOM     24  H   UNL     1      -1.452 -22.011  32.959  1.00  0.00     0.293 HD
ENDBRANCH  10  23
BRANCH  11  25
ATOM     25  O   UNL     1      -2.227 -27.504  31.656  1.00  0.00    -0.508 OA
ATOM     26  H   UNL     1      -2.554 -28.134  30.937  1.00  0.00     0.293 HD
ENDBRANCH  11  25
ENDBRANCH   1   2
BRANCH   1  27
ATOM     27  C   UNL     1      -1.522 -20.133  27.700  1.00  0.00     0.339 C 
ATOM     28  C   UNL     1      -1.767 -18.676  28.141  1.00  0.00     0.214 C 
ATOM     29  O   UNL     1      -1.344 -20.232  26.290  1.00  0.00    -0.332 OA
ATOM     30  C   UNL     1      -0.614 -17.774  27.636  1.00  0.00     0.180 C 
ATOM     31  C   UNL     1      -0.199 -19.502  25.856  1.00  0.00     0.179 C 
ATOM     32  C   UNL     1      -0.380 -17.997  26.126  1.00  0.00     0.177 C 
BRANCH  28  33
ATOM     33  O   UNL     1      -3.001 -18.258  27.609  1.00  0.00    -0.384 OA
ATOM     34  H   UNL     1      -3.477 -17.758  28.322  1.00  0.00     0.211 HD
ENDBRANCH  28  33
BRANCH  30  35
ATOM     35  O   UNL     1      -0.878 -16.418  27.906  1.00  0.00    -0.387 OA
ATOM     36  H   UNL     1      -1.737 -16.209  27.449  1.00  0.00     0.211 HD
ENDBRANCH  30  35
BRANCH  31  37
ATOM     37  C   UNL     1       0.060 -19.809  24.368  1.00  0.00     0.191 C 
BRANCH  37  38
ATOM     38  O   UNL     1      -1.123 -19.749  23.617  1.00  0.00    -0.394 OA
ATOM     39  H   UNL     1      -1.533 -18.864  23.803  1.00  0.00     0.210 HD
ENDBRANCH  37  38
ENDBRANCH  31  37
BRANCH  32  40
ATOM     40  O   UNL     1      -1.473 -17.497  25.388  1.00  0.00    -0.387 OA
ATOM     41  H   UNL     1      -1.128 -17.232  24.497  1.00  0.00     0.211 HD
ENDBRANCH  32  40
ENDBRANCH   1  27
TORSDOF 12
ENDMDL
MODEL 3
REMARK VINA RESULT:    -7.074      2.802      8.472
REMARK INTER + INTRA:         -11.823
REMARK INTER:                 -10.673
REMARK INTRA:                  -1.150
REMARK UNBOUND:                -1.441
REMARK SMILES O=c1c(O[C@@H]2O[C@@H](CO)[C@@H](O)[C@@H](O)[C@H]2O)c(-c2ccc(O)c(O)c2)oc2cc(O)cc(O)c12
REMARK SMILES IDX 4 1 3 2 16 3 25 4 2 5 26 6 1 7 33 8 27 9 31 10 28 11 30 12
REMARK SMILES IDX 17 13 18 14 19 15 20 16 24 17 22 18 21 19 23 21 32 23 29 25
REMARK SMILES IDX 5 27 14 28 6 29 12 30 7 31 10 32 15 33 13 35 8 37 9 38 11 40
REMARK H PARENT 21 20 23 22 32 24 29 26 15 34 13 36 9 39 11 41
REMARK Flexibility Score: inf
ROOT
ATOM      1  O   UNL     1      -0.221 -20.749  25.951  1.00  0.00    -0.454 OA
ENDROOT
BRANCH   1   2
ATOM      2  C   UNL     1      -0.642 -19.486  26.396  1.00  0.00     0.214 A 
ATOM      3  C   UNL     1      -1.126 -19.266  27.700  1.00  0.00     0.180 A 
ATOM      4  O   UNL     1      -1.786 -18.148  27.976  1.00  0.00    -0.452 OA
ATOM      5  C   UNL     1      -0.631 -18.415  25.494  1.00  0.00     0.239 A 
ATOM      6  C   UNL     1      -1.872 -17.132  27.122  1.00  0.00     0.146 A 
ATOM      7  O   UNL     1      -0.209 -18.611  24.323  1.00  0.00    -0.285 OA
ATOM      8  C   UNL     1      -1.176 -17.172  25.883  1.00  0.00     0.111 A 
ATOM      9  C   UNL     1      -2.621 -16.006  27.472  1.00  0.00     0.094 A 
ATOM     10  C   UNL     1      -1.076 -15.977  25.123  1.00  0.00     0.134 A 
ATOM     11  C   UNL     1      -2.603 -14.871  26.663  1.00  0.00     0.123 A 
ATOM     12  C   UNL     1      -1.802 -14.845  25.518  1.00  0.00     0.093 A 
BRANCH   3  13
ATOM     13  C   UNL     1      -0.848 -20.209  28.804  1.00  0.00     0.025 A 
ATOM     14  C   UNL     1       0.112 -19.876  29.778  1.00  0.00     0.016 A 
ATOM     15  C   UNL     1       0.284 -20.695  30.899  1.00  0.00     0.051 A 
ATOM     16  C   UNL     1      -0.507 -21.841  31.074  1.00  0.00     0.157 A 
ATOM     17  C   UNL     1      -1.632 -21.361  28.971  1.00  0.00     0.062 A 
ATOM     18  C   UNL     1      -1.460 -22.180  30.102  1.00  0.00     0.158 A 
BRANCH  16  19
ATOM     19  O   UNL     1      -0.361 -22.631  32.213  1.00  0.00    -0.504 OA
ATOM     20  H   UNL     1      -0.473 -22.239  33.144  1.00  0.00     0.293 HD
ENDBRANCH  16  19
BRANCH  18  21
ATOM     21  O   UNL     1      -2.242 -23.325  30.270  1.00  0.00    -0.504 OA
ATOM     22  H   UNL     1      -2.478 -23.678  31.182  1.00  0.00     0.293 HD
ENDBRANCH  18  21
ENDBRANCH   3  13
BRANCH  10  23
ATOM     23  O   UNL     1      -0.198 -15.844  24.048  1.00  0.00    -0.507 OA
ATOM     24  H   UNL     1       0.737 -16.233  24.043  1.00  0.00     0.293 HD
ENDBRANCH  10  23
BRANCH  11  25
ATOM     25  O   UNL     1      -3.366 -13.746  26.990  1.00  0.00    -0.508 OA
ATOM     26  H   UNL     1      -2.912 -12.887  27.269  1.00  0.00     0.293 HD
ENDBRANCH  11  25
ENDBRANCH   1   2
BRANCH   1  27
ATOM     27  C   UNL     1       1.167 -21.075  25.756  1.00  0.00     0.339 C 
ATOM     28  C   UNL     1       1.742 -21.822  26.976  1.00  0.00     0.214 C 
ATOM     29  O   UNL     1       1.356 -21.812  24.551  1.00  0.00    -0.332 OA
ATOM     30  C   UNL     1       1.128 -23.241  27.060  1.00  0.00     0.180 C 
ATOM     31  C   UNL     1       0.674 -23.063  24.592  1.00  0.00     0.179 C 
ATOM     32  C   UNL     1       1.254 -23.962  25.700  1.00  0.00     0.177 C 
BRANCH  28  33
ATOM     33  O   UNL     1       3.141 -21.888  26.830  1.00  0.00    -0.384 OA
ATOM     34  H   UNL     1       3.519 -21.056  27.218  1.00  0.00     0.211 HD
ENDBRANCH  28  33
BRANCH  30  35
ATOM     35  O   UNL     1       1.736 -23.994  28.083  1.00  0.00    -0.387 OA
ATOM     36  H   UNL     1       1.809 -23.384  28.866  1.00  0.00     0.211 HD
ENDBRANCH  30  35
BRANCH  31  37
ATOM     37  C   UNL     1       0.744 -23.720  23.200  1.00  0.00     0.191 C 
BRANCH  37  38
ATOM     38  O   UNL     1      -0.459 -24.365  22.875  1.00  0.00    -0.394 OA
ATOM     39  H   UNL     1      -1.183 -23.866  23.338  1.00  0.00     0.210 HD
ENDBRANCH  37  38
ENDBRANCH  31  37
BRANCH  32  40
ATOM     40  O   UNL     1       2.607 -24.256  25.432  1.00  0.00    -0.387 OA
ATOM     41  H   UNL     1       3.132 -23.443  25.650  1.00  0.00     0.211 HD
ENDBRANCH  32  40
ENDBRANCH   1  27
TORSDOF 12
ENDMDL
MODEL 4
REMARK VINA RESULT:    -7.024      9.037     12.595
REMARK INTER + INTRA:         -11.751
REMARK INTER:                 -10.450
REMARK INTRA:                  -1.300
REMARK UNBOUND:                -1.441
REMARK SMILES O=c1c(O[C@@H]2O[C@@H](CO)[C@@H](O)[C@@H](O)[C@H]2O)c(-c2ccc(O)c(O)c2)oc2cc(O)cc(O)c12
REMARK SMILES IDX 4 1 3 2 16 3 25 4 2 5 26 6 1 7 33 8 27 9 31 10 28 11 30 12
REMARK SMILES IDX 17 13 18 14 19 15 20 16 24 17 22 18 21 19 23 21 32 23 29 25
REMARK SMILES IDX 5 27 14 28 6 29 12 30 7 31 10 32 15 33 13 35 8 37 9 38 11 40
REMARK H PARENT 21 20 23 22 32 24 29 26 15 34 13 36 9 39 11 41
REMARK Flexibility Score: inf
ROOT
ATOM      1  O   UNL     1      -4.854 -13.803  28.117  1.00  0.00    -0.454 OA
ENDROOT
BRANCH   1   2
ATOM      2  C   UNL     1      -6.085 -14.188  28.670  1.00  0.00     0.214 A 
ATOM      3  C   UNL     1      -6.355 -14.098  30.051  1.00  0.00     0.180 A 
ATOM      4  O   UNL     1      -7.396 -14.745  30.560  1.00  0.00    -0.452 OA
ATOM      5  C   UNL     1      -7.064 -14.730  27.829  1.00  0.00     0.239 A 
ATOM      6  C   UNL     1      -8.312 -15.345  29.805  1.00  0.00     0.146 A 
ATOM      7  O   UNL     1      -6.822 -14.823  26.596  1.00  0.00    -0.285 OA
ATOM      8  C   UNL     1      -8.254 -15.246  28.388  1.00  0.00     0.111 A 
ATOM      9  C   UNL     1      -9.356 -16.040  30.419  1.00  0.00     0.094 A 
ATOM     10  C   UNL     1      -9.379 -15.669  27.632  1.00  0.00     0.134 A 
ATOM     11  C   UNL     1     -10.407 -16.548  29.657  1.00  0.00     0.123 A 
ATOM     12  C   UNL     1     -10.436 -16.326  28.277  1.00  0.00     0.093 A 
BRANCH   3  13
ATOM     13  C   UNL     1      -5.558 -13.232  30.945  1.00  0.00     0.025 A 
ATOM     14  C   UNL     1      -5.129 -13.727  32.191  1.00  0.00     0.016 A 
ATOM     15  C   UNL     1      -4.261 -12.968  32.984  1.00  0.00     0.051 A 
ATOM     16  C   UNL     1      -3.798 -11.720  32.540  1.00  0.00     0.157 A 
ATOM     17  C   UNL     1      -5.105 -11.979  30.505  1.00  0.00     0.062 A 
ATOM     18  C   UNL     1      -4.229 -11.220  31.302  1.00  0.00     0.158 A 
BRANCH  16  19
ATOM     19  O   UNL     1      -2.901 -10.985  33.315  1.00  0.00    -0.504 OA
ATOM     20  H   UNL     1      -3.175 -10.598  34.213  1.00  0.00     0.293 HD
ENDBRANCH  16  19
BRANCH  18  21
ATOM     21  O   UNL     1      -3.775  -9.975  30.863  1.00  0.00    -0.504 OA
ATOM     22  H   UNL     1      -3.336  -9.318  31.486  1.00  0.00     0.293 HD
ENDBRANCH  18  21
ENDBRANCH   3  13
BRANCH  10  23
ATOM     23  O   UNL     1      -9.531 -15.365  26.279  1.00  0.00    -0.507 OA
ATOM     24  H   UNL     1     -10.347 -15.626  25.740  1.00  0.00     0.293 HD
ENDBRANCH  10  23
BRANCH  11  25
ATOM     25  O   UNL     1     -11.446 -17.265  30.256  1.00  0.00    -0.508 OA
ATOM     26  H   UNL     1     -11.482 -17.366  31.261  1.00  0.00     0.293 HD
ENDBRANCH  11  25
ENDBRANCH   1   2
BRANCH   1  27
ATOM     27  C   UNL     1      -3.850 -14.758  27.729  1.00  0.00     0.339 C 
ATOM     28  C   UNL     1      -2.920 -14.181  26.643  1.00  0.00     0.214 C 
ATOM     29  O   UNL     1      -3.116 -15.218  28.860  1.00  0.00    -0.332 OA
ATOM     30  C   UNL     1      -2.031 -13.068  27.251  1.00  0.00     0.180 C 
ATOM     31  C   UNL     1      -2.406 -14.154  29.489  1.00  0.00     0.179 C 
ATOM     32  C   UNL     1      -1.343 -13.573  28.537  1.00  0.00     0.177 C 
BRANCH  28  33
ATOM     33  O   UNL     1      -2.133 -15.232  26.136  1.00  0.00    -0.384 OA
ATOM     34  H   UNL     1      -1.187 -15.028  26.359  1.00  0.00     0.211 HD
ENDBRANCH  28  33
BRANCH  30  35
ATOM     35  O   UNL     1      -1.078 -12.617  26.318  1.00  0.00    -0.387 OA
ATOM     36  H   UNL     1      -0.736 -11.752  26.671  1.00  0.00     0.211 HD
ENDBRANCH  30  35
BRANCH  31  37
ATOM     37  C   UNL     1      -1.800 -14.664  30.811  1.00  0.00     0.191 C 
BRANCH  37  38
ATOM     38  O   UNL     1      -1.464 -16.024  30.732  1.00  0.00    -0.394 OA
ATOM     39  H   UNL     1      -0.747 -16.100  30.049  1.00  0.00     0.210 HD
ENDBRANCH  37  38
ENDBRANCH  31  37
BRANCH  32  40
ATOM     40  O   UNL     1      -0.384 -14.556  28.218  1.00  0.00    -0.387 OA
ATOM     41  H   UNL     1      -0.879 -15.382  27.981  1.00  0.00     0.211 HD
ENDBRANCH  32  40
ENDBRANCH   1  27
TORSDOF 12
ENDMDL
MODEL 5
REMARK VINA RESULT:    -6.907      6.152     10.255
REMARK INTER + INTRA:         -11.579
REMARK INTER:                 -10.075
REMARK INTRA:                  -1.504
REMARK UNBOUND:                -1.441
REMARK SMILES O=c1c(O[C@@H]2O[C@@H](CO)[C@@H](O)[C@@H](O)[C@H]2O)c(-c2ccc(O)c(O)c2)oc2cc(O)cc(O)c12
REMARK SMILES IDX 4 1 3 2 16 3 25 4 2 5 26 6 1 7 33 8 27 9 31 10 28 11 30 12
REMARK SMILES IDX 17 13 18 14 19 15 20 16 24 17 22 18 21 19 23 21 32 23 29 25
REMARK SMILES IDX 5 27 14 28 6 29 12 30 7 31 10 32 15 33 13 35 8 37 9 38 11 40
REMARK H PARENT 21 20 23 22 32 24 29 26 15 34 13 36 9 39 11 41
REMARK Flexibility Score: inf
ROOT
ATOM      1  O   UNL     1      -0.901 -13.549  27.264  1.00  0.00    -0.454 OA
ENDROOT
BRANCH   1   2
ATOM      2  C   UNL     1      -1.297 -14.854  26.933  1.00  0.00     0.214 A 
ATOM      3  C   UNL     1      -2.146 -15.618  27.758  1.00  0.00     0.180 A 
ATOM      4  O   UNL     1      -2.246 -16.928  27.563  1.00  0.00    -0.452 OA
ATOM      5  C   UNL     1      -0.790 -15.439  25.767  1.00  0.00     0.239 A 
ATOM      6  C   UNL     1      -1.714 -17.543  26.511  1.00  0.00     0.146 A 
ATOM      7  O   UNL     1      -0.021 -14.762  25.033  1.00  0.00    -0.285 OA
ATOM      8  C   UNL     1      -1.070 -16.794  25.489  1.00  0.00     0.111 A 
ATOM      9  C   UNL     1      -1.828 -18.931  26.401  1.00  0.00     0.094 A 
ATOM     10  C   UNL     1      -0.751 -17.447  24.269  1.00  0.00     0.134 A 
ATOM     11  C   UNL     1      -1.412 -19.580  25.240  1.00  0.00     0.123 A 
ATOM     12  C   UNL     1      -0.915 -18.836  24.166  1.00  0.00     0.093 A 
BRANCH   3  13
ATOM     13  C   UNL     1      -3.002 -14.993  28.788  1.00  0.00     0.025 A 
ATOM     14  C   UNL     1      -2.511 -14.838  30.099  1.00  0.00     0.016 A 
ATOM     15  C   UNL     1      -3.256 -14.125  31.044  1.00  0.00     0.051 A 
ATOM     16  C   UNL     1      -4.485 -13.544  30.694  1.00  0.00     0.157 A 
ATOM     17  C   UNL     1      -4.236 -14.423  28.439  1.00  0.00     0.062 A 
ATOM     18  C   UNL     1      -4.980 -13.702  29.391  1.00  0.00     0.158 A 
BRANCH  16  19
ATOM     19  O   UNL     1      -5.204 -12.800  31.628  1.00  0.00    -0.504 OA
ATOM     20  H   UNL     1      -5.672 -13.248  32.411  1.00  0.00     0.293 HD
ENDBRANCH  16  19
BRANCH  18  21
ATOM     21  O   UNL     1      -6.206 -13.132  29.043  1.00  0.00    -0.504 OA
ATOM     22  H   UNL     1      -6.740 -12.580  29.693  1.00  0.00     0.293 HD
ENDBRANCH  18  21
ENDBRANCH   3  13
BRANCH  10  23
ATOM     23  O   UNL     1      -0.375 -16.750  23.121  1.00  0.00    -0.507 OA
ATOM     24  H   UNL     1       0.521 -16.291  23.019  1.00  0.00     0.293 HD
ENDBRANCH  10  23
BRANCH  11  25
ATOM     25  O   UNL     1      -1.500 -20.971  25.125  1.00  0.00    -0.508 OA
ATOM     26  H   UNL     1      -1.160 -21.565  25.868  1.00  0.00     0.293 HD
ENDBRANCH  11  25
ENDBRANCH   1   2
BRANCH   1  27
ATOM     27  C   UNL     1      -1.696 -12.395  26.938  1.00  0.00     0.339 C 
ATOM     28  C   UNL     1      -1.963 -11.530  28.186  1.00  0.00     0.214 C 
ATOM     29  O   UNL     1      -1.095 -11.637  25.892  1.00  0.00    -0.332 OA
ATOM     30  C   UNL     1      -0.650 -10.848  28.643  1.00  0.00     0.180 C 
ATOM     31  C   UNL     1       0.176 -11.124  26.283  1.00  0.00     0.179 C 
ATOM     32  C   UNL     1       0.026 -10.133  27.452  1.00  0.00     0.177 C 
BRANCH  28  33
ATOM     33  O   UNL     1      -2.938 -10.570  27.854  1.00  0.00    -0.384 OA
ATOM     34  H   UNL     1      -2.801  -9.789  28.450  1.00  0.00     0.211 HD
ENDBRANCH  28  33
BRANCH  30  35
ATOM     35  O   UNL     1      -0.890  -9.946  29.697  1.00  0.00    -0.387 OA
ATOM     36  H   UNL     1      -1.764 -10.212  30.092  1.00  0.00     0.211 HD
ENDBRANCH  30  35
BRANCH  31  37
ATOM     37  C   UNL     1       0.864 -10.492  25.058  1.00  0.00     0.191 C 
BRANCH  37  38
ATOM     38  O   UNL     1       0.000  -9.622  24.375  1.00  0.00    -0.394 OA
ATOM     39  H   UNL     1      -0.917  -9.985  24.490  1.00  0.00     0.210 HD
ENDBRANCH  37  38
ENDBRANCH  31  37
BRANCH  32  40
ATOM     40  O   UNL     1      -0.745  -9.022  27.055  1.00  0.00    -0.387 OA
ATOM     41  H   UNL     1      -0.962  -8.508  27.875  1.00  0.00     0.211 HD
ENDBRANCH  32  40
ENDBRANCH   1  27
TORSDOF 12
ENDMDL
MODEL 6
REMARK VINA RESULT:    -6.836      3.705      8.892
REMARK INTER + INTRA:         -11.475
REMARK INTER:                 -10.264
REMARK INTRA:                  -1.211
REMARK UNBOUND:                -1.441
REMARK SMILES O=c1c(O[C@@H]2O[C@@H](CO)[C@@H](O)[C@@H](O)[C@H]2O)c(-c2ccc(O)c(O)c2)oc2cc(O)cc(O)c12
REMARK SMILES IDX 4 1 3 2 16 3 25 4 2 5 26 6 1 7 33 8 27 9 31 10 28 11 30 12
REMARK SMILES IDX 17 13 18 14 19 15 20 16 24 17 22 18 21 19 23 21 32 23 29 25
REMARK SMILES IDX 5 27 14 28 6 29 12 30 7 31 10 32 15 33 13 35 8 37 9 38 11 40
REMARK H PARENT 21 20 23 22 32 24 29 26 15 34 13 36 9 39 11 41
REMARK Flexibility Score: inf
ROOT
ATOM      1  O   UNL     1       0.784 -19.133  26.729  1.00  0.00    -0.454 OA
ENDROOT
BRANCH   1   2
ATOM      2  C   UNL     1      -0.010 -18.104  27.258  1.00  0.00     0.214 A 
ATOM      3  C   UNL     1      -0.752 -18.257  28.446  1.00  0.00     0.180 A 
ATOM      4  O   UNL     1      -1.708 -17.384  28.740  1.00  0.00    -0.452 OA
ATOM      5  C   UNL     1      -0.111 -16.898  26.554  1.00  0.00     0.239 A 
ATOM      6  C   UNL     1      -1.896 -16.261  28.053  1.00  0.00     0.146 A 
ATOM      7  O   UNL     1       0.543 -16.762  25.485  1.00  0.00    -0.285 OA
ATOM      8  C   UNL     1      -1.008 -15.904  27.001  1.00  0.00     0.111 A 
ATOM      9  C   UNL     1      -2.951 -15.415  28.400  1.00  0.00     0.094 A 
ATOM     10  C   UNL     1      -1.080 -14.589  26.471  1.00  0.00     0.134 A 
ATOM     11  C   UNL     1      -3.078 -14.165  27.796  1.00  0.00     0.123 A 
ATOM     12  C   UNL     1      -2.123 -13.741  26.868  1.00  0.00     0.093 A 
BRANCH   3  13
ATOM     13  C   UNL     1      -0.442 -19.318  29.428  1.00  0.00     0.025 A 
ATOM     14  C   UNL     1       0.874 -19.460  29.906  1.00  0.00     0.016 A 
ATOM     15  C   UNL     1       1.150 -20.367  30.934  1.00  0.00     0.051 A 
ATOM     16  C   UNL     1       0.121 -21.128  31.510  1.00  0.00     0.157 A 
ATOM     17  C   UNL     1      -1.471 -20.086  29.994  1.00  0.00     0.062 A 
ATOM     18  C   UNL     1      -1.191 -20.995  31.031  1.00  0.00     0.158 A 
BRANCH  16  19
ATOM     19  O   UNL     1       0.394 -22.001  32.562  1.00  0.00    -0.504 OA
ATOM     20  H   UNL     1       1.032 -21.741  33.309  1.00  0.00     0.293 HD
ENDBRANCH  16  19
BRANCH  18  21
ATOM     21  O   UNL     1      -2.215 -21.757  31.597  1.00  0.00    -0.504 OA
ATOM     22  H   UNL     1      -2.663 -22.503  31.094  1.00  0.00     0.293 HD
ENDBRANCH  18  21
ENDBRANCH   3  13
BRANCH  10  23
ATOM     23  O   UNL     1      -0.091 -14.059  25.643  1.00  0.00    -0.507 OA
ATOM     24  H   UNL     1       0.530 -14.631  25.084  1.00  0.00     0.293 HD
ENDBRANCH  10  23
BRANCH  11  25
ATOM     25  O   UNL     1      -4.142 -13.318  28.118  1.00  0.00    -0.508 OA
ATOM     26  H   UNL     1      -4.777 -13.002  27.398  1.00  0.00     0.293 HD
ENDBRANCH  11  25
ENDBRANCH   1   2
BRANCH   1  27
ATOM     27  C   UNL     1       0.238 -20.405  26.336  1.00  0.00     0.339 C 
ATOM     28  C   UNL     1      -0.843 -20.237  25.249  1.00  0.00     0.214 C 
ATOM     29  O   UNL     1       1.266 -21.299  25.921  1.00  0.00    -0.332 OA
ATOM     30  C   UNL     1      -0.185 -19.790  23.920  1.00  0.00     0.180 C 
ATOM     31  C   UNL     1       1.951 -20.809  24.772  1.00  0.00     0.179 C 
ATOM     32  C   UNL     1       0.996 -20.720  23.567  1.00  0.00     0.177 C 
BRANCH  28  33
ATOM     33  O   UNL     1      -1.503 -21.470  25.093  1.00  0.00    -0.384 OA
ATOM     34  H   UNL     1      -0.845 -22.186  25.292  1.00  0.00     0.211 HD
ENDBRANCH  28  33
BRANCH  30  35
ATOM     35  O   UNL     1      -1.128 -19.760  22.875  1.00  0.00    -0.387 OA
ATOM     36  H   UNL     1      -0.731 -20.289  22.132  1.00  0.00     0.211 HD
ENDBRANCH  30  35
BRANCH  31  37
ATOM     37  C   UNL     1       3.173 -21.706  24.492  1.00  0.00     0.191 C 
BRANCH  37  38
ATOM     38  O   UNL     1       3.304 -21.985  23.124  1.00  0.00    -0.394 OA
ATOM     39  H   UNL     1       2.383 -22.078  22.763  1.00  0.00     0.210 HD
ENDBRANCH  37  38
ENDBRANCH  31  37
BRANCH  32  40
ATOM     40  O   UNL     1       0.518 -22.002  23.227  1.00  0.00    -0.387 OA
ATOM     41  H   UNL     1       1.159 -22.661  23.598  1.00  0.00     0.211 HD
ENDBRANCH  32  40
ENDBRANCH   1  27
TORSDOF 12
ENDMDL
MODEL 7
REMARK VINA RESULT:    -6.820      2.395      8.602
REMARK INTER + INTRA:         -11.451
REMARK INTER:                 -10.142
REMARK INTRA:                  -1.310
REMARK UNBOUND:                -1.441
REMARK SMILES O=c1c(O[C@@H]2O[C@@H](CO)[C@@H](O)[C@@H](O)[C@H]2O)c(-c2ccc(O)c(O)c2)oc2cc(O)cc(O)c12
REMARK SMILES IDX 4 1 3 2 16 3 25 4 2 5 26 6 1 7 33 8 27 9 31 10 28 11 30 12
REMARK SMILES IDX 17 13 18 14 19 15 20 16 24 17 22 18 21 19 23 21 32 23 29 25
REMARK SMILES IDX 5 27 14 28 6 29 12 30 7 31 10 32 15 33 13 35 8 37 9 38 11 40
REMARK H PARENT 21 20 23 22 32 24 29 26 15 34 13 36 9 39 11 41
REMARK Flexibility Score: inf
ROOT
ATOM      1  O   UNL     1       0.931 -20.445  26.457  1.00  0.00    -0.454 OA
ENDROOT
BRANCH   1   2
ATOM      2  C   UNL     1       0.199 -19.308  26.835  1.00  0.00     0.214 A 
ATOM      3  C   UNL     1      -0.541 -19.248  28.032  1.00  0.00     0.180 A 
ATOM      4  O   UNL     1      -1.445 -18.290  28.199  1.00  0.00    -0.452 OA
ATOM      5  C   UNL     1       0.160 -18.211  25.966  1.00  0.00     0.239 A 
ATOM      6  C   UNL     1      -1.575 -17.268  27.358  1.00  0.00     0.146 A 
ATOM      7  O   UNL     1       0.811 -18.266  24.888  1.00  0.00    -0.285 OA
ATOM      8  C   UNL     1      -0.678 -17.115  26.266  1.00  0.00     0.111 A 
ATOM      9  C   UNL     1      -2.579 -16.323  27.581  1.00  0.00     0.094 A 
ATOM     10  C   UNL     1      -0.680 -15.887  25.553  1.00  0.00     0.134 A 
ATOM     11  C   UNL     1      -2.641 -15.167  26.805  1.00  0.00     0.123 A 
ATOM     12  C   UNL     1      -1.672 -14.934  25.825  1.00  0.00     0.093 A 
BRANCH   3  13
ATOM     13  C   UNL     1      -0.282 -20.174  29.155  1.00  0.00     0.025 A 
ATOM     14  C   UNL     1       1.042 -20.412  29.569  1.00  0.00     0.016 A 
ATOM     15  C   UNL     1       1.289 -21.176  30.715  1.00  0.00     0.051 A 
ATOM     16  C   UNL     1       0.226 -21.695  31.470  1.00  0.00     0.157 A 
ATOM     17  C   UNL     1      -1.347 -20.701  29.902  1.00  0.00     0.062 A 
ATOM     18  C   UNL     1      -1.095 -21.465  31.057  1.00  0.00     0.158 A 
BRANCH  16  19
ATOM     19  O   UNL     1       0.477 -22.420  32.634  1.00  0.00    -0.504 OA
ATOM     20  H   UNL     1       0.721 -23.406  32.597  1.00  0.00     0.293 HD
ENDBRANCH  16  19
BRANCH  18  21
ATOM     21  O   UNL     1      -2.153 -21.987  31.803  1.00  0.00    -0.504 OA
ATOM     22  H   UNL     1      -2.928 -22.461  31.369  1.00  0.00     0.293 HD
ENDBRANCH  18  21
ENDBRANCH   3  13
BRANCH  10  23
ATOM     23  O   UNL     1       0.330 -15.537  24.658  1.00  0.00    -0.507 OA
ATOM     24  H   UNL     1       1.294 -15.399  24.935  1.00  0.00     0.293 HD
ENDBRANCH  10  23
BRANCH  11  25
ATOM     25  O   UNL     1      -3.654 -14.224  27.002  1.00  0.00    -0.508 OA
ATOM     26  H   UNL     1      -4.236 -13.933  26.229  1.00  0.00     0.293 HD
ENDBRANCH  11  25
ENDBRANCH   1   2
BRANCH   1  27
ATOM     27  C   UNL     1       0.301 -21.630  25.939  1.00  0.00     0.339 C 
ATOM     28  C   UNL     1       0.591 -21.805  24.435  1.00  0.00     0.214 C 
ATOM     29  O   UNL     1       0.683 -22.782  26.685  1.00  0.00    -0.332 OA
ATOM     30  C   UNL     1       2.083 -22.164  24.226  1.00  0.00     0.180 C 
ATOM     31  C   UNL     1       2.085 -23.024  26.589  1.00  0.00     0.179 C 
ATOM     32  C   UNL     1       2.483 -23.344  25.137  1.00  0.00     0.177 C 
BRANCH  28  33
ATOM     33  O   UNL     1      -0.245 -22.825  23.943  1.00  0.00    -0.384 OA
ATOM     34  H   UNL     1      -1.013 -22.387  23.491  1.00  0.00     0.211 HD
ENDBRANCH  28  33
BRANCH  30  35
ATOM     35  O   UNL     1       2.346 -22.462  22.875  1.00  0.00    -0.387 OA
ATOM     36  H   UNL     1       2.496 -23.444  22.835  1.00  0.00     0.211 HD
ENDBRANCH  30  35
BRANCH  31  37
ATOM     37  C   UNL     1       2.471 -24.149  27.570  1.00  0.00     0.191 C 
BRANCH  37  38
ATOM     38  O   UNL     1       3.448 -24.995  27.024  1.00  0.00    -0.394 OA
ATOM     39  H   UNL     1       4.182 -25.047  27.691  1.00  0.00     0.210 HD
ENDBRANCH  37  38
ENDBRANCH  31  37
BRANCH  32  40
ATOM     40  O   UNL     1       1.847 -24.526  24.705  1.00  0.00    -0.387 OA
ATOM     41  H   UNL     1       1.254 -24.825  25.441  1.00  0.00     0.211 HD
ENDBRANCH  32  40
ENDBRANCH   1  27
TORSDOF 12
ENDMDL
MODEL 8
REMARK VINA RESULT:    -6.816      6.377     10.626
REMARK INTER + INTRA:         -11.445
REMARK INTER:                  -9.904
REMARK INTRA:                  -1.542
REMARK UNBOUND:                -1.441
REMARK SMILES O=c1c(O[C@@H]2O[C@@H](CO)[C@@H](O)[C@@H](O)[C@H]2O)c(-c2ccc(O)c(O)c2)oc2cc(O)cc(O)c12
REMARK SMILES IDX 4 1 3 2 16 3 25 4 2 5 26 6 1 7 33 8 27 9 31 10 28 11 30 12
REMARK SMILES IDX 17 13 18 14 19 15 20 16 24 17 22 18 21 19 23 21 32 23 29 25
REMARK SMILES IDX 5 27 14 28 6 29 12 30 7 31 10 32 15 33 13 35 8 37 9 38 11 40
REMARK H PARENT 21 20 23 22 32 24 29 26 15 34 13 36 9 39 11 41
REMARK Flexibility Score: inf
ROOT
ATOM      1  O   UNL     1      -2.247 -13.040  27.141  1.00  0.00    -0.454 OA
ENDROOT
BRANCH   1   2
ATOM      2  C   UNL     1      -2.242 -14.429  26.934  1.00  0.00     0.214 A 
ATOM      3  C   UNL     1      -2.917 -15.323  27.787  1.00  0.00     0.180 A 
ATOM      4  O   UNL     1      -2.639 -16.620  27.733  1.00  0.00    -0.452 OA
ATOM      5  C   UNL     1      -1.494 -14.950  25.871  1.00  0.00     0.239 A 
ATOM      6  C   UNL     1      -1.869 -17.154  26.789  1.00  0.00     0.146 A 
ATOM      7  O   UNL     1      -0.879 -14.153  25.113  1.00  0.00    -0.285 OA
ATOM      8  C   UNL     1      -1.369 -16.349  25.729  1.00  0.00     0.111 A 
ATOM      9  C   UNL     1      -1.591 -18.522  26.826  1.00  0.00     0.094 A 
ATOM     10  C   UNL     1      -0.779 -16.993  24.609  1.00  0.00     0.134 A 
ATOM     11  C   UNL     1      -0.914 -19.130  25.770  1.00  0.00     0.123 A 
ATOM     12  C   UNL     1      -0.548 -18.375  24.651  1.00  0.00     0.093 A 
BRANCH   3  13
ATOM     13  C   UNL     1      -3.997 -14.873  28.691  1.00  0.00     0.025 A 
ATOM     14  C   UNL     1      -3.712 -14.629  30.048  1.00  0.00     0.016 A 
ATOM     15  C   UNL     1      -4.690 -14.072  30.879  1.00  0.00     0.051 A 
ATOM     16  C   UNL     1      -5.953 -13.734  30.367  1.00  0.00     0.157 A 
ATOM     17  C   UNL     1      -5.263 -14.546  28.180  1.00  0.00     0.062 A 
ATOM     18  C   UNL     1      -6.243 -13.981  29.017  1.00  0.00     0.158 A 
BRANCH  16  19
ATOM     19  O   UNL     1      -6.910 -13.141  31.189  1.00  0.00    -0.504 OA
ATOM     20  H   UNL     1      -7.092 -12.142  31.149  1.00  0.00     0.293 HD
ENDBRANCH  16  19
BRANCH  18  21
ATOM     21  O   UNL     1      -7.501 -13.653  28.508  1.00  0.00    -0.504 OA
ATOM     22  H   UNL     1      -8.070 -12.932  28.920  1.00  0.00     0.293 HD
ENDBRANCH  18  21
ENDBRANCH   3  13
BRANCH  10  23
ATOM     23  O   UNL     1      -0.510 -16.325  23.416  1.00  0.00    -0.507 OA
ATOM     24  H   UNL     1      -0.983 -16.531  22.545  1.00  0.00     0.293 HD
ENDBRANCH  10  23
BRANCH  11  25
ATOM     25  O   UNL     1      -0.608 -20.493  25.805  1.00  0.00    -0.508 OA
ATOM     26  H   UNL     1      -0.027 -20.866  26.543  1.00  0.00     0.293 HD
ENDBRANCH  11  25
ENDBRANCH   1   2
BRANCH   1  27
ATOM     27  C   UNL     1      -1.331 -12.391  28.041  1.00  0.00     0.339 C 
ATOM     28  C   UNL     1      -0.523 -11.294  27.320  1.00  0.00     0.214 C 
ATOM     29  O   UNL     1      -2.010 -11.878  29.183  1.00  0.00    -0.332 OA
ATOM     30  C   UNL     1      -1.453 -10.109  26.960  1.00  0.00     0.180 C 
ATOM     31  C   UNL     1      -2.960 -10.879  28.820  1.00  0.00     0.179 C 
ATOM     32  C   UNL     1      -2.253  -9.659  28.201  1.00  0.00     0.177 C 
BRANCH  28  33
ATOM     33  O   UNL     1       0.513 -10.877  28.177  1.00  0.00    -0.384 OA
ATOM     34  H   UNL     1       0.228 -10.023  28.593  1.00  0.00     0.211 HD
ENDBRANCH  28  33
BRANCH  30  35
ATOM     35  O   UNL     1      -0.717  -9.035  26.422  1.00  0.00    -0.387 OA
ATOM     36  H   UNL     1      -0.523  -8.426  27.185  1.00  0.00     0.211 HD
ENDBRANCH  30  35
BRANCH  31  37
ATOM     37  C   UNL     1      -3.800 -10.509  30.058  1.00  0.00     0.191 C 
BRANCH  37  38
ATOM     38  O   UNL     1      -5.158 -10.365  29.733  1.00  0.00    -0.394 OA
ATOM     39  H   UNL     1      -5.664 -10.932  30.373  1.00  0.00     0.210 HD
ENDBRANCH  37  38
ENDBRANCH  31  37
BRANCH  32  40
ATOM     40  O   UNL     1      -1.391  -9.063  29.143  1.00  0.00    -0.387 OA
ATOM     41  H   UNL     1      -0.743  -8.508  28.637  1.00  0.00     0.211 HD
ENDBRANCH  32  40
ENDBRANCH   1  27
TORSDOF 12
ENDMDL
MODEL 9
REMARK VINA RESULT:    -6.802      2.742      7.155
REMARK INTER + INTRA:         -11.424
REMARK INTER:                 -10.055
REMARK INTRA:                  -1.369
REMARK UNBOUND:                -1.441
REMARK SMILES O=c1c(O[C@@H]2O[C@@H](CO)[C@@H](O)[C@@H](O)[C@H]2O)c(-c2ccc(O)c(O)c2)oc2cc(O)cc(O)c12
REMARK SMILES IDX 4 1 3 2 16 3 25 4 2 5 26 6 1 7 33 8 27 9 31 10 28 11 30 12
REMARK SMILES IDX 17 13 18 14 19 15 20 16 24 17 22 18 21 19 23 21 32 23 29 25
REMARK SMILES IDX 5 27 14 28 6 29 12 30 7 31 10 32 15 33 13 35 8 37 9 38 11 40
REMARK H PARENT 21 20 23 22 32 24 29 26 15 34 13 36 9 39 11 41
REMARK Flexibility Score: inf
ROOT
ATOM      1  O   UNL     1      -0.935 -20.447  28.354  1.00  0.00    -0.454 OA
ENDROOT
BRANCH   1   2
ATOM      2  C   UNL     1      -0.759 -19.396  27.439  1.00  0.00     0.214 A 
ATOM      3  C   UNL     1       0.155 -19.470  26.370  1.00  0.00     0.180 A 
ATOM      4  O   UNL     1       0.504 -18.363  25.726  1.00  0.00    -0.452 OA
ATOM      5  C   UNL     1      -1.479 -18.210  27.626  1.00  0.00     0.239 A 
ATOM      6  C   UNL     1      -0.097 -17.193  25.925  1.00  0.00     0.146 A 
ATOM      7  O   UNL     1      -2.289 -18.137  28.589  1.00  0.00    -0.285 OA
ATOM      8  C   UNL     1      -1.215 -17.098  26.797  1.00  0.00     0.111 A 
ATOM      9  C   UNL     1       0.357 -16.065  25.238  1.00  0.00     0.094 A 
ATOM     10  C   UNL     1      -1.986 -15.906  26.783  1.00  0.00     0.134 A 
ATOM     11  C   UNL     1      -0.346 -14.865  25.314  1.00  0.00     0.123 A 
ATOM     12  C   UNL     1      -1.533 -14.800  26.050  1.00  0.00     0.093 A 
BRANCH   3  13
ATOM     13  C   UNL     1       0.680 -20.763  25.880  1.00  0.00     0.025 A 
ATOM     14  C   UNL     1       1.828 -21.318  26.477  1.00  0.00     0.016 A 
ATOM     15  C   UNL     1       2.251 -22.602  26.117  1.00  0.00     0.051 A 
ATOM     16  C   UNL     1       1.529 -23.354  25.177  1.00  0.00     0.157 A 
ATOM     17  C   UNL     1      -0.037 -21.509  24.932  1.00  0.00     0.062 A 
ATOM     18  C   UNL     1       0.388 -22.802  24.576  1.00  0.00     0.158 A 
BRANCH  16  19
ATOM     19  O   UNL     1       1.931 -24.649  24.853  1.00  0.00    -0.504 OA
ATOM     20  H   UNL     1       1.669 -25.442  25.432  1.00  0.00     0.293 HD
ENDBRANCH  16  19
BRANCH  18  21
ATOM     21  O   UNL     1      -0.326 -23.546  23.635  1.00  0.00    -0.504 OA
ATOM     22  H   UNL     1       0.101 -23.885  22.789  1.00  0.00     0.293 HD
ENDBRANCH  18  21
ENDBRANCH   3  13
BRANCH  10  23
ATOM     23  O   UNL     1      -3.240 -15.817  27.387  1.00  0.00    -0.507 OA
ATOM     24  H   UNL     1      -3.921 -16.566  27.366  1.00  0.00     0.293 HD
ENDBRANCH  10  23
BRANCH  11  25
ATOM     25  O   UNL     1       0.109 -13.723  24.650  1.00  0.00    -0.508 OA
ATOM     26  H   UNL     1      -0.344 -13.412  23.802  1.00  0.00     0.293 HD
ENDBRANCH  11  25
ENDBRANCH   1   2
BRANCH   1  27
ATOM     27  C   UNL     1      -0.157 -20.559  29.559  1.00  0.00     0.339 C 
ATOM     28  C   UNL     1      -0.980 -20.145  30.795  1.00  0.00     0.214 C 
ATOM     29  O   UNL     1       0.383 -21.869  29.701  1.00  0.00    -0.332 OA
ATOM     30  C   UNL     1      -2.080 -21.200  31.070  1.00  0.00     0.180 C 
ATOM     31  C   UNL     1      -0.647 -22.848  29.821  1.00  0.00     0.179 C 
ATOM     32  C   UNL     1      -1.468 -22.617  31.104  1.00  0.00     0.177 C 
BRANCH  28  33
ATOM     33  O   UNL     1      -0.102 -20.037  31.890  1.00  0.00    -0.384 OA
ATOM     34  H   UNL     1       0.050 -20.954  32.240  1.00  0.00     0.211 HD
ENDBRANCH  28  33
BRANCH  30  35
ATOM     35  O   UNL     1      -2.759 -20.920  32.271  1.00  0.00    -0.387 OA
ATOM     36  H   UNL     1      -2.689 -19.936  32.403  1.00  0.00     0.211 HD
ENDBRANCH  30  35
BRANCH  31  37
ATOM     37  C   UNL     1      -0.017 -24.252  29.767  1.00  0.00     0.191 C 
BRANCH  37  38
ATOM     38  O   UNL     1      -0.791 -25.191  30.465  1.00  0.00    -0.394 OA
ATOM     39  H   UNL     1      -0.964 -25.941  29.837  1.00  0.00     0.210 HD
ENDBRANCH  37  38
ENDBRANCH  31  37
BRANCH  32  40
ATOM     40  O   UNL     1      -0.648 -22.763  32.241  1.00  0.00    -0.387 OA
ATOM     41  H   UNL     1       0.293 -22.726  31.930  1.00  0.00     0.211 HD
ENDBRANCH  32  40
ENDBRANCH   1  27
TORSDOF 12
ENDMDL
