MODEL 1
REMARK VINA RESULT:    -6.993      0.000      0.000
REMARK INTER + INTRA:          -8.156
REMARK INTER:                  -8.424
REMARK INTRA:                   0.268
REMARK UNBOUND:                 0.268
REMARK SMILES O=c1c(O)c(-c2ccc(O)c(O)c2)oc2cc(O)cc(O)c12
REMARK SMILES IDX 5 1 3 2 2 3 1 4 22 5 20 6 19 7 17 8 16 9 15 10 14 11 6 12
REMARK SMILES IDX 7 13 8 14 9 15 13 16 11 17 10 18 12 20 4 22 21 24 18 26
REMARK H PARENT 10 19 12 21 4 23 21 25 18 27
REMARK Flexibility Score: inf
ROOT
ATOM      1  C   UNL     1     118.078 119.053 111.042  1.00  0.00     0.180 A 
ATOM      2  C   UNL     1     118.112 120.189 110.216  1.00  0.00     0.208 A 
ATOM      3  C   UNL     1     118.026 120.022 108.824  1.00  0.00     0.238 A 
ATOM      4  O   UNL     1     118.111 121.038 108.087  1.00  0.00    -0.285 OA
ATOM      5  C   UNL     1     117.890 118.723 108.278  1.00  0.00     0.111 A 
ATOM      6  C   UNL     1     117.754 118.439 106.886  1.00  0.00     0.134 A 
ATOM      7  C   UNL     1     117.759 117.109 106.449  1.00  0.00     0.093 A 
ATOM      8  C   UNL     1     117.828 116.053 107.356  1.00  0.00     0.123 A 
ATOM      9  C   UNL     1     117.902 116.318 108.724  1.00  0.00     0.094 A 
ATOM     10  C   UNL     1     117.936 117.635 109.189  1.00  0.00     0.146 A 
ATOM     11  O   UNL     1     118.016 117.844 110.497  1.00  0.00    -0.452 OA
ENDROOT
BRANCH   1  12
ATOM     12  C   UNL     1     118.139 119.151 112.519  1.00  0.00     0.025 A 
ATOM     13  C   UNL     1     117.424 118.232 113.303  1.00  0.00     0.016 A 
ATOM     14  C   UNL     1     117.449 118.319 114.697  1.00  0.00     0.051 A 
ATOM     15  C   UNL     1     118.177 119.337 115.327  1.00  0.00     0.157 A 
ATOM     16  C   UNL     1     118.850 120.185 113.155  1.00  0.00     0.062 A 
ATOM     17  C   UNL     1     118.875 120.274 114.555  1.00  0.00     0.158 A 
BRANCH  15  18
ATOM     18  O   UNL     1     118.206 119.426 116.717  1.00  0.00    -0.504 OA
ATOM     19  H   UNL     1     118.206 118.599 117.302  1.00  0.00     0.293 HD
ENDBRANCH  15  18
BRANCH  17  20
ATOM     20  O   UNL     1     119.586 121.293 115.184  1.00  0.00    -0.504 OA
ATOM     21  H   UNL     1     120.350 121.771 114.721  1.00  0.00     0.293 HD
ENDBRANCH  17  20
ENDBRANCH   1  12
BRANCH   2  22
ATOM     22  O   UNL     1     118.268 121.461 110.775  1.00  0.00    -0.502 OA
ATOM     23  H   UNL     1     119.093 121.726 111.300  1.00  0.00     0.293 HD
ENDBRANCH   2  22
BRANCH   6  24
ATOM     24  O   UNL     1     117.585 119.418 105.902  1.00  0.00    -0.507 OA
ATOM     25  H   UNL     1     118.271 120.122 105.669  1.00  0.00     0.293 HD
ENDBRANCH   6  24
BRANCH   8  26
ATOM     26  O   UNL     1     117.814 114.741 106.886  1.00  0.00    -0.508 OA
ATOM     27  H   UNL     1     117.002 114.146 107.001  1.00  0.00     0.293 HD
ENDBRANCH   8  26
TORSDOF 6
ENDMDL
MODEL 2
REMARK VINA RESULT:    -6.741      1.074      6.779
REMARK INTER + INTRA:          -7.853
REMARK INTER:                  -8.120
REMARK INTRA:                   0.268
REMARK UNBOUND:                 0.268
REMARK SMILES O=c1c(O)c(-c2ccc(O)c(O)c2)oc2cc(O)cc(O)c12
REMARK SMILES IDX 5 1 3 2 2 3 1 4 22 5 20 6 19 7 17 8 16 9 15 10 14 11 6 12
REMARK SMILES IDX 7 13 8 14 9 15 13 16 11 17 10 18 12 20 4 22 21 24 18 26
REMARK H PARENT 10 19 12 21 4 23 21 25 18 27
REMARK Flexibility Score: inf
ROOT
ATOM      1  C   UNL     1     118.349 119.070 110.765  1.00  0.00     0.180 A 
ATOM      2  C   UNL     1     119.119 120.244 110.821  1.00  0.00     0.208 A 
ATOM      3  C   UNL     1     119.374 120.833 112.070  1.00  0.00     0.238 A 
ATOM      4  O   UNL     1     120.019 121.914 112.109  1.00  0.00    -0.285 OA
ATOM      5  C   UNL     1     118.871 120.231 113.249  1.00  0.00     0.111 A 
ATOM      6  C   UNL     1     119.102 120.718 114.570  1.00  0.00     0.134 A 
ATOM      7  C   UNL     1     118.447 120.118 115.651  1.00  0.00     0.093 A 
ATOM      8  C   UNL     1     117.622 119.009 115.468  1.00  0.00     0.123 A 
ATOM      9  C   UNL     1     117.435 118.488 114.187  1.00  0.00     0.094 A 
ATOM     10  C   UNL     1     118.047 119.087 113.083  1.00  0.00     0.146 A 
ATOM     11  O   UNL     1     117.836 118.566 111.881  1.00  0.00    -0.452 OA
ENDROOT
BRANCH   1  12
ATOM     12  C   UNL     1     118.059 118.379 109.488  1.00  0.00     0.025 A 
ATOM     13  C   UNL     1     117.964 116.978 109.466  1.00  0.00     0.016 A 
ATOM     14  C   UNL     1     117.713 116.304 108.269  1.00  0.00     0.051 A 
ATOM     15  C   UNL     1     117.568 117.020 107.073  1.00  0.00     0.157 A 
ATOM     16  C   UNL     1     117.934 119.092 108.281  1.00  0.00     0.062 A 
ATOM     17  C   UNL     1     117.683 118.415 107.078  1.00  0.00     0.158 A 
BRANCH  15  18
ATOM     18  O   UNL     1     117.315 116.351 105.877  1.00  0.00    -0.504 OA
ATOM     19  H   UNL     1     117.334 116.833 104.986  1.00  0.00     0.293 HD
ENDBRANCH  15  18
BRANCH  17  20
ATOM     20  O   UNL     1     117.552 119.123 105.886  1.00  0.00    -0.504 OA
ATOM     21  H   UNL     1     117.070 120.013 105.847  1.00  0.00     0.293 HD
ENDBRANCH  17  20
ENDBRANCH   1  12
BRANCH   2  22
ATOM     22  O   UNL     1     119.588 120.835 109.643  1.00  0.00    -0.502 OA
ATOM     23  H   UNL     1     120.086 120.311 108.934  1.00  0.00     0.293 HD
ENDBRANCH   2  22
BRANCH   6  24
ATOM     24  O   UNL     1     119.980 121.763 114.874  1.00  0.00    -0.507 OA
ATOM     25  H   UNL     1     119.726 122.740 114.891  1.00  0.00     0.293 HD
ENDBRANCH   6  24
BRANCH   8  26
ATOM     26  O   UNL     1     116.998 118.427 116.570  1.00  0.00    -0.508 OA
ATOM     27  H   UNL     1     116.804 118.958 117.411  1.00  0.00     0.293 HD
ENDBRANCH   8  26
TORSDOF 6
ENDMDL
MODEL 3
REMARK VINA RESULT:    -6.726     15.017     15.918
REMARK INTER + INTRA:          -7.834
REMARK INTER:                  -8.015
REMARK INTRA:                   0.180
REMARK UNBOUND:                 0.268
REMARK SMILES O=c1c(O)c(-c2ccc(O)c(O)c2)oc2cc(O)cc(O)c12
REMARK SMILES IDX 5 1 3 2 2 3 1 4 22 5 20 6 19 7 17 8 16 9 15 10 14 11 6 12
REMARK SMILES IDX 7 13 8 14 9 15 13 16 11 17 10 18 12 20 4 22 21 24 18 26
REMARK H PARENT 10 19 12 21 4 23 21 25 18 27
REMARK Flexibility Score: inf
ROOT
ATOM      1  C   UNL     1     115.080 103.239 111.034  1.00  0.00     0.180 A 
ATOM      2  C   UNL     1     116.031 102.634 110.194  1.00  0.00     0.208 A 
ATOM      3  C   UNL     1     115.887 102.758 108.802  1.00  0.00     0.238 A 
ATOM      4  O   UNL     1     116.711 102.169 108.055  1.00  0.00    -0.285 OA
ATOM      5  C   UNL     1     114.804 103.498 108.269  1.00  0.00     0.111 A 
ATOM      6  C   UNL     1     114.582 103.722 106.878  1.00  0.00     0.134 A 
ATOM      7  C   UNL     1     113.407 104.356 106.459  1.00  0.00     0.093 A 
ATOM      8  C   UNL     1     112.478 104.834 107.383  1.00  0.00     0.123 A 
ATOM      9  C   UNL     1     112.713 104.673 108.748  1.00  0.00     0.094 A 
ATOM     10  C   UNL     1     113.859 104.011 109.196  1.00  0.00     0.146 A 
ATOM     11  O   UNL     1     114.040 103.870 110.504  1.00  0.00    -0.452 OA
ENDROOT
BRANCH   1  12
ATOM     12  C   UNL     1     115.180 103.172 112.511  1.00  0.00     0.025 A 
ATOM     13  C   UNL     1     115.556 101.967 113.124  1.00  0.00     0.016 A 
ATOM     14  C   UNL     1     115.635 101.876 114.516  1.00  0.00     0.051 A 
ATOM     15  C   UNL     1     115.324 102.983 115.314  1.00  0.00     0.157 A 
ATOM     16  C   UNL     1     114.847 104.276 113.317  1.00  0.00     0.062 A 
ATOM     17  C   UNL     1     114.925 104.184 114.715  1.00  0.00     0.158 A 
BRANCH  15  18
ATOM     18  O   UNL     1     115.403 102.897 116.703  1.00  0.00    -0.504 OA
ATOM     19  H   UNL     1     115.141 103.673 117.298  1.00  0.00     0.293 HD
ENDBRANCH  15  18
BRANCH  17  20
ATOM     20  O   UNL     1     114.602 105.280 115.512  1.00  0.00    -0.504 OA
ATOM     21  H   UNL     1     115.244 106.056 115.633  1.00  0.00     0.293 HD
ENDBRANCH  17  20
ENDBRANCH   1  12
BRANCH   2  22
ATOM     22  O   UNL     1     117.081 101.889 110.740  1.00  0.00    -0.502 OA
ATOM     23  H   UNL     1     116.932 101.177 111.445  1.00  0.00     0.293 HD
ENDBRANCH   2  22
BRANCH   6  24
ATOM     24  O   UNL     1     115.490 103.367 105.875  1.00  0.00    -0.507 OA
ATOM     25  H   UNL     1     115.240 103.172 104.917  1.00  0.00     0.293 HD
ENDBRANCH   6  24
BRANCH   8  26
ATOM     26  O   UNL     1     111.326 105.476 106.930  1.00  0.00    -0.508 OA
ATOM     27  H   UNL     1     110.923 106.257 107.434  1.00  0.00     0.293 HD
ENDBRANCH   8  26
TORSDOF 6
ENDMDL
MODEL 4
REMARK VINA RESULT:    -6.675      2.005      3.853
REMARK INTER + INTRA:          -7.773
REMARK INTER:                  -7.565
REMARK INTRA:                  -0.207
REMARK UNBOUND:                 0.268
REMARK SMILES O=c1c(O)c(-c2ccc(O)c(O)c2)oc2cc(O)cc(O)c12
REMARK SMILES IDX 5 1 3 2 2 3 1 4 22 5 20 6 19 7 17 8 16 9 15 10 14 11 6 12
REMARK SMILES IDX 7 13 8 14 9 15 13 16 11 17 10 18 12 20 4 22 21 24 18 26
REMARK H PARENT 10 19 12 21 4 23 21 25 18 27
REMARK Flexibility Score: inf
ROOT
ATOM      1  C   UNL     1     117.783 118.983 113.362  1.00  0.00     0.180 A 
ATOM      2  C   UNL     1     118.728 119.988 113.625  1.00  0.00     0.208 A 
ATOM      3  C   UNL     1     119.330 120.656 112.547  1.00  0.00     0.238 A 
ATOM      4  O   UNL     1     120.216 121.518 112.788  1.00  0.00    -0.285 OA
ATOM      5  C   UNL     1     118.966 120.323 111.220  1.00  0.00     0.111 A 
ATOM      6  C   UNL     1     119.481 120.963 110.053  1.00  0.00     0.134 A 
ATOM      7  C   UNL     1     119.149 120.463 108.788  1.00  0.00     0.093 A 
ATOM      8  C   UNL     1     118.271 119.390 108.646  1.00  0.00     0.123 A 
ATOM      9  C   UNL     1     117.714 118.795 109.778  1.00  0.00     0.094 A 
ATOM     10  C   UNL     1     118.055 119.248 111.055  1.00  0.00     0.146 A 
ATOM     11  O   UNL     1     117.511 118.647 112.107  1.00  0.00    -0.452 OA
ENDROOT
BRANCH   1  12
ATOM     12  C   UNL     1     117.088 118.251 114.447  1.00  0.00     0.025 A 
ATOM     13  C   UNL     1     117.289 116.869 114.587  1.00  0.00     0.016 A 
ATOM     14  C   UNL     1     116.628 116.155 115.589  1.00  0.00     0.051 A 
ATOM     15  C   UNL     1     115.745 116.810 116.456  1.00  0.00     0.157 A 
ATOM     16  C   UNL     1     116.184 118.901 115.307  1.00  0.00     0.062 A 
ATOM     17  C   UNL     1     115.518 118.185 116.312  1.00  0.00     0.158 A 
BRANCH  15  18
ATOM     18  O   UNL     1     115.085 116.102 117.460  1.00  0.00    -0.504 OA
ATOM     19  H   UNL     1     115.544 115.865 118.330  1.00  0.00     0.293 HD
ENDBRANCH  15  18
BRANCH  17  20
ATOM     20  O   UNL     1     114.629 118.831 117.167  1.00  0.00    -0.504 OA
ATOM     21  H   UNL     1     113.883 118.329 117.636  1.00  0.00     0.293 HD
ENDBRANCH  17  20
ENDBRANCH   1  12
BRANCH   2  22
ATOM     22  O   UNL     1     119.090 120.287 114.943  1.00  0.00    -0.502 OA
ATOM     23  H   UNL     1     118.406 120.499 115.659  1.00  0.00     0.293 HD
ENDBRANCH   2  22
BRANCH   6  24
ATOM     24  O   UNL     1     120.295 122.100 110.081  1.00  0.00    -0.507 OA
ATOM     25  H   UNL     1     121.015 122.273 110.766  1.00  0.00     0.293 HD
ENDBRANCH   6  24
BRANCH   8  26
ATOM     26  O   UNL     1     117.950 118.929 107.370  1.00  0.00    -0.508 OA
ATOM     27  H   UNL     1     117.511 118.027 107.228  1.00  0.00     0.293 HD
ENDBRANCH   8  26
TORSDOF 6
ENDMDL
MODEL 5
REMARK VINA RESULT:    -6.541      1.472      7.165
REMARK INTER + INTRA:          -7.612
REMARK INTER:                  -7.468
REMARK INTRA:                  -0.144
REMARK UNBOUND:                 0.268
REMARK SMILES O=c1c(O)c(-c2ccc(O)c(O)c2)oc2cc(O)cc(O)c12
REMARK SMILES IDX 5 1 3 2 2 3 1 4 22 5 20 6 19 7 17 8 16 9 15 10 14 11 6 12
REMARK SMILES IDX 7 13 8 14 9 15 13 16 11 17 10 18 12 20 4 22 21 24 18 26
REMARK H PARENT 10 19 12 21 4 23 21 25 18 27
REMARK Flexibility Score: inf
ROOT
ATOM      1  C   UNL     1     117.797 117.935 111.149  1.00  0.00     0.180 A 
ATOM      2  C   UNL     1     116.918 117.438 112.127  1.00  0.00     0.208 A 
ATOM      3  C   UNL     1     116.924 118.016 113.406  1.00  0.00     0.238 A 
ATOM      4  O   UNL     1     116.174 117.531 114.293  1.00  0.00    -0.285 OA
ATOM      5  C   UNL     1     117.796 119.096 113.687  1.00  0.00     0.111 A 
ATOM      6  C   UNL     1     117.859 119.784 114.935  1.00  0.00     0.134 A 
ATOM      7  C   UNL     1     118.851 120.750 115.142  1.00  0.00     0.093 A 
ATOM      8  C   UNL     1     119.739 121.099 114.127  1.00  0.00     0.123 A 
ATOM      9  C   UNL     1     119.650 120.474 112.882  1.00  0.00     0.094 A 
ATOM     10  C   UNL     1     118.694 119.480 112.657  1.00  0.00     0.146 A 
ATOM     11  O   UNL     1     118.649 118.904 111.462  1.00  0.00    -0.452 OA
ENDROOT
BRANCH   1  12
ATOM     12  C   UNL     1     117.830 117.392 109.771  1.00  0.00     0.025 A 
ATOM     13  C   UNL     1     118.247 116.068 109.561  1.00  0.00     0.016 A 
ATOM     14  C   UNL     1     118.307 115.542 108.268  1.00  0.00     0.051 A 
ATOM     15  C   UNL     1     117.967 116.337 107.167  1.00  0.00     0.157 A 
ATOM     16  C   UNL     1     117.510 118.193 108.660  1.00  0.00     0.062 A 
ATOM     17  C   UNL     1     117.572 117.666 107.362  1.00  0.00     0.158 A 
BRANCH  15  18
ATOM     18  O   UNL     1     118.023 115.815 105.875  1.00  0.00    -0.504 OA
ATOM     19  H   UNL     1     118.411 114.898 105.691  1.00  0.00     0.293 HD
ENDBRANCH  15  18
BRANCH  17  20
ATOM     20  O   UNL     1     117.248 118.459 106.263  1.00  0.00    -0.504 OA
ATOM     21  H   UNL     1     117.504 119.438 106.221  1.00  0.00     0.293 HD
ENDBRANCH  17  20
ENDBRANCH   1  12
BRANCH   2  22
ATOM     22  O   UNL     1     116.080 116.356 111.835  1.00  0.00    -0.502 OA
ATOM     23  H   UNL     1     116.438 115.458 111.533  1.00  0.00     0.293 HD
ENDBRANCH   2  22
BRANCH   6  24
ATOM     24  O   UNL     1     116.960 119.578 115.986  1.00  0.00    -0.507 OA
ATOM     25  H   UNL     1     116.837 118.702 116.473  1.00  0.00     0.293 HD
ENDBRANCH   6  24
BRANCH   8  26
ATOM     26  O   UNL     1     120.704 122.077 114.363  1.00  0.00    -0.508 OA
ATOM     27  H   UNL     1     120.512 122.878 114.953  1.00  0.00     0.293 HD
ENDBRANCH   8  26
TORSDOF 6
ENDMDL
MODEL 6
REMARK VINA RESULT:    -6.409      1.481      2.428
REMARK INTER + INTRA:          -7.452
REMARK INTER:                  -8.003
REMARK INTRA:                   0.551
REMARK UNBOUND:                 0.268
REMARK SMILES O=c1c(O)c(-c2ccc(O)c(O)c2)oc2cc(O)cc(O)c12
REMARK SMILES IDX 5 1 3 2 2 3 1 4 22 5 20 6 19 7 17 8 16 9 15 10 14 11 6 12
REMARK SMILES IDX 7 13 8 14 9 15 13 16 11 17 10 18 12 20 4 22 21 24 18 26
REMARK H PARENT 10 19 12 21 4 23 21 25 18 27
REMARK Flexibility Score: inf
ROOT
ATOM      1  C   UNL     1     118.314 119.483 112.272  1.00  0.00     0.180 A 
ATOM      2  C   UNL     1     119.153 120.524 111.841  1.00  0.00     0.208 A 
ATOM      3  C   UNL     1     119.371 120.698 110.465  1.00  0.00     0.238 A 
ATOM      4  O   UNL     1     120.166 121.598 110.087  1.00  0.00    -0.285 OA
ATOM      5  C   UNL     1     118.733 119.840 109.537  1.00  0.00     0.111 A 
ATOM      6  C   UNL     1     118.850 119.949 108.119  1.00  0.00     0.134 A 
ATOM      7  C   UNL     1     118.281 118.966 107.302  1.00  0.00     0.093 A 
ATOM      8  C   UNL     1     117.545 117.914 107.846  1.00  0.00     0.123 A 
ATOM      9  C   UNL     1     117.374 117.830 109.228  1.00  0.00     0.094 A 
ATOM     10  C   UNL     1     117.961 118.776 110.072  1.00  0.00     0.146 A 
ATOM     11  O   UNL     1     117.783 118.654 111.382  1.00  0.00    -0.452 OA
ENDROOT
BRANCH   1  12
ATOM     12  C   UNL     1     118.017 119.253 113.706  1.00  0.00     0.025 A 
ATOM     13  C   UNL     1     118.625 120.066 114.676  1.00  0.00     0.016 A 
ATOM     14  C   UNL     1     118.378 119.853 116.034  1.00  0.00     0.051 A 
ATOM     15  C   UNL     1     117.531 118.815 116.442  1.00  0.00     0.157 A 
ATOM     16  C   UNL     1     117.185 118.198 114.121  1.00  0.00     0.062 A 
ATOM     17  C   UNL     1     116.937 117.983 115.485  1.00  0.00     0.158 A 
BRANCH  15  18
ATOM     18  O   UNL     1     117.279 118.601 117.796  1.00  0.00    -0.504 OA
ATOM     19  H   UNL     1     117.485 119.308 118.492  1.00  0.00     0.293 HD
ENDBRANCH  15  18
BRANCH  17  20
ATOM     20  O   UNL     1     116.107 116.942 115.895  1.00  0.00    -0.504 OA
ATOM     21  H   UNL     1     116.164 116.554 116.829  1.00  0.00     0.293 HD
ENDBRANCH  17  20
ENDBRANCH   1  12
BRANCH   2  22
ATOM     22  O   UNL     1     119.790 121.347 112.775  1.00  0.00    -0.502 OA
ATOM     23  H   UNL     1     119.364 121.598 113.659  1.00  0.00     0.293 HD
ENDBRANCH   2  22
BRANCH   6  24
ATOM     24  O   UNL     1     119.486 121.011 107.467  1.00  0.00    -0.507 OA
ATOM     25  H   UNL     1     119.612 121.932 107.860  1.00  0.00     0.293 HD
ENDBRANCH   6  24
BRANCH   8  26
ATOM     26  O   UNL     1     116.978 116.962 107.000  1.00  0.00    -0.508 OA
ATOM     27  H   UNL     1     116.766 116.025 107.324  1.00  0.00     0.293 HD
ENDBRANCH   8  26
TORSDOF 6
ENDMDL
MODEL 7
REMARK VINA RESULT:    -6.408      1.571      6.772
REMARK INTER + INTRA:          -7.452
REMARK INTER:                  -7.823
REMARK INTRA:                   0.371
REMARK UNBOUND:                 0.268
REMARK SMILES O=c1c(O)c(-c2ccc(O)c(O)c2)oc2cc(O)cc(O)c12
REMARK SMILES IDX 5 1 3 2 2 3 1 4 22 5 20 6 19 7 17 8 16 9 15 10 14 11 6 12
REMARK SMILES IDX 7 13 8 14 9 15 13 16 11 17 10 18 12 20 4 22 21 24 18 26
REMARK H PARENT 10 19 12 21 4 23 21 25 18 27
REMARK Flexibility Score: inf
ROOT
ATOM      1  C   UNL     1     118.024 119.078 111.693  1.00  0.00     0.180 A 
ATOM      2  C   UNL     1     118.879 119.874 112.473  1.00  0.00     0.208 A 
ATOM      3  C   UNL     1     118.737 119.860 113.870  1.00  0.00     0.238 A 
ATOM      4  O   UNL     1     119.469 120.617 114.560  1.00  0.00    -0.285 OA
ATOM      5  C   UNL     1     117.753 119.037 114.470  1.00  0.00     0.111 A 
ATOM      6  C   UNL     1     117.547 118.914 115.876  1.00  0.00     0.134 A 
ATOM      7  C   UNL     1     116.460 118.172 116.352  1.00  0.00     0.093 A 
ATOM      8  C   UNL     1     115.611 117.496 115.477  1.00  0.00     0.123 A 
ATOM      9  C   UNL     1     115.838 117.562 114.102  1.00  0.00     0.094 A 
ATOM     10  C   UNL     1     116.893 118.324 113.595  1.00  0.00     0.146 A 
ATOM     11  O   UNL     1     117.069 118.368 112.280  1.00  0.00    -0.452 OA
ENDROOT
BRANCH   1  12
ATOM     12  C   UNL     1     118.130 119.022 110.216  1.00  0.00     0.025 A 
ATOM     13  C   UNL     1     117.671 117.883 109.533  1.00  0.00     0.016 A 
ATOM     14  C   UNL     1     117.781 117.800 108.143  1.00  0.00     0.051 A 
ATOM     15  C   UNL     1     118.365 118.846 107.418  1.00  0.00     0.157 A 
ATOM     16  C   UNL     1     118.735 120.060 109.485  1.00  0.00     0.062 A 
ATOM     17  C   UNL     1     118.847 119.976 108.089  1.00  0.00     0.158 A 
BRANCH  15  18
ATOM     18  O   UNL     1     118.475 118.767 106.030  1.00  0.00    -0.504 OA
ATOM     19  H   UNL     1     119.377 118.747 105.570  1.00  0.00     0.293 HD
ENDBRANCH  15  18
BRANCH  17  20
ATOM     20  O   UNL     1     119.440 121.008 107.366  1.00  0.00    -0.504 OA
ATOM     21  H   UNL     1     119.601 120.933 106.368  1.00  0.00     0.293 HD
ENDBRANCH  17  20
ENDBRANCH   1  12
BRANCH   2  22
ATOM     22  O   UNL     1     119.829 120.697 111.859  1.00  0.00    -0.502 OA
ATOM     23  H   UNL     1     119.588 121.352 111.125  1.00  0.00     0.293 HD
ENDBRANCH   2  22
BRANCH   6  24
ATOM     24  O   UNL     1     118.391 119.474 116.841  1.00  0.00    -0.507 OA
ATOM     25  H   UNL     1     118.993 120.269 116.685  1.00  0.00     0.293 HD
ENDBRANCH   6  24
BRANCH   8  26
ATOM     26  O   UNL     1     114.547 116.754 115.988  1.00  0.00    -0.508 OA
ATOM     27  H   UNL     1     114.456 115.762 115.802  1.00  0.00     0.293 HD
ENDBRANCH   8  26
TORSDOF 6
ENDMDL
MODEL 8
REMARK VINA RESULT:    -6.327      3.218      4.558
REMARK INTER + INTRA:          -7.354
REMARK INTER:                  -7.037
REMARK INTRA:                  -0.317
REMARK UNBOUND:                 0.268
REMARK SMILES O=c1c(O)c(-c2ccc(O)c(O)c2)oc2cc(O)cc(O)c12
REMARK SMILES IDX 5 1 3 2 2 3 1 4 22 5 20 6 19 7 17 8 16 9 15 10 14 11 6 12
REMARK SMILES IDX 7 13 8 14 9 15 13 16 11 17 10 18 12 20 4 22 21 24 18 26
REMARK H PARENT 10 19 12 21 4 23 21 25 18 27
REMARK Flexibility Score: inf
ROOT
ATOM      1  C   UNL     1     115.503 117.880 110.678  1.00  0.00     0.180 A 
ATOM      2  C   UNL     1     115.370 116.739 109.869  1.00  0.00     0.208 A 
ATOM      3  C   UNL     1     116.168 116.623 108.719  1.00  0.00     0.238 A 
ATOM      4  O   UNL     1     116.006 115.624 107.970  1.00  0.00    -0.285 OA
ATOM      5  C   UNL     1     117.099 117.641 108.402  1.00  0.00     0.111 A 
ATOM      6  C   UNL     1     117.987 117.608 107.285  1.00  0.00     0.134 A 
ATOM      7  C   UNL     1     118.772 118.730 106.994  1.00  0.00     0.093 A 
ATOM      8  C   UNL     1     118.753 119.855 107.816  1.00  0.00     0.123 A 
ATOM      9  C   UNL     1     117.933 119.875 108.945  1.00  0.00     0.094 A 
ATOM     10  C   UNL     1     117.110 118.785 109.241  1.00  0.00     0.146 A 
ATOM     11  O   UNL     1     116.338 118.848 110.319  1.00  0.00    -0.452 OA
ENDROOT
BRANCH   1  12
ATOM     12  C   UNL     1     114.714 118.062 111.919  1.00  0.00     0.025 A 
ATOM     13  C   UNL     1     115.241 117.620 113.143  1.00  0.00     0.016 A 
ATOM     14  C   UNL     1     114.506 117.761 114.322  1.00  0.00     0.051 A 
ATOM     15  C   UNL     1     113.227 118.332 114.292  1.00  0.00     0.157 A 
ATOM     16  C   UNL     1     113.421 118.614 111.890  1.00  0.00     0.062 A 
ATOM     17  C   UNL     1     112.681 118.755 113.074  1.00  0.00     0.158 A 
BRANCH  15  18
ATOM     18  O   UNL     1     112.491 118.476 115.467  1.00  0.00    -0.504 OA
ATOM     19  H   UNL     1     111.483 118.381 115.475  1.00  0.00     0.293 HD
ENDBRANCH  15  18
BRANCH  17  20
ATOM     20  O   UNL     1     111.403 119.309 113.045  1.00  0.00    -0.504 OA
ATOM     21  H   UNL     1     110.573 118.728 113.032  1.00  0.00     0.293 HD
ENDBRANCH  17  20
ENDBRANCH   1  12
BRANCH   2  22
ATOM     22  O   UNL     1     114.429 115.756 110.189  1.00  0.00    -0.502 OA
ATOM     23  H   UNL     1     113.530 115.693 109.726  1.00  0.00     0.293 HD
ENDBRANCH   2  22
BRANCH   6  24
ATOM     24  O   UNL     1     118.152 116.498 106.451  1.00  0.00    -0.507 OA
ATOM     25  H   UNL     1     118.971 116.318 105.890  1.00  0.00     0.293 HD
ENDBRANCH   6  24
BRANCH   8  26
ATOM     26  O   UNL     1     119.561 120.948 107.506  1.00  0.00    -0.508 OA
ATOM     27  H   UNL     1     119.167 121.864 107.326  1.00  0.00     0.293 HD
ENDBRANCH   8  26
TORSDOF 6
ENDMDL
