MODEL 1
REMARK VINA RESULT:    -5.976      0.000      0.000
REMARK INTER + INTRA:         -16.463
REMARK INTER:                 -12.964
REMARK INTRA:                  -3.499
REMARK UNBOUND:                -3.499
REMARK SMILES CCCCCCCCCCCCCCCCCCCCCC(=O)[O-]
REMARK SMILES IDX 12 1 11 2 10 3 9 4 8 5 7 6 6 7 5 8 4 9 3 10 2 11 1 12 13 13
REMARK SMILES IDX 14 14 15 15 16 16 17 17 18 18 19 19 20 20 21 21 22 22 23 23
REMARK SMILES IDX 24 24
REMARK H PARENT
REMARK Flexibility Score: inf
ROOT
ATOM      1  C   UNL     1      13.738  -2.797  12.366  1.00  0.00     0.000 C 
ENDROOT
BRANCH   1   2
ATOM      2  C   UNL     1      12.252  -3.021  12.044  1.00  0.00     0.000 C 
BRANCH   2   3
ATOM      3  C   UNL     1      12.039  -4.055  10.926  1.00  0.00     0.000 C 
BRANCH   3   4
ATOM      4  C   UNL     1      13.074  -5.192  10.968  1.00  0.00    -0.000 C 
BRANCH   4   5
ATOM      5  C   UNL     1      13.536  -5.628   9.568  1.00  0.00    -0.000 C 
BRANCH   5   6
ATOM      6  C   UNL     1      15.063  -5.532   9.442  1.00  0.00    -0.000 C 
BRANCH   6   7
ATOM      7  C   UNL     1      15.754  -5.164  10.768  1.00  0.00    -0.000 C 
BRANCH   7   8
ATOM      8  C   UNL     1      17.077  -5.904  11.039  1.00  0.00    -0.000 C 
BRANCH   8   9
ATOM      9  C   UNL     1      17.136  -6.532  12.440  1.00  0.00    -0.000 C 
BRANCH   9  10
ATOM     10  C   UNL     1      15.764  -6.474  13.125  1.00  0.00    -0.000 C 
BRANCH  10  11
ATOM     11  C   UNL     1      15.472  -7.721  13.973  1.00  0.00    -0.003 C 
ATOM     12  C   UNL     1      15.001  -7.378  15.386  1.00  0.00     0.004 C 
ENDBRANCH  10  11
ENDBRANCH   9  10
ENDBRANCH   8   9
ENDBRANCH   7   8
ENDBRANCH   6   7
ENDBRANCH   5   6
ENDBRANCH   4   5
ENDBRANCH   3   4
ENDBRANCH   2   3
ENDBRANCH   1   2
BRANCH   1  13
ATOM     13  C   UNL     1      14.105  -3.202  13.802  1.00  0.00     0.000 C 
BRANCH  13  14
ATOM     14  C   UNL     1      12.856  -3.230  14.697  1.00  0.00     0.000 C 
BRANCH  14  15
ATOM     15  C   UNL     1      13.195  -3.438  16.182  1.00  0.00     0.000 C 
BRANCH  15  16
ATOM     16  C   UNL     1      14.639  -3.923  16.398  1.00  0.00     0.000 C 
BRANCH  16  17
ATOM     17  C   UNL     1      15.427  -3.023  17.364  1.00  0.00     0.000 C 
BRANCH  17  18
ATOM     18  C   UNL     1      16.947  -3.207  17.242  1.00  0.00     0.000 C 
BRANCH  18  19
ATOM     19  C   UNL     1      17.285  -4.559  16.599  1.00  0.00     0.000 C 
BRANCH  19  20
ATOM     20  C   UNL     1      18.177  -4.429  15.351  1.00  0.00     0.006 C 
BRANCH  20  21
ATOM     21  C   UNL     1      17.685  -3.382  14.335  1.00  0.00     0.053 C 
BRANCH  21  22
ATOM     22  C   UNL     1      18.786  -2.854  13.468  1.00  0.00     0.041 C 
ATOM     23  O   UNL     1      19.158  -1.655  13.572  1.00  0.00    -0.550 OA
ATOM     24  O   UNL     1      19.425  -3.695  12.565  1.00  0.00    -0.550 OA
ENDBRANCH  21  22
ENDBRANCH  20  21
ENDBRANCH  19  20
ENDBRANCH  18  19
ENDBRANCH  17  18
ENDBRANCH  16  17
ENDBRANCH  15  16
ENDBRANCH  14  15
ENDBRANCH  13  14
ENDBRANCH   1  13
TORSDOF 20
ENDMDL
MODEL 2
REMARK VINA RESULT:    -5.910      1.714      6.042
REMARK INTER + INTRA:         -16.319
REMARK INTER:                 -12.562
REMARK INTRA:                  -3.757
REMARK UNBOUND:                -3.499
REMARK SMILES CCCCCCCCCCCCCCCCCCCCCC(=O)[O-]
REMARK SMILES IDX 12 1 11 2 10 3 9 4 8 5 7 6 6 7 5 8 4 9 3 10 2 11 1 12 13 13
REMARK SMILES IDX 14 14 15 15 16 16 17 17 18 18 19 19 20 20 21 21 22 22 23 23
REMARK SMILES IDX 24 24
REMARK H PARENT
REMARK Flexibility Score: inf
ROOT
ATOM      1  C   UNL     1      17.495  -4.468  13.191  1.00  0.00     0.000 C 
ENDROOT
BRANCH   1   2
ATOM      2  C   UNL     1      18.478  -3.339  13.539  1.00  0.00     0.000 C 
BRANCH   2   3
ATOM      3  C   UNL     1      18.481  -2.999  15.039  1.00  0.00     0.000 C 
BRANCH   3   4
ATOM      4  C   UNL     1      18.016  -4.176  15.912  1.00  0.00    -0.000 C 
BRANCH   4   5
ATOM      5  C   UNL     1      17.527  -3.730  17.300  1.00  0.00    -0.000 C 
BRANCH   5   6
ATOM      6  C   UNL     1      16.374  -2.724  17.176  1.00  0.00    -0.000 C 
BRANCH   6   7
ATOM      7  C   UNL     1      14.998  -3.399  17.042  1.00  0.00    -0.000 C 
BRANCH   7   8
ATOM      8  C   UNL     1      14.405  -3.393  15.620  1.00  0.00    -0.000 C 
BRANCH   8   9
ATOM      9  C   UNL     1      14.371  -4.789  14.979  1.00  0.00    -0.000 C 
BRANCH   9  10
ATOM     10  C   UNL     1      14.680  -5.877  16.017  1.00  0.00    -0.000 C 
BRANCH  10  11
ATOM     11  C   UNL     1      15.756  -6.863  15.538  1.00  0.00    -0.003 C 
ATOM     12  C   UNL     1      15.381  -7.557  14.229  1.00  0.00     0.004 C 
ENDBRANCH  10  11
ENDBRANCH   9  10
ENDBRANCH   8   9
ENDBRANCH   7   8
ENDBRANCH   6   7
ENDBRANCH   5   6
ENDBRANCH   4   5
ENDBRANCH   3   4
ENDBRANCH   2   3
ENDBRANCH   1   2
BRANCH   1  13
ATOM     13  C   UNL     1      18.107  -5.525  12.260  1.00  0.00     0.000 C 
BRANCH  13  14
ATOM     14  C   UNL     1      17.099  -5.953  11.182  1.00  0.00     0.000 C 
BRANCH  14  15
ATOM     15  C   UNL     1      15.712  -5.319  11.381  1.00  0.00     0.000 C 
BRANCH  15  16
ATOM     16  C   UNL     1      14.909  -5.231  10.071  1.00  0.00     0.000 C 
BRANCH  16  17
ATOM     17  C   UNL     1      13.392  -5.333  10.300  1.00  0.00     0.000 C 
BRANCH  17  18
ATOM     18  C   UNL     1      13.014  -5.320  11.789  1.00  0.00     0.000 C 
BRANCH  18  19
ATOM     19  C   UNL     1      11.983  -4.220  12.083  1.00  0.00     0.000 C 
BRANCH  19  20
ATOM     20  C   UNL     1      12.394  -2.844  11.530  1.00  0.00     0.006 C 
BRANCH  20  21
ATOM     21  C   UNL     1      12.897  -1.862  12.604  1.00  0.00     0.053 C 
BRANCH  21  22
ATOM     22  C   UNL     1      14.176  -1.186  12.218  1.00  0.00     0.041 C 
ATOM     23  O   UNL     1      14.155  -0.105  11.570  1.00  0.00    -0.550 OA
ATOM     24  O   UNL     1      15.395  -1.731  12.601  1.00  0.00    -0.550 OA
ENDBRANCH  21  22
ENDBRANCH  20  21
ENDBRANCH  19  20
ENDBRANCH  18  19
ENDBRANCH  17  18
ENDBRANCH  16  17
ENDBRANCH  15  16
ENDBRANCH  14  15
ENDBRANCH  13  14
ENDBRANCH   1  13
TORSDOF 20
ENDMDL
MODEL 3
REMARK VINA RESULT:    -5.894      1.817      3.634
REMARK INTER + INTRA:         -16.285
REMARK INTER:                 -12.456
REMARK INTRA:                  -3.828
REMARK UNBOUND:                -3.499
REMARK SMILES CCCCCCCCCCCCCCCCCCCCCC(=O)[O-]
REMARK SMILES IDX 12 1 11 2 10 3 9 4 8 5 7 6 6 7 5 8 4 9 3 10 2 11 1 12 13 13
REMARK SMILES IDX 14 14 15 15 16 16 17 17 18 18 19 19 20 20 21 21 22 22 23 23
REMARK SMILES IDX 24 24
REMARK H PARENT
REMARK Flexibility Score: inf
ROOT
ATOM      1  C   UNL     1      14.922  -1.650  12.917  1.00  0.00     0.000 C 
ENDROOT
BRANCH   1   2
ATOM      2  C   UNL     1      16.092  -0.742  12.506  1.00  0.00     0.000 C 
BRANCH   2   3
ATOM      3  C   UNL     1      17.411  -1.129  13.198  1.00  0.00     0.000 C 
BRANCH   3   4
ATOM      4  C   UNL     1      17.599  -2.652  13.300  1.00  0.00    -0.000 C 
BRANCH   4   5
ATOM      5  C   UNL     1      18.993  -3.111  12.841  1.00  0.00    -0.000 C 
BRANCH   5   6
ATOM      6  C   UNL     1      19.068  -4.643  12.773  1.00  0.00    -0.000 C 
BRANCH   6   7
ATOM      7  C   UNL     1      17.686  -5.308  12.640  1.00  0.00    -0.000 C 
BRANCH   7   8
ATOM      8  C   UNL     1      17.407  -5.961  11.274  1.00  0.00    -0.000 C 
BRANCH   8   9
ATOM      9  C   UNL     1      16.025  -5.597  10.707  1.00  0.00    -0.000 C 
BRANCH   9  10
ATOM     10  C   UNL     1      15.150  -4.936  11.780  1.00  0.00    -0.000 C 
BRANCH  10  11
ATOM     11  C   UNL     1      13.787  -5.627  11.940  1.00  0.00    -0.003 C 
ATOM     12  C   UNL     1      13.793  -6.702  13.027  1.00  0.00     0.004 C 
ENDBRANCH  10  11
ENDBRANCH   9  10
ENDBRANCH   8   9
ENDBRANCH   7   8
ENDBRANCH   6   7
ENDBRANCH   5   6
ENDBRANCH   4   5
ENDBRANCH   3   4
ENDBRANCH   2   3
ENDBRANCH   1   2
BRANCH   1  13
ATOM     13  C   UNL     1      13.619  -1.314  12.176  1.00  0.00     0.000 C 
BRANCH  13  14
ATOM     14  C   UNL     1      12.451  -2.153  12.717  1.00  0.00     0.000 C 
BRANCH  14  15
ATOM     15  C   UNL     1      12.413  -2.199  14.253  1.00  0.00     0.000 C 
BRANCH  15  16
ATOM     16  C   UNL     1      12.608  -3.621  14.808  1.00  0.00     0.000 C 
BRANCH  16  17
ATOM     17  C   UNL     1      13.099  -3.625  16.265  1.00  0.00     0.000 C 
BRANCH  17  18
ATOM     18  C   UNL     1      14.600  -3.324  16.386  1.00  0.00     0.000 C 
BRANCH  18  19
ATOM     19  C   UNL     1      15.421  -4.253  15.480  1.00  0.00     0.000 C 
BRANCH  19  20
ATOM     20  C   UNL     1      16.285  -5.256  16.267  1.00  0.00     0.006 C 
BRANCH  20  21
ATOM     21  C   UNL     1      17.797  -4.977  16.188  1.00  0.00     0.053 C 
BRANCH  21  22
ATOM     22  C   UNL     1      18.200  -3.749  16.946  1.00  0.00     0.041 C 
ATOM     23  O   UNL     1      17.688  -3.499  18.070  1.00  0.00    -0.550 OA
ATOM     24  O   UNL     1      19.166  -2.896  16.428  1.00  0.00    -0.550 OA
ENDBRANCH  21  22
ENDBRANCH  20  21
ENDBRANCH  19  20
ENDBRANCH  18  19
ENDBRANCH  17  18
ENDBRANCH  16  17
ENDBRANCH  15  16
ENDBRANCH  14  15
ENDBRANCH  13  14
ENDBRANCH   1  13
TORSDOF 20
ENDMDL
MODEL 4
REMARK VINA RESULT:    -5.821      1.640      4.182
REMARK INTER + INTRA:         -16.125
REMARK INTER:                 -12.440
REMARK INTRA:                  -3.685
REMARK UNBOUND:                -3.499
REMARK SMILES CCCCCCCCCCCCCCCCCCCCCC(=O)[O-]
REMARK SMILES IDX 12 1 11 2 10 3 9 4 8 5 7 6 6 7 5 8 4 9 3 10 2 11 1 12 13 13
REMARK SMILES IDX 14 14 15 15 16 16 17 17 18 18 19 19 20 20 21 21 22 22 23 23
REMARK SMILES IDX 24 24
REMARK H PARENT
REMARK Flexibility Score: inf
ROOT
ATOM      1  C   UNL     1      12.426  -3.339  14.793  1.00  0.00     0.000 C 
ENDROOT
BRANCH   1   2
ATOM      2  C   UNL     1      13.365  -3.285  16.007  1.00  0.00     0.000 C 
BRANCH   2   3
ATOM      3  C   UNL     1      14.057  -4.632  16.280  1.00  0.00     0.000 C 
BRANCH   3   4
ATOM      4  C   UNL     1      15.549  -4.615  15.910  1.00  0.00    -0.000 C 
BRANCH   4   5
ATOM      5  C   UNL     1      16.201  -6.004  16.002  1.00  0.00    -0.000 C 
BRANCH   5   6
ATOM      6  C   UNL     1      15.179  -7.108  15.693  1.00  0.00    -0.000 C 
BRANCH   6   7
ATOM      7  C   UNL     1      15.184  -7.535  14.214  1.00  0.00    -0.000 C 
BRANCH   7   8
ATOM      8  C   UNL     1      14.072  -6.907  13.353  1.00  0.00    -0.000 C 
BRANCH   8   9
ATOM      9  C   UNL     1      14.596  -5.828  12.393  1.00  0.00    -0.000 C 
BRANCH   9  10
ATOM     10  C   UNL     1      16.114  -5.955  12.201  1.00  0.00    -0.000 C 
BRANCH  10  11
ATOM     11  C   UNL     1      16.549  -5.712  10.748  1.00  0.00    -0.003 C 
ATOM     12  C   UNL     1      15.386  -5.307   9.842  1.00  0.00     0.004 C 
ENDBRANCH  10  11
ENDBRANCH   9  10
ENDBRANCH   8   9
ENDBRANCH   7   8
ENDBRANCH   6   7
ENDBRANCH   5   6
ENDBRANCH   4   5
ENDBRANCH   3   4
ENDBRANCH   2   3
ENDBRANCH   1   2
BRANCH   1  13
ATOM     13  C   UNL     1      12.485  -2.065  13.936  1.00  0.00     0.000 C 
BRANCH  13  14
ATOM     14  C   UNL     1      12.946  -2.388  12.506  1.00  0.00     0.000 C 
BRANCH  14  15
ATOM     15  C   UNL     1      14.250  -1.669  12.125  1.00  0.00     0.000 C 
BRANCH  15  16
ATOM     16  C   UNL     1      15.405  -1.988  13.090  1.00  0.00     0.000 C 
BRANCH  16  17
ATOM     17  C   UNL     1      16.549  -0.965  13.001  1.00  0.00     0.000 C 
BRANCH  17  18
ATOM     18  C   UNL     1      17.932  -1.599  13.214  1.00  0.00     0.000 C 
BRANCH  18  19
ATOM     19  C   UNL     1      17.810  -3.111  13.456  1.00  0.00     0.000 C 
BRANCH  19  20
ATOM     20  C   UNL     1      19.167  -3.795  13.701  1.00  0.00     0.006 C 
BRANCH  20  21
ATOM     21  C   UNL     1      19.354  -4.320  15.136  1.00  0.00     0.053 C 
BRANCH  21  22
ATOM     22  C   UNL     1      19.434  -3.219  16.150  1.00  0.00     0.041 C 
ATOM     23  O   UNL     1      20.211  -2.244  15.969  1.00  0.00    -0.550 OA
ATOM     24  O   UNL     1      18.626  -3.253  17.279  1.00  0.00    -0.550 OA
ENDBRANCH  21  22
ENDBRANCH  20  21
ENDBRANCH  19  20
ENDBRANCH  18  19
ENDBRANCH  17  18
ENDBRANCH  16  17
ENDBRANCH  15  16
ENDBRANCH  14  15
ENDBRANCH  13  14
ENDBRANCH   1  13
TORSDOF 20
ENDMDL
MODEL 5
REMARK VINA RESULT:    -5.809      1.801      6.000
REMARK INTER + INTRA:         -16.099
REMARK INTER:                 -12.846
REMARK INTRA:                  -3.253
REMARK UNBOUND:                -3.499
REMARK SMILES CCCCCCCCCCCCCCCCCCCCCC(=O)[O-]
REMARK SMILES IDX 12 1 11 2 10 3 9 4 8 5 7 6 6 7 5 8 4 9 3 10 2 11 1 12 13 13
REMARK SMILES IDX 14 14 15 15 16 16 17 17 18 18 19 19 20 20 21 21 22 22 23 23
REMARK SMILES IDX 24 24
REMARK H PARENT
REMARK Flexibility Score: inf
ROOT
ATOM      1  C   UNL     1      16.682  -5.707  13.203  1.00  0.00     0.000 C 
ENDROOT
BRANCH   1   2
ATOM      2  C   UNL     1      16.051  -7.107  13.147  1.00  0.00     0.000 C 
BRANCH   2   3
ATOM      3  C   UNL     1      15.361  -7.496  14.466  1.00  0.00     0.000 C 
BRANCH   3   4
ATOM      4  C   UNL     1      15.709  -6.541  15.620  1.00  0.00    -0.000 C 
BRANCH   4   5
ATOM      5  C   UNL     1      14.469  -5.868  16.230  1.00  0.00    -0.000 C 
BRANCH   5   6
ATOM      6  C   UNL     1      14.393  -4.390  15.822  1.00  0.00    -0.000 C 
BRANCH   6   7
ATOM      7  C   UNL     1      14.320  -3.436  17.028  1.00  0.00    -0.000 C 
BRANCH   7   8
ATOM      8  C   UNL     1      15.664  -2.810  17.444  1.00  0.00    -0.000 C 
BRANCH   8   9
ATOM      9  C   UNL     1      16.761  -2.985  16.381  1.00  0.00    -0.000 C 
BRANCH   9  10
ATOM     10  C   UNL     1      18.071  -3.467  17.020  1.00  0.00    -0.000 C 
BRANCH  10  11
ATOM     11  C   UNL     1      19.280  -3.302  16.087  1.00  0.00    -0.003 C 
ATOM     12  C   UNL     1      19.491  -4.509  15.173  1.00  0.00     0.004 C 
ENDBRANCH  10  11
ENDBRANCH   9  10
ENDBRANCH   8   9
ENDBRANCH   7   8
ENDBRANCH   6   7
ENDBRANCH   5   6
ENDBRANCH   4   5
ENDBRANCH   3   4
ENDBRANCH   2   3
ENDBRANCH   1   2
BRANCH   1  13
ATOM     13  C   UNL     1      17.179  -5.221  11.832  1.00  0.00     0.000 C 
BRANCH  13  14
ATOM     14  C   UNL     1      16.477  -5.982  10.697  1.00  0.00     0.000 C 
BRANCH  14  15
ATOM     15  C   UNL     1      15.628  -5.064   9.802  1.00  0.00     0.000 C 
BRANCH  15  16
ATOM     16  C   UNL     1      14.305  -5.719   9.370  1.00  0.00     0.000 C 
BRANCH  16  17
ATOM     17  C   UNL     1      13.090  -5.146  10.118  1.00  0.00     0.000 C 
BRANCH  17  18
ATOM     18  C   UNL     1      13.115  -5.460  11.622  1.00  0.00     0.000 C 
BRANCH  18  19
ATOM     19  C   UNL     1      12.833  -4.198  12.450  1.00  0.00     0.000 C 
BRANCH  19  20
ATOM     20  C   UNL     1      14.035  -3.238  12.518  1.00  0.00     0.006 C 
BRANCH  20  21
ATOM     21  C   UNL     1      13.663  -1.795  12.907  1.00  0.00     0.053 C 
BRANCH  21  22
ATOM     22  C   UNL     1      14.418  -0.771  12.116  1.00  0.00     0.041 C 
ATOM     23  O   UNL     1      13.806   0.009  11.338  1.00  0.00    -0.550 OA
ATOM     24  O   UNL     1      15.794  -0.653  12.262  1.00  0.00    -0.550 OA
ENDBRANCH  21  22
ENDBRANCH  20  21
ENDBRANCH  19  20
ENDBRANCH  18  19
ENDBRANCH  17  18
ENDBRANCH  16  17
ENDBRANCH  15  16
ENDBRANCH  14  15
ENDBRANCH  13  14
ENDBRANCH   1  13
TORSDOF 20
ENDMDL
MODEL 6
REMARK VINA RESULT:    -5.774      2.118      5.161
REMARK INTER + INTRA:         -16.023
REMARK INTER:                 -12.137
REMARK INTRA:                  -3.887
REMARK UNBOUND:                -3.499
REMARK SMILES CCCCCCCCCCCCCCCCCCCCCC(=O)[O-]
REMARK SMILES IDX 12 1 11 2 10 3 9 4 8 5 7 6 6 7 5 8 4 9 3 10 2 11 1 12 13 13
REMARK SMILES IDX 14 14 15 15 16 16 17 17 18 18 19 19 20 20 21 21 22 22 23 23
REMARK SMILES IDX 24 24
REMARK H PARENT
REMARK Flexibility Score: inf
ROOT
ATOM      1  C   UNL     1      14.925  -6.988  15.242  1.00  0.00     0.000 C 
ENDROOT
BRANCH   1   2
ATOM      2  C   UNL     1      15.634  -7.629  14.038  1.00  0.00     0.000 C 
BRANCH   2   3
ATOM      3  C   UNL     1      15.841  -6.640  12.878  1.00  0.00     0.000 C 
BRANCH   3   4
ATOM      4  C   UNL     1      17.279  -6.662  12.333  1.00  0.00    -0.000 C 
BRANCH   4   5
ATOM      5  C   UNL     1      17.885  -5.256  12.198  1.00  0.00    -0.000 C 
BRANCH   5   6
ATOM      6  C   UNL     1      16.878  -4.182  12.633  1.00  0.00    -0.000 C 
BRANCH   6   7
ATOM      7  C   UNL     1      17.306  -3.439  13.912  1.00  0.00    -0.000 C 
BRANCH   7   8
ATOM      8  C   UNL     1      18.638  -3.911  14.523  1.00  0.00    -0.000 C 
BRANCH   8   9
ATOM      9  C   UNL     1      18.451  -4.930  15.657  1.00  0.00    -0.000 C 
BRANCH   9  10
ATOM     10  C   UNL     1      17.529  -4.371  16.749  1.00  0.00    -0.000 C 
BRANCH  10  11
ATOM     11  C   UNL     1      18.107  -3.119  17.427  1.00  0.00    -0.003 C 
ATOM     12  C   UNL     1      17.703  -3.004  18.897  1.00  0.00     0.004 C 
ENDBRANCH  10  11
ENDBRANCH   9  10
ENDBRANCH   8   9
ENDBRANCH   7   8
ENDBRANCH   6   7
ENDBRANCH   5   6
ENDBRANCH   4   5
ENDBRANCH   3   4
ENDBRANCH   2   3
ENDBRANCH   1   2
BRANCH   1  13
ATOM     13  C   UNL     1      14.492  -5.538  14.975  1.00  0.00     0.000 C 
BRANCH  13  14
ATOM     14  C   UNL     1      14.017  -4.862  16.270  1.00  0.00     0.000 C 
BRANCH  14  15
ATOM     15  C   UNL     1      13.649  -3.384  16.069  1.00  0.00     0.000 C 
BRANCH  15  16
ATOM     16  C   UNL     1      13.876  -2.909  14.623  1.00  0.00     0.000 C 
BRANCH  16  17
ATOM     17  C   UNL     1      12.617  -2.280  14.003  1.00  0.00     0.000 C 
BRANCH  17  18
ATOM     18  C   UNL     1      12.291  -2.851  12.614  1.00  0.00     0.000 C 
BRANCH  18  19
ATOM     19  C   UNL     1      11.906  -4.335  12.708  1.00  0.00     0.000 C 
BRANCH  19  20
ATOM     20  C   UNL     1      12.756  -5.239  11.797  1.00  0.00     0.006 C 
BRANCH  20  21
ATOM     21  C   UNL     1      13.661  -4.469  10.819  1.00  0.00     0.053 C 
BRANCH  21  22
ATOM     22  C   UNL     1      14.193  -5.335   9.718  1.00  0.00     0.041 C 
ATOM     23  O   UNL     1      13.403  -5.968   8.969  1.00  0.00    -0.550 OA
ATOM     24  O   UNL     1      15.563  -5.418   9.498  1.00  0.00    -0.550 OA
ENDBRANCH  21  22
ENDBRANCH  20  21
ENDBRANCH  19  20
ENDBRANCH  18  19
ENDBRANCH  17  18
ENDBRANCH  16  17
ENDBRANCH  15  16
ENDBRANCH  14  15
ENDBRANCH  13  14
ENDBRANCH   1  13
TORSDOF 20
ENDMDL
MODEL 7
REMARK VINA RESULT:    -5.768      1.138      3.736
REMARK INTER + INTRA:         -16.012
REMARK INTER:                 -12.441
REMARK INTRA:                  -3.570
REMARK UNBOUND:                -3.499
REMARK SMILES CCCCCCCCCCCCCCCCCCCCCC(=O)[O-]
REMARK SMILES IDX 12 1 11 2 10 3 9 4 8 5 7 6 6 7 5 8 4 9 3 10 2 11 1 12 13 13
REMARK SMILES IDX 14 14 15 15 16 16 17 17 18 18 19 19 20 20 21 21 22 22 23 23
REMARK SMILES IDX 24 24
REMARK H PARENT
REMARK Flexibility Score: inf
ROOT
ATOM      1  C   UNL     1      15.607  -7.303  14.004  1.00  0.00     0.000 C 
ENDROOT
BRANCH   1   2
ATOM      2  C   UNL     1      16.313  -6.036  13.496  1.00  0.00     0.000 C 
BRANCH   2   3
ATOM      3  C   UNL     1      17.274  -6.322  12.329  1.00  0.00     0.000 C 
BRANCH   3   4
ATOM      4  C   UNL     1      16.751  -5.781  10.988  1.00  0.00    -0.000 C 
BRANCH   4   5
ATOM      5  C   UNL     1      15.499  -4.904  11.148  1.00  0.00    -0.000 C 
BRANCH   5   6
ATOM      6  C   UNL     1      14.418  -5.304  10.133  1.00  0.00    -0.000 C 
BRANCH   6   7
ATOM      7  C   UNL     1      12.991  -5.199  10.702  1.00  0.00    -0.000 C 
BRANCH   7   8
ATOM      8  C   UNL     1      12.891  -5.321  12.234  1.00  0.00    -0.000 C 
BRANCH   8   9
ATOM      9  C   UNL     1      11.957  -4.273  12.859  1.00  0.00    -0.000 C 
BRANCH   9  10
ATOM     10  C   UNL     1      12.226  -2.880  12.274  1.00  0.00    -0.000 C 
BRANCH  10  11
ATOM     11  C   UNL     1      12.978  -1.963  13.250  1.00  0.00    -0.003 C 
ATOM     12  C   UNL     1      14.496  -2.057  13.099  1.00  0.00     0.004 C 
ENDBRANCH  10  11
ENDBRANCH   9  10
ENDBRANCH   8   9
ENDBRANCH   7   8
ENDBRANCH   6   7
ENDBRANCH   5   6
ENDBRANCH   4   5
ENDBRANCH   3   4
ENDBRANCH   2   3
ENDBRANCH   1   2
BRANCH   1  13
ATOM     13  C   UNL     1      14.849  -7.076  15.320  1.00  0.00     0.000 C 
BRANCH  13  14
ATOM     14  C   UNL     1      15.081  -5.651  15.846  1.00  0.00     0.000 C 
BRANCH  14  15
ATOM     15  C   UNL     1      13.770  -4.877  16.063  1.00  0.00     0.000 C 
BRANCH  15  16
ATOM     16  C   UNL     1      14.003  -3.470  16.639  1.00  0.00     0.000 C 
BRANCH  16  17
ATOM     17  C   UNL     1      15.478  -3.039  16.569  1.00  0.00     0.000 C 
BRANCH  17  18
ATOM     18  C   UNL     1      16.002  -2.495  17.907  1.00  0.00     0.000 C 
BRANCH  18  19
ATOM     19  C   UNL     1      17.421  -3.010  18.189  1.00  0.00     0.000 C 
BRANCH  19  20
ATOM     20  C   UNL     1      17.954  -3.947  17.091  1.00  0.00     0.006 C 
BRANCH  20  21
ATOM     21  C   UNL     1      19.089  -3.340  16.246  1.00  0.00     0.053 C 
BRANCH  21  22
ATOM     22  C   UNL     1      18.980  -3.688  14.793  1.00  0.00     0.041 C 
ATOM     23  O   UNL     1      19.684  -4.613  14.306  1.00  0.00    -0.550 OA
ATOM     24  O   UNL     1      18.078  -3.013  13.981  1.00  0.00    -0.550 OA
ENDBRANCH  21  22
ENDBRANCH  20  21
ENDBRANCH  19  20
ENDBRANCH  18  19
ENDBRANCH  17  18
ENDBRANCH  16  17
ENDBRANCH  15  16
ENDBRANCH  14  15
ENDBRANCH  13  14
ENDBRANCH   1  13
TORSDOF 20
ENDMDL
MODEL 8
REMARK VINA RESULT:    -5.762      1.007      3.937
REMARK INTER + INTRA:         -15.997
REMARK INTER:                 -11.729
REMARK INTRA:                  -4.268
REMARK UNBOUND:                -3.499
REMARK SMILES CCCCCCCCCCCCCCCCCCCCCC(=O)[O-]
REMARK SMILES IDX 12 1 11 2 10 3 9 4 8 5 7 6 6 7 5 8 4 9 3 10 2 11 1 12 13 13
REMARK SMILES IDX 14 14 15 15 16 16 17 17 18 18 19 19 20 20 21 21 22 22 23 23
REMARK SMILES IDX 24 24
REMARK H PARENT
REMARK Flexibility Score: inf
ROOT
ATOM      1  C   UNL     1      15.386  -5.899  12.511  1.00  0.00     0.000 C 
ENDROOT
BRANCH   1   2
ATOM      2  C   UNL     1      15.913  -5.253  11.220  1.00  0.00     0.000 C 
BRANCH   2   3
ATOM      3  C   UNL     1      14.812  -5.063  10.162  1.00  0.00     0.000 C 
BRANCH   3   4
ATOM      4  C   UNL     1      13.419  -5.450  10.684  1.00  0.00    -0.000 C 
BRANCH   4   5
ATOM      5  C   UNL     1      12.320  -4.480  10.221  1.00  0.00    -0.000 C 
BRANCH   5   6
ATOM      6  C   UNL     1      11.579  -3.879  11.425  1.00  0.00    -0.000 C 
BRANCH   6   7
ATOM      7  C   UNL     1      12.087  -4.418  12.774  1.00  0.00    -0.000 C 
BRANCH   7   8
ATOM      8  C   UNL     1      11.879  -3.473  13.972  1.00  0.00    -0.000 C 
BRANCH   8   9
ATOM      9  C   UNL     1      12.741  -2.203  13.890  1.00  0.00    -0.000 C 
BRANCH   9  10
ATOM     10  C   UNL     1      14.173  -2.540  13.453  1.00  0.00    -0.000 C 
BRANCH  10  11
ATOM     11  C   UNL     1      14.769  -1.480  12.513  1.00  0.00    -0.003 C 
ATOM     12  C   UNL     1      13.700  -0.706  11.742  1.00  0.00     0.004 C 
ENDBRANCH  10  11
ENDBRANCH   9  10
ENDBRANCH   8   9
ENDBRANCH   7   8
ENDBRANCH   6   7
ENDBRANCH   5   6
ENDBRANCH   4   5
ENDBRANCH   3   4
ENDBRANCH   2   3
ENDBRANCH   1   2
BRANCH   1  13
ATOM     13  C   UNL     1      16.234  -7.096  12.967  1.00  0.00     0.000 C 
BRANCH  13  14
ATOM     14  C   UNL     1      15.580  -7.804  14.164  1.00  0.00     0.000 C 
BRANCH  14  15
ATOM     15  C   UNL     1      14.447  -6.979  14.796  1.00  0.00     0.000 C 
BRANCH  15  16
ATOM     16  C   UNL     1      14.847  -6.361  16.147  1.00  0.00     0.000 C 
BRANCH  16  17
ATOM     17  C   UNL     1      14.699  -4.830  16.164  1.00  0.00     0.000 C 
BRANCH  17  18
ATOM     18  C   UNL     1      16.034  -4.107  16.396  1.00  0.00     0.000 C 
BRANCH  18  19
ATOM     19  C   UNL     1      17.219  -5.054  16.159  1.00  0.00     0.000 C 
BRANCH  19  20
ATOM     20  C   UNL     1      18.163  -4.572  15.042  1.00  0.00     0.006 C 
BRANCH  20  21
ATOM     21  C   UNL     1      17.558  -3.484  14.136  1.00  0.00     0.053 C 
BRANCH  21  22
ATOM     22  C   UNL     1      18.592  -2.765  13.324  1.00  0.00     0.041 C 
ATOM     23  O   UNL     1      19.409  -3.414  12.618  1.00  0.00    -0.550 OA
ATOM     24  O   UNL     1      18.632  -1.376  13.320  1.00  0.00    -0.550 OA
ENDBRANCH  21  22
ENDBRANCH  20  21
ENDBRANCH  19  20
ENDBRANCH  18  19
ENDBRANCH  17  18
ENDBRANCH  16  17
ENDBRANCH  15  16
ENDBRANCH  14  15
ENDBRANCH  13  14
ENDBRANCH   1  13
TORSDOF 20
ENDMDL
MODEL 9
REMARK VINA RESULT:    -5.760      2.453      5.218
REMARK INTER + INTRA:         -15.993
REMARK INTER:                 -12.448
REMARK INTRA:                  -3.545
REMARK UNBOUND:                -3.499
REMARK SMILES CCCCCCCCCCCCCCCCCCCCCC(=O)[O-]
REMARK SMILES IDX 12 1 11 2 10 3 9 4 8 5 7 6 6 7 5 8 4 9 3 10 2 11 1 12 13 13
REMARK SMILES IDX 14 14 15 15 16 16 17 17 18 18 19 19 20 20 21 21 22 22 23 23
REMARK SMILES IDX 24 24
REMARK H PARENT
REMARK Flexibility Score: inf
ROOT
ATOM      1  C   UNL     1      15.631  -0.743  12.144  1.00  0.00     0.000 C 
ENDROOT
BRANCH   1   2
ATOM      2  C   UNL     1      14.112  -0.971  12.194  1.00  0.00     0.000 C 
BRANCH   2   3
ATOM      3  C   UNL     1      13.713  -2.073  13.191  1.00  0.00     0.000 C 
BRANCH   3   4
ATOM      4  C   UNL     1      12.272  -1.911  13.703  1.00  0.00    -0.000 C 
BRANCH   4   5
ATOM      5  C   UNL     1      11.878  -2.992  14.723  1.00  0.00    -0.000 C 
BRANCH   5   6
ATOM      6  C   UNL     1      13.114  -3.765  15.205  1.00  0.00    -0.000 C 
BRANCH   6   7
ATOM      7  C   UNL     1      13.539  -3.386  16.636  1.00  0.00    -0.000 C 
BRANCH   7   8
ATOM      8  C   UNL     1      15.048  -3.506  16.919  1.00  0.00    -0.000 C 
BRANCH   8   9
ATOM      9  C   UNL     1      15.861  -3.913  15.680  1.00  0.00    -0.000 C 
BRANCH   9  10
ATOM     10  C   UNL     1      17.176  -4.592  16.086  1.00  0.00    -0.000 C 
BRANCH  10  11
ATOM     11  C   UNL     1      16.984  -6.066  16.476  1.00  0.00    -0.003 C 
ATOM     12  C   UNL     1      15.751  -6.694  15.827  1.00  0.00     0.004 C 
ENDBRANCH  10  11
ENDBRANCH   9  10
ENDBRANCH   8   9
ENDBRANCH   7   8
ENDBRANCH   6   7
ENDBRANCH   5   6
ENDBRANCH   4   5
ENDBRANCH   3   4
ENDBRANCH   2   3
ENDBRANCH   1   2
BRANCH   1  13
ATOM     13  C   UNL     1      16.419  -1.800  12.933  1.00  0.00     0.000 C 
BRANCH  13  14
ATOM     14  C   UNL     1      17.840  -1.306  13.241  1.00  0.00     0.000 C 
BRANCH  14  15
ATOM     15  C   UNL     1      18.758  -2.423  13.764  1.00  0.00     0.000 C 
BRANCH  15  16
ATOM     16  C   UNL     1      19.178  -3.409  12.661  1.00  0.00     0.000 C 
BRANCH  16  17
ATOM     17  C   UNL     1      18.658  -4.834  12.912  1.00  0.00     0.000 C 
BRANCH  17  18
ATOM     18  C   UNL     1      17.612  -5.275  11.877  1.00  0.00     0.000 C 
BRANCH  18  19
ATOM     19  C   UNL     1      16.547  -6.174  12.522  1.00  0.00     0.000 C 
BRANCH  19  20
ATOM     20  C   UNL     1      15.109  -5.703  12.244  1.00  0.00     0.006 C 
BRANCH  20  21
ATOM     21  C   UNL     1      14.975  -4.796  11.007  1.00  0.00     0.053 C 
BRANCH  21  22
ATOM     22  C   UNL     1      13.706  -5.038  10.247  1.00  0.00     0.041 C 
ATOM     23  O   UNL     1      13.677  -5.879   9.310  1.00  0.00    -0.550 OA
ATOM     24  O   UNL     1      12.546  -4.357  10.594  1.00  0.00    -0.550 OA
ENDBRANCH  21  22
ENDBRANCH  20  21
ENDBRANCH  19  20
ENDBRANCH  18  19
ENDBRANCH  17  18
ENDBRANCH  16  17
ENDBRANCH  15  16
ENDBRANCH  14  15
ENDBRANCH  13  14
ENDBRANCH   1  13
TORSDOF 20
ENDMDL
