MODEL 1
REMARK VINA RESULT:    -3.984      0.000      0.000
REMARK INTER + INTRA:         -12.738
REMARK INTER:                  -9.109
REMARK INTRA:                  -3.629
REMARK UNBOUND:                -3.629
REMARK SMILES CCCCCCCCCCCCCCCCCCCCCCCC(=O)[O-]
REMARK SMILES IDX 13 1 14 2 15 3 16 4 17 5 18 6 19 7 20 8 21 9 22 10 23 11
REMARK SMILES IDX 24 12 25 13 26 14 12 15 11 16 10 17 9 18 8 19 7 20 6 21 5 22
REMARK SMILES IDX 4 23 3 24 2 25 1 26
REMARK H PARENT
REMARK Flexibility Score: inf
ROOT
ATOM      1  C   UNL     1      10.976  31.604   7.179  1.00  0.00     0.000 C 
ENDROOT
BRANCH   1   2
ATOM      2  C   UNL     1      10.489  32.986   6.716  1.00  0.00     0.000 C 
BRANCH   2   3
ATOM      3  C   UNL     1      10.861  34.103   7.703  1.00  0.00     0.000 C 
BRANCH   3   4
ATOM      4  C   UNL     1       9.745  34.321   8.733  1.00  0.00     0.000 C 
BRANCH   4   5
ATOM      5  C   UNL     1       8.369  34.006   8.128  1.00  0.00     0.000 C 
BRANCH   5   6
ATOM      6  C   UNL     1       7.292  33.754   9.195  1.00  0.00     0.000 C 
BRANCH   6   7
ATOM      7  C   UNL     1       5.864  33.917   8.644  1.00  0.00     0.000 C 
BRANCH   7   8
ATOM      8  C   UNL     1       5.790  34.950   7.507  1.00  0.00     0.000 C 
BRANCH   8   9
ATOM      9  C   UNL     1       4.822  34.521   6.390  1.00  0.00     0.000 C 
BRANCH   9  10
ATOM     10  C   UNL     1       5.050  35.292   5.080  1.00  0.00     0.006 C 
BRANCH  10  11
ATOM     11  C   UNL     1       4.894  34.408   3.835  1.00  0.00     0.053 C 
BRANCH  11  12
ATOM     12  C   UNL     1       3.491  34.476   3.320  1.00  0.00     0.041 C 
ATOM     13  O   UNL     1       2.714  35.385   3.714  1.00  0.00    -0.550 OA
ATOM     14  O   UNL     1       3.056  33.565   2.366  1.00  0.00    -0.550 OA
ENDBRANCH  11  12
ENDBRANCH  10  11
ENDBRANCH   9  10
ENDBRANCH   8   9
ENDBRANCH   7   8
ENDBRANCH   6   7
ENDBRANCH   5   6
ENDBRANCH   4   5
ENDBRANCH   3   4
ENDBRANCH   2   3
ENDBRANCH   1   2
BRANCH   1  15
ATOM     15  C   UNL     1      10.477  30.468   6.270  1.00  0.00     0.000 C 
BRANCH  15  16
ATOM     16  C   UNL     1       9.527  29.502   6.998  1.00  0.00     0.000 C 
BRANCH  16  17
ATOM     17  C   UNL     1       8.841  30.154   8.210  1.00  0.00     0.000 C 
BRANCH  17  18
ATOM     18  C   UNL     1       7.334  30.385   7.991  1.00  0.00    -0.000 C 
BRANCH  18  19
ATOM     19  C   UNL     1       6.871  30.326   6.522  1.00  0.00    -0.000 C 
BRANCH  19  20
ATOM     20  C   UNL     1       6.919  31.667   5.762  1.00  0.00    -0.000 C 
BRANCH  20  21
ATOM     21  C   UNL     1       7.288  31.555   4.272  1.00  0.00    -0.000 C 
BRANCH  21  22
ATOM     22  C   UNL     1       7.376  30.101   3.787  1.00  0.00    -0.000 C 
BRANCH  22  23
ATOM     23  C   UNL     1       8.765  29.796   3.215  1.00  0.00    -0.000 C 
BRANCH  23  24
ATOM     24  C   UNL     1       8.910  28.302   2.887  1.00  0.00    -0.000 C 
BRANCH  24  25
ATOM     25  C   UNL     1       8.922  28.028   1.376  1.00  0.00    -0.003 C 
ATOM     26  C   UNL     1      10.188  27.306   0.916  1.00  0.00     0.004 C 
ENDBRANCH  24  25
ENDBRANCH  23  24
ENDBRANCH  22  23
ENDBRANCH  21  22
ENDBRANCH  20  21
ENDBRANCH  19  20
ENDBRANCH  18  19
ENDBRANCH  17  18
ENDBRANCH  16  17
ENDBRANCH  15  16
ENDBRANCH   1  15
TORSDOF 22
ENDMDL
MODEL 2
REMARK VINA RESULT:    -3.968      2.578      5.813
REMARK INTER + INTRA:         -12.700
REMARK INTER:                  -8.820
REMARK INTRA:                  -3.880
REMARK UNBOUND:                -3.629
REMARK SMILES CCCCCCCCCCCCCCCCCCCCCCCC(=O)[O-]
REMARK SMILES IDX 13 1 14 2 15 3 16 4 17 5 18 6 19 7 20 8 21 9 22 10 23 11
REMARK SMILES IDX 24 12 25 13 26 14 12 15 11 16 10 17 9 18 8 19 7 20 6 21 5 22
REMARK SMILES IDX 4 23 3 24 2 25 1 26
REMARK H PARENT
REMARK Flexibility Score: inf
ROOT
ATOM      1  C   UNL     1      10.516  33.198   6.958  1.00  0.00     0.000 C 
ENDROOT
BRANCH   1   2
ATOM      2  C   UNL     1      11.062  31.806   7.316  1.00  0.00     0.000 C 
BRANCH   2   3
ATOM      3  C   UNL     1      10.349  30.680   6.552  1.00  0.00     0.000 C 
BRANCH   3   4
ATOM      4  C   UNL     1       9.697  29.685   7.520  1.00  0.00     0.000 C 
BRANCH   4   5
ATOM      5  C   UNL     1       8.213  29.478   7.180  1.00  0.00     0.000 C 
BRANCH   5   6
ATOM      6  C   UNL     1       7.478  30.797   6.897  1.00  0.00     0.000 C 
BRANCH   6   7
ATOM      7  C   UNL     1       6.659  30.751   5.594  1.00  0.00     0.000 C 
BRANCH   7   8
ATOM      8  C   UNL     1       7.261  31.641   4.494  1.00  0.00     0.000 C 
BRANCH   8   9
ATOM      9  C   UNL     1       7.632  30.842   3.233  1.00  0.00     0.000 C 
BRANCH   9  10
ATOM     10  C   UNL     1       8.873  29.958   3.435  1.00  0.00     0.006 C 
BRANCH  10  11
ATOM     11  C   UNL     1       8.569  28.461   3.280  1.00  0.00     0.053 C 
BRANCH  11  12
ATOM     12  C   UNL     1       8.709  28.046   1.849  1.00  0.00     0.041 C 
ATOM     13  O   UNL     1       9.798  28.224   1.241  1.00  0.00    -0.550 OA
ATOM     14  O   UNL     1       7.654  27.418   1.201  1.00  0.00    -0.550 OA
ENDBRANCH  11  12
ENDBRANCH  10  11
ENDBRANCH   9  10
ENDBRANCH   8   9
ENDBRANCH   7   8
ENDBRANCH   6   7
ENDBRANCH   5   6
ENDBRANCH   4   5
ENDBRANCH   3   4
ENDBRANCH   2   3
ENDBRANCH   1   2
BRANCH   1  15
ATOM     15  C   UNL     1      10.048  33.984   8.196  1.00  0.00     0.000 C 
BRANCH  15  16
ATOM     16  C   UNL     1       8.516  34.075   8.294  1.00  0.00     0.000 C 
BRANCH  16  17
ATOM     17  C   UNL     1       7.950  33.237   9.451  1.00  0.00     0.000 C 
BRANCH  17  18
ATOM     18  C   UNL     1       6.432  33.423   9.637  1.00  0.00    -0.000 C 
BRANCH  18  19
ATOM     19  C   UNL     1       5.866  34.751   9.097  1.00  0.00    -0.000 C 
BRANCH  19  20
ATOM     20  C   UNL     1       4.524  34.636   8.346  1.00  0.00    -0.000 C 
BRANCH  20  21
ATOM     21  C   UNL     1       4.616  33.999   6.948  1.00  0.00    -0.000 C 
BRANCH  21  22
ATOM     22  C   UNL     1       5.699  34.643   6.069  1.00  0.00    -0.000 C 
BRANCH  22  23
ATOM     23  C   UNL     1       5.082  35.288   4.823  1.00  0.00    -0.000 C 
BRANCH  23  24
ATOM     24  C   UNL     1       3.993  34.388   4.218  1.00  0.00    -0.000 C 
BRANCH  24  25
ATOM     25  C   UNL     1       4.484  33.615   2.986  1.00  0.00    -0.003 C 
ATOM     26  C   UNL     1       5.715  34.250   2.340  1.00  0.00     0.004 C 
ENDBRANCH  24  25
ENDBRANCH  23  24
ENDBRANCH  22  23
ENDBRANCH  21  22
ENDBRANCH  20  21
ENDBRANCH  19  20
ENDBRANCH  18  19
ENDBRANCH  17  18
ENDBRANCH  16  17
ENDBRANCH  15  16
ENDBRANCH   1  15
TORSDOF 22
ENDMDL
MODEL 3
REMARK VINA RESULT:    -3.942      2.659      5.325
REMARK INTER + INTRA:         -12.639
REMARK INTER:                  -8.917
REMARK INTRA:                  -3.722
REMARK UNBOUND:                -3.629
REMARK SMILES CCCCCCCCCCCCCCCCCCCCCCCC(=O)[O-]
REMARK SMILES IDX 13 1 14 2 15 3 16 4 17 5 18 6 19 7 20 8 21 9 22 10 23 11
REMARK SMILES IDX 24 12 25 13 26 14 12 15 11 16 10 17 9 18 8 19 7 20 6 21 5 22
REMARK SMILES IDX 4 23 3 24 2 25 1 26
REMARK H PARENT
REMARK Flexibility Score: inf
ROOT
ATOM      1  C   UNL     1       7.083  31.767   7.987  1.00  0.00     0.000 C 
ENDROOT
BRANCH   1   2
ATOM      2  C   UNL     1       7.845  32.733   8.908  1.00  0.00     0.000 C 
BRANCH   2   3
ATOM      3  C   UNL     1       8.375  33.965   8.159  1.00  0.00     0.000 C 
BRANCH   3   4
ATOM      4  C   UNL     1       9.820  34.279   8.569  1.00  0.00     0.000 C 
BRANCH   4   5
ATOM      5  C   UNL     1      10.811  33.806   7.496  1.00  0.00     0.000 C 
BRANCH   5   6
ATOM      6  C   UNL     1      11.459  32.455   7.836  1.00  0.00     0.000 C 
BRANCH   6   7
ATOM      7  C   UNL     1      10.813  31.281   7.078  1.00  0.00     0.000 C 
BRANCH   7   8
ATOM      8  C   UNL     1      10.250  31.706   5.711  1.00  0.00     0.000 C 
BRANCH   8   9
ATOM      9  C   UNL     1       9.340  30.630   5.094  1.00  0.00     0.000 C 
BRANCH   9  10
ATOM     10  C   UNL     1       8.976  30.930   3.631  1.00  0.00     0.006 C 
BRANCH  10  11
ATOM     11  C   UNL     1       7.639  30.305   3.211  1.00  0.00     0.053 C 
BRANCH  11  12
ATOM     12  C   UNL     1       7.866  28.984   2.546  1.00  0.00     0.041 C 
ATOM     13  O   UNL     1       7.280  28.710   1.465  1.00  0.00    -0.550 OA
ATOM     14  O   UNL     1       8.761  28.075   3.094  1.00  0.00    -0.550 OA
ENDBRANCH  11  12
ENDBRANCH  10  11
ENDBRANCH   9  10
ENDBRANCH   8   9
ENDBRANCH   7   8
ENDBRANCH   6   7
ENDBRANCH   5   6
ENDBRANCH   4   5
ENDBRANCH   3   4
ENDBRANCH   2   3
ENDBRANCH   1   2
BRANCH   1  15
ATOM     15  C   UNL     1       6.699  32.412   6.644  1.00  0.00     0.000 C 
BRANCH  15  16
ATOM     16  C   UNL     1       5.223  32.186   6.279  1.00  0.00     0.000 C 
BRANCH  16  17
ATOM     17  C   UNL     1       4.337  33.388   6.643  1.00  0.00     0.000 C 
BRANCH  17  18
ATOM     18  C   UNL     1       5.071  34.735   6.503  1.00  0.00    -0.000 C 
BRANCH  18  19
ATOM     19  C   UNL     1       5.208  35.257   5.059  1.00  0.00    -0.000 C 
BRANCH  19  20
ATOM     20  C   UNL     1       3.974  35.038   4.161  1.00  0.00    -0.000 C 
BRANCH  20  21
ATOM     21  C   UNL     1       4.193  34.073   2.982  1.00  0.00    -0.000 C 
BRANCH  21  22
ATOM     22  C   UNL     1       5.647  33.593   2.866  1.00  0.00    -0.000 C 
BRANCH  22  23
ATOM     23  C   UNL     1       6.097  33.552   1.401  1.00  0.00    -0.000 C 
BRANCH  23  24
ATOM     24  C   UNL     1       5.054  32.842   0.525  1.00  0.00    -0.000 C 
BRANCH  24  25
ATOM     25  C   UNL     1       5.265  31.322   0.472  1.00  0.00    -0.003 C 
ATOM     26  C   UNL     1       4.220  30.551   1.279  1.00  0.00     0.004 C 
ENDBRANCH  24  25
ENDBRANCH  23  24
ENDBRANCH  22  23
ENDBRANCH  21  22
ENDBRANCH  20  21
ENDBRANCH  19  20
ENDBRANCH  18  19
ENDBRANCH  17  18
ENDBRANCH  16  17
ENDBRANCH  15  16
ENDBRANCH   1  15
TORSDOF 22
ENDMDL
MODEL 4
REMARK VINA RESULT:    -3.914      2.857      6.529
REMARK INTER + INTRA:         -12.577
REMARK INTER:                  -8.420
REMARK INTRA:                  -4.157
REMARK UNBOUND:                -3.629
REMARK SMILES CCCCCCCCCCCCCCCCCCCCCCCC(=O)[O-]
REMARK SMILES IDX 13 1 14 2 15 3 16 4 17 5 18 6 19 7 20 8 21 9 22 10 23 11
REMARK SMILES IDX 24 12 25 13 26 14 12 15 11 16 10 17 9 18 8 19 7 20 6 21 5 22
REMARK SMILES IDX 4 23 3 24 2 25 1 26
REMARK H PARENT
REMARK Flexibility Score: inf
ROOT
ATOM      1  C   UNL     1       6.693  32.177   6.954  1.00  0.00     0.000 C 
ENDROOT
BRANCH   1   2
ATOM      2  C   UNL     1       6.678  33.708   6.813  1.00  0.00     0.000 C 
BRANCH   2   3
ATOM      3  C   UNL     1       5.276  34.258   6.510  1.00  0.00     0.000 C 
BRANCH   3   4
ATOM      4  C   UNL     1       5.286  35.122   5.243  1.00  0.00     0.000 C 
BRANCH   4   5
ATOM      5  C   UNL     1       4.446  34.476   4.131  1.00  0.00     0.000 C 
BRANCH   5   6
ATOM      6  C   UNL     1       5.304  33.794   3.055  1.00  0.00     0.000 C 
BRANCH   6   7
ATOM      7  C   UNL     1       5.470  32.283   3.299  1.00  0.00     0.000 C 
BRANCH   7   8
ATOM      8  C   UNL     1       6.862  31.774   2.889  1.00  0.00     0.000 C 
BRANCH   8   9
ATOM      9  C   UNL     1       6.920  30.239   2.800  1.00  0.00     0.000 C 
BRANCH   9  10
ATOM     10  C   UNL     1       8.314  29.679   3.123  1.00  0.00     0.006 C 
BRANCH  10  11
ATOM     11  C   UNL     1       8.314  28.156   3.310  1.00  0.00     0.053 C 
BRANCH  11  12
ATOM     12  C   UNL     1       9.001  27.489   2.160  1.00  0.00     0.041 C 
ATOM     13  O   UNL     1       8.917  26.242   2.009  1.00  0.00    -0.550 OA
ATOM     14  O   UNL     1       9.694  28.251   1.228  1.00  0.00    -0.550 OA
ENDBRANCH  11  12
ENDBRANCH  10  11
ENDBRANCH   9  10
ENDBRANCH   8   9
ENDBRANCH   7   8
ENDBRANCH   6   7
ENDBRANCH   5   6
ENDBRANCH   4   5
ENDBRANCH   3   4
ENDBRANCH   2   3
ENDBRANCH   1   2
BRANCH   1  15
ATOM     15  C   UNL     1       7.876  31.529   6.213  1.00  0.00     0.000 C 
BRANCH  15  16
ATOM     16  C   UNL     1       8.248  30.151   6.785  1.00  0.00     0.000 C 
BRANCH  16  17
ATOM     17  C   UNL     1       9.766  29.969   6.941  1.00  0.00     0.000 C 
BRANCH  17  18
ATOM     18  C   UNL     1      10.573  31.120   6.310  1.00  0.00    -0.000 C 
BRANCH  18  19
ATOM     19  C   UNL     1      11.185  32.116   7.314  1.00  0.00    -0.000 C 
BRANCH  19  20
ATOM     20  C   UNL     1      10.724  33.579   7.151  1.00  0.00    -0.000 C 
BRANCH  20  21
ATOM     21  C   UNL     1      10.138  34.220   8.422  1.00  0.00    -0.000 C 
BRANCH  21  22
ATOM     22  C   UNL     1      10.074  33.244   9.606  1.00  0.00    -0.000 C 
BRANCH  22  23
ATOM     23  C   UNL     1       8.622  32.887   9.945  1.00  0.00    -0.000 C 
BRANCH  23  24
ATOM     24  C   UNL     1       8.469  31.378  10.188  1.00  0.00    -0.000 C 
BRANCH  24  25
ATOM     25  C   UNL     1       9.800  30.698  10.540  1.00  0.00    -0.003 C 
ATOM     26  C   UNL     1       9.680  29.178  10.639  1.00  0.00     0.004 C 
ENDBRANCH  24  25
ENDBRANCH  23  24
ENDBRANCH  22  23
ENDBRANCH  21  22
ENDBRANCH  20  21
ENDBRANCH  19  20
ENDBRANCH  18  19
ENDBRANCH  17  18
ENDBRANCH  16  17
ENDBRANCH  15  16
ENDBRANCH   1  15
TORSDOF 22
ENDMDL
MODEL 5
REMARK VINA RESULT:    -3.890      1.670      5.340
REMARK INTER + INTRA:         -12.521
REMARK INTER:                  -7.963
REMARK INTRA:                  -4.558
REMARK UNBOUND:                -3.629
REMARK SMILES CCCCCCCCCCCCCCCCCCCCCCCC(=O)[O-]
REMARK SMILES IDX 13 1 14 2 15 3 16 4 17 5 18 6 19 7 20 8 21 9 22 10 23 11
REMARK SMILES IDX 24 12 25 13 26 14 12 15 11 16 10 17 9 18 8 19 7 20 6 21 5 22
REMARK SMILES IDX 4 23 3 24 2 25 1 26
REMARK H PARENT
REMARK Flexibility Score: inf
ROOT
ATOM      1  C   UNL     1      10.454  30.785   6.243  1.00  0.00     0.000 C 
ENDROOT
BRANCH   1   2
ATOM      2  C   UNL     1       9.743  31.356   5.006  1.00  0.00     0.000 C 
BRANCH   2   3
ATOM      3  C   UNL     1       9.186  30.258   4.088  1.00  0.00     0.000 C 
BRANCH   3   4
ATOM      4  C   UNL     1       8.514  29.146   4.904  1.00  0.00     0.000 C 
BRANCH   4   5
ATOM      5  C   UNL     1       7.003  29.100   4.629  1.00  0.00     0.000 C 
BRANCH   5   6
ATOM      6  C   UNL     1       6.671  29.066   3.130  1.00  0.00     0.000 C 
BRANCH   6   7
ATOM      7  C   UNL     1       5.600  30.099   2.737  1.00  0.00     0.000 C 
BRANCH   7   8
ATOM      8  C   UNL     1       5.497  31.250   3.752  1.00  0.00     0.000 C 
BRANCH   8   9
ATOM      9  C   UNL     1       6.310  32.483   3.320  1.00  0.00     0.000 C 
BRANCH   9  10
ATOM     10  C   UNL     1       5.437  33.572   2.677  1.00  0.00     0.006 C 
BRANCH  10  11
ATOM     11  C   UNL     1       5.260  34.802   3.577  1.00  0.00     0.053 C 
BRANCH  11  12
ATOM     12  C   UNL     1       3.914  34.780   4.232  1.00  0.00     0.041 C 
ATOM     13  O   UNL     1       3.730  34.102   5.277  1.00  0.00    -0.550 OA
ATOM     14  O   UNL     1       2.878  35.547   3.717  1.00  0.00    -0.550 OA
ENDBRANCH  11  12
ENDBRANCH  10  11
ENDBRANCH   9  10
ENDBRANCH   8   9
ENDBRANCH   7   8
ENDBRANCH   6   7
ENDBRANCH   5   6
ENDBRANCH   4   5
ENDBRANCH   3   4
ENDBRANCH   2   3
ENDBRANCH   1   2
BRANCH   1  15
ATOM     15  C   UNL     1      11.197  31.866   7.048  1.00  0.00     0.000 C 
BRANCH  15  16
ATOM     16  C   UNL     1      10.534  33.249   6.932  1.00  0.00     0.000 C 
BRANCH  16  17
ATOM     17  C   UNL     1      10.453  33.977   8.284  1.00  0.00     0.000 C 
BRANCH  17  18
ATOM     18  C   UNL     1      10.756  33.053   9.479  1.00  0.00    -0.000 C 
BRANCH  18  19
ATOM     19  C   UNL     1       9.517  32.529  10.231  1.00  0.00    -0.000 C 
BRANCH  19  20
ATOM     20  C   UNL     1       9.268  31.012  10.109  1.00  0.00    -0.000 C 
BRANCH  20  21
ATOM     21  C   UNL     1       8.232  30.608   9.045  1.00  0.00    -0.000 C 
BRANCH  21  22
ATOM     22  C   UNL     1       7.233  31.731   8.729  1.00  0.00    -0.000 C 
BRANCH  22  23
ATOM     23  C   UNL     1       7.006  31.855   7.218  1.00  0.00    -0.000 C 
BRANCH  23  24
ATOM     24  C   UNL     1       6.854  33.326   6.803  1.00  0.00    -0.000 C 
BRANCH  24  25
ATOM     25  C   UNL     1       6.858  34.282   8.005  1.00  0.00    -0.003 C 
ATOM     26  C   UNL     1       5.521  34.998   8.196  1.00  0.00     0.004 C 
ENDBRANCH  24  25
ENDBRANCH  23  24
ENDBRANCH  22  23
ENDBRANCH  21  22
ENDBRANCH  20  21
ENDBRANCH  19  20
ENDBRANCH  18  19
ENDBRANCH  17  18
ENDBRANCH  16  17
ENDBRANCH  15  16
ENDBRANCH   1  15
TORSDOF 22
ENDMDL
MODEL 6
REMARK VINA RESULT:    -3.881     10.739     13.208
REMARK INTER + INTRA:         -12.502
REMARK INTER:                  -7.524
REMARK INTRA:                  -4.978
REMARK UNBOUND:                -3.629
REMARK SMILES CCCCCCCCCCCCCCCCCCCCCCCC(=O)[O-]
REMARK SMILES IDX 13 1 14 2 15 3 16 4 17 5 18 6 19 7 20 8 21 9 22 10 23 11
REMARK SMILES IDX 24 12 25 13 26 14 12 15 11 16 10 17 9 18 8 19 7 20 6 21 5 22
REMARK SMILES IDX 4 23 3 24 2 25 1 26
REMARK H PARENT
REMARK Flexibility Score: inf
ROOT
ATOM      1  C   UNL     1       5.118  35.838  -5.247  1.00  0.00     0.000 C 
ENDROOT
BRANCH   1   2
ATOM      2  C   UNL     1       4.810  37.031  -4.328  1.00  0.00     0.000 C 
BRANCH   2   3
ATOM      3  C   UNL     1       5.174  38.378  -4.970  1.00  0.00     0.000 C 
BRANCH   3   4
ATOM      4  C   UNL     1       6.017  38.175  -6.235  1.00  0.00     0.000 C 
BRANCH   4   5
ATOM      5  C   UNL     1       5.738  39.280  -7.266  1.00  0.00     0.000 C 
BRANCH   5   6
ATOM      6  C   UNL     1       4.434  39.053  -8.044  1.00  0.00     0.000 C 
BRANCH   6   7
ATOM      7  C   UNL     1       4.191  37.570  -8.375  1.00  0.00     0.000 C 
BRANCH   7   8
ATOM      8  C   UNL     1       2.817  37.079  -7.888  1.00  0.00     0.000 C 
BRANCH   8   9
ATOM      9  C   UNL     1       1.981  38.210  -7.264  1.00  0.00     0.000 C 
BRANCH   9  10
ATOM     10  C   UNL     1       1.509  37.881  -5.839  1.00  0.00     0.006 C 
BRANCH  10  11
ATOM     11  C   UNL     1       1.433  36.371  -5.571  1.00  0.00     0.053 C 
BRANCH  11  12
ATOM     12  C   UNL     1       0.875  36.111  -4.207  1.00  0.00     0.041 C 
ATOM     13  O   UNL     1      -0.027  35.247  -4.046  1.00  0.00    -0.550 OA
ATOM     14  O   UNL     1       1.386  36.786  -3.107  1.00  0.00    -0.550 OA
ENDBRANCH  11  12
ENDBRANCH  10  11
ENDBRANCH   9  10
ENDBRANCH   8   9
ENDBRANCH   7   8
ENDBRANCH   6   7
ENDBRANCH   5   6
ENDBRANCH   4   5
ENDBRANCH   3   4
ENDBRANCH   2   3
ENDBRANCH   1   2
BRANCH   1  15
ATOM     15  C   UNL     1       5.906  34.729  -4.529  1.00  0.00     0.000 C 
BRANCH  15  16
ATOM     16  C   UNL     1       7.011  34.122  -5.410  1.00  0.00     0.000 C 
BRANCH  16  17
ATOM     17  C   UNL     1       7.034  34.727  -6.823  1.00  0.00     0.000 C 
BRANCH  17  18
ATOM     18  C   UNL     1       6.760  33.685  -7.923  1.00  0.00    -0.000 C 
BRANCH  18  19
ATOM     19  C   UNL     1       5.375  33.789  -8.591  1.00  0.00    -0.000 C 
BRANCH  19  20
ATOM     20  C   UNL     1       4.308  32.816  -8.047  1.00  0.00    -0.000 C 
BRANCH  20  21
ATOM     21  C   UNL     1       3.143  33.485  -7.296  1.00  0.00    -0.000 C 
BRANCH  21  22
ATOM     22  C   UNL     1       2.454  32.540  -6.300  1.00  0.00    -0.000 C 
BRANCH  22  23
ATOM     23  C   UNL     1       3.009  32.734  -4.885  1.00  0.00    -0.000 C 
BRANCH  23  24
ATOM     24  C   UNL     1       3.322  31.382  -4.225  1.00  0.00    -0.000 C 
BRANCH  24  25
ATOM     25  C   UNL     1       4.822  31.187  -3.961  1.00  0.00    -0.003 C 
ATOM     26  C   UNL     1       5.601  30.808  -5.219  1.00  0.00     0.004 C 
ENDBRANCH  24  25
ENDBRANCH  23  24
ENDBRANCH  22  23
ENDBRANCH  21  22
ENDBRANCH  20  21
ENDBRANCH  19  20
ENDBRANCH  18  19
ENDBRANCH  17  18
ENDBRANCH  16  17
ENDBRANCH  15  16
ENDBRANCH   1  15
TORSDOF 22
ENDMDL
MODEL 7
REMARK VINA RESULT:    -3.872      2.827      5.990
REMARK INTER + INTRA:         -12.480
REMARK INTER:                  -8.313
REMARK INTRA:                  -4.168
REMARK UNBOUND:                -3.629
REMARK SMILES CCCCCCCCCCCCCCCCCCCCCCCC(=O)[O-]
REMARK SMILES IDX 13 1 14 2 15 3 16 4 17 5 18 6 19 7 20 8 21 9 22 10 23 11
REMARK SMILES IDX 24 12 25 13 26 14 12 15 11 16 10 17 9 18 8 19 7 20 6 21 5 22
REMARK SMILES IDX 4 23 3 24 2 25 1 26
REMARK H PARENT
REMARK Flexibility Score: inf
ROOT
ATOM      1  C   UNL     1       9.910  32.022  10.482  1.00  0.00     0.000 C 
ENDROOT
BRANCH   1   2
ATOM      2  C   UNL     1       9.573  30.564  10.129  1.00  0.00     0.000 C 
BRANCH   2   3
ATOM      3  C   UNL     1       8.216  30.429   9.422  1.00  0.00     0.000 C 
BRANCH   3   4
ATOM      4  C   UNL     1       8.382  30.478   7.897  1.00  0.00     0.000 C 
BRANCH   4   5
ATOM      5  C   UNL     1       9.635  29.706   7.456  1.00  0.00     0.000 C 
BRANCH   5   6
ATOM      6  C   UNL     1      10.404  30.412   6.330  1.00  0.00     0.000 C 
BRANCH   6   7
ATOM      7  C   UNL     1       9.515  31.367   5.512  1.00  0.00     0.000 C 
BRANCH   7   8
ATOM      8  C   UNL     1       9.523  31.032   4.011  1.00  0.00     0.000 C 
BRANCH   8   9
ATOM      9  C   UNL     1       8.103  30.903   3.433  1.00  0.00     0.000 C 
BRANCH   9  10
ATOM     10  C   UNL     1       7.450  29.552   3.764  1.00  0.00     0.006 C 
BRANCH  10  11
ATOM     11  C   UNL     1       8.463  28.401   3.832  1.00  0.00     0.053 C 
BRANCH  11  12
ATOM     12  C   UNL     1       8.598  27.745   2.494  1.00  0.00     0.041 C 
ATOM     13  O   UNL     1       7.851  26.781   2.183  1.00  0.00    -0.550 OA
ATOM     14  O   UNL     1       9.517  28.229   1.572  1.00  0.00    -0.550 OA
ENDBRANCH  11  12
ENDBRANCH  10  11
ENDBRANCH   9  10
ENDBRANCH   8   9
ENDBRANCH   7   8
ENDBRANCH   6   7
ENDBRANCH   5   6
ENDBRANCH   4   5
ENDBRANCH   3   4
ENDBRANCH   2   3
ENDBRANCH   1   2
BRANCH   1  15
ATOM     15  C   UNL     1      11.267  32.468   9.909  1.00  0.00     0.000 C 
BRANCH  15  16
ATOM     16  C   UNL     1      11.138  33.123   8.524  1.00  0.00     0.000 C 
BRANCH  16  17
ATOM     17  C   UNL     1      10.179  34.324   8.529  1.00  0.00     0.000 C 
BRANCH  17  18
ATOM     18  C   UNL     1       8.827  34.011   7.861  1.00  0.00    -0.000 C 
BRANCH  18  19
ATOM     19  C   UNL     1       7.585  34.356   8.706  1.00  0.00    -0.000 C 
BRANCH  19  20
ATOM     20  C   UNL     1       6.238  34.277   7.958  1.00  0.00    -0.000 C 
BRANCH  20  21
ATOM     21  C   UNL     1       5.578  32.887   7.956  1.00  0.00    -0.000 C 
BRANCH  21  22
ATOM     22  C   UNL     1       5.402  32.312   6.543  1.00  0.00    -0.000 C 
BRANCH  22  23
ATOM     23  C   UNL     1       6.154  33.158   5.509  1.00  0.00    -0.000 C 
BRANCH  23  24
ATOM     24  C   UNL     1       5.439  33.128   4.149  1.00  0.00    -0.000 C 
BRANCH  24  25
ATOM     25  C   UNL     1       5.079  34.531   3.639  1.00  0.00    -0.003 C 
ATOM     26  C   UNL     1       4.719  35.496   4.768  1.00  0.00     0.004 C 
ENDBRANCH  24  25
ENDBRANCH  23  24
ENDBRANCH  22  23
ENDBRANCH  21  22
ENDBRANCH  20  21
ENDBRANCH  19  20
ENDBRANCH  18  19
ENDBRANCH  17  18
ENDBRANCH  16  17
ENDBRANCH  15  16
ENDBRANCH   1  15
TORSDOF 22
ENDMDL
MODEL 8
REMARK VINA RESULT:    -3.870      2.056      4.033
REMARK INTER + INTRA:         -12.476
REMARK INTER:                  -8.270
REMARK INTRA:                  -4.206
REMARK UNBOUND:                -3.629
REMARK SMILES CCCCCCCCCCCCCCCCCCCCCCCC(=O)[O-]
REMARK SMILES IDX 13 1 14 2 15 3 16 4 17 5 18 6 19 7 20 8 21 9 22 10 23 11
REMARK SMILES IDX 24 12 25 13 26 14 12 15 11 16 10 17 9 18 8 19 7 20 6 21 5 22
REMARK SMILES IDX 4 23 3 24 2 25 1 26
REMARK H PARENT
REMARK Flexibility Score: inf
ROOT
ATOM      1  C   UNL     1       8.176  33.616   8.097  1.00  0.00     0.000 C 
ENDROOT
BRANCH   1   2
ATOM      2  C   UNL     1       7.217  34.704   8.604  1.00  0.00     0.000 C 
BRANCH   2   3
ATOM      3  C   UNL     1       5.894  34.734   7.822  1.00  0.00     0.000 C 
BRANCH   3   4
ATOM      4  C   UNL     1       4.692  34.708   8.775  1.00  0.00     0.000 C 
BRANCH   4   5
ATOM      5  C   UNL     1       3.408  34.317   8.028  1.00  0.00     0.000 C 
BRANCH   5   6
ATOM      6  C   UNL     1       3.685  33.667   6.664  1.00  0.00     0.000 C 
BRANCH   6   7
ATOM      7  C   UNL     1       2.584  33.965   5.631  1.00  0.00     0.000 C 
BRANCH   7   8
ATOM      8  C   UNL     1       3.134  34.660   4.374  1.00  0.00     0.000 C 
BRANCH   8   9
ATOM      9  C   UNL     1       4.503  35.317   4.621  1.00  0.00     0.000 C 
BRANCH   9  10
ATOM     10  C   UNL     1       5.587  34.811   3.657  1.00  0.00     0.006 C 
BRANCH  10  11
ATOM     11  C   UNL     1       5.049  33.796   2.638  1.00  0.00     0.053 C 
BRANCH  11  12
ATOM     12  C   UNL     1       5.990  33.669   1.481  1.00  0.00     0.041 C 
ATOM     13  O   UNL     1       5.973  32.637   0.761  1.00  0.00    -0.550 OA
ATOM     14  O   UNL     1       6.852  34.712   1.169  1.00  0.00    -0.550 OA
ENDBRANCH  11  12
ENDBRANCH  10  11
ENDBRANCH   9  10
ENDBRANCH   8   9
ENDBRANCH   7   8
ENDBRANCH   6   7
ENDBRANCH   5   6
ENDBRANCH   4   5
ENDBRANCH   3   4
ENDBRANCH   2   3
ENDBRANCH   1   2
BRANCH   1  15
ATOM     15  C   UNL     1       8.630  32.662   9.217  1.00  0.00     0.000 C 
BRANCH  15  16
ATOM     16  C   UNL     1       9.505  31.511   8.695  1.00  0.00     0.000 C 
BRANCH  16  17
ATOM     17  C   UNL     1      10.457  31.957   7.574  1.00  0.00     0.000 C 
BRANCH  17  18
ATOM     18  C   UNL     1      10.502  30.964   6.397  1.00  0.00    -0.000 C 
BRANCH  18  19
ATOM     19  C   UNL     1       9.973  31.512   5.058  1.00  0.00    -0.000 C 
BRANCH  19  20
ATOM     20  C   UNL     1       9.126  30.524   4.231  1.00  0.00    -0.000 C 
BRANCH  20  21
ATOM     21  C   UNL     1       7.675  30.968   3.977  1.00  0.00    -0.000 C 
BRANCH  21  22
ATOM     22  C   UNL     1       7.109  31.836   5.110  1.00  0.00    -0.000 C 
BRANCH  22  23
ATOM     23  C   UNL     1       5.925  31.143   5.794  1.00  0.00    -0.000 C 
BRANCH  23  24
ATOM     24  C   UNL     1       6.360  30.483   7.112  1.00  0.00    -0.000 C 
BRANCH  24  25
ATOM     25  C   UNL     1       6.494  28.958   6.992  1.00  0.00    -0.003 C 
ATOM     26  C   UNL     1       7.942  28.482   7.097  1.00  0.00     0.004 C 
ENDBRANCH  24  25
ENDBRANCH  23  24
ENDBRANCH  22  23
ENDBRANCH  21  22
ENDBRANCH  20  21
ENDBRANCH  19  20
ENDBRANCH  18  19
ENDBRANCH  17  18
ENDBRANCH  16  17
ENDBRANCH  15  16
ENDBRANCH   1  15
TORSDOF 22
ENDMDL
MODEL 9
REMARK VINA RESULT:    -3.867      1.606      4.675
REMARK INTER + INTRA:         -12.470
REMARK INTER:                  -7.584
REMARK INTRA:                  -4.886
REMARK UNBOUND:                -3.629
REMARK SMILES CCCCCCCCCCCCCCCCCCCCCCCC(=O)[O-]
REMARK SMILES IDX 13 1 14 2 15 3 16 4 17 5 18 6 19 7 20 8 21 9 22 10 23 11
REMARK SMILES IDX 24 12 25 13 26 14 12 15 11 16 10 17 9 18 8 19 7 20 6 21 5 22
REMARK SMILES IDX 4 23 3 24 2 25 1 26
REMARK H PARENT
REMARK Flexibility Score: inf
ROOT
ATOM      1  C   UNL     1      10.255  30.840   6.587  1.00  0.00     0.000 C 
ENDROOT
BRANCH   1   2
ATOM      2  C   UNL     1      10.121  31.607   5.261  1.00  0.00     0.000 C 
BRANCH   2   3
ATOM      3  C   UNL     1       9.116  30.953   4.301  1.00  0.00     0.000 C 
BRANCH   3   4
ATOM      4  C   UNL     1       8.871  29.486   4.678  1.00  0.00     0.000 C 
BRANCH   4   5
ATOM      5  C   UNL     1       7.715  28.894   3.858  1.00  0.00     0.000 C 
BRANCH   5   6
ATOM      6  C   UNL     1       7.227  29.837   2.748  1.00  0.00     0.000 C 
BRANCH   6   7
ATOM      7  C   UNL     1       5.692  29.926   2.679  1.00  0.00     0.000 C 
BRANCH   7   8
ATOM      8  C   UNL     1       5.201  31.358   2.408  1.00  0.00     0.000 C 
BRANCH   8   9
ATOM      9  C   UNL     1       6.363  32.356   2.257  1.00  0.00     0.000 C 
BRANCH   9  10
ATOM     10  C   UNL     1       5.889  33.817   2.226  1.00  0.00     0.006 C 
BRANCH  10  11
ATOM     11  C   UNL     1       4.414  33.973   2.620  1.00  0.00     0.053 C 
BRANCH  11  12
ATOM     12  C   UNL     1       4.295  34.721   3.911  1.00  0.00     0.041 C 
ATOM     13  O   UNL     1       5.279  35.362   4.365  1.00  0.00    -0.550 OA
ATOM     14  O   UNL     1       3.083  34.750   4.588  1.00  0.00    -0.550 OA
ENDBRANCH  11  12
ENDBRANCH  10  11
ENDBRANCH   9  10
ENDBRANCH   8   9
ENDBRANCH   7   8
ENDBRANCH   6   7
ENDBRANCH   5   6
ENDBRANCH   4   5
ENDBRANCH   3   4
ENDBRANCH   2   3
ENDBRANCH   1   2
BRANCH   1  15
ATOM     15  C   UNL     1      10.618  31.760   7.766  1.00  0.00     0.000 C 
BRANCH  15  16
ATOM     16  C   UNL     1      10.748  33.234   7.348  1.00  0.00     0.000 C 
BRANCH  16  17
ATOM     17  C   UNL     1      10.009  34.183   8.306  1.00  0.00     0.000 C 
BRANCH  17  18
ATOM     18  C   UNL     1       8.645  33.631   8.759  1.00  0.00    -0.000 C 
BRANCH  18  19
ATOM     19  C   UNL     1       7.441  34.553   8.481  1.00  0.00    -0.000 C 
BRANCH  19  20
ATOM     20  C   UNL     1       6.440  34.028   7.432  1.00  0.00    -0.000 C 
BRANCH  20  21
ATOM     21  C   UNL     1       6.973  32.896   6.537  1.00  0.00    -0.000 C 
BRANCH  21  22
ATOM     22  C   UNL     1       5.852  32.046   5.920  1.00  0.00    -0.000 C 
BRANCH  22  23
ATOM     23  C   UNL     1       5.792  30.660   6.573  1.00  0.00    -0.000 C 
BRANCH  23  24
ATOM     24  C   UNL     1       6.829  30.536   7.700  1.00  0.00    -0.000 C 
BRANCH  24  25
ATOM     25  C   UNL     1       7.250  29.082   7.958  1.00  0.00    -0.003 C 
ATOM     26  C   UNL     1       6.378  28.073   7.214  1.00  0.00     0.004 C 
ENDBRANCH  24  25
ENDBRANCH  23  24
ENDBRANCH  22  23
ENDBRANCH  21  22
ENDBRANCH  20  21
ENDBRANCH  19  20
ENDBRANCH  18  19
ENDBRANCH  17  18
ENDBRANCH  16  17
ENDBRANCH  15  16
ENDBRANCH   1  15
TORSDOF 22
ENDMDL
