MODEL 1
REMARK VINA RESULT:    -3.948      0.000      0.000
REMARK INTER + INTRA:          -5.418
REMARK INTER:                  -4.871
REMARK INTRA:                  -0.547
REMARK UNBOUND:                -0.547
REMARK SMILES C=CC(=C)CCC=C(C)C
REMARK SMILES IDX 5 1 6 2 7 3 9 4 8 5 10 6 3 7 4 8 2 9 1 10
REMARK H PARENT
REMARK Flexibility Score: inf
ROOT
ATOM      1  C   UNL     1       0.743  15.646  17.537  1.00  0.00     0.039 C 
ENDROOT
BRANCH   1   2
ATOM      2  C   UNL     1       1.702  14.451  17.506  1.00  0.00     0.032 C 
BRANCH   2   3
ATOM      3  C   UNL     1       1.201  13.371  16.577  1.00  0.00    -0.028 C 
ATOM      4  C   UNL     1       1.200  11.992  14.541  1.00  0.00     0.039 C 
ATOM      5  C   UNL     1       1.781  13.093  15.390  1.00  0.00    -0.080 C 
ATOM      6  C   UNL     1       2.990  13.856  14.904  1.00  0.00     0.039 C 
ENDBRANCH   2   3
ENDBRANCH   1   2
BRANCH   1   7
ATOM      7  C   UNL     1       1.347  16.840  16.829  1.00  0.00    -0.055 C 
ATOM      8  C   UNL     1       1.074  17.035  15.534  1.00  0.00     0.012 C 
BRANCH   7   9
ATOM      9  C   UNL     1       2.274  17.780  17.511  1.00  0.00    -0.005 C 
ATOM     10  C   UNL     1       2.317  19.091  17.272  1.00  0.00     0.009 C 
ENDBRANCH   7   9
ENDBRANCH   1   7
TORSDOF 4
ENDMDL
MODEL 2
REMARK VINA RESULT:    -3.889      1.714      4.474
REMARK INTER + INTRA:          -5.346
REMARK INTER:                  -4.618
REMARK INTRA:                  -0.728
REMARK UNBOUND:                -0.547
REMARK SMILES C=CC(=C)CCC=C(C)C
REMARK SMILES IDX 5 1 6 2 7 3 9 4 8 5 10 6 3 7 4 8 2 9 1 10
REMARK H PARENT
REMARK Flexibility Score: inf
ROOT
ATOM      1  C   UNL     1       1.227  12.759  15.800  1.00  0.00     0.039 C 
ENDROOT
BRANCH   1   2
ATOM      2  C   UNL     1       2.248  13.881  16.016  1.00  0.00     0.032 C 
BRANCH   2   3
ATOM      3  C   UNL     1       1.706  15.212  15.553  1.00  0.00    -0.028 C 
ATOM      4  C   UNL     1       0.952  17.538  15.820  1.00  0.00     0.039 C 
ATOM      5  C   UNL     1       1.497  16.253  16.387  1.00  0.00    -0.080 C 
ATOM      6  C   UNL     1       1.797  16.154  17.864  1.00  0.00     0.039 C 
ENDBRANCH   2   3
ENDBRANCH   1   2
BRANCH   1   7
ATOM      7  C   UNL     1       0.167  12.781  16.881  1.00  0.00    -0.055 C 
ATOM      8  C   UNL     1      -1.113  12.955  16.533  1.00  0.00     0.012 C 
BRANCH   7   9
ATOM      9  C   UNL     1       0.505  12.663  18.323  1.00  0.00    -0.005 C 
ATOM     10  C   UNL     1      -0.391  12.742  19.308  1.00  0.00     0.009 C 
ENDBRANCH   7   9
ENDBRANCH   1   7
TORSDOF 4
ENDMDL
MODEL 3
REMARK VINA RESULT:    -3.865      0.721      4.406
REMARK INTER + INTRA:          -5.316
REMARK INTER:                  -4.632
REMARK INTRA:                  -0.684
REMARK UNBOUND:                -0.547
REMARK SMILES C=CC(=C)CCC=C(C)C
REMARK SMILES IDX 5 1 6 2 7 3 9 4 8 5 10 6 3 7 4 8 2 9 1 10
REMARK H PARENT
REMARK Flexibility Score: inf
ROOT
ATOM      1  C   UNL     1       1.591  14.030  17.458  1.00  0.00     0.039 C 
ENDROOT
BRANCH   1   2
ATOM      2  C   UNL     1       0.661  15.246  17.527  1.00  0.00     0.032 C 
BRANCH   2   3
ATOM      3  C   UNL     1       1.435  16.512  17.805  1.00  0.00    -0.028 C 
ATOM      4  C   UNL     1       2.393  18.714  17.272  1.00  0.00     0.039 C 
ATOM      5  C   UNL     1       1.602  17.490  16.889  1.00  0.00    -0.080 C 
ATOM      6  C   UNL     1       1.015  17.381  15.502  1.00  0.00     0.039 C 
ENDBRANCH   2   3
ENDBRANCH   1   2
BRANCH   1   7
ATOM      7  C   UNL     1       1.740  13.547  16.031  1.00  0.00    -0.055 C 
ATOM      8  C   UNL     1       0.814  12.728  15.521  1.00  0.00     0.012 C 
BRANCH   7   9
ATOM      9  C   UNL     1       2.910  13.913  15.189  1.00  0.00    -0.005 C 
ATOM     10  C   UNL     1       2.820  14.314  13.921  1.00  0.00     0.009 C 
ENDBRANCH   7   9
ENDBRANCH   1   7
TORSDOF 4
ENDMDL
MODEL 4
REMARK VINA RESULT:    -3.802      1.140      4.216
REMARK INTER + INTRA:          -5.238
REMARK INTER:                  -4.344
REMARK INTRA:                  -0.894
REMARK UNBOUND:                -0.547
REMARK SMILES C=CC(=C)CCC=C(C)C
REMARK SMILES IDX 5 1 6 2 7 3 9 4 8 5 10 6 3 7 4 8 2 9 1 10
REMARK H PARENT
REMARK Flexibility Score: inf
ROOT
ATOM      1  C   UNL     1       1.865  14.664  17.570  1.00  0.00     0.039 C 
ENDROOT
BRANCH   1   2
ATOM      2  C   UNL     1       0.957  15.898  17.525  1.00  0.00     0.032 C 
BRANCH   2   3
ATOM      3  C   UNL     1       1.374  16.843  16.423  1.00  0.00    -0.028 C 
ATOM      4  C   UNL     1       1.178  17.966  14.244  1.00  0.00     0.039 C 
ATOM      5  C   UNL     1       0.674  16.994  15.279  1.00  0.00    -0.080 C 
ATOM      6  C   UNL     1      -0.593  16.213  15.019  1.00  0.00     0.039 C 
ENDBRANCH   2   3
ENDBRANCH   1   2
BRANCH   1   7
ATOM      7  C   UNL     1       1.325  13.565  16.681  1.00  0.00    -0.055 C 
ATOM      8  C   UNL     1       0.297  12.825  17.112  1.00  0.00     0.012 C 
BRANCH   7   9
ATOM      9  C   UNL     1       1.928  13.247  15.360  1.00  0.00    -0.005 C 
ATOM     10  C   UNL     1       2.964  13.902  14.836  1.00  0.00     0.009 C 
ENDBRANCH   7   9
ENDBRANCH   1   7
TORSDOF 4
ENDMDL
MODEL 5
REMARK VINA RESULT:    -3.746      1.294      4.477
REMARK INTER + INTRA:          -5.169
REMARK INTER:                  -4.518
REMARK INTRA:                  -0.651
REMARK UNBOUND:                -0.547
REMARK SMILES C=CC(=C)CCC=C(C)C
REMARK SMILES IDX 5 1 6 2 7 3 9 4 8 5 10 6 3 7 4 8 2 9 1 10
REMARK H PARENT
REMARK Flexibility Score: inf
ROOT
ATOM      1  C   UNL     1       1.897  14.498  17.476  1.00  0.00     0.039 C 
ENDROOT
BRANCH   1   2
ATOM      2  C   UNL     1       1.011  15.746  17.552  1.00  0.00     0.032 C 
BRANCH   2   3
ATOM      3  C   UNL     1       1.386  16.749  16.488  1.00  0.00    -0.028 C 
ATOM      4  C   UNL     1       1.127  17.965  14.365  1.00  0.00     0.039 C 
ATOM      5  C   UNL     1       0.663  16.935  15.363  1.00  0.00    -0.080 C 
ATOM      6  C   UNL     1      -0.591  16.139  15.089  1.00  0.00     0.039 C 
ENDBRANCH   2   3
ENDBRANCH   1   2
BRANCH   1   7
ATOM      7  C   UNL     1       1.157  13.350  16.825  1.00  0.00    -0.055 C 
ATOM      8  C   UNL     1       1.551  12.921  15.621  1.00  0.00     0.012 C 
BRANCH   7   9
ATOM      9  C   UNL     1      -0.028  12.711  17.457  1.00  0.00    -0.005 C 
ATOM     10  C   UNL     1      -0.062  12.289  18.722  1.00  0.00     0.009 C 
ENDBRANCH   7   9
ENDBRANCH   1   7
TORSDOF 4
ENDMDL
MODEL 6
REMARK VINA RESULT:    -3.618      2.405      3.734
REMARK INTER + INTRA:          -5.011
REMARK INTER:                  -4.312
REMARK INTRA:                  -0.699
REMARK UNBOUND:                -0.547
REMARK SMILES C=CC(=C)CCC=C(C)C
REMARK SMILES IDX 5 1 6 2 7 3 9 4 8 5 10 6 3 7 4 8 2 9 1 10
REMARK H PARENT
REMARK Flexibility Score: inf
ROOT
ATOM      1  C   UNL     1       1.985  14.243  16.957  1.00  0.00     0.039 C 
ENDROOT
BRANCH   1   2
ATOM      2  C   UNL     1       1.628  14.297  15.468  1.00  0.00     0.032 C 
BRANCH   2   3
ATOM      3  C   UNL     1       1.817  12.951  14.811  1.00  0.00    -0.028 C 
ATOM      4  C   UNL     1       1.090  10.815  13.832  1.00  0.00     0.039 C 
ATOM      5  C   UNL     1       0.789  12.138  14.486  1.00  0.00    -0.080 C 
ATOM      6  C   UNL     1      -0.644  12.527  14.765  1.00  0.00     0.039 C 
ENDBRANCH   2   3
ENDBRANCH   1   2
BRANCH   1   7
ATOM      7  C   UNL     1       0.753  13.981  17.797  1.00  0.00    -0.055 C 
ATOM      8  C   UNL     1      -0.209  14.909  17.849  1.00  0.00     0.012 C 
BRANCH   7   9
ATOM      9  C   UNL     1       0.595  12.744  18.607  1.00  0.00    -0.005 C 
ATOM     10  C   UNL     1      -0.575  12.294  19.062  1.00  0.00     0.009 C 
ENDBRANCH   7   9
ENDBRANCH   1   7
TORSDOF 4
ENDMDL
MODEL 7
REMARK VINA RESULT:    -3.529      1.194      2.308
REMARK INTER + INTRA:          -4.901
REMARK INTER:                  -4.169
REMARK INTRA:                  -0.732
REMARK UNBOUND:                -0.547
REMARK SMILES C=CC(=C)CCC=C(C)C
REMARK SMILES IDX 5 1 6 2 7 3 9 4 8 5 10 6 3 7 4 8 2 9 1 10
REMARK H PARENT
REMARK Flexibility Score: inf
ROOT
ATOM      1  C   UNL     1       1.184  13.562  17.332  1.00  0.00     0.039 C 
ENDROOT
BRANCH   1   2
ATOM      2  C   UNL     1       0.930  13.230  15.857  1.00  0.00     0.032 C 
BRANCH   2   3
ATOM      3  C   UNL     1       2.225  13.139  15.086  1.00  0.00    -0.028 C 
ATOM      4  C   UNL     1       3.976  13.927  13.550  1.00  0.00     0.039 C 
ATOM      5  C   UNL     1       2.668  14.120  14.272  1.00  0.00    -0.080 C 
ATOM      6  C   UNL     1       1.884  15.395  14.073  1.00  0.00     0.039 C 
ENDBRANCH   2   3
ENDBRANCH   1   2
BRANCH   1   7
ATOM      7  C   UNL     1       0.824  15.002  17.629  1.00  0.00    -0.055 C 
ATOM      8  C   UNL     1      -0.464  15.366  17.623  1.00  0.00     0.012 C 
BRANCH   7   9
ATOM      9  C   UNL     1       1.857  16.041  17.880  1.00  0.00    -0.005 C 
ATOM     10  C   UNL     1       1.852  17.250  17.316  1.00  0.00     0.009 C 
ENDBRANCH   7   9
ENDBRANCH   1   7
TORSDOF 4
ENDMDL
MODEL 8
REMARK VINA RESULT:    -3.475      1.678      2.712
REMARK INTER + INTRA:          -4.835
REMARK INTER:                  -4.352
REMARK INTRA:                  -0.484
REMARK UNBOUND:                -0.547
REMARK SMILES C=CC(=C)CCC=C(C)C
REMARK SMILES IDX 5 1 6 2 7 3 9 4 8 5 10 6 3 7 4 8 2 9 1 10
REMARK H PARENT
REMARK Flexibility Score: inf
ROOT
ATOM      1  C   UNL     1       1.494  16.515  16.953  1.00  0.00     0.039 C 
ENDROOT
BRANCH   1   2
ATOM      2  C   UNL     1       1.885  15.048  16.744  1.00  0.00     0.032 C 
BRANCH   2   3
ATOM      3  C   UNL     1       1.342  14.174  17.850  1.00  0.00    -0.028 C 
ATOM      4  C   UNL     1       0.050  12.310  18.800  1.00  0.00     0.039 C 
ATOM      5  C   UNL     1       0.535  13.116  17.623  1.00  0.00    -0.080 C 
ATOM      6  C   UNL     1       0.113  12.730  16.225  1.00  0.00     0.039 C 
ENDBRANCH   2   3
ENDBRANCH   1   2
BRANCH   1   7
ATOM      7  C   UNL     1       0.616  17.004  15.821  1.00  0.00    -0.055 C 
ATOM      8  C   UNL     1      -0.635  16.540  15.721  1.00  0.00     0.012 C 
BRANCH   7   9
ATOM      9  C   UNL     1       1.112  17.948  14.785  1.00  0.00    -0.005 C 
ATOM     10  C   UNL     1       1.183  17.659  13.485  1.00  0.00     0.009 C 
ENDBRANCH   7   9
ENDBRANCH   1   7
TORSDOF 4
ENDMDL
