MODEL 1
REMARK VINA RESULT:    -4.698      0.000      0.000
REMARK INTER + INTRA:          -8.045
REMARK INTER:                  -7.444
REMARK INTRA:                  -0.601
REMARK UNBOUND:                -0.601
REMARK SMILES CCCCCCCCCCCC(=O)[O-]
REMARK SMILES IDX 7 1 8 2 9 3 10 4 11 5 12 6 13 7 14 8 6 9 5 10 4 11 3 12 2 13
REMARK SMILES IDX 1 14
REMARK H PARENT
REMARK Flexibility Score: inf
ROOT
ATOM      1  C   UNL     1      40.341 116.978  13.907  1.00  0.00     0.000 C 
ENDROOT
BRANCH   1   2
ATOM      2  C   UNL     1      41.084 116.740  12.582  1.00  0.00     0.000 C 
BRANCH   2   3
ATOM      3  C   UNL     1      40.509 117.575  11.425  1.00  0.00     0.000 C 
BRANCH   3   4
ATOM      4  C   UNL     1      41.555 117.897  10.348  1.00  0.00     0.006 C 
BRANCH   4   5
ATOM      5  C   UNL     1      42.817 117.050  10.538  1.00  0.00     0.053 C 
BRANCH   5   6
ATOM      6  C   UNL     1      43.357 116.610   9.214  1.00  0.00     0.041 C 
ATOM      7  O   UNL     1      42.694 116.807   8.162  1.00  0.00    -0.550 OA
ATOM      8  O   UNL     1      44.616 116.026   9.135  1.00  0.00    -0.550 OA
ENDBRANCH   5   6
ENDBRANCH   4   5
ENDBRANCH   3   4
ENDBRANCH   2   3
ENDBRANCH   1   2
BRANCH   1   9
ATOM      9  C   UNL     1      39.984 118.458  14.126  1.00  0.00     0.000 C 
BRANCH   9  10
ATOM     10  C   UNL     1      38.484 118.677  14.377  1.00  0.00    -0.000 C 
BRANCH  10  11
ATOM     11  C   UNL     1      37.936 119.795  13.478  1.00  0.00    -0.000 C 
BRANCH  11  12
ATOM     12  C   UNL     1      36.737 120.526  14.103  1.00  0.00    -0.000 C 
BRANCH  12  13
ATOM     13  C   UNL     1      37.149 121.791  14.869  1.00  0.00    -0.003 C 
ATOM     14  C   UNL     1      36.638 121.753  16.306  1.00  0.00     0.004 C 
ENDBRANCH  12  13
ENDBRANCH  11  12
ENDBRANCH  10  11
ENDBRANCH   9  10
ENDBRANCH   1   9
TORSDOF 10
ENDMDL
MODEL 2
REMARK VINA RESULT:    -4.625      3.781      7.682
REMARK INTER + INTRA:          -7.929
REMARK INTER:                  -7.260
REMARK INTRA:                  -0.669
REMARK UNBOUND:                -0.601
REMARK SMILES CCCCCCCCCCCC(=O)[O-]
REMARK SMILES IDX 7 1 8 2 9 3 10 4 11 5 12 6 13 7 14 8 6 9 5 10 4 11 3 12 2 13
REMARK SMILES IDX 1 14
REMARK H PARENT
REMARK Flexibility Score: inf
ROOT
ATOM      1  C   UNL     1      41.759 117.005  11.694  1.00  0.00     0.000 C 
ENDROOT
BRANCH   1   2
ATOM      2  C   UNL     1      40.678 117.065  12.787  1.00  0.00     0.000 C 
BRANCH   2   3
ATOM      3  C   UNL     1      39.285 117.389  12.222  1.00  0.00     0.000 C 
BRANCH   3   4
ATOM      4  C   UNL     1      38.340 117.982  13.277  1.00  0.00     0.006 C 
BRANCH   4   5
ATOM      5  C   UNL     1      38.581 119.485  13.445  1.00  0.00     0.053 C 
BRANCH   5   6
ATOM      6  C   UNL     1      37.282 120.210  13.607  1.00  0.00     0.041 C 
ATOM      7  O   UNL     1      36.229 119.743  13.101  1.00  0.00    -0.550 OA
ATOM      8  O   UNL     1      37.225 121.376  14.360  1.00  0.00    -0.550 OA
ENDBRANCH   5   6
ENDBRANCH   4   5
ENDBRANCH   3   4
ENDBRANCH   2   3
ENDBRANCH   1   2
BRANCH   1   9
ATOM      9  C   UNL     1      41.390 117.835  10.453  1.00  0.00     0.000 C 
BRANCH   9  10
ATOM     10  C   UNL     1      42.271 117.511   9.237  1.00  0.00    -0.000 C 
BRANCH  10  11
ATOM     11  C   UNL     1      43.510 116.707   9.658  1.00  0.00    -0.000 C 
BRANCH  11  12
ATOM     12  C   UNL     1      44.085 115.858   8.512  1.00  0.00    -0.000 C 
BRANCH  12  13
ATOM     13  C   UNL     1      44.561 114.476   8.982  1.00  0.00    -0.003 C 
ATOM     14  C   UNL     1      43.893 114.083  10.296  1.00  0.00     0.004 C 
ENDBRANCH  12  13
ENDBRANCH  11  12
ENDBRANCH  10  11
ENDBRANCH   9  10
ENDBRANCH   1   9
TORSDOF 10
ENDMDL
MODEL 3
REMARK VINA RESULT:    -4.590      3.735      7.498
REMARK INTER + INTRA:          -7.874
REMARK INTER:                  -7.235
REMARK INTRA:                  -0.639
REMARK UNBOUND:                -0.601
REMARK SMILES CCCCCCCCCCCC(=O)[O-]
REMARK SMILES IDX 7 1 8 2 9 3 10 4 11 5 12 6 13 7 14 8 6 9 5 10 4 11 3 12 2 13
REMARK SMILES IDX 1 14
REMARK H PARENT
REMARK Flexibility Score: inf
ROOT
ATOM      1  C   UNL     1      40.545 117.055  13.323  1.00  0.00     0.000 C 
ENDROOT
BRANCH   1   2
ATOM      2  C   UNL     1      39.145 117.631  13.049  1.00  0.00     0.000 C 
BRANCH   2   3
ATOM      3  C   UNL     1      38.759 118.740  14.041  1.00  0.00     0.000 C 
BRANCH   3   4
ATOM      4  C   UNL     1      38.218 119.998  13.345  1.00  0.00     0.006 C 
BRANCH   4   5
ATOM      5  C   UNL     1      36.890 120.440  13.967  1.00  0.00     0.053 C 
BRANCH   5   6
ATOM      6  C   UNL     1      35.817 119.438  13.680  1.00  0.00     0.041 C 
ATOM      7  O   UNL     1      35.504 119.169  12.491  1.00  0.00    -0.550 OA
ATOM      8  O   UNL     1      35.197 118.764  14.725  1.00  0.00    -0.550 OA
ENDBRANCH   5   6
ENDBRANCH   4   5
ENDBRANCH   3   4
ENDBRANCH   2   3
ENDBRANCH   1   2
BRANCH   1   9
ATOM      9  C   UNL     1      41.338 116.791  12.031  1.00  0.00     0.000 C 
BRANCH   9  10
ATOM     10  C   UNL     1      41.052 117.829  10.936  1.00  0.00    -0.000 C 
BRANCH  10  11
ATOM     11  C   UNL     1      42.018 117.657   9.754  1.00  0.00    -0.000 C 
BRANCH  11  12
ATOM     12  C   UNL     1      43.258 116.824  10.117  1.00  0.00    -0.000 C 
BRANCH  12  13
ATOM     13  C   UNL     1      43.625 115.806   9.027  1.00  0.00    -0.003 C 
ATOM     14  C   UNL     1      44.037 114.471   9.640  1.00  0.00     0.004 C 
ENDBRANCH  12  13
ENDBRANCH  11  12
ENDBRANCH  10  11
ENDBRANCH   9  10
ENDBRANCH   1   9
TORSDOF 10
ENDMDL
MODEL 4
REMARK VINA RESULT:    -4.504      1.503      2.116
REMARK INTER + INTRA:          -7.739
REMARK INTER:                  -7.088
REMARK INTRA:                  -0.651
REMARK UNBOUND:                -0.601
REMARK SMILES CCCCCCCCCCCC(=O)[O-]
REMARK SMILES IDX 7 1 8 2 9 3 10 4 11 5 12 6 13 7 14 8 6 9 5 10 4 11 3 12 2 13
REMARK SMILES IDX 1 14
REMARK H PARENT
REMARK Flexibility Score: inf
ROOT
ATOM      1  C   UNL     1      40.404 117.138  12.639  1.00  0.00     0.000 C 
ENDROOT
BRANCH   1   2
ATOM      2  C   UNL     1      40.348 117.578  11.166  1.00  0.00     0.000 C 
BRANCH   2   3
ATOM      3  C   UNL     1      41.742 117.669  10.524  1.00  0.00     0.000 C 
BRANCH   3   4
ATOM      4  C   UNL     1      42.733 116.652  11.109  1.00  0.00     0.006 C 
BRANCH   4   5
ATOM      5  C   UNL     1      44.086 116.732  10.395  1.00  0.00     0.053 C 
BRANCH   5   6
ATOM      6  C   UNL     1      44.141 115.753   9.264  1.00  0.00     0.041 C 
ATOM      7  O   UNL     1      43.629 114.611   9.391  1.00  0.00    -0.550 OA
ATOM      8  O   UNL     1      44.715 116.121   8.053  1.00  0.00    -0.550 OA
ENDBRANCH   5   6
ENDBRANCH   4   5
ENDBRANCH   3   4
ENDBRANCH   2   3
ENDBRANCH   1   2
BRANCH   1   9
ATOM      9  C   UNL     1      39.361 117.858  13.510  1.00  0.00     0.000 C 
BRANCH   9  10
ATOM     10  C   UNL     1      39.301 119.369  13.239  1.00  0.00    -0.000 C 
BRANCH  10  11
ATOM     11  C   UNL     1      37.878 119.906  13.448  1.00  0.00    -0.000 C 
BRANCH  11  12
ATOM     12  C   UNL     1      37.114 119.154  14.549  1.00  0.00    -0.000 C 
BRANCH  12  13
ATOM     13  C   UNL     1      35.630 118.954  14.209  1.00  0.00    -0.003 C 
ATOM     14  C   UNL     1      35.443 118.658  12.723  1.00  0.00     0.004 C 
ENDBRANCH  12  13
ENDBRANCH  11  12
ENDBRANCH  10  11
ENDBRANCH   9  10
ENDBRANCH   1   9
TORSDOF 10
ENDMDL
MODEL 5
REMARK VINA RESULT:    -4.478      6.332     10.712
REMARK INTER + INTRA:          -7.697
REMARK INTER:                  -6.996
REMARK INTRA:                  -0.701
REMARK UNBOUND:                -0.601
REMARK SMILES CCCCCCCCCCCC(=O)[O-]
REMARK SMILES IDX 7 1 8 2 9 3 10 4 11 5 12 6 13 7 14 8 6 9 5 10 4 11 3 12 2 13
REMARK SMILES IDX 1 14
REMARK H PARENT
REMARK Flexibility Score: inf
ROOT
ATOM      1  C   UNL     1      45.603 112.347   7.230  1.00  0.00     0.000 C 
ENDROOT
BRANCH   1   2
ATOM      2  C   UNL     1      46.017 112.479   8.706  1.00  0.00     0.000 C 
BRANCH   2   3
ATOM      3  C   UNL     1      45.566 113.811   9.327  1.00  0.00     0.000 C 
BRANCH   3   4
ATOM      4  C   UNL     1      44.435 114.484   8.536  1.00  0.00     0.006 C 
BRANCH   4   5
ATOM      5  C   UNL     1      44.494 116.007   8.683  1.00  0.00     0.053 C 
BRANCH   5   6
ATOM      6  C   UNL     1      44.239 116.408  10.102  1.00  0.00     0.041 C 
ATOM      7  O   UNL     1      43.097 116.254  10.607  1.00  0.00    -0.550 OA
ATOM      8  O   UNL     1      45.276 116.904  10.882  1.00  0.00    -0.550 OA
ENDBRANCH   5   6
ENDBRANCH   4   5
ENDBRANCH   3   4
ENDBRANCH   2   3
ENDBRANCH   1   2
BRANCH   1   9
ATOM      9  C   UNL     1      46.771 112.612   6.264  1.00  0.00     0.000 C 
BRANCH   9  10
ATOM     10  C   UNL     1      46.686 113.991   5.593  1.00  0.00    -0.000 C 
BRANCH  10  11
ATOM     11  C   UNL     1      47.976 114.303   4.820  1.00  0.00    -0.000 C 
BRANCH  11  12
ATOM     12  C   UNL     1      47.707 114.845   3.407  1.00  0.00    -0.000 C 
BRANCH  12  13
ATOM     13  C   UNL     1      46.411 115.664   3.326  1.00  0.00    -0.003 C 
ATOM     14  C   UNL     1      46.047 115.973   1.876  1.00  0.00     0.004 C 
ENDBRANCH  12  13
ENDBRANCH  11  12
ENDBRANCH  10  11
ENDBRANCH   9  10
ENDBRANCH   1   9
TORSDOF 10
ENDMDL
MODEL 6
REMARK VINA RESULT:    -4.449      1.595      2.495
REMARK INTER + INTRA:          -7.651
REMARK INTER:                  -7.246
REMARK INTRA:                  -0.405
REMARK UNBOUND:                -0.601
REMARK SMILES CCCCCCCCCCCC(=O)[O-]
REMARK SMILES IDX 7 1 8 2 9 3 10 4 11 5 12 6 13 7 14 8 6 9 5 10 4 11 3 12 2 13
REMARK SMILES IDX 1 14
REMARK H PARENT
REMARK Flexibility Score: inf
ROOT
ATOM      1  C   UNL     1      40.755 117.860  11.179  1.00  0.00     0.000 C 
ENDROOT
BRANCH   1   2
ATOM      2  C   UNL     1      42.065 117.156  10.788  1.00  0.00     0.000 C 
BRANCH   2   3
ATOM      3  C   UNL     1      42.575 117.585   9.403  1.00  0.00     0.000 C 
BRANCH   3   4
ATOM      4  C   UNL     1      42.884 116.391   8.487  1.00  0.00     0.006 C 
BRANCH   4   5
ATOM      5  C   UNL     1      44.355 115.981   8.599  1.00  0.00     0.053 C 
BRANCH   5   6
ATOM      6  C   UNL     1      44.472 114.507   8.833  1.00  0.00     0.041 C 
ATOM      7  O   UNL     1      45.080 113.781   8.004  1.00  0.00    -0.550 OA
ATOM      8  O   UNL     1      43.955 113.944   9.993  1.00  0.00    -0.550 OA
ENDBRANCH   5   6
ENDBRANCH   4   5
ENDBRANCH   3   4
ENDBRANCH   2   3
ENDBRANCH   1   2
BRANCH   1   9
ATOM      9  C   UNL     1      40.092 117.230  12.416  1.00  0.00     0.000 C 
BRANCH   9  10
ATOM     10  C   UNL     1      39.097 118.176  13.105  1.00  0.00    -0.000 C 
BRANCH  10  11
ATOM     11  C   UNL     1      37.703 117.536  13.188  1.00  0.00    -0.000 C 
BRANCH  11  12
ATOM     12  C   UNL     1      36.576 118.578  13.287  1.00  0.00    -0.000 C 
BRANCH  12  13
ATOM     13  C   UNL     1      37.107 120.006  13.478  1.00  0.00    -0.003 C 
ATOM     14  C   UNL     1      36.696 120.567  14.837  1.00  0.00     0.004 C 
ENDBRANCH  12  13
ENDBRANCH  11  12
ENDBRANCH  10  11
ENDBRANCH   9  10
ENDBRANCH   1   9
TORSDOF 10
ENDMDL
MODEL 7
REMARK VINA RESULT:    -4.392      3.804      7.157
REMARK INTER + INTRA:          -7.560
REMARK INTER:                  -6.248
REMARK INTRA:                  -1.312
REMARK UNBOUND:                -0.601
REMARK SMILES CCCCCCCCCCCC(=O)[O-]
REMARK SMILES IDX 7 1 8 2 9 3 10 4 11 5 12 6 13 7 14 8 6 9 5 10 4 11 3 12 2 13
REMARK SMILES IDX 1 14
REMARK H PARENT
REMARK Flexibility Score: inf
ROOT
ATOM      1  C   UNL     1      44.473 115.728   8.741  1.00  0.00     0.000 C 
ENDROOT
BRANCH   1   2
ATOM      2  C   UNL     1      43.005 116.171   8.863  1.00  0.00     0.000 C 
BRANCH   2   3
ATOM      3  C   UNL     1      42.849 117.494   9.631  1.00  0.00     0.000 C 
BRANCH   3   4
ATOM      4  C   UNL     1      41.454 117.661  10.250  1.00  0.00     0.006 C 
BRANCH   4   5
ATOM      5  C   UNL     1      41.400 117.050  11.654  1.00  0.00     0.053 C 
BRANCH   5   6
ATOM      6  C   UNL     1      40.119 117.414  12.336  1.00  0.00     0.041 C 
ATOM      7  O   UNL     1      39.016 117.175  11.780  1.00  0.00    -0.550 OA
ATOM      8  O   UNL     1      40.143 117.970  13.609  1.00  0.00    -0.550 OA
ENDBRANCH   5   6
ENDBRANCH   4   5
ENDBRANCH   3   4
ENDBRANCH   2   3
ENDBRANCH   1   2
BRANCH   1   9
ATOM      9  C   UNL     1      44.641 114.204   8.866  1.00  0.00     0.000 C 
BRANCH   9  10
ATOM     10  C   UNL     1      45.178 113.776  10.239  1.00  0.00    -0.000 C 
BRANCH  10  11
ATOM     11  C   UNL     1      44.028 113.566  11.235  1.00  0.00    -0.000 C 
BRANCH  11  12
ATOM     12  C   UNL     1      43.966 114.663  12.310  1.00  0.00    -0.000 C 
BRANCH  12  13
ATOM     13  C   UNL     1      45.321 115.350  12.534  1.00  0.00    -0.003 C 
ATOM     14  C   UNL     1      45.199 116.864  12.393  1.00  0.00     0.004 C 
ENDBRANCH  12  13
ENDBRANCH  11  12
ENDBRANCH  10  11
ENDBRANCH   9  10
ENDBRANCH   1   9
TORSDOF 10
ENDMDL
MODEL 8
REMARK VINA RESULT:    -4.341      4.407      7.827
REMARK INTER + INTRA:          -7.480
REMARK INTER:                  -6.868
REMARK INTRA:                  -0.613
REMARK UNBOUND:                -0.601
REMARK SMILES CCCCCCCCCCCC(=O)[O-]
REMARK SMILES IDX 7 1 8 2 9 3 10 4 11 5 12 6 13 7 14 8 6 9 5 10 4 11 3 12 2 13
REMARK SMILES IDX 1 14
REMARK H PARENT
REMARK Flexibility Score: inf
ROOT
ATOM      1  C   UNL     1      45.633 113.414   8.999  1.00  0.00     0.000 C 
ENDROOT
BRANCH   1   2
ATOM      2  C   UNL     1      45.258 112.951   7.581  1.00  0.00     0.000 C 
BRANCH   2   3
ATOM      3  C   UNL     1      46.411 112.220   6.874  1.00  0.00     0.000 C 
BRANCH   3   4
ATOM      4  C   UNL     1      47.406 113.183   6.208  1.00  0.00     0.006 C 
BRANCH   4   5
ATOM      5  C   UNL     1      46.682 114.163   5.281  1.00  0.00     0.053 C 
BRANCH   5   6
ATOM      6  C   UNL     1      47.661 115.085   4.625  1.00  0.00     0.041 C 
ATOM      7  O   UNL     1      48.898 114.908   4.778  1.00  0.00    -0.550 OA
ATOM      8  O   UNL     1      47.208 116.110   3.802  1.00  0.00    -0.550 OA
ENDBRANCH   5   6
ENDBRANCH   4   5
ENDBRANCH   3   4
ENDBRANCH   2   3
ENDBRANCH   1   2
BRANCH   1   9
ATOM      9  C   UNL     1      44.783 114.603   9.476  1.00  0.00     0.000 C 
BRANCH   9  10
ATOM     10  C   UNL     1      44.590 115.671   8.388  1.00  0.00    -0.000 C 
BRANCH  10  11
ATOM     11  C   UNL     1      43.224 116.359   8.534  1.00  0.00    -0.000 C 
BRANCH  11  12
ATOM     12  C   UNL     1      42.911 116.757   9.985  1.00  0.00    -0.000 C 
BRANCH  12  13
ATOM     13  C   UNL     1      41.787 117.800  10.082  1.00  0.00    -0.003 C 
ATOM     14  C   UNL     1      40.879 117.516  11.275  1.00  0.00     0.004 C 
ENDBRANCH  12  13
ENDBRANCH  11  12
ENDBRANCH  10  11
ENDBRANCH   9  10
ENDBRANCH   1   9
TORSDOF 10
ENDMDL
MODEL 9
REMARK VINA RESULT:    -4.313      1.839      2.251
REMARK INTER + INTRA:          -7.435
REMARK INTER:                  -7.056
REMARK INTRA:                  -0.379
REMARK UNBOUND:                -0.601
REMARK SMILES CCCCCCCCCCCC(=O)[O-]
REMARK SMILES IDX 7 1 8 2 9 3 10 4 11 5 12 6 13 7 14 8 6 9 5 10 4 11 3 12 2 13
REMARK SMILES IDX 1 14
REMARK H PARENT
REMARK Flexibility Score: inf
ROOT
ATOM      1  C   UNL     1      39.729 117.522  12.265  1.00  0.00     0.000 C 
ENDROOT
BRANCH   1   2
ATOM      2  C   UNL     1      41.105 116.837  12.205  1.00  0.00     0.000 C 
BRANCH   2   3
ATOM      3  C   UNL     1      41.902 117.223  10.948  1.00  0.00     0.000 C 
BRANCH   3   4
ATOM      4  C   UNL     1      43.165 116.370  10.760  1.00  0.00     0.006 C 
BRANCH   4   5
ATOM      5  C   UNL     1      43.839 116.085  12.105  1.00  0.00     0.053 C 
BRANCH   5   6
ATOM      6  C   UNL     1      45.134 116.827  12.211  1.00  0.00     0.041 C 
ATOM      7  O   UNL     1      45.753 117.171  11.170  1.00  0.00    -0.550 OA
ATOM      8  O   UNL     1      45.632 117.184  13.458  1.00  0.00    -0.550 OA
ENDBRANCH   5   6
ENDBRANCH   4   5
ENDBRANCH   3   4
ENDBRANCH   2   3
ENDBRANCH   1   2
BRANCH   1   9
ATOM      9  C   UNL     1      39.824 119.003  12.669  1.00  0.00     0.000 C 
BRANCH   9  10
ATOM     10  C   UNL     1      38.880 119.366  13.826  1.00  0.00    -0.000 C 
BRANCH  10  11
ATOM     11  C   UNL     1      37.615 120.061  13.302  1.00  0.00    -0.000 C 
BRANCH  11  12
ATOM     12  C   UNL     1      36.642 120.451  14.426  1.00  0.00    -0.000 C 
BRANCH  12  13
ATOM     13  C   UNL     1      36.986 121.807  15.061  1.00  0.00    -0.003 C 
ATOM     14  C   UNL     1      36.563 121.849  16.527  1.00  0.00     0.004 C 
ENDBRANCH  12  13
ENDBRANCH  11  12
ENDBRANCH  10  11
ENDBRANCH   9  10
ENDBRANCH   1   9
TORSDOF 10
ENDMDL
