MODEL 1
REMARK VINA RESULT:    -4.463      0.000      0.000
REMARK INTER + INTRA:         -14.037
REMARK INTER:                 -10.203
REMARK INTRA:                  -3.834
REMARK UNBOUND:                -3.834
REMARK SMILES CCCCCCCCCCCCCCCCCCCCCCCC(=O)[O-]
REMARK SMILES IDX 13 1 14 2 15 3 16 4 17 5 18 6 19 7 20 8 21 9 22 10 23 11
REMARK SMILES IDX 24 12 25 13 26 14 12 15 11 16 10 17 9 18 8 19 7 20 6 21 5 22
REMARK SMILES IDX 4 23 3 24 2 25 1 26
REMARK H PARENT
REMARK Flexibility Score: inf
ROOT
ATOM      1  C   UNL     1      26.376   5.532  10.780  1.00  0.00     0.000 C 
ENDROOT
BRANCH   1   2
ATOM      2  C   UNL     1      27.907   5.634  10.878  1.00  0.00     0.000 C 
BRANCH   2   3
ATOM      3  C   UNL     1      28.581   4.257  11.005  1.00  0.00     0.000 C 
BRANCH   3   4
ATOM      4  C   UNL     1      27.937   3.197  10.085  1.00  0.00     0.000 C 
BRANCH   4   5
ATOM      5  C   UNL     1      28.220   3.416   8.586  1.00  0.00     0.000 C 
BRANCH   5   6
ATOM      6  C   UNL     1      26.971   3.479   7.686  1.00  0.00     0.000 C 
BRANCH   6   7
ATOM      7  C   UNL     1      26.955   2.474   6.519  1.00  0.00     0.000 C 
BRANCH   7   8
ATOM      8  C   UNL     1      25.742   1.534   6.549  1.00  0.00     0.000 C 
BRANCH   8   9
ATOM      9  C   UNL     1      25.464   1.050   7.979  1.00  0.00     0.000 C 
BRANCH   9  10
ATOM     10  C   UNL     1      26.025  -0.354   8.255  1.00  0.00     0.006 C 
BRANCH  10  11
ATOM     11  C   UNL     1      27.493  -0.330   8.703  1.00  0.00     0.053 C 
BRANCH  11  12
ATOM     12  C   UNL     1      27.802  -1.528   9.547  1.00  0.00     0.041 C 
ATOM     13  O   UNL     1      27.718  -1.457  10.802  1.00  0.00    -0.550 OA
ATOM     14  O   UNL     1      28.151  -2.733   8.946  1.00  0.00    -0.550 OA
ENDBRANCH  11  12
ENDBRANCH  10  11
ENDBRANCH   9  10
ENDBRANCH   8   9
ENDBRANCH   7   8
ENDBRANCH   6   7
ENDBRANCH   5   6
ENDBRANCH   4   5
ENDBRANCH   3   4
ENDBRANCH   2   3
ENDBRANCH   1   2
BRANCH   1  15
ATOM     15  C   UNL     1      25.801   6.385   9.633  1.00  0.00     0.000 C 
BRANCH  15  16
ATOM     16  C   UNL     1      26.898   7.115   8.841  1.00  0.00     0.000 C 
BRANCH  16  17
ATOM     17  C   UNL     1      26.333   7.896   7.641  1.00  0.00     0.000 C 
BRANCH  17  18
ATOM     18  C   UNL     1      26.331   7.070   6.346  1.00  0.00    -0.000 C 
BRANCH  18  19
ATOM     19  C   UNL     1      25.020   7.212   5.553  1.00  0.00    -0.000 C 
BRANCH  19  20
ATOM     20  C   UNL     1      23.846   6.459   6.205  1.00  0.00    -0.000 C 
BRANCH  20  21
ATOM     21  C   UNL     1      24.143   4.992   6.577  1.00  0.00    -0.000 C 
BRANCH  21  22
ATOM     22  C   UNL     1      23.010   4.264   7.327  1.00  0.00    -0.000 C 
BRANCH  22  23
ATOM     23  C   UNL     1      22.968   4.525   8.843  1.00  0.00    -0.000 C 
BRANCH  23  24
ATOM     24  C   UNL     1      21.589   5.006   9.325  1.00  0.00    -0.000 C 
BRANCH  24  25
ATOM     25  C   UNL     1      21.273   6.437   8.865  1.00  0.00    -0.003 C 
ATOM     26  C   UNL     1      22.257   7.465   9.422  1.00  0.00     0.004 C 
ENDBRANCH  24  25
ENDBRANCH  23  24
ENDBRANCH  22  23
ENDBRANCH  21  22
ENDBRANCH  20  21
ENDBRANCH  19  20
ENDBRANCH  18  19
ENDBRANCH  17  18
ENDBRANCH  16  17
ENDBRANCH  15  16
ENDBRANCH   1  15
TORSDOF 22
ENDMDL
MODEL 2
REMARK VINA RESULT:    -4.424      2.760      4.973
REMARK INTER + INTRA:         -13.947
REMARK INTER:                 -10.437
REMARK INTRA:                  -3.510
REMARK UNBOUND:                -3.834
REMARK SMILES CCCCCCCCCCCCCCCCCCCCCCCC(=O)[O-]
REMARK SMILES IDX 13 1 14 2 15 3 16 4 17 5 18 6 19 7 20 8 21 9 22 10 23 11
REMARK SMILES IDX 24 12 25 13 26 14 12 15 11 16 10 17 9 18 8 19 7 20 6 21 5 22
REMARK SMILES IDX 4 23 3 24 2 25 1 26
REMARK H PARENT
REMARK Flexibility Score: inf
ROOT
ATOM      1  C   UNL     1      26.496   3.660   6.419  1.00  0.00     0.000 C 
ENDROOT
BRANCH   1   2
ATOM      2  C   UNL     1      26.551   2.727   7.639  1.00  0.00     0.000 C 
BRANCH   2   3
ATOM      3  C   UNL     1      27.968   2.191   7.907  1.00  0.00     0.000 C 
BRANCH   3   4
ATOM      4  C   UNL     1      27.973   1.005   8.895  1.00  0.00     0.000 C 
BRANCH   4   5
ATOM      5  C   UNL     1      28.553  -0.296   8.306  1.00  0.00     0.000 C 
BRANCH   5   6
ATOM      6  C   UNL     1      27.697  -1.557   8.535  1.00  0.00     0.000 C 
BRANCH   6   7
ATOM      7  C   UNL     1      27.466  -2.425   7.284  1.00  0.00     0.000 C 
BRANCH   7   8
ATOM      8  C   UNL     1      26.270  -1.960   6.440  1.00  0.00     0.000 C 
BRANCH   8   9
ATOM      9  C   UNL     1      26.748  -1.274   5.152  1.00  0.00     0.000 C 
BRANCH   9  10
ATOM     10  C   UNL     1      26.391   0.220   5.103  1.00  0.00     0.006 C 
BRANCH  10  11
ATOM     11  C   UNL     1      26.076   0.709   3.682  1.00  0.00     0.053 C 
BRANCH  11  12
ATOM     12  C   UNL     1      24.637   0.460   3.350  1.00  0.00     0.041 C 
ATOM     13  O   UNL     1      24.323  -0.455   2.542  1.00  0.00    -0.550 OA
ATOM     14  O   UNL     1      23.640   1.216   3.958  1.00  0.00    -0.550 OA
ENDBRANCH  11  12
ENDBRANCH  10  11
ENDBRANCH   9  10
ENDBRANCH   8   9
ENDBRANCH   7   8
ENDBRANCH   6   7
ENDBRANCH   5   6
ENDBRANCH   4   5
ENDBRANCH   3   4
ENDBRANCH   2   3
ENDBRANCH   1   2
BRANCH   1  15
ATOM     15  C   UNL     1      25.618   4.901   6.665  1.00  0.00     0.000 C 
BRANCH  15  16
ATOM     16  C   UNL     1      26.364   6.213   6.370  1.00  0.00     0.000 C 
BRANCH  16  17
ATOM     17  C   UNL     1      25.551   7.455   6.777  1.00  0.00     0.000 C 
BRANCH  17  18
ATOM     18  C   UNL     1      26.129   8.161   8.012  1.00  0.00    -0.000 C 
BRANCH  18  19
ATOM     19  C   UNL     1      25.142   8.198   9.192  1.00  0.00    -0.000 C 
BRANCH  19  20
ATOM     20  C   UNL     1      23.971   7.215   9.018  1.00  0.00    -0.000 C 
BRANCH  20  21
ATOM     21  C   UNL     1      24.134   5.874   9.761  1.00  0.00    -0.000 C 
BRANCH  21  22
ATOM     22  C   UNL     1      25.289   5.825  10.781  1.00  0.00    -0.000 C 
BRANCH  22  23
ATOM     23  C   UNL     1      26.418   4.840  10.430  1.00  0.00    -0.000 C 
BRANCH  23  24
ATOM     24  C   UNL     1      27.703   5.550   9.969  1.00  0.00    -0.000 C 
BRANCH  24  25
ATOM     25  C   UNL     1      28.972   4.779  10.363  1.00  0.00    -0.003 C 
ATOM     26  C   UNL     1      28.711   3.726  11.438  1.00  0.00     0.004 C 
ENDBRANCH  24  25
ENDBRANCH  23  24
ENDBRANCH  22  23
ENDBRANCH  21  22
ENDBRANCH  20  21
ENDBRANCH  19  20
ENDBRANCH  18  19
ENDBRANCH  17  18
ENDBRANCH  16  17
ENDBRANCH  15  16
ENDBRANCH   1  15
TORSDOF 22
ENDMDL
MODEL 3
REMARK VINA RESULT:    -4.415      3.249      6.451
REMARK INTER + INTRA:         -13.926
REMARK INTER:                  -9.725
REMARK INTRA:                  -4.201
REMARK UNBOUND:                -3.834
REMARK SMILES CCCCCCCCCCCCCCCCCCCCCCCC(=O)[O-]
REMARK SMILES IDX 13 1 14 2 15 3 16 4 17 5 18 6 19 7 20 8 21 9 22 10 23 11
REMARK SMILES IDX 24 12 25 13 26 14 12 15 11 16 10 17 9 18 8 19 7 20 6 21 5 22
REMARK SMILES IDX 4 23 3 24 2 25 1 26
REMARK H PARENT
REMARK Flexibility Score: inf
ROOT
ATOM      1  C   UNL     1      26.340   5.211  10.560  1.00  0.00     0.000 C 
ENDROOT
BRANCH   1   2
ATOM      2  C   UNL     1      26.661   6.445   9.703  1.00  0.00     0.000 C 
BRANCH   2   3
ATOM      3  C   UNL     1      25.469   7.414   9.597  1.00  0.00     0.000 C 
BRANCH   3   4
ATOM      4  C   UNL     1      25.549   8.313   8.345  1.00  0.00     0.000 C 
BRANCH   4   5
ATOM      5  C   UNL     1      26.578   7.840   7.300  1.00  0.00     0.000 C 
BRANCH   5   6
ATOM      6  C   UNL     1      25.978   7.274   5.999  1.00  0.00     0.000 C 
BRANCH   6   7
ATOM      7  C   UNL     1      24.659   6.497   6.171  1.00  0.00     0.000 C 
BRANCH   7   8
ATOM      8  C   UNL     1      24.872   5.028   6.563  1.00  0.00     0.000 C 
BRANCH   8   9
ATOM      9  C   UNL     1      23.912   4.620   7.689  1.00  0.00     0.000 C 
BRANCH   9  10
ATOM     10  C   UNL     1      22.758   5.618   7.881  1.00  0.00     0.006 C 
BRANCH  10  11
ATOM     11  C   UNL     1      21.379   4.984   7.646  1.00  0.00     0.053 C 
BRANCH  11  12
ATOM     12  C   UNL     1      21.143   4.775   6.183  1.00  0.00     0.041 C 
ATOM     13  O   UNL     1      21.157   3.612   5.699  1.00  0.00    -0.550 OA
ATOM     14  O   UNL     1      20.874   5.862   5.358  1.00  0.00    -0.550 OA
ENDBRANCH  11  12
ENDBRANCH  10  11
ENDBRANCH   9  10
ENDBRANCH   8   9
ENDBRANCH   7   8
ENDBRANCH   6   7
ENDBRANCH   5   6
ENDBRANCH   4   5
ENDBRANCH   3   4
ENDBRANCH   2   3
ENDBRANCH   1   2
BRANCH   1  15
ATOM     15  C   UNL     1      27.167   3.978  10.151  1.00  0.00     0.000 C 
BRANCH  15  16
ATOM     16  C   UNL     1      27.676   4.070   8.703  1.00  0.00     0.000 C 
BRANCH  16  17
ATOM     17  C   UNL     1      27.668   2.705   7.990  1.00  0.00     0.000 C 
BRANCH  17  18
ATOM     18  C   UNL     1      27.972   1.539   8.943  1.00  0.00    -0.000 C 
BRANCH  18  19
ATOM     19  C   UNL     1      28.416   0.266   8.201  1.00  0.00    -0.000 C 
BRANCH  19  20
ATOM     20  C   UNL     1      27.230  -0.617   7.775  1.00  0.00    -0.000 C 
BRANCH  20  21
ATOM     21  C   UNL     1      27.367  -1.258   6.379  1.00  0.00    -0.000 C 
BRANCH  21  22
ATOM     22  C   UNL     1      26.402  -0.710   5.308  1.00  0.00    -0.000 C 
BRANCH  22  23
ATOM     23  C   UNL     1      26.510   0.805   5.058  1.00  0.00    -0.000 C 
BRANCH  23  24
ATOM     24  C   UNL     1      25.212   1.557   5.398  1.00  0.00    -0.000 C 
BRANCH  24  25
ATOM     25  C   UNL     1      24.164   0.648   6.059  1.00  0.00    -0.003 C 
ATOM     26  C   UNL     1      23.950   0.975   7.536  1.00  0.00     0.004 C 
ENDBRANCH  24  25
ENDBRANCH  23  24
ENDBRANCH  22  23
ENDBRANCH  21  22
ENDBRANCH  20  21
ENDBRANCH  19  20
ENDBRANCH  18  19
ENDBRANCH  17  18
ENDBRANCH  16  17
ENDBRANCH  15  16
ENDBRANCH   1  15
TORSDOF 22
ENDMDL
MODEL 4
REMARK VINA RESULT:    -4.342      3.465      6.526
REMARK INTER + INTRA:         -13.760
REMARK INTER:                 -10.075
REMARK INTRA:                  -3.685
REMARK UNBOUND:                -3.834
REMARK SMILES CCCCCCCCCCCCCCCCCCCCCCCC(=O)[O-]
REMARK SMILES IDX 13 1 14 2 15 3 16 4 17 5 18 6 19 7 20 8 21 9 22 10 23 11
REMARK SMILES IDX 24 12 25 13 26 14 12 15 11 16 10 17 9 18 8 19 7 20 6 21 5 22
REMARK SMILES IDX 4 23 3 24 2 25 1 26
REMARK H PARENT
REMARK Flexibility Score: inf
ROOT
ATOM      1  C   UNL     1      26.121   7.532   9.502  1.00  0.00     0.000 C 
ENDROOT
BRANCH   1   2
ATOM      2  C   UNL     1      25.805   8.089   8.105  1.00  0.00     0.000 C 
BRANCH   2   3
ATOM      3  C   UNL     1      26.816   7.623   7.043  1.00  0.00     0.000 C 
BRANCH   3   4
ATOM      4  C   UNL     1      26.170   6.724   5.967  1.00  0.00     0.000 C 
BRANCH   4   5
ATOM      5  C   UNL     1      24.661   6.488   6.173  1.00  0.00     0.000 C 
BRANCH   5   6
ATOM      6  C   UNL     1      24.276   5.067   6.627  1.00  0.00     0.000 C 
BRANCH   6   7
ATOM      7  C   UNL     1      23.654   4.977   8.033  1.00  0.00     0.000 C 
BRANCH   7   8
ATOM      8  C   UNL     1      24.340   3.936   8.930  1.00  0.00     0.000 C 
BRANCH   8   9
ATOM      9  C   UNL     1      23.948   4.143  10.400  1.00  0.00     0.000 C 
BRANCH   9  10
ATOM     10  C   UNL     1      23.484   5.578  10.699  1.00  0.00     0.006 C 
BRANCH  10  11
ATOM     11  C   UNL     1      23.876   6.048  12.107  1.00  0.00     0.053 C 
BRANCH  11  12
ATOM     12  C   UNL     1      22.730   6.754  12.761  1.00  0.00     0.041 C 
ATOM     13  O   UNL     1      22.798   7.083  13.976  1.00  0.00    -0.550 OA
ATOM     14  O   UNL     1      21.598   7.081  12.021  1.00  0.00    -0.550 OA
ENDBRANCH  11  12
ENDBRANCH  10  11
ENDBRANCH   9  10
ENDBRANCH   8   9
ENDBRANCH   7   8
ENDBRANCH   6   7
ENDBRANCH   5   6
ENDBRANCH   4   5
ENDBRANCH   3   4
ENDBRANCH   2   3
ENDBRANCH   1   2
BRANCH   1  15
ATOM     15  C   UNL     1      27.195   6.430   9.469  1.00  0.00     0.000 C 
BRANCH  15  16
ATOM     16  C   UNL     1      27.341   5.715  10.822  1.00  0.00     0.000 C 
BRANCH  16  17
ATOM     17  C   UNL     1      28.298   4.511  10.750  1.00  0.00     0.000 C 
BRANCH  17  18
ATOM     18  C   UNL     1      27.754   3.375   9.873  1.00  0.00    -0.000 C 
BRANCH  18  19
ATOM     19  C   UNL     1      28.376   3.360   8.466  1.00  0.00    -0.000 C 
BRANCH  19  20
ATOM     20  C   UNL     1      27.396   2.864   7.387  1.00  0.00    -0.000 C 
BRANCH  20  21
ATOM     21  C   UNL     1      26.785   1.474   7.657  1.00  0.00    -0.000 C 
BRANCH  21  22
ATOM     22  C   UNL     1      25.476   1.174   6.899  1.00  0.00    -0.000 C 
BRANCH  22  23
ATOM     23  C   UNL     1      25.412   1.749   5.473  1.00  0.00    -0.000 C 
BRANCH  23  24
ATOM     24  C   UNL     1      26.335   1.007   4.492  1.00  0.00    -0.000 C 
BRANCH  24  25
ATOM     25  C   UNL     1      25.657   0.735   3.140  1.00  0.00    -0.003 C 
ATOM     26  C   UNL     1      26.123  -0.572   2.500  1.00  0.00     0.004 C 
ENDBRANCH  24  25
ENDBRANCH  23  24
ENDBRANCH  22  23
ENDBRANCH  21  22
ENDBRANCH  20  21
ENDBRANCH  19  20
ENDBRANCH  18  19
ENDBRANCH  17  18
ENDBRANCH  16  17
ENDBRANCH  15  16
ENDBRANCH   1  15
TORSDOF 22
ENDMDL
MODEL 5
REMARK VINA RESULT:    -4.290      3.058      6.627
REMARK INTER + INTRA:         -13.640
REMARK INTER:                  -9.604
REMARK INTRA:                  -4.036
REMARK UNBOUND:                -3.834
REMARK SMILES CCCCCCCCCCCCCCCCCCCCCCCC(=O)[O-]
REMARK SMILES IDX 13 1 14 2 15 3 16 4 17 5 18 6 19 7 20 8 21 9 22 10 23 11
REMARK SMILES IDX 24 12 25 13 26 14 12 15 11 16 10 17 9 18 8 19 7 20 6 21 5 22
REMARK SMILES IDX 4 23 3 24 2 25 1 26
REMARK H PARENT
REMARK Flexibility Score: inf
ROOT
ATOM      1  C   UNL     1      27.165   1.693   8.306  1.00  0.00     0.000 C 
ENDROOT
BRANCH   1   2
ATOM      2  C   UNL     1      27.624   3.102   7.901  1.00  0.00     0.000 C 
BRANCH   2   3
ATOM      3  C   UNL     1      28.108   3.933   9.103  1.00  0.00     0.000 C 
BRANCH   3   4
ATOM      4  C   UNL     1      27.024   4.081  10.192  1.00  0.00     0.000 C 
BRANCH   4   5
ATOM      5  C   UNL     1      26.597   5.538  10.455  1.00  0.00     0.000 C 
BRANCH   5   6
ATOM      6  C   UNL     1      27.122   6.568   9.436  1.00  0.00     0.000 C 
BRANCH   6   7
ATOM      7  C   UNL     1      26.078   7.586   8.941  1.00  0.00     0.000 C 
BRANCH   7   8
ATOM      8  C   UNL     1      25.975   7.648   7.410  1.00  0.00     0.000 C 
BRANCH   8   9
ATOM      9  C   UNL     1      26.105   6.244   6.800  1.00  0.00     0.000 C 
BRANCH   9  10
ATOM     10  C   UNL     1      24.745   5.579   6.533  1.00  0.00     0.006 C 
BRANCH  10  11
ATOM     11  C   UNL     1      24.223   4.791   7.743  1.00  0.00     0.053 C 
BRANCH  11  12
ATOM     12  C   UNL     1      22.875   5.297   8.154  1.00  0.00     0.041 C 
ATOM     13  O   UNL     1      21.863   4.553   8.059  1.00  0.00    -0.550 OA
ATOM     14  O   UNL     1      22.741   6.580   8.674  1.00  0.00    -0.550 OA
ENDBRANCH  11  12
ENDBRANCH  10  11
ENDBRANCH   9  10
ENDBRANCH   8   9
ENDBRANCH   7   8
ENDBRANCH   6   7
ENDBRANCH   5   6
ENDBRANCH   4   5
ENDBRANCH   3   4
ENDBRANCH   2   3
ENDBRANCH   1   2
BRANCH   1  15
ATOM     15  C   UNL     1      28.334   0.694   8.393  1.00  0.00     0.000 C 
BRANCH  15  16
ATOM     16  C   UNL     1      27.993  -0.531   9.258  1.00  0.00     0.000 C 
BRANCH  16  17
ATOM     17  C   UNL     1      27.849  -1.817   8.423  1.00  0.00     0.000 C 
BRANCH  17  18
ATOM     18  C   UNL     1      28.136  -1.589   6.932  1.00  0.00    -0.000 C 
BRANCH  18  19
ATOM     19  C   UNL     1      27.141  -2.322   6.016  1.00  0.00    -0.000 C 
BRANCH  19  20
ATOM     20  C   UNL     1      26.097  -1.377   5.395  1.00  0.00    -0.000 C 
BRANCH  20  21
ATOM     21  C   UNL     1      26.608   0.048   5.098  1.00  0.00    -0.000 C 
BRANCH  21  22
ATOM     22  C   UNL     1      25.567   1.001   4.478  1.00  0.00    -0.000 C 
BRANCH  22  23
ATOM     23  C   UNL     1      24.887   1.952   5.479  1.00  0.00    -0.000 C 
BRANCH  23  24
ATOM     24  C   UNL     1      23.353   1.839   5.457  1.00  0.00    -0.000 C 
BRANCH  24  25
ATOM     25  C   UNL     1      22.780   1.374   6.804  1.00  0.00    -0.003 C 
ATOM     26  C   UNL     1      23.778   0.551   7.617  1.00  0.00     0.004 C 
ENDBRANCH  24  25
ENDBRANCH  23  24
ENDBRANCH  22  23
ENDBRANCH  21  22
ENDBRANCH  20  21
ENDBRANCH  19  20
ENDBRANCH  18  19
ENDBRANCH  17  18
ENDBRANCH  16  17
ENDBRANCH  15  16
ENDBRANCH   1  15
TORSDOF 22
ENDMDL
MODEL 6
REMARK VINA RESULT:    -4.289      1.305      2.837
REMARK INTER + INTRA:         -13.639
REMARK INTER:                  -9.597
REMARK INTRA:                  -4.042
REMARK UNBOUND:                -3.834
REMARK SMILES CCCCCCCCCCCCCCCCCCCCCCCC(=O)[O-]
REMARK SMILES IDX 13 1 14 2 15 3 16 4 17 5 18 6 19 7 20 8 21 9 22 10 23 11
REMARK SMILES IDX 24 12 25 13 26 14 12 15 11 16 10 17 9 18 8 19 7 20 6 21 5 22
REMARK SMILES IDX 4 23 3 24 2 25 1 26
REMARK H PARENT
REMARK Flexibility Score: inf
ROOT
ATOM      1  C   UNL     1      25.938   3.805   8.915  1.00  0.00     0.000 C 
ENDROOT
BRANCH   1   2
ATOM      2  C   UNL     1      27.286   3.067   8.935  1.00  0.00     0.000 C 
BRANCH   2   3
ATOM      3  C   UNL     1      27.762   2.670   7.526  1.00  0.00     0.000 C 
BRANCH   3   4
ATOM      4  C   UNL     1      26.774   3.111   6.424  1.00  0.00     0.000 C 
BRANCH   4   5
ATOM      5  C   UNL     1      26.513   2.034   5.353  1.00  0.00     0.000 C 
BRANCH   5   6
ATOM      6  C   UNL     1      25.047   1.575   5.230  1.00  0.00     0.000 C 
BRANCH   6   7
ATOM      7  C   UNL     1      24.282   1.468   6.562  1.00  0.00     0.000 C 
BRANCH   7   8
ATOM      8  C   UNL     1      24.273   0.045   7.139  1.00  0.00     0.000 C 
BRANCH   8   9
ATOM      9  C   UNL     1      25.423  -0.144   8.138  1.00  0.00     0.000 C 
BRANCH   9  10
ATOM     10  C   UNL     1      26.600  -0.940   7.552  1.00  0.00     0.006 C 
BRANCH  10  11
ATOM     11  C   UNL     1      27.858  -0.875   8.431  1.00  0.00     0.053 C 
BRANCH  11  12
ATOM     12  C   UNL     1      27.760  -1.856   9.557  1.00  0.00     0.041 C 
ATOM     13  O   UNL     1      27.732  -3.093   9.319  1.00  0.00    -0.550 OA
ATOM     14  O   UNL     1      27.732  -1.407  10.873  1.00  0.00    -0.550 OA
ENDBRANCH  11  12
ENDBRANCH  10  11
ENDBRANCH   9  10
ENDBRANCH   8   9
ENDBRANCH   7   8
ENDBRANCH   6   7
ENDBRANCH   5   6
ENDBRANCH   4   5
ENDBRANCH   3   4
ENDBRANCH   2   3
ENDBRANCH   1   2
BRANCH   1  15
ATOM     15  C   UNL     1      25.923   5.032   9.845  1.00  0.00     0.000 C 
BRANCH  15  16
ATOM     16  C   UNL     1      26.791   6.182   9.310  1.00  0.00     0.000 C 
BRANCH  16  17
ATOM     17  C   UNL     1      26.445   6.551   7.856  1.00  0.00     0.000 C 
BRANCH  17  18
ATOM     18  C   UNL     1      25.732   7.906   7.744  1.00  0.00    -0.000 C 
BRANCH  18  19
ATOM     19  C   UNL     1      25.683   8.665   9.081  1.00  0.00    -0.000 C 
BRANCH  19  20
ATOM     20  C   UNL     1      24.249   9.026   9.508  1.00  0.00    -0.000 C 
BRANCH  20  21
ATOM     21  C   UNL     1      23.408   7.841  10.025  1.00  0.00    -0.000 C 
BRANCH  21  22
ATOM     22  C   UNL     1      22.206   7.454   9.140  1.00  0.00    -0.000 C 
BRANCH  22  23
ATOM     23  C   UNL     1      22.094   5.951   8.828  1.00  0.00    -0.000 C 
BRANCH  23  24
ATOM     24  C   UNL     1      22.935   5.533   7.610  1.00  0.00    -0.000 C 
BRANCH  24  25
ATOM     25  C   UNL     1      22.658   6.408   6.378  1.00  0.00    -0.003 C 
ATOM     26  C   UNL     1      21.239   6.233   5.839  1.00  0.00     0.004 C 
ENDBRANCH  24  25
ENDBRANCH  23  24
ENDBRANCH  22  23
ENDBRANCH  21  22
ENDBRANCH  20  21
ENDBRANCH  19  20
ENDBRANCH  18  19
ENDBRANCH  17  18
ENDBRANCH  16  17
ENDBRANCH  15  16
ENDBRANCH   1  15
TORSDOF 22
ENDMDL
MODEL 7
REMARK VINA RESULT:    -4.247      2.802      4.326
REMARK INTER + INTRA:         -13.542
REMARK INTER:                  -9.847
REMARK INTRA:                  -3.694
REMARK UNBOUND:                -3.834
REMARK SMILES CCCCCCCCCCCCCCCCCCCCCCCC(=O)[O-]
REMARK SMILES IDX 13 1 14 2 15 3 16 4 17 5 18 6 19 7 20 8 21 9 22 10 23 11
REMARK SMILES IDX 24 12 25 13 26 14 12 15 11 16 10 17 9 18 8 19 7 20 6 21 5 22
REMARK SMILES IDX 4 23 3 24 2 25 1 26
REMARK H PARENT
REMARK Flexibility Score: inf
ROOT
ATOM      1  C   UNL     1      28.064   3.723  10.053  1.00  0.00     0.000 C 
ENDROOT
BRANCH   1   2
ATOM      2  C   UNL     1      28.014   3.727   8.517  1.00  0.00     0.000 C 
BRANCH   2   3
ATOM      3  C   UNL     1      28.035   2.307   7.924  1.00  0.00     0.000 C 
BRANCH   3   4
ATOM      4  C   UNL     1      27.992   1.213   9.012  1.00  0.00     0.000 C 
BRANCH   4   5
ATOM      5  C   UNL     1      28.296  -0.204   8.485  1.00  0.00     0.000 C 
BRANCH   5   6
ATOM      6  C   UNL     1      27.093  -1.166   8.464  1.00  0.00     0.000 C 
BRANCH   6   7
ATOM      7  C   UNL     1      25.880  -0.678   7.650  1.00  0.00     0.000 C 
BRANCH   7   8
ATOM      8  C   UNL     1      26.050  -0.877   6.137  1.00  0.00     0.000 C 
BRANCH   8   9
ATOM      9  C   UNL     1      26.400   0.451   5.449  1.00  0.00     0.000 C 
BRANCH   9  10
ATOM     10  C   UNL     1      25.377   0.858   4.377  1.00  0.00     0.006 C 
BRANCH  10  11
ATOM     11  C   UNL     1      25.961   0.830   2.958  1.00  0.00     0.053 C 
BRANCH  11  12
ATOM     12  C   UNL     1      25.247  -0.184   2.119  1.00  0.00     0.041 C 
ATOM     13  O   UNL     1      24.761   0.145   1.004  1.00  0.00    -0.550 OA
ATOM     14  O   UNL     1      25.147  -1.502   2.553  1.00  0.00    -0.550 OA
ENDBRANCH  11  12
ENDBRANCH  10  11
ENDBRANCH   9  10
ENDBRANCH   8   9
ENDBRANCH   7   8
ENDBRANCH   6   7
ENDBRANCH   5   6
ENDBRANCH   4   5
ENDBRANCH   3   4
ENDBRANCH   2   3
ENDBRANCH   1   2
BRANCH   1  15
ATOM     15  C   UNL     1      27.536   5.035  10.664  1.00  0.00     0.000 C 
BRANCH  15  16
ATOM     16  C   UNL     1      26.004   5.141  10.584  1.00  0.00     0.000 C 
BRANCH  16  17
ATOM     17  C   UNL     1      25.541   6.452   9.923  1.00  0.00     0.000 C 
BRANCH  17  18
ATOM     18  C   UNL     1      26.631   7.091   9.050  1.00  0.00    -0.000 C 
BRANCH  18  19
ATOM     19  C   UNL     1      26.056   7.850   7.842  1.00  0.00    -0.000 C 
BRANCH  19  20
ATOM     20  C   UNL     1      26.402   7.182   6.500  1.00  0.00    -0.000 C 
BRANCH  20  21
ATOM     21  C   UNL     1      25.730   5.814   6.264  1.00  0.00    -0.000 C 
BRANCH  21  22
ATOM     22  C   UNL     1      24.253   5.726   6.699  1.00  0.00    -0.000 C 
BRANCH  22  23
ATOM     23  C   UNL     1      23.669   4.302   6.710  1.00  0.00    -0.000 C 
BRANCH  23  24
ATOM     24  C   UNL     1      24.687   3.246   7.173  1.00  0.00    -0.000 C 
BRANCH  24  25
ATOM     25  C   UNL     1      24.256   2.547   8.472  1.00  0.00    -0.003 C 
ATOM     26  C   UNL     1      23.205   3.340   9.247  1.00  0.00     0.004 C 
ENDBRANCH  24  25
ENDBRANCH  23  24
ENDBRANCH  22  23
ENDBRANCH  21  22
ENDBRANCH  20  21
ENDBRANCH  19  20
ENDBRANCH  18  19
ENDBRANCH  17  18
ENDBRANCH  16  17
ENDBRANCH  15  16
ENDBRANCH   1  15
TORSDOF 22
ENDMDL
MODEL 8
REMARK VINA RESULT:    -4.237      3.406      6.891
REMARK INTER + INTRA:         -13.519
REMARK INTER:                  -9.205
REMARK INTRA:                  -4.314
REMARK UNBOUND:                -3.834
REMARK SMILES CCCCCCCCCCCCCCCCCCCCCCCC(=O)[O-]
REMARK SMILES IDX 13 1 14 2 15 3 16 4 17 5 18 6 19 7 20 8 21 9 22 10 23 11
REMARK SMILES IDX 24 12 25 13 26 14 12 15 11 16 10 17 9 18 8 19 7 20 6 21 5 22
REMARK SMILES IDX 4 23 3 24 2 25 1 26
REMARK H PARENT
REMARK Flexibility Score: inf
ROOT
ATOM      1  C   UNL     1      23.814   3.395   8.297  1.00  0.00     0.000 C 
ENDROOT
BRANCH   1   2
ATOM      2  C   UNL     1      23.392   4.120   9.585  1.00  0.00     0.000 C 
BRANCH   2   3
ATOM      3  C   UNL     1      24.495   4.106  10.658  1.00  0.00     0.000 C 
BRANCH   3   4
ATOM      4  C   UNL     1      25.211   5.468  10.786  1.00  0.00     0.000 C 
BRANCH   4   5
ATOM      5  C   UNL     1      26.728   5.403  10.526  1.00  0.00     0.000 C 
BRANCH   5   6
ATOM      6  C   UNL     1      27.231   6.279   9.362  1.00  0.00     0.000 C 
BRANCH   6   7
ATOM      7  C   UNL     1      26.382   7.530   9.072  1.00  0.00     0.000 C 
BRANCH   7   8
ATOM      8  C   UNL     1      26.303   7.872   7.577  1.00  0.00     0.000 C 
BRANCH   8   9
ATOM      9  C   UNL     1      25.425   6.855   6.833  1.00  0.00     0.000 C 
BRANCH   9  10
ATOM     10  C   UNL     1      23.975   6.833   7.341  1.00  0.00     0.006 C 
BRANCH  10  11
ATOM     11  C   UNL     1      22.967   6.464   6.244  1.00  0.00     0.053 C 
BRANCH  11  12
ATOM     12  C   UNL     1      21.592   6.326   6.821  1.00  0.00     0.041 C 
ATOM     13  O   UNL     1      21.045   7.306   7.396  1.00  0.00    -0.550 OA
ATOM     14  O   UNL     1      20.901   5.126   6.697  1.00  0.00    -0.550 OA
ENDBRANCH  11  12
ENDBRANCH  10  11
ENDBRANCH   9  10
ENDBRANCH   8   9
ENDBRANCH   7   8
ENDBRANCH   6   7
ENDBRANCH   5   6
ENDBRANCH   4   5
ENDBRANCH   3   4
ENDBRANCH   2   3
ENDBRANCH   1   2
BRANCH   1  15
ATOM     15  C   UNL     1      25.200   2.735   8.419  1.00  0.00     0.000 C 
BRANCH  15  16
ATOM     16  C   UNL     1      26.188   3.252   7.360  1.00  0.00     0.000 C 
BRANCH  16  17
ATOM     17  C   UNL     1      27.648   2.902   7.700  1.00  0.00     0.000 C 
BRANCH  17  18
ATOM     18  C   UNL     1      27.763   1.945   8.895  1.00  0.00    -0.000 C 
BRANCH  18  19
ATOM     19  C   UNL     1      28.306   0.561   8.498  1.00  0.00    -0.000 C 
BRANCH  19  20
ATOM     20  C   UNL     1      27.270  -0.561   8.688  1.00  0.00    -0.000 C 
BRANCH  20  21
ATOM     21  C   UNL     1      26.250  -0.703   7.540  1.00  0.00    -0.000 C 
BRANCH  21  22
ATOM     22  C   UNL     1      26.862  -0.820   6.130  1.00  0.00    -0.000 C 
BRANCH  22  23
ATOM     23  C   UNL     1      26.552   0.362   5.193  1.00  0.00    -0.000 C 
BRANCH  23  24
ATOM     24  C   UNL     1      25.664  -0.040   4.004  1.00  0.00    -0.000 C 
BRANCH  24  25
ATOM     25  C   UNL     1      24.392   0.816   3.907  1.00  0.00    -0.003 C 
ATOM     26  C   UNL     1      23.814   1.169   5.277  1.00  0.00     0.004 C 
ENDBRANCH  24  25
ENDBRANCH  23  24
ENDBRANCH  22  23
ENDBRANCH  21  22
ENDBRANCH  20  21
ENDBRANCH  19  20
ENDBRANCH  18  19
ENDBRANCH  17  18
ENDBRANCH  16  17
ENDBRANCH  15  16
ENDBRANCH   1  15
TORSDOF 22
ENDMDL
MODEL 9
REMARK VINA RESULT:    -4.189      2.747      5.167
REMARK INTER + INTRA:         -13.410
REMARK INTER:                 -10.019
REMARK INTRA:                  -3.391
REMARK UNBOUND:                -3.834
REMARK SMILES CCCCCCCCCCCCCCCCCCCCCCCC(=O)[O-]
REMARK SMILES IDX 13 1 14 2 15 3 16 4 17 5 18 6 19 7 20 8 21 9 22 10 23 11
REMARK SMILES IDX 24 12 25 13 26 14 12 15 11 16 10 17 9 18 8 19 7 20 6 21 5 22
REMARK SMILES IDX 4 23 3 24 2 25 1 26
REMARK H PARENT
REMARK Flexibility Score: inf
ROOT
ATOM      1  C   UNL     1      26.574   1.803   8.115  1.00  0.00     0.000 C 
ENDROOT
BRANCH   1   2
ATOM      2  C   UNL     1      26.499   0.268   8.147  1.00  0.00     0.000 C 
BRANCH   2   3
ATOM      3  C   UNL     1      27.845  -0.380   8.514  1.00  0.00     0.000 C 
BRANCH   3   4
ATOM      4  C   UNL     1      27.671  -1.714   9.272  1.00  0.00     0.000 C 
BRANCH   4   5
ATOM      5  C   UNL     1      27.975  -2.962   8.420  1.00  0.00     0.000 C 
BRANCH   5   6
ATOM      6  C   UNL     1      28.744  -2.691   7.112  1.00  0.00     0.000 C 
BRANCH   6   7
ATOM      7  C   UNL     1      27.974  -3.025   5.821  1.00  0.00     0.000 C 
BRANCH   7   8
ATOM      8  C   UNL     1      26.463  -3.183   6.043  1.00  0.00     0.000 C 
BRANCH   8   9
ATOM      9  C   UNL     1      25.704  -1.959   5.511  1.00  0.00     0.000 C 
BRANCH   9  10
ATOM     10  C   UNL     1      26.416  -1.281   4.329  1.00  0.00     0.006 C 
BRANCH  10  11
ATOM     11  C   UNL     1      26.474   0.247   4.468  1.00  0.00     0.053 C 
BRANCH  11  12
ATOM     12  C   UNL     1      25.113   0.841   4.280  1.00  0.00     0.041 C 
ATOM     13  O   UNL     1      24.628   1.604   5.158  1.00  0.00    -0.550 OA
ATOM     14  O   UNL     1      24.391   0.578   3.121  1.00  0.00    -0.550 OA
ENDBRANCH  11  12
ENDBRANCH  10  11
ENDBRANCH   9  10
ENDBRANCH   8   9
ENDBRANCH   7   8
ENDBRANCH   6   7
ENDBRANCH   5   6
ENDBRANCH   4   5
ENDBRANCH   3   4
ENDBRANCH   2   3
ENDBRANCH   1   2
BRANCH   1  15
ATOM     15  C   UNL     1      28.001   2.328   8.356  1.00  0.00     0.000 C 
BRANCH  15  16
ATOM     16  C   UNL     1      28.010   3.769   8.893  1.00  0.00     0.000 C 
BRANCH  16  17
ATOM     17  C   UNL     1      28.410   3.839  10.378  1.00  0.00     0.000 C 
BRANCH  17  18
ATOM     18  C   UNL     1      27.960   5.145  11.050  1.00  0.00    -0.000 C 
BRANCH  18  19
ATOM     19  C   UNL     1      26.941   5.928  10.205  1.00  0.00    -0.000 C 
BRANCH  19  20
ATOM     20  C   UNL     1      25.485   5.650  10.620  1.00  0.00    -0.000 C 
BRANCH  20  21
ATOM     21  C   UNL     1      24.442   5.854   9.503  1.00  0.00    -0.000 C 
BRANCH  21  22
ATOM     22  C   UNL     1      24.387   4.734   8.444  1.00  0.00    -0.000 C 
BRANCH  22  23
ATOM     23  C   UNL     1      24.568   5.211   6.992  1.00  0.00    -0.000 C 
BRANCH  23  24
ATOM     24  C   UNL     1      26.047   5.352   6.593  1.00  0.00    -0.000 C 
BRANCH  24  25
ATOM     25  C   UNL     1      26.382   6.756   6.067  1.00  0.00    -0.003 C 
ATOM     26  C   UNL     1      26.170   7.844   7.118  1.00  0.00     0.004 C 
ENDBRANCH  24  25
ENDBRANCH  23  24
ENDBRANCH  22  23
ENDBRANCH  21  22
ENDBRANCH  20  21
ENDBRANCH  19  20
ENDBRANCH  18  19
ENDBRANCH  17  18
ENDBRANCH  16  17
ENDBRANCH  15  16
ENDBRANCH   1  15
TORSDOF 22
ENDMDL
