MODEL 1
REMARK VINA RESULT:    -4.320      0.000      0.000
REMARK INTER + INTRA:          -9.790
REMARK INTER:                  -7.856
REMARK INTRA:                  -1.934
REMARK UNBOUND:                -1.934
REMARK SMILES CCCCCCCCCCCCCCCC(=O)[O-]
REMARK SMILES IDX 9 1 10 2 11 3 12 4 13 5 14 6 15 7 16 8 17 9 18 10 8 11 7 12
REMARK SMILES IDX 6 13 5 14 4 15 3 16 2 17 1 18
REMARK H PARENT
REMARK Flexibility Score: inf
ROOT
ATOM      1  C   UNL     1     112.007 116.361 124.448  1.00  0.00     0.000 C 
ENDROOT
BRANCH   1   2
ATOM      2  C   UNL     1     112.315 116.762 123.000  1.00  0.00     0.000 C 
BRANCH   2   3
ATOM      3  C   UNL     1     111.640 118.094 122.643  1.00  0.00     0.000 C 
BRANCH   3   4
ATOM      4  C   UNL     1     111.175 118.871 123.884  1.00  0.00     0.000 C 
BRANCH   4   5
ATOM      5  C   UNL     1     111.909 120.214 124.049  1.00  0.00     0.000 C 
BRANCH   5   6
ATOM      6  C   UNL     1     113.061 120.149 125.069  1.00  0.00     0.006 C 
BRANCH   6   7
ATOM      7  C   UNL     1     114.457 120.063 124.427  1.00  0.00     0.053 C 
BRANCH   7   8
ATOM      8  C   UNL     1     115.017 121.410 124.085  1.00  0.00     0.041 C 
ATOM      9  O   UNL     1     115.891 121.521 123.185  1.00  0.00    -0.550 OA
ATOM     10  O   UNL     1     114.550 122.546 124.732  1.00  0.00    -0.550 OA
ENDBRANCH   7   8
ENDBRANCH   6   7
ENDBRANCH   5   6
ENDBRANCH   4   5
ENDBRANCH   3   4
ENDBRANCH   2   3
ENDBRANCH   1   2
BRANCH   1  11
ATOM     11  C   UNL     1     113.286 115.956 125.191  1.00  0.00     0.000 C 
BRANCH  11  12
ATOM     12  C   UNL     1     113.360 116.635 126.568  1.00  0.00    -0.000 C 
BRANCH  12  13
ATOM     13  C   UNL     1     111.987 117.116 127.064  1.00  0.00    -0.000 C 
BRANCH  13  14
ATOM     14  C   UNL     1     111.601 116.505 128.422  1.00  0.00    -0.000 C 
BRANCH  14  15
ATOM     15  C   UNL     1     112.824 116.050 129.232  1.00  0.00    -0.000 C 
BRANCH  15  16
ATOM     16  C   UNL     1     112.839 116.632 130.656  1.00  0.00    -0.000 C 
BRANCH  16  17
ATOM     17  C   UNL     1     113.938 117.688 130.851  1.00  0.00    -0.003 C 
ATOM     18  C   UNL     1     114.969 117.681 129.724  1.00  0.00     0.004 C 
ENDBRANCH  16  17
ENDBRANCH  15  16
ENDBRANCH  14  15
ENDBRANCH  13  14
ENDBRANCH  12  13
ENDBRANCH  11  12
ENDBRANCH   1  11
TORSDOF 14
ENDMDL
MODEL 2
REMARK VINA RESULT:    -4.308      2.857      6.242
REMARK INTER + INTRA:          -9.768
REMARK INTER:                  -7.597
REMARK INTRA:                  -2.170
REMARK UNBOUND:                -1.934
REMARK SMILES CCCCCCCCCCCCCCCC(=O)[O-]
REMARK SMILES IDX 9 1 10 2 11 3 12 4 13 5 14 6 15 7 16 8 17 9 18 10 8 11 7 12
REMARK SMILES IDX 6 13 5 14 4 15 3 16 2 17 1 18
REMARK H PARENT
REMARK Flexibility Score: inf
ROOT
ATOM      1  C   UNL     1     112.967 119.740 127.442  1.00  0.00     0.000 C 
ENDROOT
BRANCH   1   2
ATOM      2  C   UNL     1     111.797 119.018 128.122  1.00  0.00     0.000 C 
BRANCH   2   3
ATOM      3  C   UNL     1     111.604 117.611 127.537  1.00  0.00     0.000 C 
BRANCH   3   4
ATOM      4  C   UNL     1     111.450 116.536 128.624  1.00  0.00     0.000 C 
BRANCH   4   5
ATOM      5  C   UNL     1     112.801 116.083 129.203  1.00  0.00     0.000 C 
BRANCH   5   6
ATOM      6  C   UNL     1     113.017 116.536 130.659  1.00  0.00     0.006 C 
BRANCH   6   7
ATOM      7  C   UNL     1     114.011 117.702 130.808  1.00  0.00     0.053 C 
BRANCH   7   8
ATOM      8  C   UNL     1     115.412 117.312 130.449  1.00  0.00     0.041 C 
ATOM      9  O   UNL     1     115.986 116.376 131.067  1.00  0.00    -0.550 OA
ATOM     10  O   UNL     1     116.073 117.954 129.411  1.00  0.00    -0.550 OA
ENDBRANCH   7   8
ENDBRANCH   6   7
ENDBRANCH   5   6
ENDBRANCH   4   5
ENDBRANCH   3   4
ENDBRANCH   2   3
ENDBRANCH   1   2
BRANCH   1  11
ATOM     11  C   UNL     1     113.865 118.749 126.692  1.00  0.00     0.000 C 
BRANCH  11  12
ATOM     12  C   UNL     1     114.096 119.206 125.243  1.00  0.00    -0.000 C 
BRANCH  12  13
ATOM     13  C   UNL     1     113.037 120.211 124.764  1.00  0.00    -0.000 C 
BRANCH  13  14
ATOM     14  C   UNL     1     112.275 119.720 123.520  1.00  0.00    -0.000 C 
BRANCH  14  15
ATOM     15  C   UNL     1     111.576 118.372 123.752  1.00  0.00    -0.000 C 
BRANCH  15  16
ATOM     16  C   UNL     1     111.923 117.333 122.672  1.00  0.00    -0.000 C 
BRANCH  16  17
ATOM     17  C   UNL     1     112.819 116.205 123.204  1.00  0.00    -0.003 C 
ATOM     18  C   UNL     1     112.478 115.808 124.640  1.00  0.00     0.004 C 
ENDBRANCH  16  17
ENDBRANCH  15  16
ENDBRANCH  14  15
ENDBRANCH  13  14
ENDBRANCH  12  13
ENDBRANCH  11  12
ENDBRANCH   1  11
TORSDOF 14
ENDMDL
MODEL 3
REMARK VINA RESULT:    -4.276      2.113      5.444
REMARK INTER + INTRA:          -9.709
REMARK INTER:                  -7.611
REMARK INTRA:                  -2.099
REMARK UNBOUND:                -1.934
REMARK SMILES CCCCCCCCCCCCCCCC(=O)[O-]
REMARK SMILES IDX 9 1 10 2 11 3 12 4 13 5 14 6 15 7 16 8 17 9 18 10 8 11 7 12
REMARK SMILES IDX 6 13 5 14 4 15 3 16 2 17 1 18
REMARK H PARENT
REMARK Flexibility Score: inf
ROOT
ATOM      1  C   UNL     1     113.817 115.616 125.365  1.00  0.00     0.000 C 
ENDROOT
BRANCH   1   2
ATOM      2  C   UNL     1     113.624 116.412 126.662  1.00  0.00     0.000 C 
BRANCH   2   3
ATOM      3  C   UNL     1     112.149 116.789 126.861  1.00  0.00     0.000 C 
BRANCH   3   4
ATOM      4  C   UNL     1     111.627 116.414 128.256  1.00  0.00     0.000 C 
BRANCH   4   5
ATOM      5  C   UNL     1     112.754 115.986 129.213  1.00  0.00     0.000 C 
BRANCH   5   6
ATOM      6  C   UNL     1     112.807 116.831 130.499  1.00  0.00     0.006 C 
BRANCH   6   7
ATOM      7  C   UNL     1     114.165 117.511 130.743  1.00  0.00     0.053 C 
BRANCH   7   8
ATOM      8  C   UNL     1     114.686 118.208 129.524  1.00  0.00     0.041 C 
ATOM      9  O   UNL     1     115.834 117.937 129.081  1.00  0.00    -0.550 OA
ATOM     10  O   UNL     1     113.894 119.132 128.854  1.00  0.00    -0.550 OA
ENDBRANCH   7   8
ENDBRANCH   6   7
ENDBRANCH   5   6
ENDBRANCH   4   5
ENDBRANCH   3   4
ENDBRANCH   2   3
ENDBRANCH   1   2
BRANCH   1  11
ATOM     11  C   UNL     1     112.548 115.645 124.506  1.00  0.00     0.000 C 
BRANCH  11  12
ATOM     12  C   UNL     1     112.799 116.379 123.179  1.00  0.00    -0.000 C 
BRANCH  12  13
ATOM     13  C   UNL     1     111.549 117.109 122.662  1.00  0.00    -0.000 C 
BRANCH  13  14
ATOM     14  C   UNL     1     111.656 118.637 122.803  1.00  0.00    -0.000 C 
BRANCH  14  15
ATOM     15  C   UNL     1     111.160 119.138 124.168  1.00  0.00    -0.000 C 
BRANCH  15  16
ATOM     16  C   UNL     1     112.204 120.004 124.894  1.00  0.00    -0.000 C 
BRANCH  16  17
ATOM     17  C   UNL     1     113.644 119.650 124.494  1.00  0.00    -0.003 C 
ATOM     18  C   UNL     1     114.672 120.093 125.535  1.00  0.00     0.004 C 
ENDBRANCH  16  17
ENDBRANCH  15  16
ENDBRANCH  14  15
ENDBRANCH  13  14
ENDBRANCH  12  13
ENDBRANCH  11  12
ENDBRANCH   1  11
TORSDOF 14
ENDMDL
MODEL 4
REMARK VINA RESULT:    -4.269      1.286      2.896
REMARK INTER + INTRA:          -9.696
REMARK INTER:                  -7.556
REMARK INTRA:                  -2.140
REMARK UNBOUND:                -1.934
REMARK SMILES CCCCCCCCCCCCCCCC(=O)[O-]
REMARK SMILES IDX 9 1 10 2 11 3 12 4 13 5 14 6 15 7 16 8 17 9 18 10 8 11 7 12
REMARK SMILES IDX 6 13 5 14 4 15 3 16 2 17 1 18
REMARK H PARENT
REMARK Flexibility Score: inf
ROOT
ATOM      1  C   UNL     1     113.078 116.331 126.521  1.00  0.00     0.000 C 
ENDROOT
BRANCH   1   2
ATOM      2  C   UNL     1     112.515 115.603 125.294  1.00  0.00     0.000 C 
BRANCH   2   3
ATOM      3  C   UNL     1     113.516 115.632 124.130  1.00  0.00     0.000 C 
BRANCH   3   4
ATOM      4  C   UNL     1     112.915 116.233 122.850  1.00  0.00     0.000 C 
BRANCH   4   5
ATOM      5  C   UNL     1     111.597 116.984 123.111  1.00  0.00     0.000 C 
BRANCH   5   6
ATOM      6  C   UNL     1     111.731 118.510 122.950  1.00  0.00     0.006 C 
BRANCH   6   7
ATOM      7  C   UNL     1     111.726 119.280 124.282  1.00  0.00     0.053 C 
BRANCH   7   8
ATOM      8  C   UNL     1     113.066 119.859 124.617  1.00  0.00     0.041 C 
ATOM      9  O   UNL     1     113.164 121.064 124.973  1.00  0.00    -0.550 OA
ATOM     10  O   UNL     1     114.203 119.063 124.572  1.00  0.00    -0.550 OA
ENDBRANCH   7   8
ENDBRANCH   6   7
ENDBRANCH   5   6
ENDBRANCH   4   5
ENDBRANCH   3   4
ENDBRANCH   2   3
ENDBRANCH   1   2
BRANCH   1  11
ATOM     11  C   UNL     1     111.967 117.055 127.291  1.00  0.00     0.000 C 
BRANCH  11  12
ATOM     12  C   UNL     1     111.558 116.262 128.543  1.00  0.00    -0.000 C 
BRANCH  12  13
ATOM     13  C   UNL     1     112.729 116.052 129.516  1.00  0.00    -0.000 C 
BRANCH  13  14
ATOM     14  C   UNL     1     112.890 117.217 130.507  1.00  0.00    -0.000 C 
BRANCH  14  15
ATOM     15  C   UNL     1     114.346 117.693 130.626  1.00  0.00    -0.000 C 
BRANCH  15  16
ATOM     16  C   UNL     1     115.198 117.294 129.409  1.00  0.00    -0.000 C 
BRANCH  16  17
ATOM     17  C   UNL     1     115.750 118.510 128.650  1.00  0.00    -0.003 C 
ATOM     18  C   UNL     1     114.649 119.375 128.039  1.00  0.00     0.004 C 
ENDBRANCH  16  17
ENDBRANCH  15  16
ENDBRANCH  14  15
ENDBRANCH  13  14
ENDBRANCH  12  13
ENDBRANCH  11  12
ENDBRANCH   1  11
TORSDOF 14
ENDMDL
MODEL 5
REMARK VINA RESULT:    -4.211      2.365      3.744
REMARK INTER + INTRA:          -9.591
REMARK INTER:                  -7.434
REMARK INTRA:                  -2.157
REMARK UNBOUND:                -1.934
REMARK SMILES CCCCCCCCCCCCCCCC(=O)[O-]
REMARK SMILES IDX 9 1 10 2 11 3 12 4 13 5 14 6 15 7 16 8 17 9 18 10 8 11 7 12
REMARK SMILES IDX 6 13 5 14 4 15 3 16 2 17 1 18
REMARK H PARENT
REMARK Flexibility Score: inf
ROOT
ATOM      1  C   UNL     1     113.794 119.742 126.858  1.00  0.00     0.000 C 
ENDROOT
BRANCH   1   2
ATOM      2  C   UNL     1     113.441 120.671 125.690  1.00  0.00     0.000 C 
BRANCH   2   3
ATOM      3  C   UNL     1     113.655 119.966 124.342  1.00  0.00     0.000 C 
BRANCH   3   4
ATOM      4  C   UNL     1     112.364 119.866 123.516  1.00  0.00     0.000 C 
BRANCH   4   5
ATOM      5  C   UNL     1     111.489 118.670 123.931  1.00  0.00     0.000 C 
BRANCH   5   6
ATOM      6  C   UNL     1     111.816 117.384 123.149  1.00  0.00     0.006 C 
BRANCH   6   7
ATOM      7  C   UNL     1     112.148 116.177 124.045  1.00  0.00     0.053 C 
BRANCH   7   8
ATOM      8  C   UNL     1     113.603 115.822 124.016  1.00  0.00     0.041 C 
ATOM      9  O   UNL     1     114.450 116.578 124.563  1.00  0.00    -0.550 OA
ATOM     10  O   UNL     1     114.023 114.641 123.419  1.00  0.00    -0.550 OA
ENDBRANCH   7   8
ENDBRANCH   6   7
ENDBRANCH   5   6
ENDBRANCH   4   5
ENDBRANCH   3   4
ENDBRANCH   2   3
ENDBRANCH   1   2
BRANCH   1  11
ATOM     11  C   UNL     1     112.725 119.806 127.955  1.00  0.00     0.000 C 
BRANCH  11  12
ATOM     12  C   UNL     1     111.551 118.867 127.635  1.00  0.00    -0.000 C 
BRANCH  12  13
ATOM     13  C   UNL     1     111.999 117.412 127.424  1.00  0.00    -0.000 C 
BRANCH  13  14
ATOM     14  C   UNL     1     111.552 116.484 128.567  1.00  0.00    -0.000 C 
BRANCH  14  15
ATOM     15  C   UNL     1     112.704 116.125 129.518  1.00  0.00    -0.000 C 
BRANCH  15  16
ATOM     16  C   UNL     1     112.803 117.086 130.715  1.00  0.00    -0.000 C 
BRANCH  16  17
ATOM     17  C   UNL     1     114.178 117.765 130.814  1.00  0.00    -0.003 C 
ATOM     18  C   UNL     1     115.102 117.400 129.653  1.00  0.00     0.004 C 
ENDBRANCH  16  17
ENDBRANCH  15  16
ENDBRANCH  14  15
ENDBRANCH  13  14
ENDBRANCH  12  13
ENDBRANCH  11  12
ENDBRANCH   1  11
TORSDOF 14
ENDMDL
MODEL 6
REMARK VINA RESULT:    -4.191      2.395      5.863
REMARK INTER + INTRA:          -9.555
REMARK INTER:                  -7.131
REMARK INTRA:                  -2.423
REMARK UNBOUND:                -1.934
REMARK SMILES CCCCCCCCCCCCCCCC(=O)[O-]
REMARK SMILES IDX 9 1 10 2 11 3 12 4 13 5 14 6 15 7 16 8 17 9 18 10 8 11 7 12
REMARK SMILES IDX 6 13 5 14 4 15 3 16 2 17 1 18
REMARK H PARENT
REMARK Flexibility Score: inf
ROOT
ATOM      1  C   UNL     1     112.859 115.969 129.571  1.00  0.00     0.000 C 
ENDROOT
BRANCH   1   2
ATOM      2  C   UNL     1     112.835 117.281 130.365  1.00  0.00     0.000 C 
BRANCH   2   3
ATOM      3  C   UNL     1     114.254 117.839 130.549  1.00  0.00     0.000 C 
BRANCH   3   4
ATOM      4  C   UNL     1     115.154 117.576 129.332  1.00  0.00     0.000 C 
BRANCH   4   5
ATOM      5  C   UNL     1     114.957 118.618 128.216  1.00  0.00     0.000 C 
BRANCH   5   6
ATOM      6  C   UNL     1     115.259 118.062 126.812  1.00  0.00     0.006 C 
BRANCH   6   7
ATOM      7  C   UNL     1     115.242 116.525 126.733  1.00  0.00     0.053 C 
BRANCH   7   8
ATOM      8  C   UNL     1     114.705 116.023 125.428  1.00  0.00     0.041 C 
ATOM      9  O   UNL     1     113.646 115.342 125.399  1.00  0.00    -0.550 OA
ATOM     10  O   UNL     1     115.352 116.335 124.239  1.00  0.00    -0.550 OA
ENDBRANCH   7   8
ENDBRANCH   6   7
ENDBRANCH   5   6
ENDBRANCH   4   5
ENDBRANCH   3   4
ENDBRANCH   2   3
ENDBRANCH   1   2
BRANCH   1  11
ATOM     11  C   UNL     1     111.881 116.022 128.390  1.00  0.00     0.000 C 
BRANCH  11  12
ATOM     12  C   UNL     1     111.431 117.464 128.113  1.00  0.00    -0.000 C 
BRANCH  12  13
ATOM     13  C   UNL     1     111.604 117.864 126.639  1.00  0.00    -0.000 C 
BRANCH  13  14
ATOM     14  C   UNL     1     111.659 119.389 126.443  1.00  0.00    -0.000 C 
BRANCH  14  15
ATOM     15  C   UNL     1     111.898 119.785 124.978  1.00  0.00    -0.000 C 
BRANCH  15  16
ATOM     16  C   UNL     1     112.519 118.646 124.151  1.00  0.00    -0.000 C 
BRANCH  16  17
ATOM     17  C   UNL     1     111.640 118.232 122.962  1.00  0.00    -0.003 C 
ATOM     18  C   UNL     1     111.937 116.815 122.473  1.00  0.00     0.004 C 
ENDBRANCH  16  17
ENDBRANCH  15  16
ENDBRANCH  14  15
ENDBRANCH  13  14
ENDBRANCH  12  13
ENDBRANCH  11  12
ENDBRANCH   1  11
TORSDOF 14
ENDMDL
MODEL 7
REMARK VINA RESULT:    -4.187      1.768      3.755
REMARK INTER + INTRA:          -9.549
REMARK INTER:                  -7.239
REMARK INTRA:                  -2.310
REMARK UNBOUND:                -1.934
REMARK SMILES CCCCCCCCCCCCCCCC(=O)[O-]
REMARK SMILES IDX 9 1 10 2 11 3 12 4 13 5 14 6 15 7 16 8 17 9 18 10 8 11 7 12
REMARK SMILES IDX 6 13 5 14 4 15 3 16 2 17 1 18
REMARK H PARENT
REMARK Flexibility Score: inf
ROOT
ATOM      1  C   UNL     1     115.162 118.841 128.039  1.00  0.00     0.000 C 
ENDROOT
BRANCH   1   2
ATOM      2  C   UNL     1     114.009 119.852 128.015  1.00  0.00     0.000 C 
BRANCH   2   3
ATOM      3  C   UNL     1     114.183 120.858 126.868  1.00  0.00     0.000 C 
BRANCH   3   4
ATOM      4  C   UNL     1     113.276 120.548 125.668  1.00  0.00     0.000 C 
BRANCH   4   5
ATOM      5  C   UNL     1     114.073 120.189 124.401  1.00  0.00     0.000 C 
BRANCH   5   6
ATOM      6  C   UNL     1     115.504 120.758 124.408  1.00  0.00     0.006 C 
BRANCH   6   7
ATOM      7  C   UNL     1     115.742 121.856 123.356  1.00  0.00     0.053 C 
BRANCH   7   8
ATOM      8  C   UNL     1     115.797 123.227 123.958  1.00  0.00     0.041 C 
ATOM      9  O   UNL     1     116.889 123.852 124.010  1.00  0.00    -0.550 OA
ATOM     10  O   UNL     1     114.639 123.831 124.429  1.00  0.00    -0.550 OA
ENDBRANCH   7   8
ENDBRANCH   6   7
ENDBRANCH   5   6
ENDBRANCH   4   5
ENDBRANCH   3   4
ENDBRANCH   2   3
ENDBRANCH   1   2
BRANCH   1  11
ATOM     11  C   UNL     1     114.912 117.745 129.082  1.00  0.00     0.000 C 
BRANCH  11  12
ATOM     12  C   UNL     1     113.475 117.817 129.622  1.00  0.00    -0.000 C 
BRANCH  12  13
ATOM     13  C   UNL     1     112.833 116.429 129.779  1.00  0.00    -0.000 C 
BRANCH  13  14
ATOM     14  C   UNL     1     111.967 116.038 128.570  1.00  0.00    -0.000 C 
BRANCH  14  15
ATOM     15  C   UNL     1     111.452 117.259 127.794  1.00  0.00    -0.000 C 
BRANCH  15  16
ATOM     16  C   UNL     1     111.938 117.279 126.334  1.00  0.00    -0.000 C 
BRANCH  16  17
ATOM     17  C   UNL     1     112.776 116.043 125.974  1.00  0.00    -0.003 C 
ATOM     18  C   UNL     1     114.160 116.404 125.436  1.00  0.00     0.004 C 
ENDBRANCH  16  17
ENDBRANCH  15  16
ENDBRANCH  14  15
ENDBRANCH  13  14
ENDBRANCH  12  13
ENDBRANCH  11  12
ENDBRANCH   1  11
TORSDOF 14
ENDMDL
MODEL 8
REMARK VINA RESULT:    -4.174      3.636      6.491
REMARK INTER + INTRA:          -9.524
REMARK INTER:                  -7.544
REMARK INTRA:                  -1.979
REMARK UNBOUND:                -1.934
REMARK SMILES CCCCCCCCCCCCCCCC(=O)[O-]
REMARK SMILES IDX 9 1 10 2 11 3 12 4 13 5 14 6 15 7 16 8 17 9 18 10 8 11 7 12
REMARK SMILES IDX 6 13 5 14 4 15 3 16 2 17 1 18
REMARK H PARENT
REMARK Flexibility Score: inf
ROOT
ATOM      1  C   UNL     1     114.801 119.867 124.831  1.00  0.00     0.000 C 
ENDROOT
BRANCH   1   2
ATOM      2  C   UNL     1     113.655 120.480 124.016  1.00  0.00     0.000 C 
BRANCH   2   3
ATOM      3  C   UNL     1     112.323 120.372 124.772  1.00  0.00     0.000 C 
BRANCH   3   4
ATOM      4  C   UNL     1     111.174 119.885 123.876  1.00  0.00     0.000 C 
BRANCH   4   5
ATOM      5  C   UNL     1     111.672 119.087 122.659  1.00  0.00     0.000 C 
BRANCH   5   6
ATOM      6  C   UNL     1     111.493 117.566 122.821  1.00  0.00     0.006 C 
BRANCH   6   7
ATOM      7  C   UNL     1     112.724 116.853 123.409  1.00  0.00     0.053 C 
BRANCH   7   8
ATOM      8  C   UNL     1     112.447 116.238 124.747  1.00  0.00     0.041 C 
ATOM      9  O   UNL     1     112.695 115.020 124.947  1.00  0.00    -0.550 OA
ATOM     10  O   UNL     1     111.951 117.016 125.785  1.00  0.00    -0.550 OA
ENDBRANCH   7   8
ENDBRANCH   6   7
ENDBRANCH   5   6
ENDBRANCH   4   5
ENDBRANCH   3   4
ENDBRANCH   2   3
ENDBRANCH   1   2
BRANCH   1  11
ATOM     11  C   UNL     1     116.164 120.335 124.305  1.00  0.00     0.000 C 
BRANCH  11  12
ATOM     12  C   UNL     1     116.008 121.559 123.388  1.00  0.00    -0.000 C 
BRANCH  12  13
ATOM     13  C   UNL     1     117.274 122.430 123.347  1.00  0.00    -0.000 C 
BRANCH  13  14
ATOM     14  C   UNL     1     117.046 123.832 123.939  1.00  0.00    -0.000 C 
BRANCH  14  15
ATOM     15  C   UNL     1     117.021 123.826 125.475  1.00  0.00    -0.000 C 
BRANCH  15  16
ATOM     16  C   UNL     1     115.804 124.572 126.048  1.00  0.00    -0.000 C 
BRANCH  16  17
ATOM     17  C   UNL     1     114.555 123.683 126.138  1.00  0.00    -0.003 C 
ATOM     18  C   UNL     1     113.526 123.998 125.053  1.00  0.00     0.004 C 
ENDBRANCH  16  17
ENDBRANCH  15  16
ENDBRANCH  14  15
ENDBRANCH  13  14
ENDBRANCH  12  13
ENDBRANCH  11  12
ENDBRANCH   1  11
TORSDOF 14
ENDMDL
MODEL 9
REMARK VINA RESULT:    -4.138      1.379      2.536
REMARK INTER + INTRA:          -9.459
REMARK INTER:                  -7.335
REMARK INTRA:                  -2.123
REMARK UNBOUND:                -1.934
REMARK SMILES CCCCCCCCCCCCCCCC(=O)[O-]
REMARK SMILES IDX 9 1 10 2 11 3 12 4 13 5 14 6 15 7 16 8 17 9 18 10 8 11 7 12
REMARK SMILES IDX 6 13 5 14 4 15 3 16 2 17 1 18
REMARK H PARENT
REMARK Flexibility Score: inf
ROOT
ATOM      1  C   UNL     1     112.377 116.675 126.236  1.00  0.00     0.000 C 
ENDROOT
BRANCH   1   2
ATOM      2  C   UNL     1     112.117 117.600 125.040  1.00  0.00     0.000 C 
BRANCH   2   3
ATOM      3  C   UNL     1     111.448 118.907 125.492  1.00  0.00     0.000 C 
BRANCH   3   4
ATOM      4  C   UNL     1     111.900 120.118 124.662  1.00  0.00     0.000 C 
BRANCH   4   5
ATOM      5  C   UNL     1     113.412 120.107 124.377  1.00  0.00     0.000 C 
BRANCH   5   6
ATOM      6  C   UNL     1     114.104 121.435 124.737  1.00  0.00     0.006 C 
BRANCH   6   7
ATOM      7  C   UNL     1     115.607 121.463 124.412  1.00  0.00     0.053 C 
BRANCH   7   8
ATOM      8  C   UNL     1     116.054 122.787 123.870  1.00  0.00     0.041 C 
ATOM      9  O   UNL     1     115.322 123.804 124.002  1.00  0.00    -0.550 OA
ATOM     10  O   UNL     1     117.291 122.908 123.252  1.00  0.00    -0.550 OA
ENDBRANCH   7   8
ENDBRANCH   6   7
ENDBRANCH   5   6
ENDBRANCH   4   5
ENDBRANCH   3   4
ENDBRANCH   2   3
ENDBRANCH   1   2
BRANCH   1  11
ATOM     11  C   UNL     1     111.615 117.152 127.478  1.00  0.00     0.000 C 
BRANCH  11  12
ATOM     12  C   UNL     1     111.676 116.101 128.598  1.00  0.00    -0.000 C 
BRANCH  12  13
ATOM     13  C   UNL     1     113.071 115.998 129.235  1.00  0.00    -0.000 C 
BRANCH  13  14
ATOM     14  C   UNL     1     113.275 117.006 130.379  1.00  0.00    -0.000 C 
BRANCH  14  15
ATOM     15  C   UNL     1     114.397 118.013 130.082  1.00  0.00    -0.000 C 
BRANCH  15  16
ATOM     16  C   UNL     1     115.121 117.718 128.758  1.00  0.00    -0.000 C 
BRANCH  16  17
ATOM     17  C   UNL     1     114.972 118.855 127.737  1.00  0.00    -0.003 C 
ATOM     18  C   UNL     1     113.886 119.858 128.125  1.00  0.00     0.004 C 
ENDBRANCH  16  17
ENDBRANCH  15  16
ENDBRANCH  14  15
ENDBRANCH  13  14
ENDBRANCH  12  13
ENDBRANCH  11  12
ENDBRANCH   1  11
TORSDOF 14
ENDMDL
