MODEL 1
REMARK VINA RESULT:    -6.361      0.000      0.000
REMARK INTER + INTRA:          -7.733
REMARK INTER:                  -7.477
REMARK INTRA:                  -0.255
REMARK UNBOUND:                -0.255
REMARK SMILES O=c1c(O)c(-c2ccc(O)cc2)oc2cc(O)cc(O)c12
REMARK SMILES IDX 5 1 3 2 2 3 1 4 21 5 19 6 18 7 16 8 15 9 14 10 13 11 6 12
REMARK SMILES IDX 7 13 8 14 9 15 12 16 11 17 10 18 4 20 20 22 17 24
REMARK H PARENT 10 19 4 21 20 23 17 25
REMARK Flexibility Score: inf
ROOT
ATOM      1  C   UNL     1      -1.347  11.155 -43.256  1.00  0.00     0.180 A 
ATOM      2  C   UNL     1      -2.043  10.136 -42.582  1.00  0.00     0.208 A 
ATOM      3  C   UNL     1      -3.446  10.156 -42.581  1.00  0.00     0.238 A 
ATOM      4  O   UNL     1      -4.065   9.212 -42.023  1.00  0.00    -0.285 OA
ATOM      5  C   UNL     1      -4.137  11.202 -43.240  1.00  0.00     0.111 A 
ATOM      6  C   UNL     1      -5.557  11.344 -43.269  1.00  0.00     0.134 A 
ATOM      7  C   UNL     1      -6.135  12.344 -44.060  1.00  0.00     0.093 A 
ATOM      8  C   UNL     1      -5.345  13.248 -44.770  1.00  0.00     0.123 A 
ATOM      9  C   UNL     1      -3.954  13.155 -44.702  1.00  0.00     0.094 A 
ATOM     10  C   UNL     1      -3.349  12.146 -43.949  1.00  0.00     0.146 A 
ATOM     11  O   UNL     1      -2.023  12.086 -43.919  1.00  0.00    -0.452 OA
ENDROOT
BRANCH   1  12
ATOM     12  C   UNL     1       0.133  11.216 -43.279  1.00  0.00     0.021 A 
ATOM     13  C   UNL     1       0.866  11.665 -42.165  1.00  0.00     0.016 A 
ATOM     14  C   UNL     1       2.261  11.737 -42.220  1.00  0.00     0.047 A 
ATOM     15  C   UNL     1       2.940  11.375 -43.387  1.00  0.00     0.115 A 
ATOM     16  C   UNL     1       0.820  10.874 -44.456  1.00  0.00     0.016 A 
ATOM     17  C   UNL     1       2.215  10.946 -44.507  1.00  0.00     0.047 A 
BRANCH  15  18
ATOM     18  O   UNL     1       4.330  11.451 -43.427  1.00  0.00    -0.508 OA
ATOM     19  H   UNL     1       4.896  11.212 -42.621  1.00  0.00     0.293 HD
ENDBRANCH  15  18
ENDBRANCH   1  12
BRANCH   2  20
ATOM     20  O   UNL     1      -1.343   9.101 -41.957  1.00  0.00    -0.502 OA
ATOM     21  H   UNL     1      -0.524   8.670 -42.370  1.00  0.00     0.293 HD
ENDBRANCH   2  20
BRANCH   6  22
ATOM     22  O   UNL     1      -6.436  10.552 -42.523  1.00  0.00    -0.507 OA
ATOM     23  H   UNL     1      -7.055   9.858 -42.912  1.00  0.00     0.293 HD
ENDBRANCH   6  22
BRANCH   8  24
ATOM     24  O   UNL     1      -5.954  14.239 -45.536  1.00  0.00    -0.508 OA
ATOM     25  H   UNL     1      -6.153  14.103 -46.520  1.00  0.00     0.293 HD
ENDBRANCH   8  24
TORSDOF 5
ENDMDL
MODEL 2
REMARK VINA RESULT:    -6.202      2.687      5.771
REMARK INTER + INTRA:          -7.545
REMARK INTER:                  -7.256
REMARK INTRA:                  -0.289
REMARK UNBOUND:                -0.255
REMARK SMILES O=c1c(O)c(-c2ccc(O)cc2)oc2cc(O)cc(O)c12
REMARK SMILES IDX 5 1 3 2 2 3 1 4 21 5 19 6 18 7 16 8 15 9 14 10 13 11 6 12
REMARK SMILES IDX 7 13 8 14 9 15 12 16 11 17 10 18 4 20 20 22 17 24
REMARK H PARENT 10 19 4 21 20 23 17 25
REMARK Flexibility Score: inf
ROOT
ATOM      1  C   UNL     1      -3.982  13.324 -45.303  1.00  0.00     0.180 A 
ATOM      2  C   UNL     1      -5.293  13.275 -44.799  1.00  0.00     0.208 A 
ATOM      3  C   UNL     1      -5.608  12.331 -43.809  1.00  0.00     0.238 A 
ATOM      4  O   UNL     1      -6.769  12.327 -43.323  1.00  0.00    -0.285 OA
ATOM      5  C   UNL     1      -4.612  11.436 -43.348  1.00  0.00     0.111 A 
ATOM      6  C   UNL     1      -4.829  10.412 -42.377  1.00  0.00     0.134 A 
ATOM      7  C   UNL     1      -3.741   9.670 -41.901  1.00  0.00     0.093 A 
ATOM      8  C   UNL     1      -2.456   9.870 -42.405  1.00  0.00     0.123 A 
ATOM      9  C   UNL     1      -2.243  10.828 -43.397  1.00  0.00     0.094 A 
ATOM     10  C   UNL     1      -3.302  11.608 -43.867  1.00  0.00     0.146 A 
ATOM     11  O   UNL     1      -3.054  12.516 -44.803  1.00  0.00    -0.452 OA
ENDROOT
BRANCH   1  12
ATOM     12  C   UNL     1      -3.581  14.275 -46.365  1.00  0.00     0.021 A 
ATOM     13  C   UNL     1      -3.120  15.568 -46.055  1.00  0.00     0.016 A 
ATOM     14  C   UNL     1      -2.771  16.457 -47.076  1.00  0.00     0.047 A 
ATOM     15  C   UNL     1      -2.889  16.074 -48.415  1.00  0.00     0.115 A 
ATOM     16  C   UNL     1      -3.717  13.905 -47.714  1.00  0.00     0.016 A 
ATOM     17  C   UNL     1      -3.366  14.795 -48.732  1.00  0.00     0.047 A 
BRANCH  15  18
ATOM     18  O   UNL     1      -2.536  16.970 -49.422  1.00  0.00    -0.508 OA
ATOM     19  H   UNL     1      -1.751  17.603 -49.316  1.00  0.00     0.293 HD
ENDBRANCH  15  18
ENDBRANCH   1  12
BRANCH   2  20
ATOM     20  O   UNL     1      -6.256  14.182 -45.253  1.00  0.00    -0.502 OA
ATOM     21  H   UNL     1      -6.066  15.172 -45.353  1.00  0.00     0.293 HD
ENDBRANCH   2  20
BRANCH   6  22
ATOM     22  O   UNL     1      -6.088  10.067 -41.875  1.00  0.00    -0.507 OA
ATOM     23  H   UNL     1      -6.767  10.726 -41.526  1.00  0.00     0.293 HD
ENDBRANCH   6  22
BRANCH   8  24
ATOM     24  O   UNL     1      -1.400   9.104 -41.917  1.00  0.00    -0.508 OA
ATOM     25  H   UNL     1      -1.179   8.196 -42.310  1.00  0.00     0.293 HD
ENDBRANCH   8  24
TORSDOF 5
ENDMDL
MODEL 3
REMARK VINA RESULT:    -6.140      4.872      8.311
REMARK INTER + INTRA:          -7.473
REMARK INTER:                  -7.196
REMARK INTRA:                  -0.277
REMARK UNBOUND:                -0.255
REMARK SMILES O=c1c(O)c(-c2ccc(O)cc2)oc2cc(O)cc(O)c12
REMARK SMILES IDX 5 1 3 2 2 3 1 4 21 5 19 6 18 7 16 8 15 9 14 10 13 11 6 12
REMARK SMILES IDX 7 13 8 14 9 15 12 16 11 17 10 18 4 20 20 22 17 24
REMARK H PARENT 10 19 4 21 20 23 17 25
REMARK Flexibility Score: inf
ROOT
ATOM      1  C   UNL     1       0.636  14.931 -46.652  1.00  0.00     0.180 A 
ATOM      2  C   UNL     1       1.651  15.752 -46.132  1.00  0.00     0.208 A 
ATOM      3  C   UNL     1       2.639  15.180 -45.315  1.00  0.00     0.238 A 
ATOM      4  O   UNL     1       3.575  15.909 -44.896  1.00  0.00    -0.285 OA
ATOM      5  C   UNL     1       2.591  13.796 -45.015  1.00  0.00     0.111 A 
ATOM      6  C   UNL     1       3.516  13.118 -44.166  1.00  0.00     0.134 A 
ATOM      7  C   UNL     1       3.448  11.725 -44.045  1.00  0.00     0.093 A 
ATOM      8  C   UNL     1       2.451  10.993 -44.689  1.00  0.00     0.123 A 
ATOM      9  C   UNL     1       1.505  11.653 -45.474  1.00  0.00     0.094 A 
ATOM     10  C   UNL     1       1.567  13.038 -45.643  1.00  0.00     0.146 A 
ATOM     11  O   UNL     1       0.655  13.626 -46.407  1.00  0.00    -0.452 OA
ENDROOT
BRANCH   1  12
ATOM     12  C   UNL     1      -0.454  15.467 -47.500  1.00  0.00     0.021 A 
ATOM     13  C   UNL     1      -1.567  16.119 -46.938  1.00  0.00     0.016 A 
ATOM     14  C   UNL     1      -2.595  16.595 -47.757  1.00  0.00     0.047 A 
ATOM     15  C   UNL     1      -2.533  16.415 -49.142  1.00  0.00     0.115 A 
ATOM     16  C   UNL     1      -0.408  15.271 -48.890  1.00  0.00     0.016 A 
ATOM     17  C   UNL     1      -1.437  15.749 -49.707  1.00  0.00     0.047 A 
BRANCH  15  18
ATOM     18  O   UNL     1      -3.564  16.895 -49.946  1.00  0.00    -0.508 OA
ATOM     19  H   UNL     1      -4.308  17.469 -49.566  1.00  0.00     0.293 HD
ENDBRANCH  15  18
ENDBRANCH   1  12
BRANCH   2  20
ATOM     20  O   UNL     1       1.693  17.111 -46.457  1.00  0.00    -0.502 OA
ATOM     21  H   UNL     1       0.942  17.575 -46.954  1.00  0.00     0.293 HD
ENDBRANCH   2  20
BRANCH   6  22
ATOM     22  O   UNL     1       4.494  13.764 -43.404  1.00  0.00    -0.507 OA
ATOM     23  H   UNL     1       4.846  13.432 -42.519  1.00  0.00     0.293 HD
ENDBRANCH   6  22
BRANCH   8  24
ATOM     24  O   UNL     1       2.405   9.609 -44.534  1.00  0.00    -0.508 OA
ATOM     25  H   UNL     1       3.175   9.096 -44.118  1.00  0.00     0.293 HD
ENDBRANCH   8  24
TORSDOF 5
ENDMDL
MODEL 4
REMARK VINA RESULT:    -5.951      4.195      7.071
REMARK INTER + INTRA:          -7.250
REMARK INTER:                  -6.953
REMARK INTRA:                  -0.298
REMARK UNBOUND:                -0.255
REMARK SMILES O=c1c(O)c(-c2ccc(O)cc2)oc2cc(O)cc(O)c12
REMARK SMILES IDX 5 1 3 2 2 3 1 4 21 5 19 6 18 7 16 8 15 9 14 10 13 11 6 12
REMARK SMILES IDX 7 13 8 14 9 15 12 16 11 17 10 18 4 20 20 22 17 24
REMARK H PARENT 10 19 4 21 20 23 17 25
REMARK Flexibility Score: inf
ROOT
ATOM      1  C   UNL     1      -4.653  13.431 -45.751  1.00  0.00     0.180 A 
ATOM      2  C   UNL     1      -4.117  14.686 -45.411  1.00  0.00     0.208 A 
ATOM      3  C   UNL     1      -3.705  15.550 -46.437  1.00  0.00     0.238 A 
ATOM      4  O   UNL     1      -3.276  16.693 -46.129  1.00  0.00    -0.285 OA
ATOM      5  C   UNL     1      -3.819  15.145 -47.789  1.00  0.00     0.111 A 
ATOM      6  C   UNL     1      -3.395  15.924 -48.908  1.00  0.00     0.134 A 
ATOM      7  C   UNL     1      -3.675  15.478 -50.205  1.00  0.00     0.093 A 
ATOM      8  C   UNL     1      -4.304  14.254 -50.427  1.00  0.00     0.123 A 
ATOM      9  C   UNL     1      -4.669  13.456 -49.341  1.00  0.00     0.094 A 
ATOM     10  C   UNL     1      -4.435  13.890 -48.034  1.00  0.00     0.146 A 
ATOM     11  O   UNL     1      -4.808  13.107 -47.029  1.00  0.00    -0.452 OA
ENDROOT
BRANCH   1  12
ATOM     12  C   UNL     1      -5.086  12.455 -44.725  1.00  0.00     0.021 A 
ATOM     13  C   UNL     1      -4.180  11.546 -44.149  1.00  0.00     0.016 A 
ATOM     14  C   UNL     1      -4.618  10.617 -43.200  1.00  0.00     0.047 A 
ATOM     15  C   UNL     1      -5.963  10.576 -42.823  1.00  0.00     0.115 A 
ATOM     16  C   UNL     1      -6.441  12.393 -44.357  1.00  0.00     0.016 A 
ATOM     17  C   UNL     1      -6.875  11.465 -43.406  1.00  0.00     0.047 A 
BRANCH  15  18
ATOM     18  O   UNL     1      -6.385   9.646 -41.875  1.00  0.00    -0.508 OA
ATOM     19  H   UNL     1      -6.800   8.763 -42.149  1.00  0.00     0.293 HD
ENDBRANCH  15  18
ENDBRANCH   1  12
BRANCH   2  20
ATOM     20  O   UNL     1      -4.034  15.075 -44.071  1.00  0.00    -0.502 OA
ATOM     21  H   UNL     1      -3.809  16.023 -43.793  1.00  0.00     0.293 HD
ENDBRANCH   2  20
BRANCH   6  22
ATOM     22  O   UNL     1      -2.676  17.118 -48.799  1.00  0.00    -0.507 OA
ATOM     23  H   UNL     1      -1.675  17.179 -48.689  1.00  0.00     0.293 HD
ENDBRANCH   6  22
BRANCH   8  24
ATOM     24  O   UNL     1      -4.554  13.835 -51.731  1.00  0.00    -0.508 OA
ATOM     25  H   UNL     1      -4.390  14.445 -52.524  1.00  0.00     0.293 HD
ENDBRANCH   8  24
TORSDOF 5
ENDMDL
MODEL 5
REMARK VINA RESULT:    -5.905      7.882     10.291
REMARK INTER + INTRA:          -7.196
REMARK INTER:                  -6.907
REMARK INTRA:                  -0.289
REMARK UNBOUND:                -0.255
REMARK SMILES O=c1c(O)c(-c2ccc(O)cc2)oc2cc(O)cc(O)c12
REMARK SMILES IDX 5 1 3 2 2 3 1 4 21 5 19 6 18 7 16 8 15 9 14 10 13 11 6 12
REMARK SMILES IDX 7 13 8 14 9 15 12 16 11 17 10 18 4 20 20 22 17 24
REMARK H PARENT 10 19 4 21 20 23 17 25
REMARK Flexibility Score: inf
ROOT
ATOM      1  C   UNL     1      -1.647  13.605 -51.601  1.00  0.00     0.180 A 
ATOM      2  C   UNL     1      -0.521  13.738 -50.769  1.00  0.00     0.208 A 
ATOM      3  C   UNL     1       0.174  12.585 -50.374  1.00  0.00     0.238 A 
ATOM      4  O   UNL     1       1.213  12.714 -49.674  1.00  0.00    -0.285 OA
ATOM      5  C   UNL     1      -0.273  11.311 -50.801  1.00  0.00     0.111 A 
ATOM      6  C   UNL     1       0.331  10.072 -50.428  1.00  0.00     0.134 A 
ATOM      7  C   UNL     1      -0.116   8.882 -51.015  1.00  0.00     0.093 A 
ATOM      8  C   UNL     1      -1.186   8.877 -51.910  1.00  0.00     0.123 A 
ATOM      9  C   UNL     1      -1.822  10.075 -52.236  1.00  0.00     0.094 A 
ATOM     10  C   UNL     1      -1.376  11.284 -51.694  1.00  0.00     0.146 A 
ATOM     11  O   UNL     1      -2.002  12.402 -52.038  1.00  0.00    -0.452 OA
ENDROOT
BRANCH   1  12
ATOM     12  C   UNL     1      -2.446  14.772 -52.039  1.00  0.00     0.021 A 
ATOM     13  C   UNL     1      -2.134  15.473 -53.218  1.00  0.00     0.016 A 
ATOM     14  C   UNL     1      -2.888  16.587 -53.598  1.00  0.00     0.047 A 
ATOM     15  C   UNL     1      -3.951  17.023 -52.803  1.00  0.00     0.115 A 
ATOM     16  C   UNL     1      -3.503  15.229 -51.233  1.00  0.00     0.016 A 
ATOM     17  C   UNL     1      -4.256  16.342 -51.617  1.00  0.00     0.047 A 
BRANCH  15  18
ATOM     18  O   UNL     1      -4.694  18.134 -53.195  1.00  0.00    -0.508 OA
ATOM     19  H   UNL     1      -5.017  18.820 -52.521  1.00  0.00     0.293 HD
ENDBRANCH  15  18
ENDBRANCH   1  12
BRANCH   2  20
ATOM     20  O   UNL     1      -0.084  15.006 -50.376  1.00  0.00    -0.502 OA
ATOM     21  H   UNL     1      -0.506  15.859 -50.722  1.00  0.00     0.293 HD
ENDBRANCH   2  20
BRANCH   6  22
ATOM     22  O   UNL     1       1.346   9.955 -49.473  1.00  0.00    -0.507 OA
ATOM     23  H   UNL     1       2.284  10.309 -49.585  1.00  0.00     0.293 HD
ENDBRANCH   6  22
BRANCH   8  24
ATOM     24  O   UNL     1      -1.613   7.672 -52.463  1.00  0.00    -0.508 OA
ATOM     25  H   UNL     1      -1.720   6.838 -51.897  1.00  0.00     0.293 HD
ENDBRANCH   8  24
TORSDOF 5
ENDMDL
MODEL 6
REMARK VINA RESULT:    -5.846      6.988      9.113
REMARK INTER + INTRA:          -7.127
REMARK INTER:                  -7.039
REMARK INTRA:                  -0.088
REMARK UNBOUND:                -0.255
REMARK SMILES O=c1c(O)c(-c2ccc(O)cc2)oc2cc(O)cc(O)c12
REMARK SMILES IDX 5 1 3 2 2 3 1 4 21 5 19 6 18 7 16 8 15 9 14 10 13 11 6 12
REMARK SMILES IDX 7 13 8 14 9 15 12 16 11 17 10 18 4 20 20 22 17 24
REMARK H PARENT 10 19 4 21 20 23 17 25
REMARK Flexibility Score: inf
ROOT
ATOM      1  C   UNL     1      -2.622  15.171 -50.933  1.00  0.00     0.180 A 
ATOM      2  C   UNL     1      -4.004  15.020 -50.725  1.00  0.00     0.208 A 
ATOM      3  C   UNL     1      -4.532  15.266 -49.448  1.00  0.00     0.238 A 
ATOM      4  O   UNL     1      -5.777  15.182 -49.281  1.00  0.00    -0.285 OA
ATOM      5  C   UNL     1      -3.669  15.643 -48.389  1.00  0.00     0.111 A 
ATOM      6  C   UNL     1      -4.090  15.876 -47.046  1.00  0.00     0.134 A 
ATOM      7  C   UNL     1      -3.171  16.371 -46.112  1.00  0.00     0.093 A 
ATOM      8  C   UNL     1      -1.836  16.578 -46.454  1.00  0.00     0.123 A 
ATOM      9  C   UNL     1      -1.401  16.295 -47.750  1.00  0.00     0.094 A 
ATOM     10  C   UNL     1      -2.301  15.835 -48.714  1.00  0.00     0.146 A 
ATOM     11  O   UNL     1      -1.849  15.589 -49.937  1.00  0.00    -0.452 OA
ENDROOT
BRANCH   1  12
ATOM     12  C   UNL     1      -1.989  14.906 -52.245  1.00  0.00     0.021 A 
ATOM     13  C   UNL     1      -1.000  13.916 -52.395  1.00  0.00     0.016 A 
ATOM     14  C   UNL     1      -0.399  13.701 -53.639  1.00  0.00     0.047 A 
ATOM     15  C   UNL     1      -0.766  14.477 -54.743  1.00  0.00     0.115 A 
ATOM     16  C   UNL     1      -2.337  15.696 -53.353  1.00  0.00     0.016 A 
ATOM     17  C   UNL     1      -1.735  15.478 -54.596  1.00  0.00     0.047 A 
BRANCH  15  18
ATOM     18  O   UNL     1      -0.159  14.250 -55.976  1.00  0.00    -0.508 OA
ATOM     19  H   UNL     1       0.419  13.434 -56.140  1.00  0.00     0.293 HD
ENDBRANCH  15  18
ENDBRANCH   1  12
BRANCH   2  20
ATOM     20  O   UNL     1      -4.841  14.669 -51.789  1.00  0.00    -0.502 OA
ATOM     21  H   UNL     1      -5.465  13.872 -51.750  1.00  0.00     0.293 HD
ENDBRANCH   2  20
BRANCH   6  22
ATOM     22  O   UNL     1      -5.380  15.615 -46.575  1.00  0.00    -0.507 OA
ATOM     23  H   UNL     1      -5.743  15.930 -45.688  1.00  0.00     0.293 HD
ENDBRANCH   6  22
BRANCH   8  24
ATOM     24  O   UNL     1      -0.946  17.057 -45.495  1.00  0.00    -0.508 OA
ATOM     25  H   UNL     1       0.020  17.261 -45.723  1.00  0.00     0.293 HD
ENDBRANCH   8  24
TORSDOF 5
ENDMDL
MODEL 7
REMARK VINA RESULT:    -5.792      6.376      8.783
REMARK INTER + INTRA:          -7.063
REMARK INTER:                  -6.790
REMARK INTRA:                  -0.273
REMARK UNBOUND:                -0.255
REMARK SMILES O=c1c(O)c(-c2ccc(O)cc2)oc2cc(O)cc(O)c12
REMARK SMILES IDX 5 1 3 2 2 3 1 4 21 5 19 6 18 7 16 8 15 9 14 10 13 11 6 12
REMARK SMILES IDX 7 13 8 14 9 15 12 16 11 17 10 18 4 20 20 22 17 24
REMARK H PARENT 10 19 4 21 20 23 17 25
REMARK Flexibility Score: inf
ROOT
ATOM      1  C   UNL     1       3.465  13.998 -46.151  1.00  0.00     0.180 A 
ATOM      2  C   UNL     1       3.417  13.585 -44.809  1.00  0.00     0.208 A 
ATOM      3  C   UNL     1       3.911  14.443 -43.814  1.00  0.00     0.238 A 
ATOM      4  O   UNL     1       3.816  14.091 -42.609  1.00  0.00    -0.285 OA
ATOM      5  C   UNL     1       4.461  15.698 -44.174  1.00  0.00     0.111 A 
ATOM      6  C   UNL     1       5.026  16.630 -43.254  1.00  0.00     0.134 A 
ATOM      7  C   UNL     1       5.422  17.894 -43.707  1.00  0.00     0.093 A 
ATOM      8  C   UNL     1       5.333  18.237 -45.055  1.00  0.00     0.123 A 
ATOM      9  C   UNL     1       4.837  17.311 -45.974  1.00  0.00     0.094 A 
ATOM     10  C   UNL     1       4.401  16.054 -45.547  1.00  0.00     0.146 A 
ATOM     11  O   UNL     1       3.926  15.207 -46.451  1.00  0.00    -0.452 OA
ENDROOT
BRANCH   1  12
ATOM     12  C   UNL     1       2.987  13.138 -47.258  1.00  0.00     0.021 A 
ATOM     13  C   UNL     1       1.624  13.077 -47.603  1.00  0.00     0.016 A 
ATOM     14  C   UNL     1       1.194  12.239 -48.636  1.00  0.00     0.047 A 
ATOM     15  C   UNL     1       2.112  11.443 -49.327  1.00  0.00     0.115 A 
ATOM     16  C   UNL     1       3.901  12.319 -47.942  1.00  0.00     0.016 A 
ATOM     17  C   UNL     1       3.468  11.484 -48.975  1.00  0.00     0.047 A 
BRANCH  15  18
ATOM     18  O   UNL     1       1.668  10.614 -50.354  1.00  0.00    -0.508 OA
ATOM     19  H   UNL     1       0.805  10.801 -50.850  1.00  0.00     0.293 HD
ENDBRANCH  15  18
ENDBRANCH   1  12
BRANCH   2  20
ATOM     20  O   UNL     1       2.851  12.352 -44.472  1.00  0.00    -0.502 OA
ATOM     21  H   UNL     1       3.180  11.797 -43.692  1.00  0.00     0.293 HD
ENDBRANCH   2  20
BRANCH   6  22
ATOM     22  O   UNL     1       5.245  16.355 -41.900  1.00  0.00    -0.507 OA
ATOM     23  H   UNL     1       4.853  16.883 -41.135  1.00  0.00     0.293 HD
ENDBRANCH   6  22
BRANCH   8  24
ATOM     24  O   UNL     1       5.750  19.499 -45.473  1.00  0.00    -0.508 OA
ATOM     25  H   UNL     1       6.491  19.998 -44.994  1.00  0.00     0.293 HD
ENDBRANCH   8  24
TORSDOF 5
ENDMDL
MODEL 8
REMARK VINA RESULT:    -5.788      2.624      5.501
REMARK INTER + INTRA:          -7.058
REMARK INTER:                  -6.764
REMARK INTRA:                  -0.294
REMARK UNBOUND:                -0.255
REMARK SMILES O=c1c(O)c(-c2ccc(O)cc2)oc2cc(O)cc(O)c12
REMARK SMILES IDX 5 1 3 2 2 3 1 4 21 5 19 6 18 7 16 8 15 9 14 10 13 11 6 12
REMARK SMILES IDX 7 13 8 14 9 15 12 16 11 17 10 18 4 20 20 22 17 24
REMARK H PARENT 10 19 4 21 20 23 17 25
REMARK Flexibility Score: inf
ROOT
ATOM      1  C   UNL     1      -2.650  12.867 -45.478  1.00  0.00     0.180 A 
ATOM      2  C   UNL     1      -1.419  12.255 -45.186  1.00  0.00     0.208 A 
ATOM      3  C   UNL     1      -1.374  11.245 -44.212  1.00  0.00     0.238 A 
ATOM      4  O   UNL     1      -0.280  10.663 -43.992  1.00  0.00    -0.285 OA
ATOM      5  C   UNL     1      -2.558  10.871 -43.530  1.00  0.00     0.111 A 
ATOM      6  C   UNL     1      -2.622   9.889 -42.496  1.00  0.00     0.134 A 
ATOM      7  C   UNL     1      -3.868   9.508 -41.983  1.00  0.00     0.093 A 
ATOM      8  C   UNL     1      -5.044  10.116 -42.419  1.00  0.00     0.123 A 
ATOM      9  C   UNL     1      -4.987  11.120 -43.387  1.00  0.00     0.094 A 
ATOM     10  C   UNL     1      -3.763  11.498 -43.943  1.00  0.00     0.146 A 
ATOM     11  O   UNL     1      -3.753  12.449 -44.869  1.00  0.00    -0.452 OA
ENDROOT
BRANCH   1  12
ATOM     12  C   UNL     1      -2.771  13.956 -46.475  1.00  0.00     0.021 A 
ATOM     13  C   UNL     1      -2.525  15.297 -46.128  1.00  0.00     0.016 A 
ATOM     14  C   UNL     1      -2.671  16.311 -47.080  1.00  0.00     0.047 A 
ATOM     15  C   UNL     1      -3.074  16.002 -48.383  1.00  0.00     0.115 A 
ATOM     16  C   UNL     1      -3.197  13.655 -47.779  1.00  0.00     0.016 A 
ATOM     17  C   UNL     1      -3.340  14.671 -48.729  1.00  0.00     0.047 A 
BRANCH  15  18
ATOM     18  O   UNL     1      -3.214  17.022 -49.321  1.00  0.00    -0.508 OA
ATOM     19  H   UNL     1      -3.710  16.876 -50.192  1.00  0.00     0.293 HD
ENDBRANCH  15  18
ENDBRANCH   1  12
BRANCH   2  20
ATOM     20  O   UNL     1      -0.266  12.624 -45.885  1.00  0.00    -0.502 OA
ATOM     21  H   UNL     1      -0.039  13.589 -46.090  1.00  0.00     0.293 HD
ENDBRANCH   2  20
BRANCH   6  22
ATOM     22  O   UNL     1      -1.499   9.284 -41.923  1.00  0.00    -0.507 OA
ATOM     23  H   UNL     1      -1.447   8.316 -41.644  1.00  0.00     0.293 HD
ENDBRANCH   6  22
BRANCH   8  24
ATOM     24  O   UNL     1      -6.264   9.722 -41.876  1.00  0.00    -0.508 OA
ATOM     25  H   UNL     1      -6.974   9.267 -42.440  1.00  0.00     0.293 HD
ENDBRANCH   8  24
TORSDOF 5
ENDMDL
MODEL 9
REMARK VINA RESULT:    -5.773      4.682      7.213
REMARK INTER + INTRA:          -7.040
REMARK INTER:                  -6.756
REMARK INTRA:                  -0.285
REMARK UNBOUND:                -0.255
REMARK SMILES O=c1c(O)c(-c2ccc(O)cc2)oc2cc(O)cc(O)c12
REMARK SMILES IDX 5 1 3 2 2 3 1 4 21 5 19 6 18 7 16 8 15 9 14 10 13 11 6 12
REMARK SMILES IDX 7 13 8 14 9 15 12 16 11 17 10 18 4 20 20 22 17 24
REMARK H PARENT 10 19 4 21 20 23 17 25
REMARK Flexibility Score: inf
ROOT
ATOM      1  C   UNL     1      -4.954  12.875 -46.123  1.00  0.00     0.180 A 
ATOM      2  C   UNL     1      -5.106  13.053 -47.510  1.00  0.00     0.208 A 
ATOM      3  C   UNL     1      -4.539  14.183 -48.118  1.00  0.00     0.238 A 
ATOM      4  O   UNL     1      -4.632  14.310 -49.367  1.00  0.00    -0.285 OA
ATOM      5  C   UNL     1      -3.840  15.131 -47.331  1.00  0.00     0.111 A 
ATOM      6  C   UNL     1      -3.259  16.334 -47.835  1.00  0.00     0.134 A 
ATOM      7  C   UNL     1      -2.480  17.132 -46.990  1.00  0.00     0.093 A 
ATOM      8  C   UNL     1      -2.313  16.807 -45.644  1.00  0.00     0.123 A 
ATOM      9  C   UNL     1      -2.926  15.665 -45.126  1.00  0.00     0.094 A 
ATOM     10  C   UNL     1      -3.680  14.829 -45.953  1.00  0.00     0.146 A 
ATOM     11  O   UNL     1      -4.237  13.747 -45.424  1.00  0.00    -0.452 OA
ENDROOT
BRANCH   1  12
ATOM     12  C   UNL     1      -5.545  11.722 -45.407  1.00  0.00     0.021 A 
ATOM     13  C   UNL     1      -6.792  11.819 -44.764  1.00  0.00     0.016 A 
ATOM     14  C   UNL     1      -7.318  10.723 -44.073  1.00  0.00     0.047 A 
ATOM     15  C   UNL     1      -6.603   9.524 -44.004  1.00  0.00     0.115 A 
ATOM     16  C   UNL     1      -4.822  10.520 -45.315  1.00  0.00     0.016 A 
ATOM     17  C   UNL     1      -5.351   9.426 -44.625  1.00  0.00     0.047 A 
BRANCH  15  18
ATOM     18  O   UNL     1      -7.140   8.441 -43.313  1.00  0.00    -0.508 OA
ATOM     19  H   UNL     1      -7.498   8.539 -42.370  1.00  0.00     0.293 HD
ENDBRANCH  15  18
ENDBRANCH   1  12
BRANCH   2  20
ATOM     20  O   UNL     1      -5.781  12.095 -48.271  1.00  0.00    -0.502 OA
ATOM     21  H   UNL     1      -5.499  11.123 -48.297  1.00  0.00     0.293 HD
ENDBRANCH   2  20
BRANCH   6  22
ATOM     22  O   UNL     1      -3.441  16.799 -49.141  1.00  0.00    -0.507 OA
ATOM     23  H   UNL     1      -4.209  17.379 -49.444  1.00  0.00     0.293 HD
ENDBRANCH   6  22
BRANCH   8  24
ATOM     24  O   UNL     1      -1.543  17.632 -44.828  1.00  0.00    -0.508 OA
ATOM     25  H   UNL     1      -1.825  17.853 -43.879  1.00  0.00     0.293 HD
ENDBRANCH   8  24
TORSDOF 5
ENDMDL
