MODEL 1
REMARK VINA RESULT:    -4.619      0.000      0.000
REMARK INTER + INTRA:          -5.315
REMARK INTER:                  -5.564
REMARK INTRA:                   0.249
REMARK UNBOUND:                 0.249
REMARK SMILES O=c1c(O)c(-c2ccc(O)c(O)c2)oc2cc(O)cc(O)c12
REMARK SMILES IDX 5 1 3 2 2 3 1 4 22 5 20 6 19 7 17 8 16 9 15 10 14 11 6 12
REMARK SMILES IDX 7 13 8 14 9 15 13 16 11 17 10 18 12 20 4 22 21 24 18 26
REMARK H PARENT 10 19 12 21 4 23 21 25 18 27
REMARK Flexibility Score: inf
ROOT
ATOM      1  C   UNL     1     148.140  15.696  35.329  1.00  0.00     0.180 A 
ATOM      2  C   UNL     1     148.180  15.659  33.925  1.00  0.00     0.208 A 
ATOM      3  C   UNL     1     148.400  14.429  33.283  1.00  0.00     0.238 A 
ATOM      4  O   UNL     1     148.381  14.393  32.024  1.00  0.00    -0.285 OA
ATOM      5  C   UNL     1     148.596  13.257  34.053  1.00  0.00     0.111 A 
ATOM      6  C   UNL     1     148.867  11.967  33.507  1.00  0.00     0.134 A 
ATOM      7  C   UNL     1     148.913  10.854  34.357  1.00  0.00     0.093 A 
ATOM      8  C   UNL     1     148.762  10.994  35.736  1.00  0.00     0.123 A 
ATOM      9  C   UNL     1     148.555  12.260  36.286  1.00  0.00     0.094 A 
ATOM     10  C   UNL     1     148.469  13.384  35.460  1.00  0.00     0.146 A 
ATOM     11  O   UNL     1     148.261  14.569  36.022  1.00  0.00    -0.452 OA
ENDROOT
BRANCH   1  12
ATOM     12  C   UNL     1     147.937  16.957  36.079  1.00  0.00     0.025 A 
ATOM     13  C   UNL     1     147.144  17.997  35.561  1.00  0.00     0.016 A 
ATOM     14  C   UNL     1     146.986  19.186  36.276  1.00  0.00     0.051 A 
ATOM     15  C   UNL     1     147.628  19.362  37.509  1.00  0.00     0.157 A 
ATOM     16  C   UNL     1     148.594  17.146  37.306  1.00  0.00     0.062 A 
ATOM     17  C   UNL     1     148.438  18.337  38.024  1.00  0.00     0.158 A 
BRANCH  15  18
ATOM     18  O   UNL     1     147.467  20.551  38.220  1.00  0.00    -0.504 OA
ATOM     19  H   UNL     1     148.264  21.094  38.532  1.00  0.00     0.293 HD
ENDBRANCH  15  18
BRANCH  17  20
ATOM     20  O   UNL     1     149.096  18.482  39.245  1.00  0.00    -0.504 OA
ATOM     21  H   UNL     1     148.650  18.258  40.127  1.00  0.00     0.293 HD
ENDBRANCH  17  20
ENDBRANCH   1  12
BRANCH   2  22
ATOM     22  O   UNL     1     147.963  16.824  33.185  1.00  0.00    -0.502 OA
ATOM     23  H   UNL     1     147.614  17.677  33.604  1.00  0.00     0.293 HD
ENDBRANCH   2  22
BRANCH   6  24
ATOM     24  O   UNL     1     149.125  11.729  32.154  1.00  0.00    -0.507 OA
ATOM     25  H   UNL     1     149.985  11.963  31.684  1.00  0.00     0.293 HD
ENDBRANCH   6  24
BRANCH   8  26
ATOM     26  O   UNL     1     148.829   9.868  36.553  1.00  0.00    -0.508 OA
ATOM     27  H   UNL     1     148.206   9.749  37.344  1.00  0.00     0.293 HD
ENDBRANCH   8  26
TORSDOF 6
ENDMDL
MODEL 2
REMARK VINA RESULT:    -3.602      1.505      2.279
REMARK INTER + INTRA:          -4.090
REMARK INTER:                  -4.557
REMARK INTRA:                   0.467
REMARK UNBOUND:                 0.249
REMARK SMILES O=c1c(O)c(-c2ccc(O)c(O)c2)oc2cc(O)cc(O)c12
REMARK SMILES IDX 5 1 3 2 2 3 1 4 22 5 20 6 19 7 17 8 16 9 15 10 14 11 6 12
REMARK SMILES IDX 7 13 8 14 9 15 13 16 11 17 10 18 12 20 4 22 21 24 18 26
REMARK H PARENT 10 19 12 21 4 23 21 25 18 27
REMARK Flexibility Score: inf
ROOT
ATOM      1  C   UNL     1     148.633  17.231  35.606  1.00  0.00     0.180 A 
ATOM      2  C   UNL     1     148.260  17.461  34.271  1.00  0.00     0.208 A 
ATOM      3  C   UNL     1     148.162  16.369  33.394  1.00  0.00     0.238 A 
ATOM      4  O   UNL     1     147.775  16.575  32.214  1.00  0.00    -0.285 OA
ATOM      5  C   UNL     1     148.456  15.064  33.858  1.00  0.00     0.111 A 
ATOM      6  C   UNL     1     148.429  13.891  33.046  1.00  0.00     0.134 A 
ATOM      7  C   UNL     1     148.610  12.635  33.640  1.00  0.00     0.093 A 
ATOM      8  C   UNL     1     148.880  12.516  35.003  1.00  0.00     0.123 A 
ATOM      9  C   UNL     1     148.968  13.661  35.795  1.00  0.00     0.094 A 
ATOM     10  C   UNL     1     148.757  14.925  35.238  1.00  0.00     0.146 A 
ATOM     11  O   UNL     1     148.839  15.989  36.028  1.00  0.00    -0.452 OA
ENDROOT
BRANCH   1  12
ATOM     12  C   UNL     1     148.782  18.334  36.584  1.00  0.00     0.025 A 
ATOM     13  C   UNL     1     148.762  18.093  37.969  1.00  0.00     0.016 A 
ATOM     14  C   UNL     1     148.880  19.152  38.871  1.00  0.00     0.051 A 
ATOM     15  C   UNL     1     149.006  20.467  38.406  1.00  0.00     0.157 A 
ATOM     16  C   UNL     1     148.886  19.657  36.123  1.00  0.00     0.062 A 
ATOM     17  C   UNL     1     149.006  20.720  37.025  1.00  0.00     0.158 A 
BRANCH  15  18
ATOM     18  O   UNL     1     149.125  21.522  39.311  1.00  0.00    -0.504 OA
ATOM     19  H   UNL     1     148.310  21.972  39.711  1.00  0.00     0.293 HD
ENDBRANCH  15  18
BRANCH  17  20
ATOM     20  O   UNL     1     149.122  22.018  36.530  1.00  0.00    -0.504 OA
ATOM     21  H   UNL     1     148.863  22.258  35.580  1.00  0.00     0.293 HD
ENDBRANCH  17  20
ENDBRANCH   1  12
BRANCH   2  22
ATOM     22  O   UNL     1     147.954  18.755  33.840  1.00  0.00    -0.502 OA
ATOM     23  H   UNL     1     147.299  18.937  33.088  1.00  0.00     0.293 HD
ENDBRANCH   2  22
BRANCH   6  24
ATOM     24  O   UNL     1     148.258  13.904  31.658  1.00  0.00    -0.507 OA
ATOM     25  H   UNL     1     148.979  14.141  30.994  1.00  0.00     0.293 HD
ENDBRANCH   6  24
BRANCH   8  26
ATOM     26  O   UNL     1     149.069  11.253  35.558  1.00  0.00    -0.508 OA
ATOM     27  H   UNL     1     148.645  10.426  35.152  1.00  0.00     0.293 HD
ENDBRANCH   8  26
TORSDOF 6
ENDMDL
MODEL 3
REMARK VINA RESULT:    -2.743      1.332      6.752
REMARK INTER + INTRA:          -3.055
REMARK INTER:                  -3.156
REMARK INTRA:                   0.100
REMARK UNBOUND:                 0.249
REMARK SMILES O=c1c(O)c(-c2ccc(O)c(O)c2)oc2cc(O)cc(O)c12
REMARK SMILES IDX 5 1 3 2 2 3 1 4 22 5 20 6 19 7 17 8 16 9 15 10 14 11 6 12
REMARK SMILES IDX 7 13 8 14 9 15 13 16 11 17 10 18 12 20 4 22 21 24 18 26
REMARK H PARENT 10 19 12 21 4 23 21 25 18 27
REMARK Flexibility Score: inf
ROOT
ATOM      1  C   UNL     1     147.831  15.174  35.796  1.00  0.00     0.180 A 
ATOM      2  C   UNL     1     147.464  16.293  35.030  1.00  0.00     0.208 A 
ATOM      3  C   UNL     1     147.448  17.559  35.638  1.00  0.00     0.238 A 
ATOM      4  O   UNL     1     147.171  18.564  34.933  1.00  0.00    -0.285 OA
ATOM      5  C   UNL     1     147.781  17.686  37.008  1.00  0.00     0.111 A 
ATOM      6  C   UNL     1     147.758  18.914  37.736  1.00  0.00     0.134 A 
ATOM      7  C   UNL     1     148.233  18.944  39.053  1.00  0.00     0.093 A 
ATOM      8  C   UNL     1     148.668  17.782  39.689  1.00  0.00     0.123 A 
ATOM      9  C   UNL     1     148.638  16.566  39.006  1.00  0.00     0.094 A 
ATOM     10  C   UNL     1     148.204  16.510  37.679  1.00  0.00     0.146 A 
ATOM     11  O   UNL     1     148.201  15.334  37.061  1.00  0.00    -0.452 OA
ENDROOT
BRANCH   1  12
ATOM     12  C   UNL     1     147.848  13.804  35.233  1.00  0.00     0.025 A 
ATOM     13  C   UNL     1     147.310  12.714  35.939  1.00  0.00     0.016 A 
ATOM     14  C   UNL     1     147.359  11.428  35.397  1.00  0.00     0.051 A 
ATOM     15  C   UNL     1     147.957  11.208  34.150  1.00  0.00     0.157 A 
ATOM     16  C   UNL     1     148.465  13.574  33.992  1.00  0.00     0.062 A 
ATOM     17  C   UNL     1     148.515  12.287  33.445  1.00  0.00     0.158 A 
BRANCH  15  18
ATOM     18  O   UNL     1     148.002   9.923  33.611  1.00  0.00    -0.504 OA
ATOM     19  H   UNL     1     147.334   9.210  33.882  1.00  0.00     0.293 HD
ENDBRANCH  15  18
BRANCH  17  20
ATOM     20  O   UNL     1     149.124  12.101  32.205  1.00  0.00    -0.504 OA
ATOM     21  H   UNL     1     149.997  12.554  31.960  1.00  0.00     0.293 HD
ENDBRANCH  17  20
ENDBRANCH   1  12
BRANCH   2  22
ATOM     22  O   UNL     1     147.160  16.147  33.674  1.00  0.00    -0.502 OA
ATOM     23  H   UNL     1     146.261  16.409  33.287  1.00  0.00     0.293 HD
ENDBRANCH   2  22
BRANCH   6  24
ATOM     24  O   UNL     1     147.257  20.115  37.226  1.00  0.00    -0.507 OA
ATOM     25  H   UNL     1     147.825  20.899  36.941  1.00  0.00     0.293 HD
ENDBRANCH   6  24
BRANCH   8  26
ATOM     26  O   UNL     1     149.119  17.846  41.005  1.00  0.00    -0.508 OA
ATOM     27  H   UNL     1     148.930  18.651  41.591  1.00  0.00     0.293 HD
ENDBRANCH   8  26
TORSDOF 6
ENDMDL
