MODEL 1
REMARK VINA RESULT:    -4.226      0.000      0.000
REMARK INTER + INTRA:         -13.749
REMARK INTER:                  -9.660
REMARK INTRA:                  -4.088
REMARK UNBOUND:                -4.088
REMARK SMILES CCCCCCCCCCCCCCCCCCCCCCCC(=O)[O-]
REMARK SMILES IDX 13 1 14 2 15 3 16 4 17 5 18 6 19 7 20 8 21 9 22 10 23 11
REMARK SMILES IDX 24 12 25 13 26 14 12 15 11 16 10 17 9 18 8 19 7 20 6 21 5 22
REMARK SMILES IDX 4 23 3 24 2 25 1 26
REMARK H PARENT
REMARK Flexibility Score: inf
ROOT
ATOM      1  C   UNL     1      15.873  21.886  22.305  1.00  0.00     0.000 C 
ENDROOT
BRANCH   1   2
ATOM      2  C   UNL     1      15.816  20.593  21.477  1.00  0.00     0.000 C 
BRANCH   2   3
ATOM      3  C   UNL     1      17.186  19.897  21.392  1.00  0.00     0.000 C 
BRANCH   3   4
ATOM      4  C   UNL     1      17.132  18.422  21.832  1.00  0.00     0.000 C 
BRANCH   4   5
ATOM      5  C   UNL     1      16.621  17.435  20.761  1.00  0.00     0.000 C 
BRANCH   5   6
ATOM      6  C   UNL     1      15.449  16.539  21.200  1.00  0.00     0.000 C 
BRANCH   6   7
ATOM      7  C   UNL     1      14.078  17.098  20.776  1.00  0.00     0.000 C 
BRANCH   7   8
ATOM      8  C   UNL     1      13.127  17.275  21.970  1.00  0.00     0.000 C 
BRANCH   8   9
ATOM      9  C   UNL     1      13.337  18.619  22.688  1.00  0.00     0.000 C 
BRANCH   9  10
ATOM     10  C   UNL     1      13.324  18.437  24.212  1.00  0.00     0.006 C 
BRANCH  10  11
ATOM     11  C   UNL     1      14.721  18.592  24.826  1.00  0.00     0.053 C 
BRANCH  11  12
ATOM     12  C   UNL     1      14.746  18.170  26.263  1.00  0.00     0.041 C 
ATOM     13  O   UNL     1      13.799  18.481  27.031  1.00  0.00    -0.550 OA
ATOM     14  O   UNL     1      15.836  17.471  26.763  1.00  0.00    -0.550 OA
ENDBRANCH  11  12
ENDBRANCH  10  11
ENDBRANCH   9  10
ENDBRANCH   8   9
ENDBRANCH   7   8
ENDBRANCH   6   7
ENDBRANCH   5   6
ENDBRANCH   4   5
ENDBRANCH   3   4
ENDBRANCH   2   3
ENDBRANCH   1   2
BRANCH   1  15
ATOM     15  C   UNL     1      16.572  21.684  23.661  1.00  0.00     0.000 C 
BRANCH  15  16
ATOM     16  C   UNL     1      17.017  23.006  24.311  1.00  0.00     0.000 C 
BRANCH  16  17
ATOM     17  C   UNL     1      16.072  24.191  24.019  1.00  0.00     0.000 C 
BRANCH  17  18
ATOM     18  C   UNL     1      14.899  24.262  25.011  1.00  0.00    -0.000 C 
BRANCH  18  19
ATOM     19  C   UNL     1      13.543  23.965  24.346  1.00  0.00    -0.000 C 
BRANCH  19  20
ATOM     20  C   UNL     1      13.032  22.525  24.547  1.00  0.00    -0.000 C 
BRANCH  20  21
ATOM     21  C   UNL     1      12.035  22.071  23.458  1.00  0.00    -0.000 C 
BRANCH  21  22
ATOM     22  C   UNL     1      12.484  22.488  22.047  1.00  0.00    -0.000 C 
BRANCH  22  23
ATOM     23  C   UNL     1      11.912  21.575  20.951  1.00  0.00    -0.000 C 
BRANCH  23  24
ATOM     24  C   UNL     1      12.664  21.711  19.615  1.00  0.00    -0.000 C 
BRANCH  24  25
ATOM     25  C   UNL     1      13.117  23.153  19.341  1.00  0.00    -0.003 C 
ATOM     26  C   UNL     1      14.615  23.255  19.054  1.00  0.00     0.004 C 
ENDBRANCH  24  25
ENDBRANCH  23  24
ENDBRANCH  22  23
ENDBRANCH  21  22
ENDBRANCH  20  21
ENDBRANCH  19  20
ENDBRANCH  18  19
ENDBRANCH  17  18
ENDBRANCH  16  17
ENDBRANCH  15  16
ENDBRANCH   1  15
TORSDOF 22
ENDMDL
MODEL 2
REMARK VINA RESULT:    -4.137      4.684      7.901
REMARK INTER + INTRA:         -13.545
REMARK INTER:                  -9.768
REMARK INTRA:                  -3.777
REMARK UNBOUND:                -4.088
REMARK SMILES CCCCCCCCCCCCCCCCCCCCCCCC(=O)[O-]
REMARK SMILES IDX 13 1 14 2 15 3 16 4 17 5 18 6 19 7 20 8 21 9 22 10 23 11
REMARK SMILES IDX 24 12 25 13 26 14 12 15 11 16 10 17 9 18 8 19 7 20 6 21 5 22
REMARK SMILES IDX 4 23 3 24 2 25 1 26
REMARK H PARENT
REMARK Flexibility Score: inf
ROOT
ATOM      1  C   UNL     1      11.831  15.656  30.471  1.00  0.00     0.000 C 
ENDROOT
BRANCH   1   2
ATOM      2  C   UNL     1      10.649  15.966  29.539  1.00  0.00     0.000 C 
BRANCH   2   3
ATOM      3  C   UNL     1      11.067  16.834  28.340  1.00  0.00     0.000 C 
BRANCH   3   4
ATOM      4  C   UNL     1      12.464  16.474  27.802  1.00  0.00     0.000 C 
BRANCH   4   5
ATOM      5  C   UNL     1      13.007  17.411  26.702  1.00  0.00     0.000 C 
BRANCH   5   6
ATOM      6  C   UNL     1      14.511  17.728  26.792  1.00  0.00     0.000 C 
BRANCH   6   7
ATOM      7  C   UNL     1      15.081  18.299  25.481  1.00  0.00     0.000 C 
BRANCH   7   8
ATOM      8  C   UNL     1      14.015  18.407  24.380  1.00  0.00     0.000 C 
BRANCH   8   9
ATOM      9  C   UNL     1      14.453  19.333  23.234  1.00  0.00     0.000 C 
BRANCH   9  10
ATOM     10  C   UNL     1      15.606  20.246  23.674  1.00  0.00     0.006 C 
BRANCH  10  11
ATOM     11  C   UNL     1      15.213  21.728  23.648  1.00  0.00     0.053 C 
BRANCH  11  12
ATOM     12  C   UNL     1      16.362  22.615  24.020  1.00  0.00     0.041 C 
ATOM     13  O   UNL     1      16.154  23.710  24.605  1.00  0.00    -0.550 OA
ATOM     14  O   UNL     1      17.658  22.250  23.683  1.00  0.00    -0.550 OA
ENDBRANCH  11  12
ENDBRANCH  10  11
ENDBRANCH   9  10
ENDBRANCH   8   9
ENDBRANCH   7   8
ENDBRANCH   6   7
ENDBRANCH   5   6
ENDBRANCH   4   5
ENDBRANCH   3   4
ENDBRANCH   2   3
ENDBRANCH   1   2
BRANCH   1  15
ATOM     15  C   UNL     1      11.772  16.463  31.780  1.00  0.00     0.000 C 
BRANCH  15  16
ATOM     16  C   UNL     1      10.451  16.271  32.545  1.00  0.00     0.000 C 
BRANCH  16  17
ATOM     17  C   UNL     1       9.681  17.585  32.793  1.00  0.00     0.000 C 
BRANCH  17  18
ATOM     18  C   UNL     1      10.424  18.813  32.237  1.00  0.00    -0.000 C 
BRANCH  18  19
ATOM     19  C   UNL     1       9.757  19.386  30.975  1.00  0.00    -0.000 C 
BRANCH  19  20
ATOM     20  C   UNL     1      10.710  20.153  30.037  1.00  0.00    -0.000 C 
BRANCH  20  21
ATOM     21  C   UNL     1      12.181  19.696  30.150  1.00  0.00    -0.000 C 
BRANCH  21  22
ATOM     22  C   UNL     1      13.086  20.388  29.117  1.00  0.00    -0.000 C 
BRANCH  22  23
ATOM     23  C   UNL     1      12.743  21.875  28.930  1.00  0.00    -0.000 C 
BRANCH  23  24
ATOM     24  C   UNL     1      12.571  22.262  27.450  1.00  0.00    -0.000 C 
BRANCH  24  25
ATOM     25  C   UNL     1      12.580  21.040  26.520  1.00  0.00    -0.003 C 
ATOM     26  C   UNL     1      11.837  21.293  25.208  1.00  0.00     0.004 C 
ENDBRANCH  24  25
ENDBRANCH  23  24
ENDBRANCH  22  23
ENDBRANCH  21  22
ENDBRANCH  20  21
ENDBRANCH  19  20
ENDBRANCH  18  19
ENDBRANCH  17  18
ENDBRANCH  16  17
ENDBRANCH  15  16
ENDBRANCH   1  15
TORSDOF 22
ENDMDL
MODEL 3
REMARK VINA RESULT:    -4.097      2.624      5.029
REMARK INTER + INTRA:         -13.456
REMARK INTER:                  -9.607
REMARK INTRA:                  -3.848
REMARK UNBOUND:                -4.088
REMARK SMILES CCCCCCCCCCCCCCCCCCCCCCCC(=O)[O-]
REMARK SMILES IDX 13 1 14 2 15 3 16 4 17 5 18 6 19 7 20 8 21 9 22 10 23 11
REMARK SMILES IDX 24 12 25 13 26 14 12 15 11 16 10 17 9 18 8 19 7 20 6 21 5 22
REMARK SMILES IDX 4 23 3 24 2 25 1 26
REMARK H PARENT
REMARK Flexibility Score: inf
ROOT
ATOM      1  C   UNL     1      12.687  22.458  25.748  1.00  0.00     0.000 C 
ENDROOT
BRANCH   1   2
ATOM      2  C   UNL     1      13.513  21.193  25.471  1.00  0.00     0.000 C 
BRANCH   2   3
ATOM      3  C   UNL     1      12.767  20.198  24.566  1.00  0.00     0.000 C 
BRANCH   3   4
ATOM      4  C   UNL     1      13.524  18.868  24.392  1.00  0.00     0.000 C 
BRANCH   4   5
ATOM      5  C   UNL     1      14.822  18.738  25.218  1.00  0.00     0.000 C 
BRANCH   5   6
ATOM      6  C   UNL     1      14.695  17.919  26.516  1.00  0.00     0.000 C 
BRANCH   6   7
ATOM      7  C   UNL     1      13.364  17.151  26.609  1.00  0.00     0.000 C 
BRANCH   7   8
ATOM      8  C   UNL     1      12.528  17.581  27.825  1.00  0.00     0.000 C 
BRANCH   8   9
ATOM      9  C   UNL     1      11.359  18.500  27.432  1.00  0.00     0.000 C 
BRANCH   9  10
ATOM     10  C   UNL     1      11.358  19.782  28.277  1.00  0.00     0.006 C 
BRANCH  10  11
ATOM     11  C   UNL     1      12.739  20.085  28.871  1.00  0.00     0.053 C 
BRANCH  11  12
ATOM     12  C   UNL     1      12.691  21.235  29.831  1.00  0.00     0.041 C 
ATOM     13  O   UNL     1      11.745  22.064  29.780  1.00  0.00    -0.550 OA
ATOM     14  O   UNL     1      13.713  21.412  30.754  1.00  0.00    -0.550 OA
ENDBRANCH  11  12
ENDBRANCH  10  11
ENDBRANCH   9  10
ENDBRANCH   8   9
ENDBRANCH   7   8
ENDBRANCH   6   7
ENDBRANCH   5   6
ENDBRANCH   4   5
ENDBRANCH   3   4
ENDBRANCH   2   3
ENDBRANCH   1   2
BRANCH   1  15
ATOM     15  C   UNL     1      13.302  23.329  26.859  1.00  0.00     0.000 C 
BRANCH  15  16
ATOM     16  C   UNL     1      13.800  24.692  26.348  1.00  0.00     0.000 C 
BRANCH  16  17
ATOM     17  C   UNL     1      14.175  24.694  24.851  1.00  0.00     0.000 C 
BRANCH  17  18
ATOM     18  C   UNL     1      15.638  24.280  24.614  1.00  0.00    -0.000 C 
BRANCH  18  19
ATOM     19  C   UNL     1      15.794  23.313  23.428  1.00  0.00    -0.000 C 
BRANCH  19  20
ATOM     20  C   UNL     1      16.835  22.197  23.643  1.00  0.00    -0.000 C 
BRANCH  20  21
ATOM     21  C   UNL     1      16.487  20.883  22.909  1.00  0.00    -0.000 C 
BRANCH  21  22
ATOM     22  C   UNL     1      17.743  20.132  22.432  1.00  0.00    -0.000 C 
BRANCH  22  23
ATOM     23  C   UNL     1      17.406  18.906  21.569  1.00  0.00    -0.000 C 
BRANCH  23  24
ATOM     24  C   UNL     1      15.900  18.592  21.547  1.00  0.00    -0.000 C 
BRANCH  24  25
ATOM     25  C   UNL     1      15.612  17.091  21.697  1.00  0.00    -0.003 C 
ATOM     26  C   UNL     1      14.145  16.744  21.439  1.00  0.00     0.004 C 
ENDBRANCH  24  25
ENDBRANCH  23  24
ENDBRANCH  22  23
ENDBRANCH  21  22
ENDBRANCH  20  21
ENDBRANCH  19  20
ENDBRANCH  18  19
ENDBRANCH  17  18
ENDBRANCH  16  17
ENDBRANCH  15  16
ENDBRANCH   1  15
TORSDOF 22
ENDMDL
MODEL 4
REMARK VINA RESULT:    -4.028      2.237      3.470
REMARK INTER + INTRA:         -13.297
REMARK INTER:                 -10.091
REMARK INTRA:                  -3.206
REMARK UNBOUND:                -4.088
REMARK SMILES CCCCCCCCCCCCCCCCCCCCCCCC(=O)[O-]
REMARK SMILES IDX 13 1 14 2 15 3 16 4 17 5 18 6 19 7 20 8 21 9 22 10 23 11
REMARK SMILES IDX 24 12 25 13 26 14 12 15 11 16 10 17 9 18 8 19 7 20 6 21 5 22
REMARK SMILES IDX 4 23 3 24 2 25 1 26
REMARK H PARENT
REMARK Flexibility Score: inf
ROOT
ATOM      1  C   UNL     1      17.088  20.008  21.590  1.00  0.00     0.000 C 
ENDROOT
BRANCH   1   2
ATOM      2  C   UNL     1      17.349  18.544  21.207  1.00  0.00     0.000 C 
BRANCH   2   3
ATOM      3  C   UNL     1      16.068  17.693  21.254  1.00  0.00     0.000 C 
BRANCH   3   4
ATOM      4  C   UNL     1      14.914  18.396  21.995  1.00  0.00     0.000 C 
BRANCH   4   5
ATOM      5  C   UNL     1      14.535  17.777  23.358  1.00  0.00     0.000 C 
BRANCH   5   6
ATOM      6  C   UNL     1      15.076  18.523  24.591  1.00  0.00     0.000 C 
BRANCH   6   7
ATOM      7  C   UNL     1      14.066  19.531  25.170  1.00  0.00     0.000 C 
BRANCH   7   8
ATOM      8  C   UNL     1      12.720  18.874  25.514  1.00  0.00     0.000 C 
BRANCH   8   9
ATOM      9  C   UNL     1      12.666  18.386  26.971  1.00  0.00     0.000 C 
BRANCH   9  10
ATOM     10  C   UNL     1      11.761  19.289  27.821  1.00  0.00     0.006 C 
BRANCH  10  11
ATOM     11  C   UNL     1      12.489  20.549  28.305  1.00  0.00     0.053 C 
BRANCH  11  12
ATOM     12  C   UNL     1      12.826  20.471  29.763  1.00  0.00     0.041 C 
ATOM     13  O   UNL     1      13.720  21.212  30.247  1.00  0.00    -0.550 OA
ATOM     14  O   UNL     1      12.180  19.550  30.576  1.00  0.00    -0.550 OA
ENDBRANCH  11  12
ENDBRANCH  10  11
ENDBRANCH   9  10
ENDBRANCH   8   9
ENDBRANCH   7   8
ENDBRANCH   6   7
ENDBRANCH   5   6
ENDBRANCH   4   5
ENDBRANCH   3   4
ENDBRANCH   2   3
ENDBRANCH   1   2
BRANCH   1  15
ATOM     15  C   UNL     1      17.830  20.419  22.875  1.00  0.00     0.000 C 
BRANCH  15  16
ATOM     16  C   UNL     1      17.576  21.883  23.274  1.00  0.00     0.000 C 
BRANCH  16  17
ATOM     17  C   UNL     1      16.210  22.113  23.954  1.00  0.00     0.000 C 
BRANCH  17  18
ATOM     18  C   UNL     1      15.381  23.201  23.250  1.00  0.00    -0.000 C 
BRANCH  18  19
ATOM     19  C   UNL     1      13.952  22.736  22.921  1.00  0.00    -0.000 C 
BRANCH  19  20
ATOM     20  C   UNL     1      13.827  21.919  21.620  1.00  0.00    -0.000 C 
BRANCH  20  21
ATOM     21  C   UNL     1      14.683  22.475  20.461  1.00  0.00    -0.000 C 
BRANCH  21  22
ATOM     22  C   UNL     1      13.864  22.668  19.173  1.00  0.00    -0.000 C 
BRANCH  22  23
ATOM     23  C   UNL     1      12.360  22.831  19.447  1.00  0.00    -0.000 C 
BRANCH  23  24
ATOM     24  C   UNL     1      11.869  24.272  19.222  1.00  0.00    -0.000 C 
BRANCH  24  25
ATOM     25  C   UNL     1      11.213  24.870  20.475  1.00  0.00    -0.003 C 
ATOM     26  C   UNL     1      10.715  23.799  21.446  1.00  0.00     0.004 C 
ENDBRANCH  24  25
ENDBRANCH  23  24
ENDBRANCH  22  23
ENDBRANCH  21  22
ENDBRANCH  20  21
ENDBRANCH  19  20
ENDBRANCH  18  19
ENDBRANCH  17  18
ENDBRANCH  16  17
ENDBRANCH  15  16
ENDBRANCH   1  15
TORSDOF 22
ENDMDL
MODEL 5
REMARK VINA RESULT:    -4.011      4.275      7.488
REMARK INTER + INTRA:         -13.258
REMARK INTER:                  -9.736
REMARK INTRA:                  -3.523
REMARK UNBOUND:                -4.088
REMARK SMILES CCCCCCCCCCCCCCCCCCCCCCCC(=O)[O-]
REMARK SMILES IDX 13 1 14 2 15 3 16 4 17 5 18 6 19 7 20 8 21 9 22 10 23 11
REMARK SMILES IDX 24 12 25 13 26 14 12 15 11 16 10 17 9 18 8 19 7 20 6 21 5 22
REMARK SMILES IDX 4 23 3 24 2 25 1 26
REMARK H PARENT
REMARK Flexibility Score: inf
ROOT
ATOM      1  C   UNL     1      12.411  18.108  27.292  1.00  0.00     0.000 C 
ENDROOT
BRANCH   1   2
ATOM      2  C   UNL     1      13.093  19.287  28.004  1.00  0.00     0.000 C 
BRANCH   2   3
ATOM      3  C   UNL     1      12.344  20.612  27.783  1.00  0.00     0.000 C 
BRANCH   3   4
ATOM      4  C   UNL     1      12.798  21.721  28.750  1.00  0.00     0.000 C 
BRANCH   4   5
ATOM      5  C   UNL     1      13.355  21.226  30.102  1.00  0.00     0.000 C 
BRANCH   5   6
ATOM      6  C   UNL     1      12.681  21.827  31.349  1.00  0.00     0.000 C 
BRANCH   6   7
ATOM      7  C   UNL     1      11.144  21.798  31.269  1.00  0.00     0.000 C 
BRANCH   7   8
ATOM      8  C   UNL     1      10.555  20.499  31.840  1.00  0.00     0.000 C 
BRANCH   8   9
ATOM      9  C   UNL     1       9.673  19.762  30.820  1.00  0.00     0.000 C 
BRANCH   9  10
ATOM     10  C   UNL     1      10.378  18.505  30.289  1.00  0.00     0.006 C 
BRANCH  10  11
ATOM     11  C   UNL     1      11.549  18.078  31.182  1.00  0.00     0.053 C 
BRANCH  11  12
ATOM     12  C   UNL     1      11.273  16.779  31.877  1.00  0.00     0.041 C 
ATOM     13  O   UNL     1      10.760  16.772  33.026  1.00  0.00    -0.550 OA
ATOM     14  O   UNL     1      11.622  15.580  31.271  1.00  0.00    -0.550 OA
ENDBRANCH  11  12
ENDBRANCH  10  11
ENDBRANCH   9  10
ENDBRANCH   8   9
ENDBRANCH   7   8
ENDBRANCH   6   7
ENDBRANCH   5   6
ENDBRANCH   4   5
ENDBRANCH   3   4
ENDBRANCH   2   3
ENDBRANCH   1   2
BRANCH   1  15
ATOM     15  C   UNL     1      13.336  17.427  26.267  1.00  0.00     0.000 C 
BRANCH  15  16
ATOM     16  C   UNL     1      14.775  17.970  26.302  1.00  0.00     0.000 C 
BRANCH  16  17
ATOM     17  C   UNL     1      15.232  18.604  24.971  1.00  0.00     0.000 C 
BRANCH  17  18
ATOM     18  C   UNL     1      14.501  19.924  24.671  1.00  0.00    -0.000 C 
BRANCH  18  19
ATOM     19  C   UNL     1      15.027  20.615  23.400  1.00  0.00    -0.000 C 
BRANCH  19  20
ATOM     20  C   UNL     1      16.523  20.383  23.117  1.00  0.00    -0.000 C 
BRANCH  20  21
ATOM     21  C   UNL     1      16.816  19.983  21.654  1.00  0.00    -0.000 C 
BRANCH  21  22
ATOM     22  C   UNL     1      17.411  18.569  21.545  1.00  0.00    -0.000 C 
BRANCH  22  23
ATOM     23  C   UNL     1      16.484  17.592  20.805  1.00  0.00    -0.000 C 
BRANCH  23  24
ATOM     24  C   UNL     1      15.502  16.876  21.749  1.00  0.00    -0.000 C 
BRANCH  24  25
ATOM     25  C   UNL     1      14.091  17.479  21.693  1.00  0.00    -0.003 C 
ATOM     26  C   UNL     1      13.080  16.688  22.524  1.00  0.00     0.004 C 
ENDBRANCH  24  25
ENDBRANCH  23  24
ENDBRANCH  22  23
ENDBRANCH  21  22
ENDBRANCH  20  21
ENDBRANCH  19  20
ENDBRANCH  18  19
ENDBRANCH  17  18
ENDBRANCH  16  17
ENDBRANCH  15  16
ENDBRANCH   1  15
TORSDOF 22
ENDMDL
MODEL 6
REMARK VINA RESULT:    -3.984      3.179      6.499
REMARK INTER + INTRA:         -13.196
REMARK INTER:                 -10.045
REMARK INTRA:                  -3.151
REMARK UNBOUND:                -4.088
REMARK SMILES CCCCCCCCCCCCCCCCCCCCCCCC(=O)[O-]
REMARK SMILES IDX 13 1 14 2 15 3 16 4 17 5 18 6 19 7 20 8 21 9 22 10 23 11
REMARK SMILES IDX 24 12 25 13 26 14 12 15 11 16 10 17 9 18 8 19 7 20 6 21 5 22
REMARK SMILES IDX 4 23 3 24 2 25 1 26
REMARK H PARENT
REMARK Flexibility Score: inf
ROOT
ATOM      1  C   UNL     1      14.269  19.429  24.593  1.00  0.00     0.000 C 
ENDROOT
BRANCH   1   2
ATOM      2  C   UNL     1      14.935  18.190  25.212  1.00  0.00     0.000 C 
BRANCH   2   3
ATOM      3  C   UNL     1      14.746  18.129  26.737  1.00  0.00     0.000 C 
BRANCH   3   4
ATOM      4  C   UNL     1      13.328  18.539  27.178  1.00  0.00     0.000 C 
BRANCH   4   5
ATOM      5  C   UNL     1      12.232  17.478  26.938  1.00  0.00     0.000 C 
BRANCH   5   6
ATOM      6  C   UNL     1      12.333  16.219  27.818  1.00  0.00     0.000 C 
BRANCH   6   7
ATOM      7  C   UNL     1      11.203  16.127  28.859  1.00  0.00     0.000 C 
BRANCH   7   8
ATOM      8  C   UNL     1      11.741  16.049  30.297  1.00  0.00     0.000 C 
BRANCH   8   9
ATOM      9  C   UNL     1      11.199  17.182  31.183  1.00  0.00     0.000 C 
BRANCH   9  10
ATOM     10  C   UNL     1      11.816  18.532  30.791  1.00  0.00     0.006 C 
BRANCH  10  11
ATOM     11  C   UNL     1      10.774  19.499  30.216  1.00  0.00     0.053 C 
BRANCH  11  12
ATOM     12  C   UNL     1      11.391  20.802  29.808  1.00  0.00     0.041 C 
ATOM     13  O   UNL     1      12.000  21.508  30.654  1.00  0.00    -0.550 OA
ATOM     14  O   UNL     1      11.257  21.256  28.502  1.00  0.00    -0.550 OA
ENDBRANCH  11  12
ENDBRANCH  10  11
ENDBRANCH   9  10
ENDBRANCH   8   9
ENDBRANCH   7   8
ENDBRANCH   6   7
ENDBRANCH   5   6
ENDBRANCH   4   5
ENDBRANCH   3   4
ENDBRANCH   2   3
ENDBRANCH   1   2
BRANCH   1  15
ATOM     15  C   UNL     1      13.579  19.115  23.254  1.00  0.00     0.000 C 
BRANCH  15  16
ATOM     16  C   UNL     1      13.229  17.626  23.092  1.00  0.00     0.000 C 
BRANCH  16  17
ATOM     17  C   UNL     1      14.026  16.919  21.974  1.00  0.00     0.000 C 
BRANCH  17  18
ATOM     18  C   UNL     1      14.875  17.903  21.150  1.00  0.00    -0.000 C 
BRANCH  18  19
ATOM     19  C   UNL     1      16.306  17.391  20.910  1.00  0.00    -0.000 C 
BRANCH  19  20
ATOM     20  C   UNL     1      17.414  18.279  21.509  1.00  0.00    -0.000 C 
BRANCH  20  21
ATOM     21  C   UNL     1      16.983  19.749  21.705  1.00  0.00    -0.000 C 
BRANCH  21  22
ATOM     22  C   UNL     1      17.345  20.281  23.103  1.00  0.00    -0.000 C 
BRANCH  22  23
ATOM     23  C   UNL     1      17.552  21.804  23.121  1.00  0.00    -0.000 C 
BRANCH  23  24
ATOM     24  C   UNL     1      16.651  22.512  24.148  1.00  0.00    -0.000 C 
BRANCH  24  25
ATOM     25  C   UNL     1      15.683  23.507  23.491  1.00  0.00    -0.003 C 
ATOM     26  C   UNL     1      14.540  22.813  22.750  1.00  0.00     0.004 C 
ENDBRANCH  24  25
ENDBRANCH  23  24
ENDBRANCH  22  23
ENDBRANCH  21  22
ENDBRANCH  20  21
ENDBRANCH  19  20
ENDBRANCH  18  19
ENDBRANCH  17  18
ENDBRANCH  16  17
ENDBRANCH  15  16
ENDBRANCH   1  15
TORSDOF 22
ENDMDL
MODEL 7
REMARK VINA RESULT:    -3.979      2.987      5.599
REMARK INTER + INTRA:         -13.186
REMARK INTER:                  -8.986
REMARK INTRA:                  -4.200
REMARK UNBOUND:                -4.088
REMARK SMILES CCCCCCCCCCCCCCCCCCCCCCCC(=O)[O-]
REMARK SMILES IDX 13 1 14 2 15 3 16 4 17 5 18 6 19 7 20 8 21 9 22 10 23 11
REMARK SMILES IDX 24 12 25 13 26 14 12 15 11 16 10 17 9 18 8 19 7 20 6 21 5 22
REMARK SMILES IDX 4 23 3 24 2 25 1 26
REMARK H PARENT
REMARK Flexibility Score: inf
ROOT
ATOM      1  C   UNL     1      13.741  17.883  22.663  1.00  0.00     0.000 C 
ENDROOT
BRANCH   1   2
ATOM      2  C   UNL     1      15.175  17.429  22.351  1.00  0.00     0.000 C 
BRANCH   2   3
ATOM      3  C   UNL     1      15.870  18.355  21.338  1.00  0.00     0.000 C 
BRANCH   3   4
ATOM      4  C   UNL     1      17.248  18.841  21.825  1.00  0.00     0.000 C 
BRANCH   4   5
ATOM      5  C   UNL     1      17.387  20.371  21.985  1.00  0.00     0.000 C 
BRANCH   5   6
ATOM      6  C   UNL     1      17.425  20.878  23.439  1.00  0.00     0.000 C 
BRANCH   6   7
ATOM      7  C   UNL     1      16.652  22.195  23.632  1.00  0.00     0.000 C 
BRANCH   7   8
ATOM      8  C   UNL     1      15.177  21.958  23.991  1.00  0.00     0.000 C 
BRANCH   8   9
ATOM      9  C   UNL     1      14.221  22.712  23.052  1.00  0.00     0.000 C 
BRANCH   9  10
ATOM     10  C   UNL     1      13.500  21.741  22.106  1.00  0.00     0.006 C 
BRANCH  10  11
ATOM     11  C   UNL     1      14.207  21.623  20.750  1.00  0.00     0.053 C 
BRANCH  11  12
ATOM     12  C   UNL     1      13.851  22.756  19.836  1.00  0.00     0.041 C 
ATOM     13  O   UNL     1      12.691  23.244  19.855  1.00  0.00    -0.550 OA
ATOM     14  O   UNL     1      14.789  23.243  18.936  1.00  0.00    -0.550 OA
ENDBRANCH  11  12
ENDBRANCH  10  11
ENDBRANCH   9  10
ENDBRANCH   8   9
ENDBRANCH   7   8
ENDBRANCH   6   7
ENDBRANCH   5   6
ENDBRANCH   4   5
ENDBRANCH   3   4
ENDBRANCH   2   3
ENDBRANCH   1   2
BRANCH   1  15
ATOM     15  C   UNL     1      13.612  18.493  24.070  1.00  0.00     0.000 C 
BRANCH  15  16
ATOM     16  C   UNL     1      14.912  18.399  24.888  1.00  0.00     0.000 C 
BRANCH  16  17
ATOM     17  C   UNL     1      14.691  18.000  26.362  1.00  0.00     0.000 C 
BRANCH  17  18
ATOM     18  C   UNL     1      13.284  18.370  26.864  1.00  0.00    -0.000 C 
BRANCH  18  19
ATOM     19  C   UNL     1      13.284  19.634  27.742  1.00  0.00    -0.000 C 
BRANCH  19  20
ATOM     20  C   UNL     1      12.138  20.621  27.446  1.00  0.00    -0.000 C 
BRANCH  20  21
ATOM     21  C   UNL     1      11.716  20.643  25.961  1.00  0.00    -0.000 C 
BRANCH  21  22
ATOM     22  C   UNL     1      11.393  22.065  25.468  1.00  0.00    -0.000 C 
BRANCH  22  23
ATOM     23  C   UNL     1      12.165  23.147  26.239  1.00  0.00    -0.000 C 
BRANCH  23  24
ATOM     24  C   UNL     1      12.070  24.531  25.572  1.00  0.00    -0.000 C 
BRANCH  24  25
ATOM     25  C   UNL     1      13.403  25.293  25.612  1.00  0.00    -0.003 C 
ATOM     26  C   UNL     1      14.315  24.825  26.745  1.00  0.00     0.004 C 
ENDBRANCH  24  25
ENDBRANCH  23  24
ENDBRANCH  22  23
ENDBRANCH  21  22
ENDBRANCH  20  21
ENDBRANCH  19  20
ENDBRANCH  18  19
ENDBRANCH  17  18
ENDBRANCH  16  17
ENDBRANCH  15  16
ENDBRANCH   1  15
TORSDOF 22
ENDMDL
MODEL 8
REMARK VINA RESULT:    -3.951      6.522     10.675
REMARK INTER + INTRA:         -13.122
REMARK INTER:                  -8.721
REMARK INTRA:                  -4.401
REMARK UNBOUND:                -4.088
REMARK SMILES CCCCCCCCCCCCCCCCCCCCCCCC(=O)[O-]
REMARK SMILES IDX 13 1 14 2 15 3 16 4 17 5 18 6 19 7 20 8 21 9 22 10 23 11
REMARK SMILES IDX 24 12 25 13 26 14 12 15 11 16 10 17 9 18 8 19 7 20 6 21 5 22
REMARK SMILES IDX 4 23 3 24 2 25 1 26
REMARK H PARENT
REMARK Flexibility Score: inf
ROOT
ATOM      1  C   UNL     1       7.675  18.163  30.536  1.00  0.00     0.000 C 
ENDROOT
BRANCH   1   2
ATOM      2  C   UNL     1       8.356  19.515  30.800  1.00  0.00     0.000 C 
BRANCH   2   3
ATOM      3  C   UNL     1       8.774  19.677  32.272  1.00  0.00     0.000 C 
BRANCH   3   4
ATOM      4  C   UNL     1      10.139  20.375  32.429  1.00  0.00     0.000 C 
BRANCH   4   5
ATOM      5  C   UNL     1      10.704  21.011  31.140  1.00  0.00     0.000 C 
BRANCH   5   6
ATOM      6  C   UNL     1      12.227  20.880  30.957  1.00  0.00     0.000 C 
BRANCH   6   7
ATOM      7  C   UNL     1      12.702  21.328  29.563  1.00  0.00     0.000 C 
BRANCH   7   8
ATOM      8  C   UNL     1      12.916  20.141  28.611  1.00  0.00     0.000 C 
BRANCH   8   9
ATOM      9  C   UNL     1      12.226  20.351  27.253  1.00  0.00     0.000 C 
BRANCH   9  10
ATOM     10  C   UNL     1      12.819  19.423  26.185  1.00  0.00     0.006 C 
BRANCH  10  11
ATOM     11  C   UNL     1      13.579  18.241  26.801  1.00  0.00     0.053 C 
BRANCH  11  12
ATOM     12  C   UNL     1      14.858  17.962  26.073  1.00  0.00     0.041 C 
ATOM     13  O   UNL     1      14.911  18.072  24.820  1.00  0.00    -0.550 OA
ATOM     14  O   UNL     1      15.979  17.541  26.775  1.00  0.00    -0.550 OA
ENDBRANCH  11  12
ENDBRANCH  10  11
ENDBRANCH   9  10
ENDBRANCH   8   9
ENDBRANCH   7   8
ENDBRANCH   6   7
ENDBRANCH   5   6
ENDBRANCH   4   5
ENDBRANCH   3   4
ENDBRANCH   2   3
ENDBRANCH   1   2
BRANCH   1  15
ATOM     15  C   UNL     1       8.262  17.441  29.309  1.00  0.00     0.000 C 
BRANCH  15  16
ATOM     16  C   UNL     1       9.662  17.950  28.925  1.00  0.00     0.000 C 
BRANCH  16  17
ATOM     17  C   UNL     1      10.574  16.862  28.322  1.00  0.00     0.000 C 
BRANCH  17  18
ATOM     18  C   UNL     1      11.639  16.372  29.319  1.00  0.00    -0.000 C 
BRANCH  18  19
ATOM     19  C   UNL     1      11.631  17.172  30.633  1.00  0.00    -0.000 C 
BRANCH  19  20
ATOM     20  C   UNL     1      11.717  16.311  31.908  1.00  0.00    -0.000 C 
BRANCH  20  21
ATOM     21  C   UNL     1      10.523  16.512  32.867  1.00  0.00    -0.000 C 
BRANCH  21  22
ATOM     22  C   UNL     1       9.327  15.614  32.504  1.00  0.00    -0.000 C 
BRANCH  22  23
ATOM     23  C   UNL     1       9.760  14.222  32.015  1.00  0.00    -0.000 C 
BRANCH  23  24
ATOM     24  C   UNL     1       9.237  13.901  30.603  1.00  0.00    -0.000 C 
BRANCH  24  25
ATOM     25  C   UNL     1       7.847  13.249  30.627  1.00  0.00    -0.003 C 
ATOM     26  C   UNL     1       7.687  12.247  31.771  1.00  0.00     0.004 C 
ENDBRANCH  24  25
ENDBRANCH  23  24
ENDBRANCH  22  23
ENDBRANCH  21  22
ENDBRANCH  20  21
ENDBRANCH  19  20
ENDBRANCH  18  19
ENDBRANCH  17  18
ENDBRANCH  16  17
ENDBRANCH  15  16
ENDBRANCH   1  15
TORSDOF 22
ENDMDL
MODEL 9
REMARK VINA RESULT:    -3.906      2.312      6.338
REMARK INTER + INTRA:         -13.018
REMARK INTER:                  -9.550
REMARK INTRA:                  -3.468
REMARK UNBOUND:                -4.088
REMARK SMILES CCCCCCCCCCCCCCCCCCCCCCCC(=O)[O-]
REMARK SMILES IDX 13 1 14 2 15 3 16 4 17 5 18 6 19 7 20 8 21 9 22 10 23 11
REMARK SMILES IDX 24 12 25 13 26 14 12 15 11 16 10 17 9 18 8 19 7 20 6 21 5 22
REMARK SMILES IDX 4 23 3 24 2 25 1 26
REMARK H PARENT
REMARK Flexibility Score: inf
ROOT
ATOM      1  C   UNL     1      16.951  19.141  22.166  1.00  0.00     0.000 C 
ENDROOT
BRANCH   1   2
ATOM      2  C   UNL     1      16.773  20.519  21.509  1.00  0.00     0.000 C 
BRANCH   2   3
ATOM      3  C   UNL     1      15.868  21.446  22.339  1.00  0.00     0.000 C 
BRANCH   3   4
ATOM      4  C   UNL     1      14.566  21.818  21.607  1.00  0.00     0.000 C 
BRANCH   4   5
ATOM      5  C   UNL     1      13.777  22.994  22.224  1.00  0.00     0.000 C 
BRANCH   5   6
ATOM      6  C   UNL     1      13.316  22.784  23.678  1.00  0.00     0.000 C 
BRANCH   6   7
ATOM      7  C   UNL     1      14.097  23.650  24.683  1.00  0.00     0.000 C 
BRANCH   7   8
ATOM      8  C   UNL     1      13.421  23.696  26.062  1.00  0.00     0.000 C 
BRANCH   8   9
ATOM      9  C   UNL     1      12.952  22.307  26.527  1.00  0.00     0.000 C 
BRANCH   9  10
ATOM     10  C   UNL     1      12.582  22.321  28.017  1.00  0.00     0.006 C 
BRANCH  10  11
ATOM     11  C   UNL     1      12.564  20.911  28.622  1.00  0.00     0.053 C 
BRANCH  11  12
ATOM     12  C   UNL     1      12.724  20.944  30.111  1.00  0.00     0.041 C 
ATOM     13  O   UNL     1      13.771  21.418  30.625  1.00  0.00    -0.550 OA
ATOM     14  O   UNL     1      11.736  20.413  30.928  1.00  0.00    -0.550 OA
ENDBRANCH  11  12
ENDBRANCH  10  11
ENDBRANCH   9  10
ENDBRANCH   8   9
ENDBRANCH   7   8
ENDBRANCH   6   7
ENDBRANCH   5   6
ENDBRANCH   4   5
ENDBRANCH   3   4
ENDBRANCH   2   3
ENDBRANCH   1   2
BRANCH   1  15
ATOM     15  C   UNL     1      17.045  18.006  21.132  1.00  0.00     0.000 C 
BRANCH  15  16
ATOM     16  C   UNL     1      15.922  16.965  21.277  1.00  0.00     0.000 C 
BRANCH  16  17
ATOM     17  C   UNL     1      14.518  17.516  20.950  1.00  0.00     0.000 C 
BRANCH  17  18
ATOM     18  C   UNL     1      13.407  16.781  21.720  1.00  0.00    -0.000 C 
BRANCH  18  19
ATOM     19  C   UNL     1      13.244  17.299  23.160  1.00  0.00    -0.000 C 
BRANCH  19  20
ATOM     20  C   UNL     1      13.323  18.831  23.304  1.00  0.00    -0.000 C 
BRANCH  20  21
ATOM     21  C   UNL     1      13.893  19.291  24.663  1.00  0.00    -0.000 C 
BRANCH  21  22
ATOM     22  C   UNL     1      15.210  18.576  25.015  1.00  0.00    -0.000 C 
BRANCH  22  23
ATOM     23  C   UNL     1      15.131  17.813  26.346  1.00  0.00    -0.000 C 
BRANCH  23  24
ATOM     24  C   UNL     1      13.771  17.981  27.046  1.00  0.00    -0.000 C 
BRANCH  24  25
ATOM     25  C   UNL     1      13.004  16.656  27.164  1.00  0.00    -0.003 C 
ATOM     26  C   UNL     1      11.716  16.646  26.340  1.00  0.00     0.004 C 
ENDBRANCH  24  25
ENDBRANCH  23  24
ENDBRANCH  22  23
ENDBRANCH  21  22
ENDBRANCH  20  21
ENDBRANCH  19  20
ENDBRANCH  18  19
ENDBRANCH  17  18
ENDBRANCH  16  17
ENDBRANCH  15  16
ENDBRANCH   1  15
TORSDOF 22
ENDMDL
