MODEL 1
REMARK VINA RESULT:    -3.588      0.000      0.000
REMARK INTER + INTRA:         -12.869
REMARK INTER:                  -9.041
REMARK INTRA:                  -3.828
REMARK UNBOUND:                -3.828
REMARK SMILES CCCCCCCCCCCCCCCCCCCCCCCCCCCC(=O)[O-]
REMARK SMILES IDX 15 1 16 2 17 3 18 4 19 5 20 6 21 7 22 8 23 9 24 10 25 11
REMARK SMILES IDX 26 12 27 13 28 14 29 15 30 16 14 17 13 18 12 19 11 20 10 21
REMARK SMILES IDX 9 22 8 23 7 24 6 25 5 26 4 27 3 28 2 29 1 30
REMARK H PARENT
REMARK Flexibility Score: inf
ROOT
ATOM      1  C   UNL     1     -50.768 -49.135  68.574  1.00  0.00     0.000 C 
ENDROOT
BRANCH   1   2
ATOM      2  C   UNL     1     -50.577 -49.937  69.878  1.00  0.00     0.000 C 
BRANCH   2   3
ATOM      3  C   UNL     1     -50.036 -49.121  71.069  1.00  0.00     0.000 C 
BRANCH   3   4
ATOM      4  C   UNL     1     -48.683 -48.428  70.821  1.00  0.00     0.000 C 
BRANCH   4   5
ATOM      5  C   UNL     1     -47.476 -49.381  70.694  1.00  0.00     0.000 C 
BRANCH   5   6
ATOM      6  C   UNL     1     -46.098 -48.701  70.789  1.00  0.00     0.000 C 
BRANCH   6   7
ATOM      7  C   UNL     1     -46.199 -47.192  71.054  1.00  0.00     0.000 C 
BRANCH   7   8
ATOM      8  C   UNL     1     -44.924 -46.466  70.606  1.00  0.00     0.000 C 
BRANCH   8   9
ATOM      9  C   UNL     1     -43.679 -47.098  71.248  1.00  0.00     0.000 C 
BRANCH   9  10
ATOM     10  C   UNL     1     -42.651 -46.052  71.712  1.00  0.00     0.000 C 
BRANCH  10  11
ATOM     11  C   UNL     1     -42.657 -45.849  73.237  1.00  0.00     0.000 C 
BRANCH  11  12
ATOM     12  C   UNL     1     -43.816 -44.963  73.717  1.00  0.00     0.006 C 
BRANCH  12  13
ATOM     13  C   UNL     1     -43.375 -43.530  74.040  1.00  0.00     0.053 C 
BRANCH  13  14
ATOM     14  C   UNL     1     -44.197 -42.972  75.160  1.00  0.00     0.041 C 
ATOM     15  O   UNL     1     -44.316 -43.611  76.238  1.00  0.00    -0.550 OA
ATOM     16  O   UNL     1     -44.872 -41.768  74.993  1.00  0.00    -0.550 OA
ENDBRANCH  13  14
ENDBRANCH  12  13
ENDBRANCH  11  12
ENDBRANCH  10  11
ENDBRANCH   9  10
ENDBRANCH   8   9
ENDBRANCH   7   8
ENDBRANCH   6   7
ENDBRANCH   5   6
ENDBRANCH   4   5
ENDBRANCH   3   4
ENDBRANCH   2   3
ENDBRANCH   1   2
BRANCH   1  17
ATOM     17  C   UNL     1     -49.794 -49.502  67.438  1.00  0.00     0.000 C 
BRANCH  17  18
ATOM     18  C   UNL     1     -48.723 -48.437  67.128  1.00  0.00     0.000 C 
BRANCH  18  19
ATOM     19  C   UNL     1     -47.376 -49.027  66.658  1.00  0.00     0.000 C 
BRANCH  19  20
ATOM     20  C   UNL     1     -46.169 -48.362  67.342  1.00  0.00     0.000 C 
BRANCH  20  21
ATOM     21  C   UNL     1     -44.863 -49.140  67.110  1.00  0.00     0.000 C 
BRANCH  21  22
ATOM     22  C   UNL     1     -43.617 -48.319  67.491  1.00  0.00    -0.000 C 
BRANCH  22  23
ATOM     23  C   UNL     1     -42.854 -47.807  66.258  1.00  0.00    -0.000 C 
BRANCH  23  24
ATOM     24  C   UNL     1     -42.250 -46.412  66.480  1.00  0.00    -0.000 C 
BRANCH  24  25
ATOM     25  C   UNL     1     -42.482 -45.935  67.919  1.00  0.00    -0.000 C 
BRANCH  25  26
ATOM     26  C   UNL     1     -41.416 -44.910  68.336  1.00  0.00    -0.000 C 
BRANCH  26  27
ATOM     27  C   UNL     1     -41.968 -43.477  68.400  1.00  0.00    -0.000 C 
BRANCH  27  28
ATOM     28  C   UNL     1     -43.263 -43.378  69.229  1.00  0.00    -0.000 C 
BRANCH  28  29
ATOM     29  C   UNL     1     -43.212 -42.250  70.268  1.00  0.00    -0.003 C 
ATOM     30  C   UNL     1     -42.369 -41.060  69.806  1.00  0.00     0.004 C 
ENDBRANCH  28  29
ENDBRANCH  27  28
ENDBRANCH  26  27
ENDBRANCH  25  26
ENDBRANCH  24  25
ENDBRANCH  23  24
ENDBRANCH  22  23
ENDBRANCH  21  22
ENDBRANCH  20  21
ENDBRANCH  19  20
ENDBRANCH  18  19
ENDBRANCH  17  18
ENDBRANCH   1  17
TORSDOF 26
ENDMDL
MODEL 2
REMARK VINA RESULT:    -3.583      2.907      7.786
REMARK INTER + INTRA:         -12.858
REMARK INTER:                  -8.648
REMARK INTRA:                  -4.210
REMARK UNBOUND:                -3.828
REMARK SMILES CCCCCCCCCCCCCCCCCCCCCCCCCCCC(=O)[O-]
REMARK SMILES IDX 15 1 16 2 17 3 18 4 19 5 20 6 21 7 22 8 23 9 24 10 25 11
REMARK SMILES IDX 26 12 27 13 28 14 29 15 30 16 14 17 13 18 12 19 11 20 10 21
REMARK SMILES IDX 9 22 8 23 7 24 6 25 5 26 4 27 3 28 2 29 1 30
REMARK H PARENT
REMARK Flexibility Score: inf
ROOT
ATOM      1  C   UNL     1     -42.301 -41.659  74.105  1.00  0.00     0.000 C 
ENDROOT
BRANCH   1   2
ATOM      2  C   UNL     1     -42.708 -42.943  73.353  1.00  0.00     0.000 C 
BRANCH   2   3
ATOM      3  C   UNL     1     -43.165 -44.107  74.254  1.00  0.00     0.000 C 
BRANCH   3   4
ATOM      4  C   UNL     1     -44.001 -45.190  73.543  1.00  0.00     0.000 C 
BRANCH   4   5
ATOM      5  C   UNL     1     -43.311 -45.854  72.333  1.00  0.00     0.000 C 
BRANCH   5   6
ATOM      6  C   UNL     1     -41.846 -46.266  72.567  1.00  0.00     0.000 C 
BRANCH   6   7
ATOM      7  C   UNL     1     -41.548 -47.694  72.087  1.00  0.00     0.000 C 
BRANCH   7   8
ATOM      8  C   UNL     1     -41.533 -47.770  70.555  1.00  0.00     0.000 C 
BRANCH   8   9
ATOM      9  C   UNL     1     -42.668 -48.670  70.040  1.00  0.00     0.000 C 
BRANCH   9  10
ATOM     10  C   UNL     1     -43.656 -47.922  69.130  1.00  0.00     0.000 C 
BRANCH  10  11
ATOM     11  C   UNL     1     -45.095 -48.456  69.249  1.00  0.00     0.000 C 
BRANCH  11  12
ATOM     12  C   UNL     1     -45.593 -48.508  70.701  1.00  0.00     0.006 C 
BRANCH  12  13
ATOM     13  C   UNL     1     -46.390 -47.260  71.101  1.00  0.00     0.053 C 
BRANCH  13  14
ATOM     14  C   UNL     1     -47.803 -47.368  70.620  1.00  0.00     0.041 C 
ATOM     15  O   UNL     1     -48.659 -47.992  71.302  1.00  0.00    -0.550 OA
ATOM     16  O   UNL     1     -48.164 -46.822  69.394  1.00  0.00    -0.550 OA
ENDBRANCH  13  14
ENDBRANCH  12  13
ENDBRANCH  11  12
ENDBRANCH  10  11
ENDBRANCH   9  10
ENDBRANCH   8   9
ENDBRANCH   7   8
ENDBRANCH   6   7
ENDBRANCH   5   6
ENDBRANCH   4   5
ENDBRANCH   3   4
ENDBRANCH   2   3
ENDBRANCH   1   2
BRANCH   1  17
ATOM     17  C   UNL     1     -43.000 -41.451  75.462  1.00  0.00     0.000 C 
BRANCH  17  18
ATOM     18  C   UNL     1     -44.068 -40.339  75.481  1.00  0.00     0.000 C 
BRANCH  18  19
ATOM     19  C   UNL     1     -45.392 -40.735  74.791  1.00  0.00     0.000 C 
BRANCH  19  20
ATOM     20  C   UNL     1     -45.898 -39.654  73.820  1.00  0.00     0.000 C 
BRANCH  20  21
ATOM     21  C   UNL     1     -45.463 -39.922  72.370  1.00  0.00     0.000 C 
BRANCH  21  22
ATOM     22  C   UNL     1     -44.336 -38.977  71.913  1.00  0.00    -0.000 C 
BRANCH  22  23
ATOM     23  C   UNL     1     -43.282 -39.695  71.053  1.00  0.00    -0.000 C 
BRANCH  23  24
ATOM     24  C   UNL     1     -43.739 -41.094  70.614  1.00  0.00    -0.000 C 
BRANCH  24  25
ATOM     25  C   UNL     1     -42.884 -41.612  69.451  1.00  0.00    -0.000 C 
BRANCH  25  26
ATOM     26  C   UNL     1     -43.046 -43.130  69.283  1.00  0.00    -0.000 C 
BRANCH  26  27
ATOM     27  C   UNL     1     -41.771 -43.906  69.650  1.00  0.00    -0.000 C 
BRANCH  27  28
ATOM     28  C   UNL     1     -41.346 -44.899  68.553  1.00  0.00    -0.000 C 
BRANCH  28  29
ATOM     29  C   UNL     1     -42.327 -44.928  67.373  1.00  0.00    -0.003 C 
ATOM     30  C   UNL     1     -42.011 -46.038  66.370  1.00  0.00     0.004 C 
ENDBRANCH  28  29
ENDBRANCH  27  28
ENDBRANCH  26  27
ENDBRANCH  25  26
ENDBRANCH  24  25
ENDBRANCH  23  24
ENDBRANCH  22  23
ENDBRANCH  21  22
ENDBRANCH  20  21
ENDBRANCH  19  20
ENDBRANCH  18  19
ENDBRANCH  17  18
ENDBRANCH   1  17
TORSDOF 26
ENDMDL
MODEL 3
REMARK VINA RESULT:    -3.579      2.676      6.140
REMARK INTER + INTRA:         -12.846
REMARK INTER:                  -7.715
REMARK INTRA:                  -5.131
REMARK UNBOUND:                -3.828
REMARK SMILES CCCCCCCCCCCCCCCCCCCCCCCCCCCC(=O)[O-]
REMARK SMILES IDX 15 1 16 2 17 3 18 4 19 5 20 6 21 7 22 8 23 9 24 10 25 11
REMARK SMILES IDX 26 12 27 13 28 14 29 15 30 16 14 17 13 18 12 19 11 20 10 21
REMARK SMILES IDX 9 22 8 23 7 24 6 25 5 26 4 27 3 28 2 29 1 30
REMARK H PARENT
REMARK Flexibility Score: inf
ROOT
ATOM      1  C   UNL     1     -44.240 -45.833  71.154  1.00  0.00     0.000 C 
ENDROOT
BRANCH   1   2
ATOM      2  C   UNL     1     -45.417 -46.829  71.209  1.00  0.00     0.000 C 
BRANCH   2   3
ATOM      3  C   UNL     1     -45.399 -47.917  70.118  1.00  0.00     0.000 C 
BRANCH   3   4
ATOM      4  C   UNL     1     -45.258 -49.360  70.641  1.00  0.00     0.000 C 
BRANCH   4   5
ATOM      5  C   UNL     1     -45.112 -50.438  69.546  1.00  0.00     0.000 C 
BRANCH   5   6
ATOM      6  C   UNL     1     -43.868 -50.289  68.651  1.00  0.00     0.000 C 
BRANCH   6   7
ATOM      7  C   UNL     1     -44.222 -49.952  67.195  1.00  0.00     0.000 C 
BRANCH   7   8
ATOM      8  C   UNL     1     -45.737 -50.026  66.964  1.00  0.00     0.000 C 
BRANCH   8   9
ATOM      9  C   UNL     1     -46.304 -48.644  66.603  1.00  0.00     0.000 C 
BRANCH   9  10
ATOM     10  C   UNL     1     -47.748 -48.710  66.076  1.00  0.00     0.000 C 
BRANCH  10  11
ATOM     11  C   UNL     1     -48.729 -47.886  66.929  1.00  0.00     0.000 C 
BRANCH  11  12
ATOM     12  C   UNL     1     -48.456 -48.005  68.436  1.00  0.00     0.006 C 
BRANCH  12  13
ATOM     13  C   UNL     1     -49.168 -49.204  69.076  1.00  0.00     0.053 C 
BRANCH  13  14
ATOM     14  C   UNL     1     -48.925 -49.227  70.553  1.00  0.00     0.041 C 
ATOM     15  O   UNL     1     -48.872 -50.323  71.169  1.00  0.00    -0.550 OA
ATOM     16  O   UNL     1     -48.806 -48.034  71.256  1.00  0.00    -0.550 OA
ENDBRANCH  13  14
ENDBRANCH  12  13
ENDBRANCH  11  12
ENDBRANCH  10  11
ENDBRANCH   9  10
ENDBRANCH   8   9
ENDBRANCH   7   8
ENDBRANCH   6   7
ENDBRANCH   5   6
ENDBRANCH   4   5
ENDBRANCH   3   4
ENDBRANCH   2   3
ENDBRANCH   1   2
BRANCH   1  17
ATOM     17  C   UNL     1     -43.151 -46.053  72.221  1.00  0.00     0.000 C 
BRANCH  17  18
ATOM     18  C   UNL     1     -41.780 -46.496  71.671  1.00  0.00     0.000 C 
BRANCH  18  19
ATOM     19  C   UNL     1     -41.743 -47.968  71.205  1.00  0.00     0.000 C 
BRANCH  19  20
ATOM     20  C   UNL     1     -41.345 -48.108  69.725  1.00  0.00     0.000 C 
BRANCH  20  21
ATOM     21  C   UNL     1     -41.233 -46.747  69.018  1.00  0.00     0.000 C 
BRANCH  21  22
ATOM     22  C   UNL     1     -42.396 -46.498  68.040  1.00  0.00    -0.000 C 
BRANCH  22  23
ATOM     23  C   UNL     1     -42.413 -45.056  67.506  1.00  0.00    -0.000 C 
BRANCH  23  24
ATOM     24  C   UNL     1     -42.063 -44.026  68.591  1.00  0.00    -0.000 C 
BRANCH  24  25
ATOM     25  C   UNL     1     -43.262 -43.120  68.896  1.00  0.00    -0.000 C 
BRANCH  25  26
ATOM     26  C   UNL     1     -43.089 -42.416  70.251  1.00  0.00    -0.000 C 
BRANCH  26  27
ATOM     27  C   UNL     1     -41.780 -42.806  70.956  1.00  0.00    -0.000 C 
BRANCH  27  28
ATOM     28  C   UNL     1     -41.588 -42.070  72.295  1.00  0.00    -0.000 C 
BRANCH  28  29
ATOM     29  C   UNL     1     -42.321 -42.757  73.455  1.00  0.00    -0.003 C 
ATOM     30  C   UNL     1     -43.547 -41.973  73.927  1.00  0.00     0.004 C 
ENDBRANCH  28  29
ENDBRANCH  27  28
ENDBRANCH  26  27
ENDBRANCH  25  26
ENDBRANCH  24  25
ENDBRANCH  23  24
ENDBRANCH  22  23
ENDBRANCH  21  22
ENDBRANCH  20  21
ENDBRANCH  19  20
ENDBRANCH  18  19
ENDBRANCH  17  18
ENDBRANCH   1  17
TORSDOF 26
ENDMDL
MODEL 4
REMARK VINA RESULT:    -3.537      1.460      6.421
REMARK INTER + INTRA:         -12.740
REMARK INTER:                  -8.541
REMARK INTRA:                  -4.199
REMARK UNBOUND:                -3.828
REMARK SMILES CCCCCCCCCCCCCCCCCCCCCCCCCCCC(=O)[O-]
REMARK SMILES IDX 15 1 16 2 17 3 18 4 19 5 20 6 21 7 22 8 23 9 24 10 25 11
REMARK SMILES IDX 26 12 27 13 28 14 29 15 30 16 14 17 13 18 12 19 11 20 10 21
REMARK SMILES IDX 9 22 8 23 7 24 6 25 5 26 4 27 3 28 2 29 1 30
REMARK H PARENT
REMARK Flexibility Score: inf
ROOT
ATOM      1  C   UNL     1     -42.560 -47.441  70.073  1.00  0.00     0.000 C 
ENDROOT
BRANCH   1   2
ATOM      2  C   UNL     1     -42.982 -47.785  68.629  1.00  0.00     0.000 C 
BRANCH   2   3
ATOM      3  C   UNL     1     -42.625 -46.718  67.576  1.00  0.00     0.000 C 
BRANCH   3   4
ATOM      4  C   UNL     1     -41.722 -45.578  68.086  1.00  0.00     0.000 C 
BRANCH   4   5
ATOM      5  C   UNL     1     -42.381 -44.183  68.103  1.00  0.00     0.000 C 
BRANCH   5   6
ATOM      6  C   UNL     1     -42.968 -43.759  69.462  1.00  0.00     0.000 C 
BRANCH   6   7
ATOM      7  C   UNL     1     -42.419 -42.411  69.950  1.00  0.00     0.000 C 
BRANCH   7   8
ATOM      8  C   UNL     1     -43.558 -41.454  70.325  1.00  0.00     0.000 C 
BRANCH   8   9
ATOM      9  C   UNL     1     -43.555 -41.164  71.835  1.00  0.00     0.000 C 
BRANCH   9  10
ATOM     10  C   UNL     1     -42.402 -41.861  72.575  1.00  0.00     0.000 C 
BRANCH  10  11
ATOM     11  C   UNL     1     -42.886 -42.712  73.763  1.00  0.00     0.000 C 
BRANCH  11  12
ATOM     12  C   UNL     1     -43.249 -44.149  73.358  1.00  0.00     0.006 C 
BRANCH  12  13
ATOM     13  C   UNL     1     -44.096 -44.867  74.416  1.00  0.00     0.053 C 
BRANCH  13  14
ATOM     14  C   UNL     1     -43.216 -45.614  75.369  1.00  0.00     0.041 C 
ATOM     15  O   UNL     1     -42.229 -46.268  74.940  1.00  0.00    -0.550 OA
ATOM     16  O   UNL     1     -43.516 -45.628  76.726  1.00  0.00    -0.550 OA
ENDBRANCH  13  14
ENDBRANCH  12  13
ENDBRANCH  11  12
ENDBRANCH  10  11
ENDBRANCH   9  10
ENDBRANCH   8   9
ENDBRANCH   7   8
ENDBRANCH   6   7
ENDBRANCH   5   6
ENDBRANCH   4   5
ENDBRANCH   3   4
ENDBRANCH   2   3
ENDBRANCH   1   2
BRANCH   1  17
ATOM     17  C   UNL     1     -43.726 -47.216  71.053  1.00  0.00     0.000 C 
BRANCH  17  18
ATOM     18  C   UNL     1     -45.077 -46.876  70.393  1.00  0.00     0.000 C 
BRANCH  18  19
ATOM     19  C   UNL     1     -46.298 -47.142  71.300  1.00  0.00     0.000 C 
BRANCH  19  20
ATOM     20  C   UNL     1     -47.627 -47.123  70.524  1.00  0.00     0.000 C 
BRANCH  20  21
ATOM     21  C   UNL     1     -48.669 -48.079  71.127  1.00  0.00     0.000 C 
BRANCH  21  22
ATOM     22  C   UNL     1     -48.770 -49.403  70.347  1.00  0.00    -0.000 C 
BRANCH  22  23
ATOM     23  C   UNL     1     -49.838 -49.352  69.242  1.00  0.00    -0.000 C 
BRANCH  23  24
ATOM     24  C   UNL     1     -49.416 -48.467  68.060  1.00  0.00    -0.000 C 
BRANCH  24  25
ATOM     25  C   UNL     1     -48.714 -49.295  66.976  1.00  0.00    -0.000 C 
BRANCH  25  26
ATOM     26  C   UNL     1     -47.421 -48.608  66.511  1.00  0.00    -0.000 C 
BRANCH  26  27
ATOM     27  C   UNL     1     -46.234 -48.889  67.446  1.00  0.00    -0.000 C 
BRANCH  27  28
ATOM     28  C   UNL     1     -46.234 -50.331  67.987  1.00  0.00    -0.000 C 
BRANCH  28  29
ATOM     29  C   UNL     1     -45.034 -50.618  68.899  1.00  0.00    -0.003 C 
ATOM     30  C   UNL     1     -45.399 -50.585  70.384  1.00  0.00     0.004 C 
ENDBRANCH  28  29
ENDBRANCH  27  28
ENDBRANCH  26  27
ENDBRANCH  25  26
ENDBRANCH  24  25
ENDBRANCH  23  24
ENDBRANCH  22  23
ENDBRANCH  21  22
ENDBRANCH  20  21
ENDBRANCH  19  20
ENDBRANCH  18  19
ENDBRANCH  17  18
ENDBRANCH   1  17
TORSDOF 26
ENDMDL
MODEL 5
REMARK VINA RESULT:    -3.521      1.634      6.410
REMARK INTER + INTRA:         -12.701
REMARK INTER:                  -8.180
REMARK INTRA:                  -4.521
REMARK UNBOUND:                -3.828
REMARK SMILES CCCCCCCCCCCCCCCCCCCCCCCCCCCC(=O)[O-]
REMARK SMILES IDX 15 1 16 2 17 3 18 4 19 5 20 6 21 7 22 8 23 9 24 10 25 11
REMARK SMILES IDX 26 12 27 13 28 14 29 15 30 16 14 17 13 18 12 19 11 20 10 21
REMARK SMILES IDX 9 22 8 23 7 24 6 25 5 26 4 27 3 28 2 29 1 30
REMARK H PARENT
REMARK Flexibility Score: inf
ROOT
ATOM      1  C   UNL     1     -41.838 -43.707  68.355  1.00  0.00     0.000 C 
ENDROOT
BRANCH   1   2
ATOM      2  C   UNL     1     -42.969 -43.168  69.255  1.00  0.00     0.000 C 
BRANCH   2   3
ATOM      3  C   UNL     1     -42.914 -43.640  70.722  1.00  0.00     0.000 C 
BRANCH   3   4
ATOM      4  C   UNL     1     -41.516 -43.589  71.368  1.00  0.00     0.000 C 
BRANCH   4   5
ATOM      5  C   UNL     1     -40.897 -44.966  71.688  1.00  0.00     0.000 C 
BRANCH   5   6
ATOM      6  C   UNL     1     -40.691 -45.253  73.187  1.00  0.00     0.000 C 
BRANCH   6   7
ATOM      7  C   UNL     1     -41.688 -46.283  73.736  1.00  0.00     0.000 C 
BRANCH   7   8
ATOM      8  C   UNL     1     -42.615 -45.652  74.782  1.00  0.00     0.000 C 
BRANCH   8   9
ATOM      9  C   UNL     1     -43.837 -45.005  74.111  1.00  0.00     0.000 C 
BRANCH   9  10
ATOM     10  C   UNL     1     -44.139 -43.596  74.650  1.00  0.00     0.000 C 
BRANCH  10  11
ATOM     11  C   UNL     1     -42.884 -42.707  74.721  1.00  0.00     0.000 C 
BRANCH  11  12
ATOM     12  C   UNL     1     -43.173 -41.239  74.372  1.00  0.00     0.006 C 
BRANCH  12  13
ATOM     13  C   UNL     1     -44.028 -41.086  73.107  1.00  0.00     0.053 C 
BRANCH  13  14
ATOM     14  C   UNL     1     -45.259 -40.288  73.404  1.00  0.00     0.041 C 
ATOM     15  O   UNL     1     -45.892 -40.474  74.477  1.00  0.00    -0.550 OA
ATOM     16  O   UNL     1     -45.734 -39.371  72.473  1.00  0.00    -0.550 OA
ENDBRANCH  13  14
ENDBRANCH  12  13
ENDBRANCH  11  12
ENDBRANCH  10  11
ENDBRANCH   9  10
ENDBRANCH   8   9
ENDBRANCH   7   8
ENDBRANCH   6   7
ENDBRANCH   5   6
ENDBRANCH   4   5
ENDBRANCH   3   4
ENDBRANCH   2   3
ENDBRANCH   1   2
BRANCH   1  17
ATOM     17  C   UNL     1     -41.780 -45.242  68.234  1.00  0.00     0.000 C 
BRANCH  17  18
ATOM     18  C   UNL     1     -42.431 -45.820  66.961  1.00  0.00     0.000 C 
BRANCH  18  19
ATOM     19  C   UNL     1     -42.716 -47.335  67.041  1.00  0.00     0.000 C 
BRANCH  19  20
ATOM     20  C   UNL     1     -43.686 -47.695  68.181  1.00  0.00     0.000 C 
BRANCH  20  21
ATOM     21  C   UNL     1     -42.993 -48.465  69.317  1.00  0.00     0.000 C 
BRANCH  21  22
ATOM     22  C   UNL     1     -43.318 -47.880  70.704  1.00  0.00    -0.000 C 
BRANCH  22  23
ATOM     23  C   UNL     1     -44.298 -46.698  70.625  1.00  0.00    -0.000 C 
BRANCH  23  24
ATOM     24  C   UNL     1     -45.508 -46.876  71.555  1.00  0.00    -0.000 C 
BRANCH  24  25
ATOM     25  C   UNL     1     -46.768 -47.231  70.757  1.00  0.00    -0.000 C 
BRANCH  25  26
ATOM     26  C   UNL     1     -46.879 -48.749  70.551  1.00  0.00    -0.000 C 
BRANCH  26  27
ATOM     27  C   UNL     1     -47.861 -49.124  69.430  1.00  0.00    -0.000 C 
BRANCH  27  28
ATOM     28  C   UNL     1     -47.685 -48.252  68.173  1.00  0.00    -0.000 C 
BRANCH  28  29
ATOM     29  C   UNL     1     -47.642 -49.082  66.882  1.00  0.00    -0.003 C 
ATOM     30  C   UNL     1     -46.387 -48.813  66.050  1.00  0.00     0.004 C 
ENDBRANCH  28  29
ENDBRANCH  27  28
ENDBRANCH  26  27
ENDBRANCH  25  26
ENDBRANCH  24  25
ENDBRANCH  23  24
ENDBRANCH  22  23
ENDBRANCH  21  22
ENDBRANCH  20  21
ENDBRANCH  19  20
ENDBRANCH  18  19
ENDBRANCH  17  18
ENDBRANCH   1  17
TORSDOF 26
ENDMDL
MODEL 6
REMARK VINA RESULT:    -3.520      1.557      6.379
REMARK INTER + INTRA:         -12.697
REMARK INTER:                  -8.123
REMARK INTRA:                  -4.574
REMARK UNBOUND:                -3.828
REMARK SMILES CCCCCCCCCCCCCCCCCCCCCCCCCCCC(=O)[O-]
REMARK SMILES IDX 15 1 16 2 17 3 18 4 19 5 20 6 21 7 22 8 23 9 24 10 25 11
REMARK SMILES IDX 26 12 27 13 28 14 29 15 30 16 14 17 13 18 12 19 11 20 10 21
REMARK SMILES IDX 9 22 8 23 7 24 6 25 5 26 4 27 3 28 2 29 1 30
REMARK H PARENT
REMARK Flexibility Score: inf
ROOT
ATOM      1  C   UNL     1     -43.523 -49.431  69.713  1.00  0.00     0.000 C 
ENDROOT
BRANCH   1   2
ATOM      2  C   UNL     1     -42.540 -48.917  70.786  1.00  0.00     0.000 C 
BRANCH   2   3
ATOM      3  C   UNL     1     -41.207 -48.370  70.239  1.00  0.00     0.000 C 
BRANCH   3   4
ATOM      4  C   UNL     1     -41.081 -48.386  68.703  1.00  0.00     0.000 C 
BRANCH   4   5
ATOM      5  C   UNL     1     -40.979 -46.994  68.044  1.00  0.00     0.000 C 
BRANCH   5   6
ATOM      6  C   UNL     1     -42.317 -46.406  67.560  1.00  0.00     0.000 C 
BRANCH   6   7
ATOM      7  C   UNL     1     -42.237 -44.898  67.283  1.00  0.00     0.000 C 
BRANCH   7   8
ATOM      8  C   UNL     1     -42.843 -44.091  68.438  1.00  0.00     0.000 C 
BRANCH   8   9
ATOM      9  C   UNL     1     -41.755 -43.664  69.437  1.00  0.00     0.000 C 
BRANCH   9  10
ATOM     10  C   UNL     1     -42.024 -44.171  70.864  1.00  0.00     0.000 C 
BRANCH  10  11
ATOM     11  C   UNL     1     -43.142 -45.227  70.920  1.00  0.00     0.000 C 
BRANCH  11  12
ATOM     12  C   UNL     1     -43.477 -45.667  72.353  1.00  0.00     0.006 C 
BRANCH  12  13
ATOM     13  C   UNL     1     -42.920 -44.709  73.414  1.00  0.00     0.053 C 
BRANCH  13  14
ATOM     14  C   UNL     1     -43.961 -44.418  74.450  1.00  0.00     0.041 C 
ATOM     15  O   UNL     1     -44.734 -45.329  74.844  1.00  0.00    -0.550 OA
ATOM     16  O   UNL     1     -44.108 -43.127  74.943  1.00  0.00    -0.550 OA
ENDBRANCH  13  14
ENDBRANCH  12  13
ENDBRANCH  11  12
ENDBRANCH  10  11
ENDBRANCH   9  10
ENDBRANCH   8   9
ENDBRANCH   7   8
ENDBRANCH   6   7
ENDBRANCH   5   6
ENDBRANCH   4   5
ENDBRANCH   3   4
ENDBRANCH   2   3
ENDBRANCH   1   2
BRANCH   1  17
ATOM     17  C   UNL     1     -44.765 -48.547  69.494  1.00  0.00     0.000 C 
BRANCH  17  18
ATOM     18  C   UNL     1     -45.584 -48.247  70.766  1.00  0.00     0.000 C 
BRANCH  18  19
ATOM     19  C   UNL     1     -46.694 -47.193  70.557  1.00  0.00     0.000 C 
BRANCH  19  20
ATOM     20  C   UNL     1     -48.106 -47.800  70.629  1.00  0.00     0.000 C 
BRANCH  20  21
ATOM     21  C   UNL     1     -48.078 -49.333  70.758  1.00  0.00     0.000 C 
BRANCH  21  22
ATOM     22  C   UNL     1     -49.133 -50.014  69.867  1.00  0.00    -0.000 C 
BRANCH  22  23
ATOM     23  C   UNL     1     -50.300 -49.076  69.521  1.00  0.00    -0.000 C 
BRANCH  23  24
ATOM     24  C   UNL     1     -50.947 -49.418  68.170  1.00  0.00    -0.000 C 
BRANCH  24  25
ATOM     25  C   UNL     1     -51.143 -48.158  67.318  1.00  0.00    -0.000 C 
BRANCH  25  26
ATOM     26  C   UNL     1     -49.836 -47.357  67.213  1.00  0.00    -0.000 C 
BRANCH  26  27
ATOM     27  C   UNL     1     -49.278 -47.322  65.782  1.00  0.00    -0.000 C 
BRANCH  27  28
ATOM     28  C   UNL     1     -48.116 -48.312  65.575  1.00  0.00    -0.000 C 
BRANCH  28  29
ATOM     29  C   UNL     1     -47.390 -48.649  66.885  1.00  0.00    -0.003 C 
ATOM     30  C   UNL     1     -46.885 -50.092  66.926  1.00  0.00     0.004 C 
ENDBRANCH  28  29
ENDBRANCH  27  28
ENDBRANCH  26  27
ENDBRANCH  25  26
ENDBRANCH  24  25
ENDBRANCH  23  24
ENDBRANCH  22  23
ENDBRANCH  21  22
ENDBRANCH  20  21
ENDBRANCH  19  20
ENDBRANCH  18  19
ENDBRANCH  17  18
ENDBRANCH   1  17
TORSDOF 26
ENDMDL
MODEL 7
REMARK VINA RESULT:    -3.503      4.038      7.914
REMARK INTER + INTRA:         -12.655
REMARK INTER:                  -8.241
REMARK INTRA:                  -4.414
REMARK UNBOUND:                -3.828
REMARK SMILES CCCCCCCCCCCCCCCCCCCCCCCCCCCC(=O)[O-]
REMARK SMILES IDX 15 1 16 2 17 3 18 4 19 5 20 6 21 7 22 8 23 9 24 10 25 11
REMARK SMILES IDX 26 12 27 13 28 14 29 15 30 16 14 17 13 18 12 19 11 20 10 21
REMARK SMILES IDX 9 22 8 23 7 24 6 25 5 26 4 27 3 28 2 29 1 30
REMARK H PARENT
REMARK Flexibility Score: inf
ROOT
ATOM      1  C   UNL     1     -44.091 -47.500  70.931  1.00  0.00     0.000 C 
ENDROOT
BRANCH   1   2
ATOM      2  C   UNL     1     -45.398 -46.719  71.182  1.00  0.00     0.000 C 
BRANCH   2   3
ATOM      3  C   UNL     1     -46.573 -47.104  70.263  1.00  0.00     0.000 C 
BRANCH   3   4
ATOM      4  C   UNL     1     -47.860 -47.529  70.997  1.00  0.00     0.000 C 
BRANCH   4   5
ATOM      5  C   UNL     1     -48.236 -49.017  70.844  1.00  0.00     0.000 C 
BRANCH   5   6
ATOM      6  C   UNL     1     -49.748 -49.305  70.814  1.00  0.00     0.000 C 
BRANCH   6   7
ATOM      7  C   UNL     1     -50.212 -49.904  69.479  1.00  0.00     0.000 C 
BRANCH   7   8
ATOM      8  C   UNL     1     -49.024 -50.144  68.539  1.00  0.00     0.000 C 
BRANCH   8   9
ATOM      9  C   UNL     1     -49.300 -49.558  67.145  1.00  0.00     0.000 C 
BRANCH   9  10
ATOM     10  C   UNL     1     -48.553 -48.238  66.893  1.00  0.00     0.000 C 
BRANCH  10  11
ATOM     11  C   UNL     1     -49.492 -47.094  66.470  1.00  0.00     0.000 C 
BRANCH  11  12
ATOM     12  C   UNL     1     -49.867 -47.150  64.982  1.00  0.00     0.006 C 
BRANCH  12  13
ATOM     13  C   UNL     1     -50.712 -45.949  64.537  1.00  0.00     0.053 C 
BRANCH  13  14
ATOM     14  C   UNL     1     -52.157 -46.329  64.458  1.00  0.00     0.041 C 
ATOM     15  O   UNL     1     -53.015 -45.486  64.084  1.00  0.00    -0.550 OA
ATOM     16  O   UNL     1     -52.564 -47.601  64.845  1.00  0.00    -0.550 OA
ENDBRANCH  13  14
ENDBRANCH  12  13
ENDBRANCH  11  12
ENDBRANCH  10  11
ENDBRANCH   9  10
ENDBRANCH   8   9
ENDBRANCH   7   8
ENDBRANCH   6   7
ENDBRANCH   5   6
ENDBRANCH   4   5
ENDBRANCH   3   4
ENDBRANCH   2   3
ENDBRANCH   1   2
BRANCH   1  17
ATOM     17  C   UNL     1     -42.800 -46.729  71.259  1.00  0.00     0.000 C 
BRANCH  17  18
ATOM     18  C   UNL     1     -43.013 -45.334  71.882  1.00  0.00     0.000 C 
BRANCH  18  19
ATOM     19  C   UNL     1     -42.484 -44.175  71.010  1.00  0.00     0.000 C 
BRANCH  19  20
ATOM     20  C   UNL     1     -43.237 -44.048  69.674  1.00  0.00     0.000 C 
BRANCH  20  21
ATOM     21  C   UNL     1     -42.284 -43.901  68.477  1.00  0.00     0.000 C 
BRANCH  21  22
ATOM     22  C   UNL     1     -42.357 -45.106  67.520  1.00  0.00    -0.000 C 
BRANCH  22  23
ATOM     23  C   UNL     1     -41.354 -46.210  67.892  1.00  0.00    -0.000 C 
BRANCH  23  24
ATOM     24  C   UNL     1     -41.966 -47.615  67.792  1.00  0.00    -0.000 C 
BRANCH  24  25
ATOM     25  C   UNL     1     -43.439 -47.545  67.374  1.00  0.00    -0.000 C 
BRANCH  25  26
ATOM     26  C   UNL     1     -43.972 -48.937  67.001  1.00  0.00    -0.000 C 
BRANCH  26  27
ATOM     27  C   UNL     1     -45.291 -49.276  67.715  1.00  0.00    -0.000 C 
BRANCH  27  28
ATOM     28  C   UNL     1     -45.313 -50.713  68.266  1.00  0.00    -0.000 C 
BRANCH  28  29
ATOM     29  C   UNL     1     -45.055 -50.768  69.778  1.00  0.00    -0.003 C 
ATOM     30  C   UNL     1     -43.583 -51.009  70.117  1.00  0.00     0.004 C 
ENDBRANCH  28  29
ENDBRANCH  27  28
ENDBRANCH  26  27
ENDBRANCH  25  26
ENDBRANCH  24  25
ENDBRANCH  23  24
ENDBRANCH  22  23
ENDBRANCH  21  22
ENDBRANCH  20  21
ENDBRANCH  19  20
ENDBRANCH  18  19
ENDBRANCH  17  18
ENDBRANCH   1  17
TORSDOF 26
ENDMDL
MODEL 8
REMARK VINA RESULT:    -3.444      1.793      5.015
REMARK INTER + INTRA:         -12.506
REMARK INTER:                  -8.817
REMARK INTRA:                  -3.689
REMARK UNBOUND:                -3.828
REMARK SMILES CCCCCCCCCCCCCCCCCCCCCCCCCCCC(=O)[O-]
REMARK SMILES IDX 15 1 16 2 17 3 18 4 19 5 20 6 21 7 22 8 23 9 24 10 25 11
REMARK SMILES IDX 26 12 27 13 28 14 29 15 30 16 14 17 13 18 12 19 11 20 10 21
REMARK SMILES IDX 9 22 8 23 7 24 6 25 5 26 4 27 3 28 2 29 1 30
REMARK H PARENT
REMARK Flexibility Score: inf
ROOT
ATOM      1  C   UNL     1     -43.841 -47.607  67.533  1.00  0.00     0.000 C 
ENDROOT
BRANCH   1   2
ATOM      2  C   UNL     1     -44.694 -48.887  67.411  1.00  0.00     0.000 C 
BRANCH   2   3
ATOM      3  C   UNL     1     -46.089 -48.683  66.788  1.00  0.00     0.000 C 
BRANCH   3   4
ATOM      4  C   UNL     1     -47.271 -49.073  67.698  1.00  0.00     0.000 C 
BRANCH   4   5
ATOM      5  C   UNL     1     -47.921 -47.900  68.460  1.00  0.00     0.000 C 
BRANCH   5   6
ATOM      6  C   UNL     1     -48.088 -48.122  69.974  1.00  0.00     0.000 C 
BRANCH   6   7
ATOM      7  C   UNL     1     -47.195 -47.196  70.812  1.00  0.00     0.000 C 
BRANCH   7   8
ATOM      8  C   UNL     1     -45.746 -47.700  70.836  1.00  0.00     0.000 C 
BRANCH   8   9
ATOM      9  C   UNL     1     -44.758 -46.525  70.914  1.00  0.00     0.000 C 
BRANCH   9  10
ATOM     10  C   UNL     1     -43.351 -46.957  71.359  1.00  0.00     0.000 C 
BRANCH  10  11
ATOM     11  C   UNL     1     -42.787 -46.074  72.487  1.00  0.00     0.000 C 
BRANCH  11  12
ATOM     12  C   UNL     1     -43.800 -45.038  72.996  1.00  0.00     0.006 C 
BRANCH  12  13
ATOM     13  C   UNL     1     -44.214 -45.279  74.453  1.00  0.00     0.053 C 
BRANCH  13  14
ATOM     14  C   UNL     1     -43.106 -44.890  75.381  1.00  0.00     0.041 C 
ATOM     15  O   UNL     1     -42.486 -43.807  75.209  1.00  0.00    -0.550 OA
ATOM     16  O   UNL     1     -42.725 -45.746  76.407  1.00  0.00    -0.550 OA
ENDBRANCH  13  14
ENDBRANCH  12  13
ENDBRANCH  11  12
ENDBRANCH  10  11
ENDBRANCH   9  10
ENDBRANCH   8   9
ENDBRANCH   7   8
ENDBRANCH   6   7
ENDBRANCH   5   6
ENDBRANCH   4   5
ENDBRANCH   3   4
ENDBRANCH   2   3
ENDBRANCH   1   2
BRANCH   1  17
ATOM     17  C   UNL     1     -42.346 -47.847  67.812  1.00  0.00     0.000 C 
BRANCH  17  18
ATOM     18  C   UNL     1     -41.413 -46.689  67.407  1.00  0.00     0.000 C 
BRANCH  18  19
ATOM     19  C   UNL     1     -42.111 -45.312  67.368  1.00  0.00     0.000 C 
BRANCH  19  20
ATOM     20  C   UNL     1     -42.074 -44.591  68.726  1.00  0.00     0.000 C 
BRANCH  20  21
ATOM     21  C   UNL     1     -43.134 -43.482  68.830  1.00  0.00     0.000 C 
BRANCH  21  22
ATOM     22  C   UNL     1     -43.115 -42.780  70.200  1.00  0.00    -0.000 C 
BRANCH  22  23
ATOM     23  C   UNL     1     -41.983 -41.746  70.311  1.00  0.00    -0.000 C 
BRANCH  23  24
ATOM     24  C   UNL     1     -42.043 -40.689  69.197  1.00  0.00    -0.000 C 
BRANCH  24  25
ATOM     25  C   UNL     1     -42.056 -39.273  69.783  1.00  0.00    -0.000 C 
BRANCH  25  26
ATOM     26  C   UNL     1     -42.503 -39.290  71.253  1.00  0.00    -0.000 C 
BRANCH  26  27
ATOM     27  C   UNL     1     -43.932 -38.758  71.443  1.00  0.00    -0.000 C 
BRANCH  27  28
ATOM     28  C   UNL     1     -44.946 -39.878  71.739  1.00  0.00    -0.000 C 
BRANCH  28  29
ATOM     29  C   UNL     1     -45.255 -40.011  73.237  1.00  0.00    -0.003 C 
ATOM     30  C   UNL     1     -46.547 -39.298  73.639  1.00  0.00     0.004 C 
ENDBRANCH  28  29
ENDBRANCH  27  28
ENDBRANCH  26  27
ENDBRANCH  25  26
ENDBRANCH  24  25
ENDBRANCH  23  24
ENDBRANCH  22  23
ENDBRANCH  21  22
ENDBRANCH  20  21
ENDBRANCH  19  20
ENDBRANCH  18  19
ENDBRANCH  17  18
ENDBRANCH   1  17
TORSDOF 26
ENDMDL
MODEL 9
REMARK VINA RESULT:    -3.430      2.050      4.762
REMARK INTER + INTRA:         -12.471
REMARK INTER:                  -8.582
REMARK INTRA:                  -3.888
REMARK UNBOUND:                -3.828
REMARK SMILES CCCCCCCCCCCCCCCCCCCCCCCCCCCC(=O)[O-]
REMARK SMILES IDX 15 1 16 2 17 3 18 4 19 5 20 6 21 7 22 8 23 9 24 10 25 11
REMARK SMILES IDX 26 12 27 13 28 14 29 15 30 16 14 17 13 18 12 19 11 20 10 21
REMARK SMILES IDX 9 22 8 23 7 24 6 25 5 26 4 27 3 28 2 29 1 30
REMARK H PARENT
REMARK Flexibility Score: inf
ROOT
ATOM      1  C   UNL     1     -44.104 -49.037  67.932  1.00  0.00     0.000 C 
ENDROOT
BRANCH   1   2
ATOM      2  C   UNL     1     -45.597 -48.837  68.267  1.00  0.00     0.000 C 
BRANCH   2   3
ATOM      3  C   UNL     1     -46.131 -49.723  69.410  1.00  0.00     0.000 C 
BRANCH   3   4
ATOM      4  C   UNL     1     -46.472 -48.970  70.710  1.00  0.00     0.000 C 
BRANCH   4   5
ATOM      5  C   UNL     1     -46.494 -47.432  70.585  1.00  0.00     0.000 C 
BRANCH   5   6
ATOM      6  C   UNL     1     -45.433 -46.698  71.425  1.00  0.00     0.000 C 
BRANCH   6   7
ATOM      7  C   UNL     1     -44.137 -46.435  70.645  1.00  0.00     0.000 C 
BRANCH   7   8
ATOM      8  C   UNL     1     -43.005 -47.350  71.129  1.00  0.00     0.000 C 
BRANCH   8   9
ATOM      9  C   UNL     1     -41.650 -46.627  71.066  1.00  0.00     0.000 C 
BRANCH   9  10
ATOM     10  C   UNL     1     -41.714 -45.191  71.612  1.00  0.00     0.000 C 
BRANCH  10  11
ATOM     11  C   UNL     1     -41.802 -45.142  73.148  1.00  0.00     0.000 C 
BRANCH  11  12
ATOM     12  C   UNL     1     -43.123 -44.541  73.650  1.00  0.00     0.006 C 
BRANCH  12  13
ATOM     13  C   UNL     1     -43.539 -45.085  75.023  1.00  0.00     0.053 C 
BRANCH  13  14
ATOM     14  C   UNL     1     -43.521 -43.990  76.044  1.00  0.00     0.041 C 
ATOM     15  O   UNL     1     -43.101 -42.844  75.736  1.00  0.00    -0.550 OA
ATOM     16  O   UNL     1     -43.925 -44.249  77.349  1.00  0.00    -0.550 OA
ENDBRANCH  13  14
ENDBRANCH  12  13
ENDBRANCH  11  12
ENDBRANCH  10  11
ENDBRANCH   9  10
ENDBRANCH   8   9
ENDBRANCH   7   8
ENDBRANCH   6   7
ENDBRANCH   5   6
ENDBRANCH   4   5
ENDBRANCH   3   4
ENDBRANCH   2   3
ENDBRANCH   1   2
BRANCH   1  17
ATOM     17  C   UNL     1     -43.527 -48.034  66.914  1.00  0.00     0.000 C 
BRANCH  17  18
ATOM     18  C   UNL     1     -42.358 -47.175  67.437  1.00  0.00     0.000 C 
BRANCH  18  19
ATOM     19  C   UNL     1     -42.300 -45.761  66.818  1.00  0.00     0.000 C 
BRANCH  19  20
ATOM     20  C   UNL     1     -41.633 -44.735  67.750  1.00  0.00     0.000 C 
BRANCH  20  21
ATOM     21  C   UNL     1     -42.657 -43.814  68.434  1.00  0.00     0.000 C 
BRANCH  21  22
ATOM     22  C   UNL     1     -41.996 -42.584  69.083  1.00  0.00    -0.000 C 
BRANCH  22  23
ATOM     23  C   UNL     1     -43.029 -41.580  69.619  1.00  0.00    -0.000 C 
BRANCH  23  24
ATOM     24  C   UNL     1     -42.374 -40.308  70.180  1.00  0.00    -0.000 C 
BRANCH  24  25
ATOM     25  C   UNL     1     -42.088 -40.452  71.679  1.00  0.00    -0.000 C 
BRANCH  25  26
ATOM     26  C   UNL     1     -43.226 -41.204  72.386  1.00  0.00    -0.000 C 
BRANCH  26  27
ATOM     27  C   UNL     1     -44.149 -40.267  73.182  1.00  0.00    -0.000 C 
BRANCH  27  28
ATOM     28  C   UNL     1     -44.925 -39.292  72.277  1.00  0.00    -0.000 C 
BRANCH  28  29
ATOM     29  C   UNL     1     -46.434 -39.302  72.559  1.00  0.00    -0.003 C 
ATOM     30  C   UNL     1     -47.093 -37.948  72.291  1.00  0.00     0.004 C 
ENDBRANCH  28  29
ENDBRANCH  27  28
ENDBRANCH  26  27
ENDBRANCH  25  26
ENDBRANCH  24  25
ENDBRANCH  23  24
ENDBRANCH  22  23
ENDBRANCH  21  22
ENDBRANCH  20  21
ENDBRANCH  19  20
ENDBRANCH  18  19
ENDBRANCH  17  18
ENDBRANCH   1  17
TORSDOF 26
ENDMDL
