MODEL 1
REMARK VINA RESULT:    -6.450      0.000      0.000
REMARK INTER + INTRA:          -7.815
REMARK INTER:                  -7.770
REMARK INTRA:                  -0.045
REMARK UNBOUND:                -0.045
REMARK SMILES O=c1c(O)c(-c2ccc(O)c(O)c2)oc2cc(O)cc(O)c12
REMARK SMILES IDX 5 1 3 2 2 3 1 4 22 5 20 6 19 7 17 8 16 9 15 10 14 11 6 12
REMARK SMILES IDX 7 13 8 14 9 15 13 16 11 17 10 18 12 20 4 22 21 24 18 26
REMARK H PARENT 10 19 12 21 4 23 21 25 18 27
REMARK Flexibility Score: inf
ROOT
ATOM      1  C   UNL     1      69.511  48.206   8.071  1.00  0.00     0.180 A 
ATOM      2  C   UNL     1      69.795  48.356   6.699  1.00  0.00     0.208 A 
ATOM      3  C   UNL     1      71.124  48.233   6.265  1.00  0.00     0.238 A 
ATOM      4  O   UNL     1      71.392  48.377   5.040  1.00  0.00    -0.285 OA
ATOM      5  C   UNL     1      72.139  47.942   7.199  1.00  0.00     0.111 A 
ATOM      6  C   UNL     1      73.502  47.797   6.842  1.00  0.00     0.134 A 
ATOM      7  C   UNL     1      74.452  47.498   7.830  1.00  0.00     0.093 A 
ATOM      8  C   UNL     1      74.067  47.340   9.163  1.00  0.00     0.123 A 
ATOM      9  C   UNL     1      72.723  47.482   9.522  1.00  0.00     0.094 A 
ATOM     10  C   UNL     1      71.761  47.782   8.553  1.00  0.00     0.146 A 
ATOM     11  O   UNL     1      70.492  47.917   8.920  1.00  0.00    -0.452 OA
ENDROOT
BRANCH   1  12
ATOM     12  C   UNL     1      68.139  48.340   8.609  1.00  0.00     0.025 A 
ATOM     13  C   UNL     1      67.880  49.291   9.610  1.00  0.00     0.016 A 
ATOM     14  C   UNL     1      66.587  49.450  10.117  1.00  0.00     0.051 A 
ATOM     15  C   UNL     1      65.534  48.674   9.620  1.00  0.00     0.157 A 
ATOM     16  C   UNL     1      67.072  47.578   8.098  1.00  0.00     0.062 A 
ATOM     17  C   UNL     1      65.775  47.739   8.605  1.00  0.00     0.158 A 
BRANCH  15  18
ATOM     18  O   UNL     1      64.243  48.828  10.125  1.00  0.00    -0.504 OA
ATOM     19  H   UNL     1      63.426  48.707   9.538  1.00  0.00     0.293 HD
ENDBRANCH  15  18
BRANCH  17  20
ATOM     20  O   UNL     1      64.721  46.978   8.103  1.00  0.00    -0.504 OA
ATOM     21  H   UNL     1      64.103  46.458   8.714  1.00  0.00     0.293 HD
ENDBRANCH  17  20
ENDBRANCH   1  12
BRANCH   2  22
ATOM     22  O   UNL     1      68.764  48.596   5.787  1.00  0.00    -0.502 OA
ATOM     23  H   UNL     1      68.628  49.499   5.348  1.00  0.00     0.293 HD
ENDBRANCH   2  22
BRANCH   6  24
ATOM     24  O   UNL     1      73.917  47.948   5.518  1.00  0.00    -0.507 OA
ATOM     25  H   UNL     1      74.867  48.213   5.285  1.00  0.00     0.293 HD
ENDBRANCH   6  24
BRANCH   8  26
ATOM     26  O   UNL     1      75.030  47.041  10.125  1.00  0.00    -0.508 OA
ATOM     27  H   UNL     1      75.607  46.212  10.057  1.00  0.00     0.293 HD
ENDBRANCH   8  26
TORSDOF 6
ENDMDL
MODEL 2
REMARK VINA RESULT:    -6.188      2.008      7.122
REMARK INTER + INTRA:          -7.500
REMARK INTER:                  -7.187
REMARK INTRA:                  -0.313
REMARK UNBOUND:                -0.045
REMARK SMILES O=c1c(O)c(-c2ccc(O)c(O)c2)oc2cc(O)cc(O)c12
REMARK SMILES IDX 5 1 3 2 2 3 1 4 22 5 20 6 19 7 17 8 16 9 15 10 14 11 6 12
REMARK SMILES IDX 7 13 8 14 9 15 13 16 11 17 10 18 12 20 4 22 21 24 18 26
REMARK H PARENT 10 19 12 21 4 23 21 25 18 27
REMARK Flexibility Score: inf
ROOT
ATOM      1  C   UNL     1      70.647  47.805   7.144  1.00  0.00     0.180 A 
ATOM      2  C   UNL     1      70.811  48.798   8.130  1.00  0.00     0.208 A 
ATOM      3  C   UNL     1      69.677  49.273   8.808  1.00  0.00     0.238 A 
ATOM      4  O   UNL     1      69.810  50.170   9.685  1.00  0.00    -0.285 OA
ATOM      5  C   UNL     1      68.409  48.736   8.507  1.00  0.00     0.111 A 
ATOM      6  C   UNL     1      67.218  49.156   9.147  1.00  0.00     0.134 A 
ATOM      7  C   UNL     1      65.994  48.567   8.798  1.00  0.00     0.093 A 
ATOM      8  C   UNL     1      65.938  47.567   7.824  1.00  0.00     0.123 A 
ATOM      9  C   UNL     1      67.110  47.147   7.187  1.00  0.00     0.094 A 
ATOM     10  C   UNL     1      68.340  47.724   7.520  1.00  0.00     0.146 A 
ATOM     11  O   UNL     1      69.437  47.312   6.897  1.00  0.00    -0.452 OA
ENDROOT
BRANCH   1  12
ATOM     12  C   UNL     1      71.791  47.268   6.373  1.00  0.00     0.025 A 
ATOM     13  C   UNL     1      72.113  47.836   5.130  1.00  0.00     0.016 A 
ATOM     14  C   UNL     1      73.202  47.359   4.394  1.00  0.00     0.051 A 
ATOM     15  C   UNL     1      73.992  46.319   4.898  1.00  0.00     0.157 A 
ATOM     16  C   UNL     1      72.601  46.237   6.884  1.00  0.00     0.062 A 
ATOM     17  C   UNL     1      73.695  45.760   6.147  1.00  0.00     0.158 A 
BRANCH  15  18
ATOM     18  O   UNL     1      75.077  45.839   4.166  1.00  0.00    -0.504 OA
ATOM     19  H   UNL     1      75.310  46.215   3.254  1.00  0.00     0.293 HD
ENDBRANCH  15  18
BRANCH  17  20
ATOM     20  O   UNL     1      74.492  44.735   6.652  1.00  0.00    -0.504 OA
ATOM     21  H   UNL     1      74.324  43.765   6.412  1.00  0.00     0.293 HD
ENDBRANCH  17  20
ENDBRANCH   1  12
BRANCH   2  22
ATOM     22  O   UNL     1      72.085  49.278   8.444  1.00  0.00    -0.502 OA
ATOM     23  H   UNL     1      72.852  48.662   8.686  1.00  0.00     0.293 HD
ENDBRANCH   2  22
BRANCH   6  24
ATOM     24  O   UNL     1      67.242  50.152  10.125  1.00  0.00    -0.507 OA
ATOM     25  H   UNL     1      68.005  50.231  10.787  1.00  0.00     0.293 HD
ENDBRANCH   6  24
BRANCH   8  26
ATOM     26  O   UNL     1      64.710  46.997   7.496  1.00  0.00    -0.508 OA
ATOM     27  H   UNL     1      63.995  47.522   7.009  1.00  0.00     0.293 HD
ENDBRANCH   8  26
TORSDOF 6
ENDMDL
MODEL 3
REMARK VINA RESULT:    -6.080      1.677      1.697
REMARK INTER + INTRA:          -7.369
REMARK INTER:                  -7.059
REMARK INTRA:                  -0.311
REMARK UNBOUND:                -0.045
REMARK SMILES O=c1c(O)c(-c2ccc(O)c(O)c2)oc2cc(O)cc(O)c12
REMARK SMILES IDX 5 1 3 2 2 3 1 4 22 5 20 6 19 7 17 8 16 9 15 10 14 11 6 12
REMARK SMILES IDX 7 13 8 14 9 15 13 16 11 17 10 18 12 20 4 22 21 24 18 26
REMARK H PARENT 10 19 12 21 4 23 21 25 18 27
REMARK Flexibility Score: inf
ROOT
ATOM      1  C   UNL     1      69.642  47.673   7.151  1.00  0.00     0.180 A 
ATOM      2  C   UNL     1      70.030  48.420   6.022  1.00  0.00     0.208 A 
ATOM      3  C   UNL     1      71.269  48.147   5.422  1.00  0.00     0.238 A 
ATOM      4  O   UNL     1      71.632  48.818   4.417  1.00  0.00    -0.285 OA
ATOM      5  C   UNL     1      72.086  47.124   5.944  1.00  0.00     0.111 A 
ATOM      6  C   UNL     1      73.346  46.783   5.394  1.00  0.00     0.134 A 
ATOM      7  C   UNL     1      74.096  45.745   5.966  1.00  0.00     0.093 A 
ATOM      8  C   UNL     1      73.612  45.042   7.071  1.00  0.00     0.123 A 
ATOM      9  C   UNL     1      72.369  45.373   7.619  1.00  0.00     0.094 A 
ATOM     10  C   UNL     1      71.607  46.406   7.065  1.00  0.00     0.146 A 
ATOM     11  O   UNL     1      70.432  46.705   7.606  1.00  0.00    -0.452 OA
ENDROOT
BRANCH   1  12
ATOM     12  C   UNL     1      68.360  47.914   7.851  1.00  0.00     0.025 A 
ATOM     13  C   UNL     1      68.331  48.771   8.963  1.00  0.00     0.016 A 
ATOM     14  C   UNL     1      67.128  49.031   9.626  1.00  0.00     0.051 A 
ATOM     15  C   UNL     1      65.936  48.451   9.177  1.00  0.00     0.157 A 
ATOM     16  C   UNL     1      67.155  47.351   7.391  1.00  0.00     0.062 A 
ATOM     17  C   UNL     1      65.948  47.613   8.055  1.00  0.00     0.158 A 
BRANCH  15  18
ATOM     18  O   UNL     1      64.734  48.705   9.837  1.00  0.00    -0.504 OA
ATOM     19  H   UNL     1      63.843  48.435   9.437  1.00  0.00     0.293 HD
ENDBRANCH  15  18
BRANCH  17  20
ATOM     20  O   UNL     1      64.757  47.048   7.601  1.00  0.00    -0.504 OA
ATOM     21  H   UNL     1      64.752  46.238   6.992  1.00  0.00     0.293 HD
ENDBRANCH  17  20
ENDBRANCH   1  12
BRANCH   2  22
ATOM     22  O   UNL     1      69.180  49.396   5.495  1.00  0.00    -0.502 OA
ATOM     23  H   UNL     1      68.401  49.777   6.019  1.00  0.00     0.293 HD
ENDBRANCH   2  22
BRANCH   6  24
ATOM     24  O   UNL     1      73.856  47.466   4.289  1.00  0.00    -0.507 OA
ATOM     25  H   UNL     1      73.626  47.192   3.341  1.00  0.00     0.293 HD
ENDBRANCH   6  24
BRANCH   8  26
ATOM     26  O   UNL     1      74.377  44.013   7.619  1.00  0.00    -0.508 OA
ATOM     27  H   UNL     1      73.995  43.381   8.313  1.00  0.00     0.293 HD
ENDBRANCH   8  26
TORSDOF 6
ENDMDL
MODEL 4
REMARK VINA RESULT:    -5.927      2.139      7.091
REMARK INTER + INTRA:          -7.185
REMARK INTER:                  -7.029
REMARK INTRA:                  -0.156
REMARK UNBOUND:                -0.045
REMARK SMILES O=c1c(O)c(-c2ccc(O)c(O)c2)oc2cc(O)cc(O)c12
REMARK SMILES IDX 5 1 3 2 2 3 1 4 22 5 20 6 19 7 17 8 16 9 15 10 14 11 6 12
REMARK SMILES IDX 7 13 8 14 9 15 13 16 11 17 10 18 12 20 4 22 21 24 18 26
REMARK H PARENT 10 19 12 21 4 23 21 25 18 27
REMARK Flexibility Score: inf
ROOT
ATOM      1  C   UNL     1      68.495  47.568   8.922  1.00  0.00     0.180 A 
ATOM      2  C   UNL     1      67.520  48.460   9.409  1.00  0.00     0.208 A 
ATOM      3  C   UNL     1      66.173  48.064   9.398  1.00  0.00     0.238 A 
ATOM      4  O   UNL     1      65.289  48.858   9.821  1.00  0.00    -0.285 OA
ATOM      5  C   UNL     1      65.827  46.782   8.922  1.00  0.00     0.111 A 
ATOM      6  C   UNL     1      64.495  46.305   8.881  1.00  0.00     0.134 A 
ATOM      7  C   UNL     1      64.233  45.013   8.402  1.00  0.00     0.093 A 
ATOM      8  C   UNL     1      65.274  44.191   7.965  1.00  0.00     0.123 A 
ATOM      9  C   UNL     1      66.593  44.656   8.003  1.00  0.00     0.094 A 
ATOM     10  C   UNL     1      66.874  45.942   8.475  1.00  0.00     0.146 A 
ATOM     11  O   UNL     1      68.133  46.362   8.495  1.00  0.00    -0.452 OA
ENDROOT
BRANCH   1  12
ATOM     12  C   UNL     1      69.933  47.920   8.883  1.00  0.00     0.025 A 
ATOM     13  C   UNL     1      70.629  48.112  10.087  1.00  0.00     0.016 A 
ATOM     14  C   UNL     1      71.991  48.424  10.076  1.00  0.00     0.051 A 
ATOM     15  C   UNL     1      72.679  48.533   8.861  1.00  0.00     0.157 A 
ATOM     16  C   UNL     1      70.634  48.010   7.667  1.00  0.00     0.062 A 
ATOM     17  C   UNL     1      72.001  48.320   7.655  1.00  0.00     0.158 A 
BRANCH  15  18
ATOM     18  O   UNL     1      74.038  48.847   8.845  1.00  0.00    -0.504 OA
ATOM     19  H   UNL     1      74.670  48.427   8.174  1.00  0.00     0.293 HD
ENDBRANCH  15  18
BRANCH  17  20
ATOM     20  O   UNL     1      72.692  48.416   6.448  1.00  0.00    -0.504 OA
ATOM     21  H   UNL     1      73.637  48.778   6.404  1.00  0.00     0.293 HD
ENDBRANCH  17  20
ENDBRANCH   1  12
BRANCH   2  22
ATOM     22  O   UNL     1      67.894  49.705   9.920  1.00  0.00    -0.502 OA
ATOM     23  H   UNL     1      68.256  49.819  10.859  1.00  0.00     0.293 HD
ENDBRANCH   2  22
BRANCH   6  24
ATOM     24  O   UNL     1      63.433  47.102   9.312  1.00  0.00    -0.507 OA
ATOM     25  H   UNL     1      63.582  47.922   9.887  1.00  0.00     0.293 HD
ENDBRANCH   6  24
BRANCH   8  26
ATOM     26  O   UNL     1      64.988  42.911   7.495  1.00  0.00    -0.508 OA
ATOM     27  H   UNL     1      65.475  42.517   6.700  1.00  0.00     0.293 HD
ENDBRANCH   8  26
TORSDOF 6
ENDMDL
MODEL 5
REMARK VINA RESULT:    -5.798      2.036      2.725
REMARK INTER + INTRA:          -7.030
REMARK INTER:                  -6.745
REMARK INTRA:                  -0.285
REMARK UNBOUND:                -0.045
REMARK SMILES O=c1c(O)c(-c2ccc(O)c(O)c2)oc2cc(O)cc(O)c12
REMARK SMILES IDX 5 1 3 2 2 3 1 4 22 5 20 6 19 7 17 8 16 9 15 10 14 11 6 12
REMARK SMILES IDX 7 13 8 14 9 15 13 16 11 17 10 18 12 20 4 22 21 24 18 26
REMARK H PARENT 10 19 12 21 4 23 21 25 18 27
REMARK Flexibility Score: inf
ROOT
ATOM      1  C   UNL     1      70.010  47.105   8.653  1.00  0.00     0.180 A 
ATOM      2  C   UNL     1      70.813  48.162   9.125  1.00  0.00     0.208 A 
ATOM      3  C   UNL     1      72.209  48.046   9.032  1.00  0.00     0.238 A 
ATOM      4  O   UNL     1      72.939  48.981   9.461  1.00  0.00    -0.285 OA
ATOM      5  C   UNL     1      72.776  46.891   8.455  1.00  0.00     0.111 A 
ATOM      6  C   UNL     1      74.172  46.698   8.320  1.00  0.00     0.134 A 
ATOM      7  C   UNL     1      74.659  45.525   7.726  1.00  0.00     0.093 A 
ATOM      8  C   UNL     1      73.779  44.544   7.263  1.00  0.00     0.123 A 
ATOM      9  C   UNL     1      72.398  44.728   7.393  1.00  0.00     0.094 A 
ATOM     10  C   UNL     1      71.894  45.890   7.984  1.00  0.00     0.146 A 
ATOM     11  O   UNL     1      70.580  46.038   8.101  1.00  0.00    -0.452 OA
ENDROOT
BRANCH   1  12
ATOM     12  C   UNL     1      68.533  47.145   8.733  1.00  0.00     0.025 A 
ATOM     13  C   UNL     1      67.901  46.892   9.962  1.00  0.00     0.016 A 
ATOM     14  C   UNL     1      66.508  46.945  10.066  1.00  0.00     0.051 A 
ATOM     15  C   UNL     1      65.729  47.268   8.948  1.00  0.00     0.157 A 
ATOM     16  C   UNL     1      67.746  47.489   7.618  1.00  0.00     0.062 A 
ATOM     17  C   UNL     1      66.349  47.545   7.723  1.00  0.00     0.158 A 
BRANCH  15  18
ATOM     18  O   UNL     1      64.339  47.320   9.047  1.00  0.00    -0.504 OA
ATOM     19  H   UNL     1      63.751  47.357   8.223  1.00  0.00     0.293 HD
ENDBRANCH  15  18
BRANCH  17  20
ATOM     20  O   UNL     1      65.572  47.879   6.615  1.00  0.00    -0.504 OA
ATOM     21  H   UNL     1      65.987  48.247   5.768  1.00  0.00     0.293 HD
ENDBRANCH  17  20
ENDBRANCH   1  12
BRANCH   2  22
ATOM     22  O   UNL     1      70.225  49.316   9.648  1.00  0.00    -0.502 OA
ATOM     23  H   UNL     1      69.255  49.555   9.480  1.00  0.00     0.293 HD
ENDBRANCH   2  22
BRANCH   6  24
ATOM     24  O   UNL     1      75.077  47.660   8.771  1.00  0.00    -0.507 OA
ATOM     25  H   UNL     1      75.522  48.312   8.136  1.00  0.00     0.293 HD
ENDBRANCH   6  24
BRANCH   8  26
ATOM     26  O   UNL     1      74.287  43.387   6.674  1.00  0.00    -0.508 OA
ATOM     27  H   UNL     1      75.277  43.280   6.486  1.00  0.00     0.293 HD
ENDBRANCH   8  26
TORSDOF 6
ENDMDL
MODEL 6
REMARK VINA RESULT:    -5.775      4.664      5.665
REMARK INTER + INTRA:          -7.002
REMARK INTER:                  -6.706
REMARK INTRA:                  -0.296
REMARK UNBOUND:                -0.045
REMARK SMILES O=c1c(O)c(-c2ccc(O)c(O)c2)oc2cc(O)cc(O)c12
REMARK SMILES IDX 5 1 3 2 2 3 1 4 22 5 20 6 19 7 17 8 16 9 15 10 14 11 6 12
REMARK SMILES IDX 7 13 8 14 9 15 13 16 11 17 10 18 12 20 4 22 21 24 18 26
REMARK H PARENT 10 19 12 21 4 23 21 25 18 27
REMARK Flexibility Score: inf
ROOT
ATOM      1  C   UNL     1      71.543  44.002   6.108  1.00  0.00     0.180 A 
ATOM      2  C   UNL     1      71.983  44.353   4.817  1.00  0.00     0.208 A 
ATOM      3  C   UNL     1      72.729  45.531   4.652  1.00  0.00     0.238 A 
ATOM      4  O   UNL     1      73.118  45.861   3.498  1.00  0.00    -0.285 OA
ATOM      5  C   UNL     1      73.039  46.323   5.776  1.00  0.00     0.111 A 
ATOM      6  C   UNL     1      73.790  47.521   5.696  1.00  0.00     0.134 A 
ATOM      7  C   UNL     1      74.065  48.249   6.862  1.00  0.00     0.093 A 
ATOM      8  C   UNL     1      73.608  47.803   8.104  1.00  0.00     0.123 A 
ATOM      9  C   UNL     1      72.866  46.621   8.191  1.00  0.00     0.094 A 
ATOM     10  C   UNL     1      72.579  45.882   7.039  1.00  0.00     0.146 A 
ATOM     11  O   UNL     1      71.869  44.766   7.147  1.00  0.00    -0.452 OA
ENDROOT
BRANCH   1  12
ATOM     12  C   UNL     1      70.737  42.787   6.360  1.00  0.00     0.025 A 
ATOM     13  C   UNL     1      71.379  41.544   6.478  1.00  0.00     0.016 A 
ATOM     14  C   UNL     1      70.640  40.386   6.738  1.00  0.00     0.051 A 
ATOM     15  C   UNL     1      69.251  40.458   6.898  1.00  0.00     0.157 A 
ATOM     16  C   UNL     1      69.343  42.856   6.544  1.00  0.00     0.062 A 
ATOM     17  C   UNL     1      68.602  41.695   6.806  1.00  0.00     0.158 A 
BRANCH  15  18
ATOM     18  O   UNL     1      68.510  39.305   7.154  1.00  0.00    -0.504 OA
ATOM     19  H   UNL     1      67.895  38.904   6.456  1.00  0.00     0.293 HD
ENDBRANCH  15  18
BRANCH  17  20
ATOM     20  O   UNL     1      67.220  41.765   6.980  1.00  0.00    -0.504 OA
ATOM     21  H   UNL     1      66.645  42.379   6.416  1.00  0.00     0.293 HD
ENDBRANCH  17  20
ENDBRANCH   1  12
BRANCH   2  22
ATOM     22  O   UNL     1      71.703  43.525   3.726  1.00  0.00    -0.502 OA
ATOM     23  H   UNL     1      72.295  42.743   3.474  1.00  0.00     0.293 HD
ENDBRANCH   2  22
BRANCH   6  24
ATOM     24  O   UNL     1      74.262  47.992   4.469  1.00  0.00    -0.507 OA
ATOM     25  H   UNL     1      73.779  48.720   3.957  1.00  0.00     0.293 HD
ENDBRANCH   6  24
BRANCH   8  26
ATOM     26  O   UNL     1      73.897  48.544   9.249  1.00  0.00    -0.508 OA
ATOM     27  H   UNL     1      74.216  48.099  10.101  1.00  0.00     0.293 HD
ENDBRANCH   8  26
TORSDOF 6
ENDMDL
MODEL 7
REMARK VINA RESULT:    -5.741      2.148      2.942
REMARK INTER + INTRA:          -6.961
REMARK INTER:                  -6.645
REMARK INTRA:                  -0.316
REMARK UNBOUND:                -0.045
REMARK SMILES O=c1c(O)c(-c2ccc(O)c(O)c2)oc2cc(O)cc(O)c12
REMARK SMILES IDX 5 1 3 2 2 3 1 4 22 5 20 6 19 7 17 8 16 9 15 10 14 11 6 12
REMARK SMILES IDX 7 13 8 14 9 15 13 16 11 17 10 18 12 20 4 22 21 24 18 26
REMARK H PARENT 10 19 12 21 4 23 21 25 18 27
REMARK Flexibility Score: inf
ROOT
ATOM      1  C   UNL     1      68.801  47.256   8.533  1.00  0.00     0.180 A 
ATOM      2  C   UNL     1      69.119  48.518   9.070  1.00  0.00     0.208 A 
ATOM      3  C   UNL     1      70.384  49.067   8.808  1.00  0.00     0.238 A 
ATOM      4  O   UNL     1      70.685  50.192   9.293  1.00  0.00    -0.285 OA
ATOM      5  C   UNL     1      71.298  48.359   8.000  1.00  0.00     0.111 A 
ATOM      6  C   UNL     1      72.590  48.844   7.684  1.00  0.00     0.134 A 
ATOM      7  C   UNL     1      73.438  48.084   6.865  1.00  0.00     0.093 A 
ATOM      8  C   UNL     1      73.019  46.852   6.356  1.00  0.00     0.123 A 
ATOM      9  C   UNL     1      71.744  46.367   6.664  1.00  0.00     0.094 A 
ATOM     10  C   UNL     1      70.885  47.109   7.480  1.00  0.00     0.146 A 
ATOM     11  O   UNL     1      69.682  46.625   7.763  1.00  0.00    -0.452 OA
ENDROOT
BRANCH   1  12
ATOM     12  C   UNL     1      67.495  46.603   8.780  1.00  0.00     0.025 A 
ATOM     13  C   UNL     1      67.362  45.714   9.859  1.00  0.00     0.016 A 
ATOM     14  C   UNL     1      66.133  45.103  10.125  1.00  0.00     0.051 A 
ATOM     15  C   UNL     1      65.018  45.384   9.326  1.00  0.00     0.157 A 
ATOM     16  C   UNL     1      66.366  46.898   7.994  1.00  0.00     0.062 A 
ATOM     17  C   UNL     1      65.133  46.287   8.262  1.00  0.00     0.158 A 
BRANCH  15  18
ATOM     18  O   UNL     1      63.791  44.775   9.586  1.00  0.00    -0.504 OA
ATOM     19  H   UNL     1      63.028  45.282  10.018  1.00  0.00     0.293 HD
ENDBRANCH  15  18
BRANCH  17  20
ATOM     20  O   UNL     1      64.018  46.576   7.477  1.00  0.00    -0.504 OA
ATOM     21  H   UNL     1      63.641  45.901   6.822  1.00  0.00     0.293 HD
ENDBRANCH  17  20
ENDBRANCH   1  12
BRANCH   2  22
ATOM     22  O   UNL     1      68.179  49.221   9.828  1.00  0.00    -0.502 OA
ATOM     23  H   UNL     1      67.690  50.033   9.468  1.00  0.00     0.293 HD
ENDBRANCH   2  22
BRANCH   6  24
ATOM     24  O   UNL     1      73.036  50.071   8.176  1.00  0.00    -0.507 OA
ATOM     25  H   UNL     1      73.150  50.878   7.573  1.00  0.00     0.293 HD
ENDBRANCH   6  24
BRANCH   8  26
ATOM     26  O   UNL     1      73.880  46.117   5.544  1.00  0.00    -0.508 OA
ATOM     27  H   UNL     1      74.515  46.570   4.898  1.00  0.00     0.293 HD
ENDBRANCH   8  26
TORSDOF 6
ENDMDL
MODEL 8
REMARK VINA RESULT:    -5.723      2.373      3.101
REMARK INTER + INTRA:          -6.939
REMARK INTER:                  -6.647
REMARK INTRA:                  -0.291
REMARK UNBOUND:                -0.045
REMARK SMILES O=c1c(O)c(-c2ccc(O)c(O)c2)oc2cc(O)cc(O)c12
REMARK SMILES IDX 5 1 3 2 2 3 1 4 22 5 20 6 19 7 17 8 16 9 15 10 14 11 6 12
REMARK SMILES IDX 7 13 8 14 9 15 13 16 11 17 10 18 12 20 4 22 21 24 18 26
REMARK H PARENT 10 19 12 21 4 23 21 25 18 27
REMARK Flexibility Score: inf
ROOT
ATOM      1  C   UNL     1      69.874  46.546   7.374  1.00  0.00     0.180 A 
ATOM      2  C   UNL     1      70.194  45.179   7.498  1.00  0.00     0.208 A 
ATOM      3  C   UNL     1      71.390  44.709   6.933  1.00  0.00     0.238 A 
ATOM      4  O   UNL     1      71.681  43.485   7.028  1.00  0.00    -0.285 OA
ATOM      5  C   UNL     1      72.253  45.611   6.276  1.00  0.00     0.111 A 
ATOM      6  C   UNL     1      73.478  45.219   5.685  1.00  0.00     0.134 A 
ATOM      7  C   UNL     1      74.286  46.178   5.057  1.00  0.00     0.093 A 
ATOM      8  C   UNL     1      73.895  47.518   5.010  1.00  0.00     0.123 A 
ATOM      9  C   UNL     1      72.686  47.912   5.592  1.00  0.00     0.094 A 
ATOM     10  C   UNL     1      71.865  46.970   6.221  1.00  0.00     0.146 A 
ATOM     11  O   UNL     1      70.720  47.369   6.761  1.00  0.00    -0.452 OA
ENDROOT
BRANCH   1  12
ATOM     12  C   UNL     1      68.623  47.113   7.926  1.00  0.00     0.025 A 
ATOM     13  C   UNL     1      68.676  47.901   9.087  1.00  0.00     0.016 A 
ATOM     14  C   UNL     1      67.510  48.464   9.614  1.00  0.00     0.051 A 
ATOM     15  C   UNL     1      66.279  48.262   8.978  1.00  0.00     0.157 A 
ATOM     16  C   UNL     1      67.387  46.931   7.279  1.00  0.00     0.062 A 
ATOM     17  C   UNL     1      66.218  47.498   7.806  1.00  0.00     0.158 A 
BRANCH  15  18
ATOM     18  O   UNL     1      65.114  48.820   9.501  1.00  0.00    -0.504 OA
ATOM     19  H   UNL     1      64.427  48.255   9.986  1.00  0.00     0.293 HD
ENDBRANCH  15  18
BRANCH  17  20
ATOM     20  O   UNL     1      64.993  47.309   7.167  1.00  0.00    -0.504 OA
ATOM     21  H   UNL     1      64.134  47.693   7.543  1.00  0.00     0.293 HD
ENDBRANCH  17  20
ENDBRANCH   1  12
BRANCH   2  22
ATOM     22  O   UNL     1      69.345  44.316   8.196  1.00  0.00    -0.502 OA
ATOM     23  H   UNL     1      68.491  43.951   7.792  1.00  0.00     0.293 HD
ENDBRANCH   2  22
BRANCH   6  24
ATOM     24  O   UNL     1      73.897  43.888   5.717  1.00  0.00    -0.507 OA
ATOM     25  H   UNL     1      73.930  43.360   6.581  1.00  0.00     0.293 HD
ENDBRANCH   6  24
BRANCH   8  26
ATOM     26  O   UNL     1      74.716  48.451   4.382  1.00  0.00    -0.508 OA
ATOM     27  H   UNL     1      74.536  49.446   4.449  1.00  0.00     0.293 HD
ENDBRANCH   8  26
TORSDOF 6
ENDMDL
MODEL 9
REMARK VINA RESULT:    -5.683      4.380      5.775
REMARK INTER + INTRA:          -6.891
REMARK INTER:                  -6.651
REMARK INTRA:                  -0.240
REMARK UNBOUND:                -0.045
REMARK SMILES O=c1c(O)c(-c2ccc(O)c(O)c2)oc2cc(O)cc(O)c12
REMARK SMILES IDX 5 1 3 2 2 3 1 4 22 5 20 6 19 7 17 8 16 9 15 10 14 11 6 12
REMARK SMILES IDX 7 13 8 14 9 15 13 16 11 17 10 18 12 20 4 22 21 24 18 26
REMARK H PARENT 10 19 12 21 4 23 21 25 18 27
REMARK Flexibility Score: inf
ROOT
ATOM      1  C   UNL     1      69.318  44.902   7.431  1.00  0.00     0.180 A 
ATOM      2  C   UNL     1      68.179  45.720   7.291  1.00  0.00     0.208 A 
ATOM      3  C   UNL     1      68.259  47.066   7.683  1.00  0.00     0.238 A 
ATOM      4  O   UNL     1      67.243  47.805   7.573  1.00  0.00    -0.285 OA
ATOM      5  C   UNL     1      69.474  47.574   8.188  1.00  0.00     0.111 A 
ATOM      6  C   UNL     1      69.639  48.918   8.601  1.00  0.00     0.134 A 
ATOM      7  C   UNL     1      70.882  49.350   9.084  1.00  0.00     0.093 A 
ATOM      8  C   UNL     1      71.962  48.468   9.160  1.00  0.00     0.123 A 
ATOM      9  C   UNL     1      71.807  47.139   8.753  1.00  0.00     0.094 A 
ATOM     10  C   UNL     1      70.574  46.688   8.271  1.00  0.00     0.146 A 
ATOM     11  O   UNL     1      70.450  45.421   7.897  1.00  0.00    -0.452 OA
ENDROOT
BRANCH   1  12
ATOM     12  C   UNL     1      69.307  43.470   7.057  1.00  0.00     0.025 A 
ATOM     13  C   UNL     1      68.603  42.554   7.855  1.00  0.00     0.016 A 
ATOM     14  C   UNL     1      68.561  41.200   7.509  1.00  0.00     0.051 A 
ATOM     15  C   UNL     1      69.208  40.747   6.353  1.00  0.00     0.157 A 
ATOM     16  C   UNL     1      69.937  43.013   5.885  1.00  0.00     0.062 A 
ATOM     17  C   UNL     1      69.894  41.655   5.537  1.00  0.00     0.158 A 
BRANCH  15  18
ATOM     18  O   UNL     1      69.171  39.397   6.006  1.00  0.00    -0.504 OA
ATOM     19  H   UNL     1      68.301  38.935   5.768  1.00  0.00     0.293 HD
ENDBRANCH  15  18
BRANCH  17  20
ATOM     20  O   UNL     1      70.526  41.203   4.380  1.00  0.00    -0.504 OA
ATOM     21  H   UNL     1      71.535  41.140   4.317  1.00  0.00     0.293 HD
ENDBRANCH  17  20
ENDBRANCH   1  12
BRANCH   2  22
ATOM     22  O   UNL     1      67.002  45.204   6.743  1.00  0.00    -0.502 OA
ATOM     23  H   UNL     1      66.366  44.622   7.274  1.00  0.00     0.293 HD
ENDBRANCH   2  22
BRANCH   6  24
ATOM     24  O   UNL     1      68.579  49.824   8.537  1.00  0.00    -0.507 OA
ATOM     25  H   UNL     1      68.730  50.808   8.348  1.00  0.00     0.293 HD
ENDBRANCH   6  24
BRANCH   8  26
ATOM     26  O   UNL     1      73.188  48.922   9.641  1.00  0.00    -0.508 OA
ATOM     27  H   UNL     1      74.059  48.688   9.180  1.00  0.00     0.293 HD
ENDBRANCH   8  26
TORSDOF 6
ENDMDL
