MODEL 1
REMARK VINA RESULT:    -5.876      0.000      0.000
REMARK INTER + INTRA:          -7.208
REMARK INTER:                  -6.907
REMARK INTRA:                  -0.302
REMARK UNBOUND:                -0.302
REMARK SMILES O=c1cc(-c2ccc(O)c(O)c2)oc2cc(O)cc(O)c12
REMARK SMILES IDX 4 1 3 2 2 3 1 4 21 5 19 6 18 7 16 8 15 9 14 10 13 11 5 12
REMARK SMILES IDX 6 13 7 14 8 15 12 16 10 17 9 18 11 20 20 22 17 24
REMARK H PARENT 9 19 11 21 20 23 17 25
REMARK Flexibility Score: inf
ROOT
ATOM      1  C   UNL     1      75.001 -55.547 198.118  1.00  0.00     0.138 A 
ATOM      2  C   UNL     1      73.948 -55.139 197.287  1.00  0.00     0.100 A 
ATOM      3  C   UNL     1      74.228 -54.620 196.022  1.00  0.00     0.197 A 
ATOM      4  O   UNL     1      73.266 -54.211 195.323  1.00  0.00    -0.289 OA
ATOM      5  C   UNL     1      75.569 -54.544 195.574  1.00  0.00     0.107 A 
ATOM      6  C   UNL     1      75.973 -54.065 194.291  1.00  0.00     0.134 A 
ATOM      7  C   UNL     1      77.337 -53.945 193.998  1.00  0.00     0.093 A 
ATOM      8  C   UNL     1      78.311 -54.341 194.918  1.00  0.00     0.123 A 
ATOM      9  C   UNL     1      77.926 -54.856 196.154  1.00  0.00     0.094 A 
ATOM     10  C   UNL     1      76.574 -54.956 196.490  1.00  0.00     0.146 A 
ATOM     11  O   UNL     1      76.252 -55.437 197.686  1.00  0.00    -0.456 OA
ENDROOT
BRANCH   1  12
ATOM     12  C   UNL     1      74.759 -56.109 199.471  1.00  0.00     0.021 A 
ATOM     13  C   UNL     1      73.683 -55.627 200.237  1.00  0.00     0.016 A 
ATOM     14  C   UNL     1      73.428 -56.144 201.509  1.00  0.00     0.051 A 
ATOM     15  C   UNL     1      74.234 -57.156 202.036  1.00  0.00     0.157 A 
ATOM     16  C   UNL     1      75.560 -57.140 200.001  1.00  0.00     0.062 A 
ATOM     17  C   UNL     1      75.303 -57.660 201.278  1.00  0.00     0.158 A 
BRANCH  15  18
ATOM     18  O   UNL     1      73.956 -57.651 203.310  1.00  0.00    -0.504 OA
ATOM     19  H   UNL     1      73.034 -57.582 203.724  1.00  0.00     0.293 HD
ENDBRANCH  15  18
BRANCH  17  20
ATOM     20  O   UNL     1      76.105 -58.678 201.793  1.00  0.00    -0.504 OA
ATOM     21  H   UNL     1      76.726 -58.520 202.578  1.00  0.00     0.293 HD
ENDBRANCH  17  20
ENDBRANCH   1  12
BRANCH   6  22
ATOM     22  O   UNL     1      75.084 -53.718 193.269  1.00  0.00    -0.507 OA
ATOM     23  H   UNL     1      74.095 -53.913 193.270  1.00  0.00     0.293 HD
ENDBRANCH   6  22
BRANCH   8  24
ATOM     24  O   UNL     1      79.665 -54.231 194.611  1.00  0.00    -0.508 OA
ATOM     25  H   UNL     1      79.982 -54.050 193.666  1.00  0.00     0.293 HD
ENDBRANCH   8  24
TORSDOF 5
ENDMDL
MODEL 2
REMARK VINA RESULT:    -5.542      1.464      6.745
REMARK INTER + INTRA:          -6.815
REMARK INTER:                  -6.498
REMARK INTRA:                  -0.317
REMARK UNBOUND:                -0.302
REMARK SMILES O=c1cc(-c2ccc(O)c(O)c2)oc2cc(O)cc(O)c12
REMARK SMILES IDX 4 1 3 2 2 3 1 4 21 5 19 6 18 7 16 8 15 9 14 10 13 11 5 12
REMARK SMILES IDX 6 13 7 14 8 15 12 16 10 17 9 18 11 20 20 22 17 24
REMARK H PARENT 9 19 11 21 20 23 17 25
REMARK Flexibility Score: inf
ROOT
ATOM      1  C   UNL     1      75.180 -55.228 196.732  1.00  0.00     0.138 A 
ATOM      2  C   UNL     1      73.811 -54.926 196.723  1.00  0.00     0.100 A 
ATOM      3  C   UNL     1      73.007 -55.330 197.791  1.00  0.00     0.197 A 
ATOM      4  O   UNL     1      71.774 -55.093 197.726  1.00  0.00    -0.289 OA
ATOM      5  C   UNL     1      73.587 -56.007 198.890  1.00  0.00     0.107 A 
ATOM      6  C   UNL     1      72.872 -56.437 200.050  1.00  0.00     0.134 A 
ATOM      7  C   UNL     1      73.535 -57.186 201.030  1.00  0.00     0.093 A 
ATOM      8  C   UNL     1      74.899 -57.471 200.920  1.00  0.00     0.123 A 
ATOM      9  C   UNL     1      75.615 -57.015 199.817  1.00  0.00     0.094 A 
ATOM     10  C   UNL     1      74.975 -56.294 198.806  1.00  0.00     0.146 A 
ATOM     11  O   UNL     1      75.693 -55.893 197.762  1.00  0.00    -0.456 OA
ENDROOT
BRANCH   1  12
ATOM     12  C   UNL     1      76.080 -54.820 195.625  1.00  0.00     0.021 A 
ATOM     13  C   UNL     1      75.536 -54.208 194.482  1.00  0.00     0.016 A 
ATOM     14  C   UNL     1      76.361 -53.807 193.429  1.00  0.00     0.051 A 
ATOM     15  C   UNL     1      77.743 -54.000 193.500  1.00  0.00     0.157 A 
ATOM     16  C   UNL     1      77.476 -54.999 195.698  1.00  0.00     0.062 A 
ATOM     17  C   UNL     1      78.305 -54.595 194.641  1.00  0.00     0.158 A 
BRANCH  15  18
ATOM     18  O   UNL     1      78.541 -53.590 192.433  1.00  0.00    -0.504 OA
ATOM     19  H   UNL     1      79.476 -53.954 192.289  1.00  0.00     0.293 HD
ENDBRANCH  15  18
BRANCH  17  20
ATOM     20  O   UNL     1      79.684 -54.779 194.725  1.00  0.00    -0.504 OA
ATOM     21  H   UNL     1      80.168 -54.781 195.615  1.00  0.00     0.293 HD
ENDBRANCH  17  20
ENDBRANCH   1  12
BRANCH   6  22
ATOM     22  O   UNL     1      71.529 -56.138 200.298  1.00  0.00    -0.507 OA
ATOM     23  H   UNL     1      71.190 -55.270 200.683  1.00  0.00     0.293 HD
ENDBRANCH   6  22
BRANCH   8  24
ATOM     24  O   UNL     1      75.552 -58.205 201.908  1.00  0.00    -0.508 OA
ATOM     25  H   UNL     1      75.276 -58.148 202.881  1.00  0.00     0.293 HD
ENDBRANCH   8  24
TORSDOF 5
ENDMDL
MODEL 3
REMARK VINA RESULT:    -5.288      1.634      3.311
REMARK INTER + INTRA:          -6.517
REMARK INTER:                  -6.241
REMARK INTRA:                  -0.277
REMARK UNBOUND:                -0.302
REMARK SMILES O=c1cc(-c2ccc(O)c(O)c2)oc2cc(O)cc(O)c12
REMARK SMILES IDX 4 1 3 2 2 3 1 4 21 5 19 6 18 7 16 8 15 9 14 10 13 11 5 12
REMARK SMILES IDX 6 13 7 14 8 15 12 16 10 17 9 18 11 20 20 22 17 24
REMARK H PARENT 9 19 11 21 20 23 17 25
REMARK Flexibility Score: inf
ROOT
ATOM      1  C   UNL     1      74.313 -55.636 198.237  1.00  0.00     0.138 A 
ATOM      2  C   UNL     1      75.513 -55.247 197.627  1.00  0.00     0.100 A 
ATOM      3  C   UNL     1      75.496 -54.766 196.316  1.00  0.00     0.197 A 
ATOM      4  O   UNL     1      76.595 -54.478 195.777  1.00  0.00    -0.289 OA
ATOM      5  C   UNL     1      74.265 -54.640 195.629  1.00  0.00     0.107 A 
ATOM      6  C   UNL     1      74.121 -54.130 194.302  1.00  0.00     0.134 A 
ATOM      7  C   UNL     1      72.863 -54.146 193.690  1.00  0.00     0.093 A 
ATOM      8  C   UNL     1      71.732 -54.598 194.376  1.00  0.00     0.123 A 
ATOM      9  C   UNL     1      71.853 -55.052 195.687  1.00  0.00     0.094 A 
ATOM     10  C   UNL     1      73.102 -55.081 196.314  1.00  0.00     0.146 A 
ATOM     11  O   UNL     1      73.174 -55.538 197.559  1.00  0.00    -0.456 OA
ENDROOT
BRANCH   1  12
ATOM     12  C   UNL     1      74.273 -56.152 199.629  1.00  0.00     0.021 A 
ATOM     13  C   UNL     1      73.299 -55.663 200.519  1.00  0.00     0.016 A 
ATOM     14  C   UNL     1      73.234 -56.136 201.831  1.00  0.00     0.051 A 
ATOM     15  C   UNL     1      74.130 -57.111 202.277  1.00  0.00     0.157 A 
ATOM     16  C   UNL     1      75.165 -57.145 200.079  1.00  0.00     0.062 A 
ATOM     17  C   UNL     1      75.098 -57.622 201.397  1.00  0.00     0.158 A 
BRANCH  15  18
ATOM     18  O   UNL     1      74.041 -57.563 203.593  1.00  0.00    -0.504 OA
ATOM     19  H   UNL     1      73.156 -57.812 204.018  1.00  0.00     0.293 HD
ENDBRANCH  15  18
BRANCH  17  20
ATOM     20  O   UNL     1      75.988 -58.603 201.832  1.00  0.00    -0.504 OA
ATOM     21  H   UNL     1      75.667 -59.438 202.309  1.00  0.00     0.293 HD
ENDBRANCH  17  20
ENDBRANCH   1  12
BRANCH   6  22
ATOM     22  O   UNL     1      75.169 -53.580 193.557  1.00  0.00    -0.507 OA
ATOM     23  H   UNL     1      75.133 -52.700 193.067  1.00  0.00     0.293 HD
ENDBRANCH   6  22
BRANCH   8  24
ATOM     24  O   UNL     1      70.482 -54.596 193.762  1.00  0.00    -0.508 OA
ATOM     25  H   UNL     1      70.227 -55.294 193.073  1.00  0.00     0.293 HD
ENDBRANCH   8  24
TORSDOF 5
ENDMDL
MODEL 4
REMARK VINA RESULT:    -5.260      1.369      3.071
REMARK INTER + INTRA:          -6.484
REMARK INTER:                  -6.206
REMARK INTRA:                  -0.278
REMARK UNBOUND:                -0.302
REMARK SMILES O=c1cc(-c2ccc(O)c(O)c2)oc2cc(O)cc(O)c12
REMARK SMILES IDX 4 1 3 2 2 3 1 4 21 5 19 6 18 7 16 8 15 9 14 10 13 11 5 12
REMARK SMILES IDX 6 13 7 14 8 15 12 16 10 17 9 18 11 20 20 22 17 24
REMARK H PARENT 9 19 11 21 20 23 17 25
REMARK Flexibility Score: inf
ROOT
ATOM      1  C   UNL     1      75.320 -55.524 198.427  1.00  0.00     0.138 A 
ATOM      2  C   UNL     1      76.667 -55.241 198.157  1.00  0.00     0.100 A 
ATOM      3  C   UNL     1      77.022 -54.684 196.928  1.00  0.00     0.197 A 
ATOM      4  O   UNL     1      78.243 -54.495 196.694  1.00  0.00    -0.289 OA
ATOM      5  C   UNL     1      76.018 -54.375 195.979  1.00  0.00     0.107 A 
ATOM      6  C   UNL     1      76.258 -53.774 194.705  1.00  0.00     0.134 A 
ATOM      7  C   UNL     1      75.195 -53.606 193.811  1.00  0.00     0.093 A 
ATOM      8  C   UNL     1      73.891 -53.964 194.164  1.00  0.00     0.123 A 
ATOM      9  C   UNL     1      73.639 -54.505 195.422  1.00  0.00     0.094 A 
ATOM     10  C   UNL     1      74.684 -54.717 196.325  1.00  0.00     0.146 A 
ATOM     11  O   UNL     1      74.401 -55.253 197.507  1.00  0.00    -0.456 OA
ENDROOT
BRANCH   1  12
ATOM     12  C   UNL     1      74.887 -56.112 199.719  1.00  0.00     0.021 A 
ATOM     13  C   UNL     1      75.410 -57.354 200.122  1.00  0.00     0.016 A 
ATOM     14  C   UNL     1      75.025 -57.927 201.336  1.00  0.00     0.051 A 
ATOM     15  C   UNL     1      74.120 -57.269 202.174  1.00  0.00     0.157 A 
ATOM     16  C   UNL     1      73.986 -55.446 200.574  1.00  0.00     0.062 A 
ATOM     17  C   UNL     1      73.601 -56.021 201.794  1.00  0.00     0.158 A 
BRANCH  15  18
ATOM     18  O   UNL     1      73.754 -57.866 203.380  1.00  0.00    -0.504 OA
ATOM     19  H   UNL     1      73.678 -57.338 204.241  1.00  0.00     0.293 HD
ENDBRANCH  15  18
BRANCH  17  20
ATOM     20  O   UNL     1      72.707 -55.353 202.631  1.00  0.00    -0.504 OA
ATOM     21  H   UNL     1      72.904 -54.424 202.985  1.00  0.00     0.293 HD
ENDBRANCH  17  20
ENDBRANCH   1  12
BRANCH   6  22
ATOM     22  O   UNL     1      77.507 -53.307 194.283  1.00  0.00    -0.507 OA
ATOM     23  H   UNL     1      78.353 -53.339 194.830  1.00  0.00     0.293 HD
ENDBRANCH   6  22
BRANCH   8  24
ATOM     24  O   UNL     1      72.838 -53.780 193.271  1.00  0.00    -0.508 OA
ATOM     25  H   UNL     1      72.861 -54.166 192.335  1.00  0.00     0.293 HD
ENDBRANCH   8  24
TORSDOF 5
ENDMDL
MODEL 5
REMARK VINA RESULT:    -5.226      5.307      9.084
REMARK INTER + INTRA:          -6.445
REMARK INTER:                  -6.128
REMARK INTRA:                  -0.317
REMARK UNBOUND:                -0.302
REMARK SMILES O=c1cc(-c2ccc(O)c(O)c2)oc2cc(O)cc(O)c12
REMARK SMILES IDX 4 1 3 2 2 3 1 4 21 5 19 6 18 7 16 8 15 9 14 10 13 11 5 12
REMARK SMILES IDX 6 13 7 14 8 15 12 16 10 17 9 18 11 20 20 22 17 24
REMARK H PARENT 9 19 11 21 20 23 17 25
REMARK Flexibility Score: inf
ROOT
ATOM      1  C   UNL     1      70.010 -58.351 196.700  1.00  0.00     0.138 A 
ATOM      2  C   UNL     1      68.868 -59.165 196.719  1.00  0.00     0.100 A 
ATOM      3  C   UNL     1      68.572 -59.913 197.860  1.00  0.00     0.197 A 
ATOM      4  O   UNL     1      67.573 -60.675 197.825  1.00  0.00    -0.289 OA
ATOM      5  C   UNL     1      69.405 -59.815 199.000  1.00  0.00     0.107 A 
ATOM      6  C   UNL     1      69.183 -60.504 200.232  1.00  0.00     0.134 A 
ATOM      7  C   UNL     1      70.131 -60.405 201.257  1.00  0.00     0.093 A 
ATOM      8  C   UNL     1      71.263 -59.597 201.119  1.00  0.00     0.123 A 
ATOM      9  C   UNL     1      71.463 -58.883 199.941  1.00  0.00     0.094 A 
ATOM     10  C   UNL     1      70.553 -58.987 198.886  1.00  0.00     0.146 A 
ATOM     11  O   UNL     1      70.792 -58.301 197.773  1.00  0.00    -0.456 OA
ENDROOT
BRANCH   1  12
ATOM     12  C   UNL     1      70.370 -57.533 195.515  1.00  0.00     0.021 A 
ATOM     13  C   UNL     1      69.628 -57.672 194.329  1.00  0.00     0.016 A 
ATOM     14  C   UNL     1      69.940 -56.909 193.201  1.00  0.00     0.051 A 
ATOM     15  C   UNL     1      70.989 -55.988 193.239  1.00  0.00     0.157 A 
ATOM     16  C   UNL     1      71.418 -56.592 195.552  1.00  0.00     0.062 A 
ATOM     17  C   UNL     1      71.730 -55.824 194.421  1.00  0.00     0.158 A 
BRANCH  15  18
ATOM     18  O   UNL     1      71.278 -55.241 192.097  1.00  0.00    -0.504 OA
ATOM     19  H   UNL     1      71.349 -54.230 192.119  1.00  0.00     0.293 HD
ENDBRANCH  15  18
BRANCH  17  20
ATOM     20  O   UNL     1      72.771 -54.898 194.469  1.00  0.00    -0.504 OA
ATOM     21  H   UNL     1      72.707 -54.055 195.029  1.00  0.00     0.293 HD
ENDBRANCH  17  20
ENDBRANCH   1  12
BRANCH   6  22
ATOM     22  O   UNL     1      68.048 -61.273 200.506  1.00  0.00    -0.507 OA
ATOM     23  H   UNL     1      68.057 -62.242 200.782  1.00  0.00     0.293 HD
ENDBRANCH   6  22
BRANCH   8  24
ATOM     24  O   UNL     1      72.192 -59.495 202.151  1.00  0.00    -0.508 OA
ATOM     25  H   UNL     1      71.972 -59.020 203.019  1.00  0.00     0.293 HD
ENDBRANCH   8  24
TORSDOF 5
ENDMDL
MODEL 6
REMARK VINA RESULT:    -5.193      2.575      3.424
REMARK INTER + INTRA:          -6.405
REMARK INTER:                  -6.133
REMARK INTRA:                  -0.272
REMARK UNBOUND:                -0.302
REMARK SMILES O=c1cc(-c2ccc(O)c(O)c2)oc2cc(O)cc(O)c12
REMARK SMILES IDX 4 1 3 2 2 3 1 4 21 5 19 6 18 7 16 8 15 9 14 10 13 11 5 12
REMARK SMILES IDX 6 13 7 14 8 15 12 16 10 17 9 18 11 20 20 22 17 24
REMARK H PARENT 9 19 11 21 20 23 17 25
REMARK Flexibility Score: inf
ROOT
ATOM      1  C   UNL     1      72.502 -56.401 198.501  1.00  0.00     0.138 A 
ATOM      2  C   UNL     1      71.422 -57.054 197.890  1.00  0.00     0.100 A 
ATOM      3  C   UNL     1      71.105 -56.768 196.561  1.00  0.00     0.197 A 
ATOM      4  O   UNL     1      70.098 -57.328 196.059  1.00  0.00    -0.289 OA
ATOM      5  C   UNL     1      71.898 -55.849 195.831  1.00  0.00     0.107 A 
ATOM      6  C   UNL     1      71.690 -55.505 194.460  1.00  0.00     0.134 A 
ATOM      7  C   UNL     1      72.479 -54.508 193.873  1.00  0.00     0.093 A 
ATOM      8  C   UNL     1      73.505 -53.885 194.588  1.00  0.00     0.123 A 
ATOM      9  C   UNL     1      73.748 -54.249 195.910  1.00  0.00     0.094 A 
ATOM     10  C   UNL     1      72.956 -55.216 196.535  1.00  0.00     0.146 A 
ATOM     11  O   UNL     1      73.210 -55.520 197.803  1.00  0.00    -0.456 OA
ENDROOT
BRANCH   1  12
ATOM     12  C   UNL     1      72.885 -56.670 199.910  1.00  0.00     0.021 A 
ATOM     13  C   UNL     1      71.997 -56.326 200.945  1.00  0.00     0.016 A 
ATOM     14  C   UNL     1      72.328 -56.575 202.278  1.00  0.00     0.051 A 
ATOM     15  C   UNL     1      73.545 -57.180 202.604  1.00  0.00     0.157 A 
ATOM     16  C   UNL     1      74.104 -57.293 200.243  1.00  0.00     0.062 A 
ATOM     17  C   UNL     1      74.436 -57.545 201.582  1.00  0.00     0.158 A 
BRANCH  15  18
ATOM     18  O   UNL     1      73.849 -57.415 203.944  1.00  0.00    -0.504 OA
ATOM     19  H   UNL     1      73.172 -57.806 204.589  1.00  0.00     0.293 HD
ENDBRANCH  15  18
BRANCH  17  20
ATOM     20  O   UNL     1      75.647 -58.160 201.898  1.00  0.00    -0.504 OA
ATOM     21  H   UNL     1      76.379 -57.668 202.397  1.00  0.00     0.293 HD
ENDBRANCH  17  20
ENDBRANCH   1  12
BRANCH   6  22
ATOM     22  O   UNL     1      70.747 -56.121 193.632  1.00  0.00    -0.507 OA
ATOM     23  H   UNL     1      69.887 -55.699 193.320  1.00  0.00     0.293 HD
ENDBRANCH   6  22
BRANCH   8  24
ATOM     24  O   UNL     1      74.294 -52.906 193.990  1.00  0.00    -0.508 OA
ATOM     25  H   UNL     1      74.127 -52.596 193.039  1.00  0.00     0.293 HD
ENDBRANCH   8  24
TORSDOF 5
ENDMDL
MODEL 7
REMARK VINA RESULT:    -5.171      1.398      2.688
REMARK INTER + INTRA:          -6.380
REMARK INTER:                  -6.094
REMARK INTRA:                  -0.285
REMARK UNBOUND:                -0.302
REMARK SMILES O=c1cc(-c2ccc(O)c(O)c2)oc2cc(O)cc(O)c12
REMARK SMILES IDX 4 1 3 2 2 3 1 4 21 5 19 6 18 7 16 8 15 9 14 10 13 11 5 12
REMARK SMILES IDX 6 13 7 14 8 15 12 16 10 17 9 18 11 20 20 22 17 24
REMARK H PARENT 9 19 11 21 20 23 17 25
REMARK Flexibility Score: inf
ROOT
ATOM      1  C   UNL     1      76.036 -55.469 198.176  1.00  0.00     0.138 A 
ATOM      2  C   UNL     1      77.254 -54.846 198.480  1.00  0.00     0.100 A 
ATOM      3  C   UNL     1      77.890 -54.065 197.513  1.00  0.00     0.197 A 
ATOM      4  O   UNL     1      79.008 -53.565 197.797  1.00  0.00    -0.289 OA
ATOM      5  C   UNL     1      77.283 -53.880 196.247  1.00  0.00     0.107 A 
ATOM      6  C   UNL     1      77.822 -53.078 195.195  1.00  0.00     0.134 A 
ATOM      7  C   UNL     1      77.179 -53.049 193.952  1.00  0.00     0.093 A 
ATOM      8  C   UNL     1      75.987 -53.746 193.740  1.00  0.00     0.123 A 
ATOM      9  C   UNL     1      75.427 -54.491 194.774  1.00  0.00     0.094 A 
ATOM     10  C   UNL     1      76.062 -54.568 196.016  1.00  0.00     0.146 A 
ATOM     11  O   UNL     1      75.502 -55.304 196.970  1.00  0.00    -0.456 OA
ENDROOT
BRANCH   1  12
ATOM     12  C   UNL     1      75.316 -56.307 199.167  1.00  0.00     0.021 A 
ATOM     13  C   UNL     1      73.910 -56.340 199.152  1.00  0.00     0.016 A 
ATOM     14  C   UNL     1      73.207 -57.126 200.068  1.00  0.00     0.051 A 
ATOM     15  C   UNL     1      73.892 -57.899 201.009  1.00  0.00     0.157 A 
ATOM     16  C   UNL     1      76.002 -57.100 200.108  1.00  0.00     0.062 A 
ATOM     17  C   UNL     1      75.296 -57.891 201.028  1.00  0.00     0.158 A 
BRANCH  15  18
ATOM     18  O   UNL     1      73.163 -58.673 201.911  1.00  0.00    -0.504 OA
ATOM     19  H   UNL     1      72.165 -58.554 202.039  1.00  0.00     0.293 HD
ENDBRANCH  15  18
BRANCH  17  20
ATOM     20  O   UNL     1      75.987 -58.669 201.955  1.00  0.00    -0.504 OA
ATOM     21  H   UNL     1      75.943 -58.475 202.949  1.00  0.00     0.293 HD
ENDBRANCH  17  20
ENDBRANCH   1  12
BRANCH   6  22
ATOM     22  O   UNL     1      78.962 -52.279 195.325  1.00  0.00    -0.507 OA
ATOM     23  H   UNL     1      78.999 -51.394 195.805  1.00  0.00     0.293 HD
ENDBRANCH   6  22
BRANCH   8  24
ATOM     24  O   UNL     1      75.347 -53.700 192.503  1.00  0.00    -0.508 OA
ATOM     25  H   UNL     1      74.594 -54.336 192.270  1.00  0.00     0.293 HD
ENDBRANCH   8  24
TORSDOF 5
ENDMDL
MODEL 8
REMARK VINA RESULT:    -5.153      1.928      6.972
REMARK INTER + INTRA:          -6.358
REMARK INTER:                  -6.091
REMARK INTRA:                  -0.267
REMARK UNBOUND:                -0.302
REMARK SMILES O=c1cc(-c2ccc(O)c(O)c2)oc2cc(O)cc(O)c12
REMARK SMILES IDX 4 1 3 2 2 3 1 4 21 5 19 6 18 7 16 8 15 9 14 10 13 11 5 12
REMARK SMILES IDX 6 13 7 14 8 15 12 16 10 17 9 18 11 20 20 22 17 24
REMARK H PARENT 9 19 11 21 20 23 17 25
REMARK Flexibility Score: inf
ROOT
ATOM      1  C   UNL     1      75.668 -54.932 198.699  1.00  0.00     0.138 A 
ATOM      2  C   UNL     1      75.003 -53.796 199.182  1.00  0.00     0.100 A 
ATOM      3  C   UNL     1      74.029 -53.936 200.172  1.00  0.00     0.197 A 
ATOM      4  O   UNL     1      73.411 -52.906 200.544  1.00  0.00    -0.289 OA
ATOM      5  C   UNL     1      73.749 -55.216 200.708  1.00  0.00     0.107 A 
ATOM      6  C   UNL     1      72.801 -55.475 201.745  1.00  0.00     0.134 A 
ATOM      7  C   UNL     1      72.538 -56.797 202.124  1.00  0.00     0.093 A 
ATOM      8  C   UNL     1      73.229 -57.865 201.545  1.00  0.00     0.123 A 
ATOM      9  C   UNL     1      74.190 -57.619 200.568  1.00  0.00     0.094 A 
ATOM     10  C   UNL     1      74.451 -56.313 200.143  1.00  0.00     0.146 A 
ATOM     11  O   UNL     1      75.364 -56.126 199.196  1.00  0.00    -0.456 OA
ENDROOT
BRANCH   1  12
ATOM     12  C   UNL     1      76.714 -54.841 197.649  1.00  0.00     0.021 A 
ATOM     13  C   UNL     1      78.013 -54.437 198.002  1.00  0.00     0.016 A 
ATOM     14  C   UNL     1      79.018 -54.350 197.036  1.00  0.00     0.051 A 
ATOM     15  C   UNL     1      78.748 -54.673 195.703  1.00  0.00     0.157 A 
ATOM     16  C   UNL     1      76.450 -55.179 196.307  1.00  0.00     0.062 A 
ATOM     17  C   UNL     1      77.460 -55.094 195.336  1.00  0.00     0.158 A 
BRANCH  15  18
ATOM     18  O   UNL     1      79.771 -54.576 194.761  1.00  0.00    -0.504 OA
ATOM     19  H   UNL     1      80.059 -55.366 194.196  1.00  0.00     0.293 HD
ENDBRANCH  15  18
BRANCH  17  20
ATOM     20  O   UNL     1      77.186 -55.430 194.011  1.00  0.00    -0.504 OA
ATOM     21  H   UNL     1      77.903 -55.799 193.398  1.00  0.00     0.293 HD
ENDBRANCH  17  20
ENDBRANCH   1  12
BRANCH   6  22
ATOM     22  O   UNL     1      72.114 -54.478 202.445  1.00  0.00    -0.507 OA
ATOM     23  H   UNL     1      72.540 -53.804 203.061  1.00  0.00     0.293 HD
ENDBRANCH   6  22
BRANCH   8  24
ATOM     24  O   UNL     1      72.970 -59.175 201.940  1.00  0.00    -0.508 OA
ATOM     25  H   UNL     1      72.534 -59.385 202.830  1.00  0.00     0.293 HD
ENDBRANCH   8  24
TORSDOF 5
ENDMDL
MODEL 9
REMARK VINA RESULT:    -5.149      5.149      6.419
REMARK INTER + INTRA:          -6.353
REMARK INTER:                  -6.041
REMARK INTRA:                  -0.312
REMARK UNBOUND:                -0.302
REMARK SMILES O=c1cc(-c2ccc(O)c(O)c2)oc2cc(O)cc(O)c12
REMARK SMILES IDX 4 1 3 2 2 3 1 4 21 5 19 6 18 7 16 8 15 9 14 10 13 11 5 12
REMARK SMILES IDX 6 13 7 14 8 15 12 16 10 17 9 18 11 20 20 22 17 24
REMARK H PARENT 9 19 11 21 20 23 17 25
REMARK Flexibility Score: inf
ROOT
ATOM      1  C   UNL     1      69.812 -58.846 198.144  1.00  0.00     0.138 A 
ATOM      2  C   UNL     1      68.574 -59.096 197.535  1.00  0.00     0.100 A 
ATOM      3  C   UNL     1      68.280 -58.510 196.303  1.00  0.00     0.197 A 
ATOM      4  O   UNL     1      67.140 -58.708 195.810  1.00  0.00    -0.289 OA
ATOM      5  C   UNL     1      69.247 -57.700 195.661  1.00  0.00     0.107 A 
ATOM      6  C   UNL     1      69.072 -57.078 194.386  1.00  0.00     0.134 A 
ATOM      7  C   UNL     1      70.062 -56.218 193.897  1.00  0.00     0.093 A 
ATOM      8  C   UNL     1      71.246 -56.003 194.607  1.00  0.00     0.123 A 
ATOM      9  C   UNL     1      71.448 -56.643 195.827  1.00  0.00     0.094 A 
ATOM     10  C   UNL     1      70.464 -57.480 196.359  1.00  0.00     0.146 A 
ATOM     11  O   UNL     1      70.690 -58.057 197.535  1.00  0.00    -0.456 OA
ENDROOT
BRANCH   1  12
ATOM     12  C   UNL     1      70.178 -59.446 199.452  1.00  0.00     0.021 A 
ATOM     13  C   UNL     1      69.501 -60.596 199.897  1.00  0.00     0.016 A 
ATOM     14  C   UNL     1      69.831 -61.185 201.120  1.00  0.00     0.051 A 
ATOM     15  C   UNL     1      70.846 -60.645 201.915  1.00  0.00     0.157 A 
ATOM     16  C   UNL     1      71.210 -58.915 200.250  1.00  0.00     0.062 A 
ATOM     17  C   UNL     1      71.542 -59.508 201.477  1.00  0.00     0.158 A 
BRANCH  15  18
ATOM     18  O   UNL     1      71.151 -61.255 203.131  1.00  0.00    -0.504 OA
ATOM     19  H   UNL     1      70.787 -60.912 204.012  1.00  0.00     0.293 HD
ENDBRANCH  15  18
BRANCH  17  20
ATOM     20  O   UNL     1      72.564 -58.971 202.259  1.00  0.00    -0.504 OA
ATOM     21  H   UNL     1      72.846 -59.400 203.133  1.00  0.00     0.293 HD
ENDBRANCH  17  20
ENDBRANCH   1  12
BRANCH   6  22
ATOM     22  O   UNL     1      67.965 -57.288 193.558  1.00  0.00    -0.507 OA
ATOM     23  H   UNL     1      67.379 -56.560 193.180  1.00  0.00     0.293 HD
ENDBRANCH   6  22
BRANCH   8  24
ATOM     24  O   UNL     1      72.232 -55.156 194.105  1.00  0.00    -0.508 OA
ATOM     25  H   UNL     1      73.018 -55.513 193.574  1.00  0.00     0.293 HD
ENDBRANCH   8  24
TORSDOF 5
ENDMDL
