MODEL 1
REMARK VINA RESULT:    -6.489      0.000      0.000
REMARK INTER + INTRA:          -8.140
REMARK INTER:                  -7.817
REMARK INTRA:                  -0.323
REMARK UNBOUND:                -0.323
REMARK SMILES O=c1c(O)c(-c2ccc(O)c(O)c2)oc2cc(O)cc(O)c12
REMARK SMILES IDX 5 1 3 2 2 3 1 4 22 5 20 6 19 7 17 8 16 9 15 10 14 11 6 12
REMARK SMILES IDX 7 13 8 14 9 15 13 16 11 17 10 18 12 20 4 22 21 24 18 26
REMARK H PARENT 10 19 12 21 4 23 21 25 18 27
REMARK Flexibility Score: inf
ROOT
ATOM      1  C   UNL     1     -22.361  16.227  -1.576  1.00  0.00     0.180 A 
ATOM      2  C   UNL     1     -23.301  15.754  -2.506  1.00  0.00     0.208 A 
ATOM      3  C   UNL     1     -23.554  14.375  -2.579  1.00  0.00     0.238 A 
ATOM      4  O   UNL     1     -24.437  13.964  -3.376  1.00  0.00    -0.285 OA
ATOM      5  C   UNL     1     -22.851  13.485  -1.732  1.00  0.00     0.111 A 
ATOM      6  C   UNL     1     -22.998  12.065  -1.748  1.00  0.00     0.134 A 
ATOM      7  C   UNL     1     -22.349  11.293  -0.777  1.00  0.00     0.093 A 
ATOM      8  C   UNL     1     -21.507  11.883   0.169  1.00  0.00     0.123 A 
ATOM      9  C   UNL     1     -21.311  13.262   0.155  1.00  0.00     0.094 A 
ATOM     10  C   UNL     1     -21.973  14.064  -0.779  1.00  0.00     0.146 A 
ATOM     11  O   UNL     1     -21.765  15.374  -0.750  1.00  0.00    -0.452 OA
ENDROOT
BRANCH   1  12
ATOM     12  C   UNL     1     -22.023  17.665  -1.457  1.00  0.00     0.025 A 
ATOM     13  C   UNL     1     -20.996  18.199  -2.246  1.00  0.00     0.016 A 
ATOM     14  C   UNL     1     -20.674  19.555  -2.165  1.00  0.00     0.051 A 
ATOM     15  C   UNL     1     -21.380  20.406  -1.308  1.00  0.00     0.157 A 
ATOM     16  C   UNL     1     -22.750  18.520  -0.612  1.00  0.00     0.062 A 
ATOM     17  C   UNL     1     -22.437  19.883  -0.526  1.00  0.00     0.158 A 
BRANCH  15  18
ATOM     18  O   UNL     1     -21.004  21.751  -1.267  1.00  0.00    -0.504 OA
ATOM     19  H   UNL     1     -20.721  22.232  -0.426  1.00  0.00     0.293 HD
ENDBRANCH  15  18
BRANCH  17  20
ATOM     20  O   UNL     1     -23.199  20.673   0.337  1.00  0.00    -0.504 OA
ATOM     21  H   UNL     1     -23.790  21.434   0.033  1.00  0.00     0.293 HD
ENDBRANCH  17  20
ENDBRANCH   1  12
BRANCH   2  22
ATOM     22  O   UNL     1     -24.000  16.653  -3.317  1.00  0.00    -0.502 OA
ATOM     23  H   UNL     1     -24.338  16.404  -4.239  1.00  0.00     0.293 HD
ENDBRANCH   2  22
BRANCH   6  24
ATOM     24  O   UNL     1     -23.742  11.368  -2.706  1.00  0.00    -0.507 OA
ATOM     25  H   UNL     1     -24.394  11.794  -3.347  1.00  0.00     0.293 HD
ENDBRANCH   6  24
BRANCH   8  26
ATOM     26  O   UNL     1     -20.853  11.105   1.122  1.00  0.00    -0.508 OA
ATOM     27  H   UNL     1     -20.896  10.093   1.100  1.00  0.00     0.293 HD
ENDBRANCH   8  26
TORSDOF 6
ENDMDL
MODEL 2
REMARK VINA RESULT:    -6.257      0.788      1.555
REMARK INTER + INTRA:          -7.860
REMARK INTER:                  -7.525
REMARK INTRA:                  -0.335
REMARK UNBOUND:                -0.323
REMARK SMILES O=c1c(O)c(-c2ccc(O)c(O)c2)oc2cc(O)cc(O)c12
REMARK SMILES IDX 5 1 3 2 2 3 1 4 22 5 20 6 19 7 17 8 16 9 15 10 14 11 6 12
REMARK SMILES IDX 7 13 8 14 9 15 13 16 11 17 10 18 12 20 4 22 21 24 18 26
REMARK H PARENT 10 19 12 21 4 23 21 25 18 27
REMARK Flexibility Score: inf
ROOT
ATOM      1  C   UNL     1     -22.601  16.109  -1.302  1.00  0.00     0.180 A 
ATOM      2  C   UNL     1     -23.256  15.679  -2.468  1.00  0.00     0.208 A 
ATOM      3  C   UNL     1     -23.216  14.317  -2.809  1.00  0.00     0.238 A 
ATOM      4  O   UNL     1     -23.850  13.930  -3.825  1.00  0.00    -0.285 OA
ATOM      5  C   UNL     1     -22.506  13.406  -1.990  1.00  0.00     0.111 A 
ATOM      6  C   UNL     1     -22.366  12.012  -2.262  1.00  0.00     0.134 A 
ATOM      7  C   UNL     1     -21.753  11.183  -1.315  1.00  0.00     0.093 A 
ATOM      8  C   UNL     1     -21.219  11.707  -0.135  1.00  0.00     0.123 A 
ATOM      9  C   UNL     1     -21.299  13.076   0.111  1.00  0.00     0.094 A 
ATOM     10  C   UNL     1     -21.936  13.925  -0.798  1.00  0.00     0.146 A 
ATOM     11  O   UNL     1     -21.999  15.221  -0.519  1.00  0.00    -0.452 OA
ENDROOT
BRANCH   1  12
ATOM     12  C   UNL     1     -22.578  17.531  -0.889  1.00  0.00     0.025 A 
ATOM     13  C   UNL     1     -23.555  18.009  -0.006  1.00  0.00     0.016 A 
ATOM     14  C   UNL     1     -23.541  19.341   0.411  1.00  0.00     0.051 A 
ATOM     15  C   UNL     1     -22.544  20.218  -0.032  1.00  0.00     0.157 A 
ATOM     16  C   UNL     1     -21.562  18.402  -1.319  1.00  0.00     0.062 A 
ATOM     17  C   UNL     1     -21.536  19.739  -0.903  1.00  0.00     0.158 A 
BRANCH  15  18
ATOM     18  O   UNL     1     -22.590  21.540   0.416  1.00  0.00    -0.504 OA
ATOM     19  H   UNL     1     -22.487  22.343  -0.186  1.00  0.00     0.293 HD
ENDBRANCH  15  18
BRANCH  17  20
ATOM     20  O   UNL     1     -20.499  20.548  -1.372  1.00  0.00    -0.504 OA
ATOM     21  H   UNL     1     -20.599  21.215  -2.124  1.00  0.00     0.293 HD
ENDBRANCH  17  20
ENDBRANCH   1  12
BRANCH   2  22
ATOM     22  O   UNL     1     -23.969  16.591  -3.251  1.00  0.00    -0.502 OA
ATOM     23  H   UNL     1     -24.974  16.542  -3.364  1.00  0.00     0.293 HD
ENDBRANCH   2  22
BRANCH   6  24
ATOM     24  O   UNL     1     -22.782  11.403  -3.450  1.00  0.00    -0.507 OA
ATOM     25  H   UNL     1     -23.370  11.839  -4.143  1.00  0.00     0.293 HD
ENDBRANCH   6  24
BRANCH   8  26
ATOM     26  O   UNL     1     -20.597  10.877   0.795  1.00  0.00    -0.508 OA
ATOM     27  H   UNL     1     -20.627  11.078   1.787  1.00  0.00     0.293 HD
ENDBRANCH   8  26
TORSDOF 6
ENDMDL
MODEL 3
REMARK VINA RESULT:    -5.811      0.726      1.488
REMARK INTER + INTRA:          -7.323
REMARK INTER:                  -7.001
REMARK INTRA:                  -0.321
REMARK UNBOUND:                -0.323
REMARK SMILES O=c1c(O)c(-c2ccc(O)c(O)c2)oc2cc(O)cc(O)c12
REMARK SMILES IDX 5 1 3 2 2 3 1 4 22 5 20 6 19 7 17 8 16 9 15 10 14 11 6 12
REMARK SMILES IDX 7 13 8 14 9 15 13 16 11 17 10 18 12 20 4 22 21 24 18 26
REMARK H PARENT 10 19 12 21 4 23 21 25 18 27
REMARK Flexibility Score: inf
ROOT
ATOM      1  C   UNL     1     -22.423  16.270  -1.231  1.00  0.00     0.180 A 
ATOM      2  C   UNL     1     -23.128  15.807  -2.355  1.00  0.00     0.208 A 
ATOM      3  C   UNL     1     -23.157  14.429  -2.621  1.00  0.00     0.238 A 
ATOM      4  O   UNL     1     -23.835  14.015  -3.597  1.00  0.00    -0.285 OA
ATOM      5  C   UNL     1     -22.466  13.532  -1.769  1.00  0.00     0.111 A 
ATOM      6  C   UNL     1     -22.395  12.120  -1.967  1.00  0.00     0.134 A 
ATOM      7  C   UNL     1     -21.794  11.317  -0.990  1.00  0.00     0.093 A 
ATOM      8  C   UNL     1     -21.205  11.881   0.145  1.00  0.00     0.123 A 
ATOM      9  C   UNL     1     -21.218  13.263   0.317  1.00  0.00     0.094 A 
ATOM     10  C   UNL     1     -21.841  14.088  -0.623  1.00  0.00     0.146 A 
ATOM     11  O   UNL     1     -21.840  15.399  -0.415  1.00  0.00    -0.452 OA
ENDROOT
BRANCH   1  12
ATOM     12  C   UNL     1     -22.326  17.710  -0.900  1.00  0.00     0.025 A 
ATOM     13  C   UNL     1     -23.156  18.247   0.094  1.00  0.00     0.016 A 
ATOM     14  C   UNL     1     -23.068  19.597   0.435  1.00  0.00     0.051 A 
ATOM     15  C   UNL     1     -22.140  20.434  -0.195  1.00  0.00     0.157 A 
ATOM     16  C   UNL     1     -21.377  18.542  -1.519  1.00  0.00     0.062 A 
ATOM     17  C   UNL     1     -21.279  19.898  -1.181  1.00  0.00     0.158 A 
BRANCH  15  18
ATOM     18  O   UNL     1     -22.107  21.777   0.187  1.00  0.00    -0.504 OA
ATOM     19  H   UNL     1     -22.624  22.155   0.968  1.00  0.00     0.293 HD
ENDBRANCH  15  18
BRANCH  17  20
ATOM     20  O   UNL     1     -20.316  20.665  -1.839  1.00  0.00    -0.504 OA
ATOM     21  H   UNL     1     -19.842  20.375  -2.683  1.00  0.00     0.293 HD
ENDBRANCH  17  20
ENDBRANCH   1  12
BRANCH   2  22
ATOM     22  O   UNL     1     -23.821  16.707  -3.170  1.00  0.00    -0.502 OA
ATOM     23  H   UNL     1     -24.220  16.437  -4.061  1.00  0.00     0.293 HD
ENDBRANCH   2  22
BRANCH   6  24
ATOM     24  O   UNL     1     -22.869  11.467  -3.108  1.00  0.00    -0.507 OA
ATOM     25  H   UNL     1     -23.430  11.899  -3.825  1.00  0.00     0.293 HD
ENDBRANCH   6  24
BRANCH   8  26
ATOM     26  O   UNL     1     -20.595  11.075   1.104  1.00  0.00    -0.508 OA
ATOM     27  H   UNL     1     -20.028  10.277   0.843  1.00  0.00     0.293 HD
ENDBRANCH   8  26
TORSDOF 6
ENDMDL
MODEL 4
REMARK VINA RESULT:    -5.698      1.515      7.023
REMARK INTER + INTRA:          -7.186
REMARK INTER:                  -6.873
REMARK INTRA:                  -0.314
REMARK UNBOUND:                -0.323
REMARK SMILES O=c1c(O)c(-c2ccc(O)c(O)c2)oc2cc(O)cc(O)c12
REMARK SMILES IDX 5 1 3 2 2 3 1 4 22 5 20 6 19 7 17 8 16 9 15 10 14 11 6 12
REMARK SMILES IDX 7 13 8 14 9 15 13 16 11 17 10 18 12 20 4 22 21 24 18 26
REMARK H PARENT 10 19 12 21 4 23 21 25 18 27
REMARK Flexibility Score: inf
ROOT
ATOM      1  C   UNL     1     -23.035  16.486  -0.979  1.00  0.00     0.180 A 
ATOM      2  C   UNL     1     -24.095  16.939  -0.176  1.00  0.00     0.208 A 
ATOM      3  C   UNL     1     -24.124  18.287   0.218  1.00  0.00     0.238 A 
ATOM      4  O   UNL     1     -25.105  18.699   0.892  1.00  0.00    -0.285 OA
ATOM      5  C   UNL     1     -23.084  19.160  -0.182  1.00  0.00     0.111 A 
ATOM      6  C   UNL     1     -22.992  20.534   0.193  1.00  0.00     0.134 A 
ATOM      7  C   UNL     1     -21.990  21.336  -0.367  1.00  0.00     0.093 A 
ATOM      8  C   UNL     1     -21.039  20.798  -1.239  1.00  0.00     0.123 A 
ATOM      9  C   UNL     1     -21.087  19.445  -1.564  1.00  0.00     0.094 A 
ATOM     10  C   UNL     1     -22.095  18.626  -1.048  1.00  0.00     0.146 A 
ATOM     11  O   UNL     1     -22.109  17.344  -1.393  1.00  0.00    -0.452 OA
ENDROOT
BRANCH   1  12
ATOM     12  C   UNL     1     -22.923  15.075  -1.414  1.00  0.00     0.025 A 
ATOM     13  C   UNL     1     -23.585  14.656  -2.575  1.00  0.00     0.016 A 
ATOM     14  C   UNL     1     -23.477  13.335  -3.013  1.00  0.00     0.051 A 
ATOM     15  C   UNL     1     -22.693  12.412  -2.312  1.00  0.00     0.157 A 
ATOM     16  C   UNL     1     -22.117  14.157  -0.719  1.00  0.00     0.062 A 
ATOM     17  C   UNL     1     -21.998  12.830  -1.153  1.00  0.00     0.158 A 
BRANCH  15  18
ATOM     18  O   UNL     1     -22.632  11.104  -2.798  1.00  0.00    -0.504 OA
ATOM     19  H   UNL     1     -21.987  10.797  -3.511  1.00  0.00     0.293 HD
ENDBRANCH  15  18
BRANCH  17  20
ATOM     20  O   UNL     1     -21.183  11.973  -0.412  1.00  0.00    -0.504 OA
ATOM     21  H   UNL     1     -21.339  10.978  -0.327  1.00  0.00     0.293 HD
ENDBRANCH  17  20
ENDBRANCH   1  12
BRANCH   2  22
ATOM     22  O   UNL     1     -25.124  16.065   0.190  1.00  0.00    -0.502 OA
ATOM     23  H   UNL     1     -25.078  15.490   1.022  1.00  0.00     0.293 HD
ENDBRANCH   2  22
BRANCH   6  24
ATOM     24  O   UNL     1     -23.834  21.148   1.125  1.00  0.00    -0.507 OA
ATOM     25  H   UNL     1     -23.610  21.284   2.099  1.00  0.00     0.293 HD
ENDBRANCH   6  24
BRANCH   8  26
ATOM     26  O   UNL     1     -20.036  21.600  -1.780  1.00  0.00    -0.508 OA
ATOM     27  H   UNL     1     -19.233  21.199  -2.250  1.00  0.00     0.293 HD
ENDBRANCH   8  26
TORSDOF 6
ENDMDL
MODEL 5
REMARK VINA RESULT:    -5.315      1.602      1.616
REMARK INTER + INTRA:          -6.725
REMARK INTER:                  -6.775
REMARK INTRA:                   0.050
REMARK UNBOUND:                -0.323
REMARK SMILES O=c1c(O)c(-c2ccc(O)c(O)c2)oc2cc(O)cc(O)c12
REMARK SMILES IDX 5 1 3 2 2 3 1 4 22 5 20 6 19 7 17 8 16 9 15 10 14 11 6 12
REMARK SMILES IDX 7 13 8 14 9 15 13 16 11 17 10 18 12 20 4 22 21 24 18 26
REMARK H PARENT 10 19 12 21 4 23 21 25 18 27
REMARK Flexibility Score: inf
ROOT
ATOM      1  C   UNL     1     -22.400  16.240  -0.624  1.00  0.00     0.180 A 
ATOM      2  C   UNL     1     -23.702  15.821  -0.306  1.00  0.00     0.208 A 
ATOM      3  C   UNL     1     -23.969  14.447  -0.198  1.00  0.00     0.238 A 
ATOM      4  O   UNL     1     -25.124  14.080   0.141  1.00  0.00    -0.285 OA
ATOM      5  C   UNL     1     -22.933  13.509  -0.425  1.00  0.00     0.111 A 
ATOM      6  C   UNL     1     -23.101  12.092  -0.382  1.00  0.00     0.134 A 
ATOM      7  C   UNL     1     -21.979  11.261  -0.495  1.00  0.00     0.093 A 
ATOM      8  C   UNL     1     -20.706  11.794  -0.714  1.00  0.00     0.123 A 
ATOM      9  C   UNL     1     -20.543  13.173  -0.817  1.00  0.00     0.094 A 
ATOM     10  C   UNL     1     -21.637  14.030  -0.673  1.00  0.00     0.146 A 
ATOM     11  O   UNL     1     -21.435  15.339  -0.768  1.00  0.00    -0.452 OA
ENDROOT
BRANCH   1  12
ATOM     12  C   UNL     1     -22.048  17.671  -0.780  1.00  0.00     0.025 A 
ATOM     13  C   UNL     1     -21.367  18.092  -1.930  1.00  0.00     0.016 A 
ATOM     14  C   UNL     1     -21.042  19.438  -2.105  1.00  0.00     0.051 A 
ATOM     15  C   UNL     1     -21.405  20.392  -1.147  1.00  0.00     0.157 A 
ATOM     16  C   UNL     1     -22.434  18.628   0.174  1.00  0.00     0.062 A 
ATOM     17  C   UNL     1     -22.116  19.981   0.005  1.00  0.00     0.158 A 
BRANCH  15  18
ATOM     18  O   UNL     1     -21.045  21.721  -1.379  1.00  0.00    -0.504 OA
ATOM     19  H   UNL     1     -20.102  22.024  -1.577  1.00  0.00     0.293 HD
ENDBRANCH  15  18
BRANCH  17  20
ATOM     20  O   UNL     1     -22.528  20.876   0.995  1.00  0.00    -0.504 OA
ATOM     21  H   UNL     1     -22.601  21.874   0.859  1.00  0.00     0.293 HD
ENDBRANCH  17  20
ENDBRANCH   1  12
BRANCH   2  22
ATOM     22  O   UNL     1     -24.705  16.765  -0.063  1.00  0.00    -0.502 OA
ATOM     23  H   UNL     1     -25.083  16.931   0.861  1.00  0.00     0.293 HD
ENDBRANCH   2  22
BRANCH   6  24
ATOM     24  O   UNL     1     -24.339  11.455  -0.259  1.00  0.00    -0.507 OA
ATOM     25  H   UNL     1     -24.747  11.157   0.613  1.00  0.00     0.293 HD
ENDBRANCH   6  24
BRANCH   8  26
ATOM     26  O   UNL     1     -19.598  10.960  -0.840  1.00  0.00    -0.508 OA
ATOM     27  H   UNL     1     -19.604  10.012  -0.480  1.00  0.00     0.293 HD
ENDBRANCH   8  26
TORSDOF 6
ENDMDL
MODEL 6
REMARK VINA RESULT:    -4.320      1.937      7.271
REMARK INTER + INTRA:          -5.527
REMARK INTER:                  -5.360
REMARK INTRA:                  -0.167
REMARK UNBOUND:                -0.323
REMARK SMILES O=c1c(O)c(-c2ccc(O)c(O)c2)oc2cc(O)cc(O)c12
REMARK SMILES IDX 5 1 3 2 2 3 1 4 22 5 20 6 19 7 17 8 16 9 15 10 14 11 6 12
REMARK SMILES IDX 7 13 8 14 9 15 13 16 11 17 10 18 12 20 4 22 21 24 18 26
REMARK H PARENT 10 19 12 21 4 23 21 25 18 27
REMARK Flexibility Score: inf
ROOT
ATOM      1  C   UNL     1     -22.919  16.885  -1.262  1.00  0.00     0.180 A 
ATOM      2  C   UNL     1     -21.672  17.347  -1.712  1.00  0.00     0.208 A 
ATOM      3  C   UNL     1     -21.349  18.704  -1.552  1.00  0.00     0.238 A 
ATOM      4  O   UNL     1     -20.209  19.101  -1.908  1.00  0.00    -0.285 OA
ATOM      5  C   UNL     1     -22.285  19.585  -0.959  1.00  0.00     0.111 A 
ATOM      6  C   UNL     1     -22.080  20.987  -0.783  1.00  0.00     0.134 A 
ATOM      7  C   UNL     1     -23.019  21.737  -0.066  1.00  0.00     0.093 A 
ATOM      8  C   UNL     1     -24.188  21.150   0.426  1.00  0.00     0.123 A 
ATOM      9  C   UNL     1     -24.424  19.795   0.208  1.00  0.00     0.094 A 
ATOM     10  C   UNL     1     -23.489  19.011  -0.474  1.00  0.00     0.146 A 
ATOM     11  O   UNL     1     -23.750  17.722  -0.650  1.00  0.00    -0.452 OA
ENDROOT
BRANCH   1  12
ATOM     12  C   UNL     1     -23.341  15.474  -1.418  1.00  0.00     0.025 A 
ATOM     13  C   UNL     1     -23.653  14.717  -0.281  1.00  0.00     0.016 A 
ATOM     14  C   UNL     1     -24.071  13.391  -0.407  1.00  0.00     0.051 A 
ATOM     15  C   UNL     1     -24.201  12.800  -1.669  1.00  0.00     0.157 A 
ATOM     16  C   UNL     1     -23.492  14.891  -2.688  1.00  0.00     0.062 A 
ATOM     17  C   UNL     1     -23.914  13.563  -2.825  1.00  0.00     0.158 A 
BRANCH  15  18
ATOM     18  O   UNL     1     -24.617  11.468  -1.726  1.00  0.00    -0.504 OA
ATOM     19  H   UNL     1     -24.016  10.681  -1.529  1.00  0.00     0.293 HD
ENDBRANCH  15  18
BRANCH  17  20
ATOM     20  O   UNL     1     -24.038  13.048  -4.117  1.00  0.00    -0.504 OA
ATOM     21  H   UNL     1     -23.367  13.207  -4.856  1.00  0.00     0.293 HD
ENDBRANCH  17  20
ENDBRANCH   1  12
BRANCH   2  22
ATOM     22  O   UNL     1     -20.753  16.456  -2.276  1.00  0.00    -0.502 OA
ATOM     23  H   UNL     1     -20.117  15.904  -1.714  1.00  0.00     0.293 HD
ENDBRANCH   2  22
BRANCH   6  24
ATOM     24  O   UNL     1     -20.993  21.689  -1.313  1.00  0.00    -0.507 OA
ATOM     25  H   UNL     1     -20.296  22.167  -0.763  1.00  0.00     0.293 HD
ENDBRANCH   6  24
BRANCH   8  26
ATOM     26  O   UNL     1     -25.125  21.907   1.125  1.00  0.00    -0.508 OA
ATOM     27  H   UNL     1     -25.022  22.095   2.115  1.00  0.00     0.293 HD
ENDBRANCH   8  26
TORSDOF 6
ENDMDL
MODEL 7
REMARK VINA RESULT:    -3.788      1.692      3.453
REMARK INTER + INTRA:          -4.886
REMARK INTER:                  -4.629
REMARK INTRA:                  -0.257
REMARK UNBOUND:                -0.323
REMARK SMILES O=c1c(O)c(-c2ccc(O)c(O)c2)oc2cc(O)cc(O)c12
REMARK SMILES IDX 5 1 3 2 2 3 1 4 22 5 20 6 19 7 17 8 16 9 15 10 14 11 6 12
REMARK SMILES IDX 7 13 8 14 9 15 13 16 11 17 10 18 12 20 4 22 21 24 18 26
REMARK H PARENT 10 19 12 21 4 23 21 25 18 27
REMARK Flexibility Score: inf
ROOT
ATOM      1  C   UNL     1     -23.128  15.817  -0.347  1.00  0.00     0.180 A 
ATOM      2  C   UNL     1     -22.037  15.192   0.280  1.00  0.00     0.208 A 
ATOM      3  C   UNL     1     -21.782  13.837   0.014  1.00  0.00     0.238 A 
ATOM      4  O   UNL     1     -20.771  13.298   0.536  1.00  0.00    -0.285 OA
ATOM      5  C   UNL     1     -22.631  13.120  -0.863  1.00  0.00     0.111 A 
ATOM      6  C   UNL     1     -22.490  11.733  -1.172  1.00  0.00     0.134 A 
ATOM      7  C   UNL     1     -23.308  11.160  -2.153  1.00  0.00     0.093 A 
ATOM      8  C   UNL     1     -24.305  11.905  -2.788  1.00  0.00     0.123 A 
ATOM      9  C   UNL     1     -24.488  13.244  -2.449  1.00  0.00     0.094 A 
ATOM     10  C   UNL     1     -23.664  13.854  -1.500  1.00  0.00     0.146 A 
ATOM     11  O   UNL     1     -23.867  15.135  -1.215  1.00  0.00    -0.452 OA
ENDROOT
BRANCH   1  12
ATOM     12  C   UNL     1     -23.474  17.235  -0.097  1.00  0.00     0.025 A 
ATOM     13  C   UNL     1     -24.546  17.544   0.750  1.00  0.00     0.016 A 
ATOM     14  C   UNL     1     -24.878  18.874   1.014  1.00  0.00     0.051 A 
ATOM     15  C   UNL     1     -24.137  19.920   0.453  1.00  0.00     0.157 A 
ATOM     16  C   UNL     1     -22.714  18.282  -0.646  1.00  0.00     0.062 A 
ATOM     17  C   UNL     1     -23.036  19.620  -0.384  1.00  0.00     0.158 A 
BRANCH  15  18
ATOM     18  O   UNL     1     -24.525  21.229   0.750  1.00  0.00    -0.504 OA
ATOM     19  H   UNL     1     -24.363  22.017   0.141  1.00  0.00     0.293 HD
ENDBRANCH  15  18
BRANCH  17  20
ATOM     20  O   UNL     1     -22.239  20.608  -0.965  1.00  0.00    -0.504 OA
ATOM     21  H   UNL     1     -21.758  21.326  -0.442  1.00  0.00     0.293 HD
ENDBRANCH  17  20
ENDBRANCH   1  12
BRANCH   2  22
ATOM     22  O   UNL     1     -21.198  15.925   1.125  1.00  0.00    -0.502 OA
ATOM     23  H   UNL     1     -20.317  16.314   0.812  1.00  0.00     0.293 HD
ENDBRANCH   2  22
BRANCH   6  24
ATOM     24  O   UNL     1     -21.589  10.878  -0.532  1.00  0.00    -0.507 OA
ATOM     25  H   UNL     1     -21.715  10.502   0.396  1.00  0.00     0.293 HD
ENDBRANCH   6  24
BRANCH   8  26
ATOM     26  O   UNL     1     -25.125  11.322  -3.751  1.00  0.00    -0.508 OA
ATOM     27  H   UNL     1     -24.925  10.404  -4.132  1.00  0.00     0.293 HD
ENDBRANCH   8  26
TORSDOF 6
ENDMDL
MODEL 8
REMARK VINA RESULT:    -3.559      1.520      7.065
REMARK INTER + INTRA:          -4.610
REMARK INTER:                  -4.319
REMARK INTRA:                  -0.291
REMARK UNBOUND:                -0.323
REMARK SMILES O=c1c(O)c(-c2ccc(O)c(O)c2)oc2cc(O)cc(O)c12
REMARK SMILES IDX 5 1 3 2 2 3 1 4 22 5 20 6 19 7 17 8 16 9 15 10 14 11 6 12
REMARK SMILES IDX 7 13 8 14 9 15 13 16 11 17 10 18 12 20 4 22 21 24 18 26
REMARK H PARENT 10 19 12 21 4 23 21 25 18 27
REMARK Flexibility Score: inf
ROOT
ATOM      1  C   UNL     1     -22.967  16.628  -0.830  1.00  0.00     0.180 A 
ATOM      2  C   UNL     1     -24.061  17.091  -0.081  1.00  0.00     0.208 A 
ATOM      3  C   UNL     1     -24.116  18.448   0.278  1.00  0.00     0.238 A 
ATOM      4  O   UNL     1     -25.125  18.867   0.903  1.00  0.00    -0.285 OA
ATOM      5  C   UNL     1     -23.068  19.320  -0.103  1.00  0.00     0.111 A 
ATOM      6  C   UNL     1     -23.002  20.704   0.241  1.00  0.00     0.134 A 
ATOM      7  C   UNL     1     -21.986  21.501  -0.301  1.00  0.00     0.093 A 
ATOM      8  C   UNL     1     -20.997  20.950  -1.120  1.00  0.00     0.123 A 
ATOM      9  C   UNL     1     -21.021  19.589  -1.413  1.00  0.00     0.094 A 
ATOM     10  C   UNL     1     -22.042  18.774  -0.917  1.00  0.00     0.146 A 
ATOM     11  O   UNL     1     -22.032  17.484  -1.229  1.00  0.00    -0.452 OA
ENDROOT
BRANCH   1  12
ATOM     12  C   UNL     1     -22.826  15.208  -1.225  1.00  0.00     0.025 A 
ATOM     13  C   UNL     1     -22.009  14.359  -0.466  1.00  0.00     0.016 A 
ATOM     14  C   UNL     1     -21.878  13.012  -0.809  1.00  0.00     0.051 A 
ATOM     15  C   UNL     1     -22.570  12.483  -1.904  1.00  0.00     0.157 A 
ATOM     16  C   UNL     1     -23.541  14.676  -2.312  1.00  0.00     0.062 A 
ATOM     17  C   UNL     1     -23.418  13.325  -2.662  1.00  0.00     0.158 A 
BRANCH  15  18
ATOM     18  O   UNL     1     -22.390  11.129  -2.199  1.00  0.00    -0.504 OA
ATOM     19  H   UNL     1     -21.940  10.472  -1.579  1.00  0.00     0.293 HD
ENDBRANCH  15  18
BRANCH  17  20
ATOM     20  O   UNL     1     -24.155  12.865  -3.755  1.00  0.00    -0.504 OA
ATOM     21  H   UNL     1     -24.077  13.245  -4.688  1.00  0.00     0.293 HD
ENDBRANCH  17  20
ENDBRANCH   1  12
BRANCH   2  22
ATOM     22  O   UNL     1     -25.095  16.217   0.267  1.00  0.00    -0.502 OA
ATOM     23  H   UNL     1     -24.938  15.376   0.808  1.00  0.00     0.293 HD
ENDBRANCH   2  22
BRANCH   6  24
ATOM     24  O   UNL     1     -23.885  21.333   1.124  1.00  0.00    -0.507 OA
ATOM     25  H   UNL     1     -23.825  21.280   2.129  1.00  0.00     0.293 HD
ENDBRANCH   6  24
BRANCH   8  26
ATOM     26  O   UNL     1     -19.980  21.748  -1.642  1.00  0.00    -0.508 OA
ATOM     27  H   UNL     1     -19.011  21.609  -1.380  1.00  0.00     0.293 HD
ENDBRANCH   8  26
TORSDOF 6
ENDMDL
