MODEL 1
REMARK VINA RESULT:    -4.049      0.000      0.000
REMARK INTER + INTRA:          -4.286
REMARK INTER:                  -4.286
REMARK INTRA:                   0.000
REMARK UNBOUND:                 0.000
REMARK SMILES O=c1ccc2cc(O)c(O)cc2o1
REMARK SMILES IDX 4 1 3 2 2 3 1 4 13 5 12 6 11 7 9 8 7 9 6 10 5 11 8 12 10 14
REMARK H PARENT 8 13 10 15
REMARK Flexibility Score: inf
ROOT
ATOM      1  C   UNL     1      11.679 -17.226  18.236  1.00  0.00     0.019 A 
ATOM      2  C   UNL     1      10.595 -17.814  18.889  1.00  0.00     0.094 A 
ATOM      3  C   UNL     1      10.795 -18.396  20.145  1.00  0.00     0.336 A 
ATOM      4  O   UNL     1       9.829 -18.930  20.750  1.00  0.00    -0.246 OA
ATOM      5  O   UNL     1      12.001 -18.388  20.708  1.00  0.00    -0.423 OA
ATOM      6  C   UNL     1      13.061 -17.839  20.118  1.00  0.00     0.142 A 
ATOM      7  C   UNL     1      14.305 -17.862  20.757  1.00  0.00     0.098 A 
ATOM      8  C   UNL     1      15.426 -17.284  20.141  1.00  0.00     0.161 A 
ATOM      9  C   UNL     1      15.299 -16.681  18.877  1.00  0.00     0.158 A 
ATOM     10  C   UNL     1      14.055 -16.657  18.236  1.00  0.00     0.062 A 
ATOM     11  C   UNL     1      12.935 -17.233  18.850  1.00  0.00     0.022 A 
ENDROOT
BRANCH   9  12
ATOM     12  O   UNL     1      16.397 -16.101  18.244  1.00  0.00    -0.504 OA
ATOM     13  H   UNL     1      16.301 -15.312  17.615  1.00  0.00     0.293 HD
ENDBRANCH   9  12
BRANCH   8  14
ATOM     14  O   UNL     1      16.664 -17.309  20.782  1.00  0.00    -0.504 OA
ATOM     15  H   UNL     1      16.950 -16.571  21.415  1.00  0.00     0.293 HD
ENDBRANCH   8  14
TORSDOF 2
ENDMDL
MODEL 2
REMARK VINA RESULT:    -4.037      1.760      4.430
REMARK INTER + INTRA:          -4.273
REMARK INTER:                  -4.273
REMARK INTRA:                   0.000
REMARK UNBOUND:                 0.000
REMARK SMILES O=c1ccc2cc(O)c(O)cc2o1
REMARK SMILES IDX 4 1 3 2 2 3 1 4 13 5 12 6 11 7 9 8 7 9 6 10 5 11 8 12 10 14
REMARK H PARENT 8 13 10 15
REMARK Flexibility Score: inf
ROOT
ATOM      1  C   UNL     1      15.430 -17.904  19.269  1.00  0.00     0.019 A 
ATOM      2  C   UNL     1      16.296 -17.982  20.360  1.00  0.00     0.094 A 
ATOM      3  C   UNL     1      15.757 -18.093  21.647  1.00  0.00     0.336 A 
ATOM      4  O   UNL     1      16.522 -18.166  22.643  1.00  0.00    -0.246 OA
ATOM      5  O   UNL     1      14.439 -18.123  21.825  1.00  0.00    -0.423 OA
ATOM      6  C   UNL     1      13.578 -18.049  20.812  1.00  0.00     0.142 A 
ATOM      7  C   UNL     1      12.203 -18.084  21.061  1.00  0.00     0.098 A 
ATOM      8  C   UNL     1      11.290 -18.008  19.997  1.00  0.00     0.161 A 
ATOM      9  C   UNL     1      11.760 -17.895  18.676  1.00  0.00     0.158 A 
ATOM     10  C   UNL     1      13.137 -17.859  18.425  1.00  0.00     0.062 A 
ATOM     11  C   UNL     1      14.048 -17.936  19.486  1.00  0.00     0.022 A 
ENDROOT
BRANCH   9  12
ATOM     12  O   UNL     1      10.875 -17.817  17.602  1.00  0.00    -0.504 OA
ATOM     13  H   UNL     1      10.305 -16.997  17.431  1.00  0.00     0.293 HD
ENDBRANCH   9  12
BRANCH   8  14
ATOM     14  O   UNL     1       9.920 -18.044  20.249  1.00  0.00    -0.504 OA
ATOM     15  H   UNL     1       9.540 -18.524  21.058  1.00  0.00     0.293 HD
ENDBRANCH   8  14
TORSDOF 2
ENDMDL
MODEL 3
REMARK VINA RESULT:    -3.966      2.240      2.607
REMARK INTER + INTRA:          -4.198
REMARK INTER:                  -4.198
REMARK INTRA:                   0.000
REMARK UNBOUND:                 0.000
REMARK SMILES O=c1ccc2cc(O)c(O)cc2o1
REMARK SMILES IDX 4 1 3 2 2 3 1 4 13 5 12 6 11 7 9 8 7 9 6 10 5 11 8 12 10 14
REMARK H PARENT 8 13 10 15
REMARK Flexibility Score: inf
ROOT
ATOM      1  C   UNL     1      11.808 -17.794  20.784  1.00  0.00     0.019 A 
ATOM      2  C   UNL     1      10.975 -17.389  21.827  1.00  0.00     0.094 A 
ATOM      3  C   UNL     1      11.546 -17.062  23.062  1.00  0.00     0.336 A 
ATOM      4  O   UNL     1      10.812 -16.693  24.015  1.00  0.00    -0.246 OA
ATOM      5  O   UNL     1      12.863 -17.136  23.237  1.00  0.00    -0.423 OA
ATOM      6  C   UNL     1      13.693 -17.519  22.268  1.00  0.00     0.142 A 
ATOM      7  C   UNL     1      15.069 -17.580  22.510  1.00  0.00     0.098 A 
ATOM      8  C   UNL     1      15.948 -17.981  21.493  1.00  0.00     0.161 A 
ATOM      9  C   UNL     1      15.445 -18.326  20.226  1.00  0.00     0.158 A 
ATOM     10  C   UNL     1      14.067 -18.266  19.981  1.00  0.00     0.062 A 
ATOM     11  C   UNL     1      13.189 -17.865  20.996  1.00  0.00     0.022 A 
ENDROOT
BRANCH   9  12
ATOM     12  O   UNL     1      16.297 -18.729  19.198  1.00  0.00    -0.504 OA
ATOM     13  H   UNL     1      15.952 -19.174  18.356  1.00  0.00     0.293 HD
ENDBRANCH   9  12
BRANCH   8  14
ATOM     14  O   UNL     1      17.319 -18.040  21.739  1.00  0.00    -0.504 OA
ATOM     15  H   UNL     1      17.687 -18.373  22.623  1.00  0.00     0.293 HD
ENDBRANCH   8  14
TORSDOF 2
ENDMDL
MODEL 4
REMARK VINA RESULT:    -3.956     12.465     14.179
REMARK INTER + INTRA:          -4.187
REMARK INTER:                  -4.187
REMARK INTRA:                   0.000
REMARK UNBOUND:                 0.000
REMARK SMILES O=c1ccc2cc(O)c(O)cc2o1
REMARK SMILES IDX 4 1 3 2 2 3 1 4 13 5 12 6 11 7 9 8 7 9 6 10 5 11 8 12 10 14
REMARK H PARENT 8 13 10 15
REMARK Flexibility Score: inf
ROOT
ATOM      1  C   UNL     1      16.641  -3.218  14.350  1.00  0.00     0.019 A 
ATOM      2  C   UNL     1      16.250  -2.334  15.356  1.00  0.00     0.094 A 
ATOM      3  C   UNL     1      15.232  -2.717  16.236  1.00  0.00     0.336 A 
ATOM      4  O   UNL     1      14.867  -1.935  17.152  1.00  0.00    -0.246 OA
ATOM      5  O   UNL     1      14.647  -3.906  16.114  1.00  0.00    -0.423 OA
ATOM      6  C   UNL     1      14.990  -4.778  15.167  1.00  0.00     0.142 A 
ATOM      7  C   UNL     1      14.339  -6.012  15.086  1.00  0.00     0.098 A 
ATOM      8  C   UNL     1      14.695  -6.936  14.091  1.00  0.00     0.161 A 
ATOM      9  C   UNL     1      15.711  -6.618  13.170  1.00  0.00     0.158 A 
ATOM     10  C   UNL     1      16.364  -5.382  13.250  1.00  0.00     0.062 A 
ATOM     11  C   UNL     1      16.008  -4.460  14.243  1.00  0.00     0.022 A 
ENDROOT
BRANCH   9  12
ATOM     12  O   UNL     1      16.084  -7.516  12.172  1.00  0.00    -0.504 OA
ATOM     13  H   UNL     1      16.129  -8.515  12.336  1.00  0.00     0.293 HD
ENDBRANCH   9  12
BRANCH   8  14
ATOM     14  O   UNL     1      14.044  -8.165  14.014  1.00  0.00    -0.504 OA
ATOM     15  H   UNL     1      14.536  -9.013  13.753  1.00  0.00     0.293 HD
ENDBRANCH   8  14
TORSDOF 2
ENDMDL
MODEL 5
REMARK VINA RESULT:    -3.950     16.121     17.865
REMARK INTER + INTRA:          -4.181
REMARK INTER:                  -4.181
REMARK INTRA:                   0.000
REMARK UNBOUND:                 0.000
REMARK SMILES O=c1ccc2cc(O)c(O)cc2o1
REMARK SMILES IDX 4 1 3 2 2 3 1 4 13 5 12 6 11 7 9 8 7 9 6 10 5 11 8 12 10 14
REMARK H PARENT 8 13 10 15
REMARK Flexibility Score: inf
ROOT
ATOM      1  C   UNL     1      14.629  -5.374   6.607  1.00  0.00     0.019 A 
ATOM      2  C   UNL     1      14.114  -6.283   7.532  1.00  0.00     0.094 A 
ATOM      3  C   UNL     1      15.000  -7.015   8.329  1.00  0.00     0.336 A 
ATOM      4  O   UNL     1      14.554  -7.839   9.170  1.00  0.00    -0.246 OA
ATOM      5  O   UNL     1      16.314  -6.847   8.205  1.00  0.00    -0.423 OA
ATOM      6  C   UNL     1      16.847  -5.991   7.335  1.00  0.00     0.142 A 
ATOM      7  C   UNL     1      18.236  -5.858   7.249  1.00  0.00     0.098 A 
ATOM      8  C   UNL     1      18.804  -4.957   6.334  1.00  0.00     0.161 A 
ATOM      9  C   UNL     1      17.974  -4.188   5.500  1.00  0.00     0.158 A 
ATOM     10  C   UNL     1      16.582  -4.320   5.584  1.00  0.00     0.062 A 
ATOM     11  C   UNL     1      16.015  -5.219   6.498  1.00  0.00     0.022 A 
ENDROOT
BRANCH   9  12
ATOM     12  O   UNL     1      18.512  -3.287   4.582  1.00  0.00    -0.504 OA
ATOM     13  H   UNL     1      18.442  -2.284   4.708  1.00  0.00     0.293 HD
ENDBRANCH   9  12
BRANCH   8  14
ATOM     14  O   UNL     1      20.189  -4.827   6.252  1.00  0.00    -0.504 OA
ATOM     15  H   UNL     1      20.636  -4.384   5.456  1.00  0.00     0.293 HD
ENDBRANCH   8  14
TORSDOF 2
ENDMDL
MODEL 6
REMARK VINA RESULT:    -3.925      1.408      4.606
REMARK INTER + INTRA:          -4.154
REMARK INTER:                  -4.154
REMARK INTRA:                   0.000
REMARK UNBOUND:                 0.000
REMARK SMILES O=c1ccc2cc(O)c(O)cc2o1
REMARK SMILES IDX 4 1 3 2 2 3 1 4 13 5 12 6 11 7 9 8 7 9 6 10 5 11 8 12 10 14
REMARK H PARENT 8 13 10 15
REMARK Flexibility Score: inf
ROOT
ATOM      1  C   UNL     1      13.440 -16.721  18.130  1.00  0.00     0.019 A 
ATOM      2  C   UNL     1      14.462 -16.177  18.910  1.00  0.00     0.094 A 
ATOM      3  C   UNL     1      14.426 -16.358  20.297  1.00  0.00     0.336 A 
ATOM      4  O   UNL     1      15.338 -15.877  21.017  1.00  0.00    -0.246 OA
ATOM      5  O   UNL     1      13.432 -17.040  20.862  1.00  0.00    -0.423 OA
ATOM      6  C   UNL     1      12.438 -17.573  20.154  1.00  0.00     0.142 A 
ATOM      7  C   UNL     1      11.419 -18.278  20.803  1.00  0.00     0.098 A 
ATOM      8  C   UNL     1      10.369 -18.844  20.063  1.00  0.00     0.161 A 
ATOM      9  C   UNL     1      10.340 -18.700  18.664  1.00  0.00     0.158 A 
ATOM     10  C   UNL     1      11.359 -17.995  18.013  1.00  0.00     0.062 A 
ATOM     11  C   UNL     1      12.408 -17.431  18.751  1.00  0.00     0.022 A 
ENDROOT
BRANCH   9  12
ATOM     12  O   UNL     1       9.308 -19.252  17.906  1.00  0.00    -0.504 OA
ATOM     13  H   UNL     1       9.097 -20.243  17.924  1.00  0.00     0.293 HD
ENDBRANCH   9  12
BRANCH   8  14
ATOM     14  O   UNL     1       9.356 -19.546  20.714  1.00  0.00    -0.504 OA
ATOM     15  H   UNL     1       8.442 -19.674  20.293  1.00  0.00     0.293 HD
ENDBRANCH   8  14
TORSDOF 2
ENDMDL
MODEL 7
REMARK VINA RESULT:    -3.918      1.082      2.207
REMARK INTER + INTRA:          -4.147
REMARK INTER:                  -4.147
REMARK INTRA:                   0.000
REMARK UNBOUND:                 0.000
REMARK SMILES O=c1ccc2cc(O)c(O)cc2o1
REMARK SMILES IDX 4 1 3 2 2 3 1 4 13 5 12 6 11 7 9 8 7 9 6 10 5 11 8 12 10 14
REMARK H PARENT 8 13 10 15
REMARK Flexibility Score: inf
ROOT
ATOM      1  C   UNL     1      12.205 -18.028  21.341  1.00  0.00     0.019 A 
ATOM      2  C   UNL     1      11.010 -18.389  20.717  1.00  0.00     0.094 A 
ATOM      3  C   UNL     1      10.912 -18.278  19.326  1.00  0.00     0.336 A 
ATOM      4  O   UNL     1       9.844 -18.600  18.744  1.00  0.00    -0.246 OA
ATOM      5  O   UNL     1      11.943 -17.836  18.610  1.00  0.00    -0.423 OA
ATOM      6  C   UNL     1      13.100 -17.480  19.167  1.00  0.00     0.142 A 
ATOM      7  C   UNL     1      14.149 -17.021  18.364  1.00  0.00     0.098 A 
ATOM      8  C   UNL     1      15.370 -16.646  18.945  1.00  0.00     0.161 A 
ATOM      9  C   UNL     1      15.540 -16.730  20.338  1.00  0.00     0.158 A 
ATOM     10  C   UNL     1      14.491 -17.190  21.144  1.00  0.00     0.062 A 
ATOM     11  C   UNL     1      13.272 -17.565  20.565  1.00  0.00     0.022 A 
ENDROOT
BRANCH   9  12
ATOM     12  O   UNL     1      16.743 -16.364  20.940  1.00  0.00    -0.504 OA
ATOM     13  H   UNL     1      17.270 -17.002  21.524  1.00  0.00     0.293 HD
ENDBRANCH   9  12
BRANCH   8  14
ATOM     14  O   UNL     1      16.413 -16.189  18.141  1.00  0.00    -0.504 OA
ATOM     15  H   UNL     1      16.300 -16.064  17.141  1.00  0.00     0.293 HD
ENDBRANCH   8  14
TORSDOF 2
ENDMDL
MODEL 8
REMARK VINA RESULT:    -3.908     10.270     13.307
REMARK INTER + INTRA:          -4.136
REMARK INTER:                  -4.136
REMARK INTRA:                   0.000
REMARK UNBOUND:                 0.000
REMARK SMILES O=c1ccc2cc(O)c(O)cc2o1
REMARK SMILES IDX 4 1 3 2 2 3 1 4 13 5 12 6 11 7 9 8 7 9 6 10 5 11 8 12 10 14
REMARK H PARENT 8 13 10 15
REMARK Flexibility Score: inf
ROOT
ATOM      1  C   UNL     1      27.301 -16.456  17.283  1.00  0.00     0.019 A 
ATOM      2  C   UNL     1      28.025 -15.411  16.709  1.00  0.00     0.094 A 
ATOM      3  C   UNL     1      27.434 -14.147  16.616  1.00  0.00     0.336 A 
ATOM      4  O   UNL     1      28.072 -13.191  16.102  1.00  0.00    -0.246 OA
ATOM      5  O   UNL     1      26.199 -13.945  17.070  1.00  0.00    -0.423 OA
ATOM      6  C   UNL     1      25.474 -14.915  17.624  1.00  0.00     0.142 A 
ATOM      7  C   UNL     1      24.181 -14.644  18.082  1.00  0.00     0.098 A 
ATOM      8  C   UNL     1      23.411 -15.662  18.668  1.00  0.00     0.161 A 
ATOM      9  C   UNL     1      23.942 -16.958  18.793  1.00  0.00     0.158 A 
ATOM     10  C   UNL     1      25.236 -17.231  18.335  1.00  0.00     0.062 A 
ATOM     11  C   UNL     1      26.005 -16.216  17.751  1.00  0.00     0.022 A 
ENDROOT
BRANCH   9  12
ATOM     12  O   UNL     1      23.198 -17.987  19.371  1.00  0.00    -0.504 OA
ATOM     13  H   UNL     1      22.413 -18.416  18.896  1.00  0.00     0.293 HD
ENDBRANCH   9  12
BRANCH   8  14
ATOM     14  O   UNL     1      22.123 -15.388  19.123  1.00  0.00    -0.504 OA
ATOM     15  H   UNL     1      21.302 -15.675  18.603  1.00  0.00     0.293 HD
ENDBRANCH   8  14
TORSDOF 2
ENDMDL
MODEL 9
REMARK VINA RESULT:    -3.849      1.897      2.574
REMARK INTER + INTRA:          -4.074
REMARK INTER:                  -4.074
REMARK INTRA:                   0.000
REMARK UNBOUND:                 0.000
REMARK SMILES O=c1ccc2cc(O)c(O)cc2o1
REMARK SMILES IDX 4 1 3 2 2 3 1 4 13 5 12 6 11 7 9 8 7 9 6 10 5 11 8 12 10 14
REMARK H PARENT 8 13 10 15
REMARK Flexibility Score: inf
ROOT
ATOM      1  C   UNL     1      11.991 -17.988  21.205  1.00  0.00     0.019 A 
ATOM      2  C   UNL     1      10.895 -17.137  21.343  1.00  0.00     0.094 A 
ATOM      3  C   UNL     1      10.913 -15.896  20.696  1.00  0.00     0.336 A 
ATOM      4  O   UNL     1       9.933 -15.115  20.808  1.00  0.00    -0.246 OA
ATOM      5  O   UNL     1      11.962 -15.536  19.960  1.00  0.00    -0.423 OA
ATOM      6  C   UNL     1      13.028 -16.318  19.803  1.00  0.00     0.142 A 
ATOM      7  C   UNL     1      14.101 -15.886  19.018  1.00  0.00     0.098 A 
ATOM      8  C   UNL     1      15.228 -16.705  18.847  1.00  0.00     0.161 A 
ATOM      9  C   UNL     1      15.278 -17.966  19.469  1.00  0.00     0.158 A 
ATOM     10  C   UNL     1      14.204 -18.401  20.256  1.00  0.00     0.062 A 
ATOM     11  C   UNL     1      13.080 -17.583  20.426  1.00  0.00     0.022 A 
ENDROOT
BRANCH   9  12
ATOM     12  O   UNL     1      16.385 -18.800  19.316  1.00  0.00    -0.504 OA
ATOM     13  H   UNL     1      16.854 -19.223  20.108  1.00  0.00     0.293 HD
ENDBRANCH   9  12
BRANCH   8  14
ATOM     14  O   UNL     1      16.295 -16.271  18.064  1.00  0.00    -0.504 OA
ATOM     15  H   UNL     1      16.923 -16.925  17.609  1.00  0.00     0.293 HD
ENDBRANCH   8  14
TORSDOF 2
ENDMDL
