MODEL 1
REMARK VINA RESULT:    -3.651      0.000      0.000
REMARK INTER + INTRA:          -7.490
REMARK INTER:                  -6.639
REMARK INTRA:                  -0.851
REMARK UNBOUND:                -0.851
REMARK SMILES CCCCCCCCCCCCCCCC(=O)[O-]
REMARK SMILES IDX 9 1 10 2 11 3 12 4 13 5 14 6 15 7 16 8 17 9 18 10 8 11 7 12
REMARK SMILES IDX 6 13 5 14 4 15 3 16 2 17 1 18
REMARK H PARENT
REMARK Flexibility Score: inf
ROOT
ATOM      1  C   UNL     1     -27.408   8.353  -5.613  1.00  0.00     0.000 C 
ENDROOT
BRANCH   1   2
ATOM      2  C   UNL     1     -28.498   8.545  -4.544  1.00  0.00     0.000 C 
BRANCH   2   3
ATOM      3  C   UNL     1     -29.863   7.995  -4.989  1.00  0.00     0.000 C 
BRANCH   3   4
ATOM      4  C   UNL     1     -30.314   8.563  -6.346  1.00  0.00     0.000 C 
BRANCH   4   5
ATOM      5  C   UNL     1     -31.489   7.779  -6.954  1.00  0.00     0.000 C 
BRANCH   5   6
ATOM      6  C   UNL     1     -32.188   8.543  -8.088  1.00  0.00     0.006 C 
BRANCH   6   7
ATOM      7  C   UNL     1     -33.676   8.188  -8.151  1.00  0.00     0.053 C 
BRANCH   7   8
ATOM      8  C   UNL     1     -33.856   6.724  -8.403  1.00  0.00     0.041 C 
ATOM      9  O   UNL     1     -34.099   5.942  -7.446  1.00  0.00    -0.550 OA
ATOM     10  O   UNL     1     -33.706   6.215  -9.686  1.00  0.00    -0.550 OA
ENDBRANCH   7   8
ENDBRANCH   6   7
ENDBRANCH   5   6
ENDBRANCH   4   5
ENDBRANCH   3   4
ENDBRANCH   2   3
ENDBRANCH   1   2
BRANCH   1  11
ATOM     11  C   UNL     1     -26.691   9.664  -5.979  1.00  0.00     0.000 C 
BRANCH  11  12
ATOM     12  C   UNL     1     -26.860  10.812  -4.963  1.00  0.00    -0.000 C 
BRANCH  12  13
ATOM     13  C   UNL     1     -25.689  10.999  -3.981  1.00  0.00    -0.000 C 
BRANCH  13  14
ATOM     14  C   UNL     1     -24.315  10.809  -4.647  1.00  0.00    -0.000 C 
BRANCH  14  15
ATOM     15  C   UNL     1     -23.417   9.829  -3.875  1.00  0.00    -0.000 C 
BRANCH  15  16
ATOM     16  C   UNL     1     -23.411   8.418  -4.488  1.00  0.00    -0.000 C 
BRANCH  16  17
ATOM     17  C   UNL     1     -22.008   7.971  -4.923  1.00  0.00    -0.003 C 
ATOM     18  C   UNL     1     -22.028   6.700  -5.770  1.00  0.00     0.004 C 
ENDBRANCH  16  17
ENDBRANCH  15  16
ENDBRANCH  14  15
ENDBRANCH  13  14
ENDBRANCH  12  13
ENDBRANCH  11  12
ENDBRANCH   1  11
TORSDOF 14
ENDMDL
MODEL 2
REMARK VINA RESULT:    -3.466      0.819      1.135
REMARK INTER + INTRA:          -7.153
REMARK INTER:                  -6.477
REMARK INTRA:                  -0.676
REMARK UNBOUND:                -0.851
REMARK SMILES CCCCCCCCCCCCCCCC(=O)[O-]
REMARK SMILES IDX 9 1 10 2 11 3 12 4 13 5 14 6 15 7 16 8 17 9 18 10 8 11 7 12
REMARK SMILES IDX 6 13 5 14 4 15 3 16 2 17 1 18
REMARK H PARENT
REMARK Flexibility Score: inf
ROOT
ATOM      1  C   UNL     1     -27.871   8.450  -5.204  1.00  0.00     0.000 C 
ENDROOT
BRANCH   1   2
ATOM      2  C   UNL     1     -29.293   8.455  -4.615  1.00  0.00     0.000 C 
BRANCH   2   3
ATOM      3  C   UNL     1     -30.325   7.820  -5.561  1.00  0.00     0.000 C 
BRANCH   3   4
ATOM      4  C   UNL     1     -30.453   8.584  -6.891  1.00  0.00     0.000 C 
BRANCH   4   5
ATOM      5  C   UNL     1     -31.913   8.914  -7.244  1.00  0.00     0.000 C 
BRANCH   5   6
ATOM      6  C   UNL     1     -32.376   8.238  -8.543  1.00  0.00     0.006 C 
BRANCH   6   7
ATOM      7  C   UNL     1     -33.855   7.851  -8.462  1.00  0.00     0.053 C 
BRANCH   7   8
ATOM      8  C   UNL     1     -34.012   6.364  -8.515  1.00  0.00     0.041 C 
ATOM      9  O   UNL     1     -34.124   5.778  -9.624  1.00  0.00    -0.550 OA
ATOM     10  O   UNL     1     -34.086   5.630  -7.339  1.00  0.00    -0.550 OA
ENDBRANCH   7   8
ENDBRANCH   6   7
ENDBRANCH   5   6
ENDBRANCH   4   5
ENDBRANCH   3   4
ENDBRANCH   2   3
ENDBRANCH   1   2
BRANCH   1  11
ATOM     11  C   UNL     1     -27.422   9.838  -5.693  1.00  0.00     0.000 C 
BRANCH  11  12
ATOM     12  C   UNL     1     -25.903  10.003  -5.902  1.00  0.00    -0.000 C 
BRANCH  12  13
ATOM     13  C   UNL     1     -25.243  11.125  -5.079  1.00  0.00    -0.000 C 
BRANCH  13  14
ATOM     14  C   UNL     1     -24.261  10.591  -4.023  1.00  0.00    -0.000 C 
BRANCH  14  15
ATOM     15  C   UNL     1     -24.107   9.062  -4.081  1.00  0.00    -0.000 C 
BRANCH  15  16
ATOM     16  C   UNL     1     -22.732   8.623  -4.612  1.00  0.00    -0.000 C 
BRANCH  16  17
ATOM     17  C   UNL     1     -22.769   7.230  -5.258  1.00  0.00    -0.003 C 
ATOM     18  C   UNL     1     -21.412   6.801  -5.814  1.00  0.00     0.004 C 
ENDBRANCH  16  17
ENDBRANCH  15  16
ENDBRANCH  14  15
ENDBRANCH  13  14
ENDBRANCH  12  13
ENDBRANCH  11  12
ENDBRANCH   1  11
TORSDOF 14
ENDMDL
MODEL 3
REMARK VINA RESULT:    -3.334      4.063      8.894
REMARK INTER + INTRA:          -6.913
REMARK INTER:                  -5.943
REMARK INTRA:                  -0.970
REMARK UNBOUND:                -0.851
REMARK SMILES CCCCCCCCCCCCCCCC(=O)[O-]
REMARK SMILES IDX 9 1 10 2 11 3 12 4 13 5 14 6 15 7 16 8 17 9 18 10 8 11 7 12
REMARK SMILES IDX 6 13 5 14 4 15 3 16 2 17 1 18
REMARK H PARENT
REMARK Flexibility Score: inf
ROOT
ATOM      1  C   UNL     1     -28.229   9.017  -4.134  1.00  0.00     0.000 C 
ENDROOT
BRANCH   1   2
ATOM      2  C   UNL     1     -27.306   8.728  -5.332  1.00  0.00     0.000 C 
BRANCH   2   3
ATOM      3  C   UNL     1     -26.653  10.001  -5.892  1.00  0.00     0.000 C 
BRANCH   3   4
ATOM      4  C   UNL     1     -26.535  11.116  -4.838  1.00  0.00     0.000 C 
BRANCH   4   5
ATOM      5  C   UNL     1     -25.204  11.065  -4.069  1.00  0.00     0.000 C 
BRANCH   5   6
ATOM      6  C   UNL     1     -24.120  10.270  -4.812  1.00  0.00     0.006 C 
BRANCH   6   7
ATOM      7  C   UNL     1     -23.443   9.263  -3.878  1.00  0.00     0.053 C 
BRANCH   7   8
ATOM      8  C   UNL     1     -22.836   8.144  -4.665  1.00  0.00     0.041 C 
ATOM      9  O   UNL     1     -23.563   7.217  -5.110  1.00  0.00    -0.550 OA
ATOM     10  O   UNL     1     -21.463   8.098  -4.864  1.00  0.00    -0.550 OA
ENDBRANCH   7   8
ENDBRANCH   6   7
ENDBRANCH   5   6
ENDBRANCH   4   5
ENDBRANCH   3   4
ENDBRANCH   2   3
ENDBRANCH   1   2
BRANCH   1  11
ATOM     11  C   UNL     1     -29.656   8.479  -4.336  1.00  0.00     0.000 C 
BRANCH  11  12
ATOM     12  C   UNL     1     -30.024   8.119  -5.790  1.00  0.00    -0.000 C 
BRANCH  12  13
ATOM     13  C   UNL     1     -31.339   8.731  -6.307  1.00  0.00    -0.000 C 
BRANCH  13  14
ATOM     14  C   UNL     1     -31.592   8.431  -7.795  1.00  0.00    -0.000 C 
BRANCH  14  15
ATOM     15  C   UNL     1     -32.908   9.043  -8.303  1.00  0.00    -0.000 C 
BRANCH  15  16
ATOM     16  C   UNL     1     -34.125   8.139  -8.041  1.00  0.00    -0.000 C 
BRANCH  16  17
ATOM     17  C   UNL     1     -33.973   6.749  -8.676  1.00  0.00    -0.003 C 
ATOM     18  C   UNL     1     -34.004   5.622  -7.644  1.00  0.00     0.004 C 
ENDBRANCH  16  17
ENDBRANCH  15  16
ENDBRANCH  14  15
ENDBRANCH  13  14
ENDBRANCH  12  13
ENDBRANCH  11  12
ENDBRANCH   1  11
TORSDOF 14
ENDMDL
MODEL 4
REMARK VINA RESULT:    -2.633      1.079      1.766
REMARK INTER + INTRA:          -5.639
REMARK INTER:                  -4.676
REMARK INTRA:                  -0.963
REMARK UNBOUND:                -0.851
REMARK SMILES CCCCCCCCCCCCCCCC(=O)[O-]
REMARK SMILES IDX 9 1 10 2 11 3 12 4 13 5 14 6 15 7 16 8 17 9 18 10 8 11 7 12
REMARK SMILES IDX 6 13 5 14 4 15 3 16 2 17 1 18
REMARK H PARENT
REMARK Flexibility Score: inf
ROOT
ATOM      1  C   UNL     1     -27.037  10.036  -6.165  1.00  0.00     0.000 C 
ENDROOT
BRANCH   1   2
ATOM      2  C   UNL     1     -27.326   8.877  -5.195  1.00  0.00     0.000 C 
BRANCH   2   3
ATOM      3  C   UNL     1     -28.569   9.132  -4.326  1.00  0.00     0.000 C 
BRANCH   3   4
ATOM      4  C   UNL     1     -29.770   8.268  -4.749  1.00  0.00     0.000 C 
BRANCH   4   5
ATOM      5  C   UNL     1     -29.942   8.199  -6.275  1.00  0.00     0.000 C 
BRANCH   5   6
ATOM      6  C   UNL     1     -31.313   8.710  -6.742  1.00  0.00     0.006 C 
BRANCH   6   7
ATOM      7  C   UNL     1     -32.155   7.568  -7.318  1.00  0.00     0.053 C 
BRANCH   7   8
ATOM      8  C   UNL     1     -33.134   8.092  -8.321  1.00  0.00     0.041 C 
ATOM      9  O   UNL     1     -33.220   7.560  -9.459  1.00  0.00    -0.550 OA
ATOM     10  O   UNL     1     -33.914   9.200  -8.018  1.00  0.00    -0.550 OA
ENDBRANCH   7   8
ENDBRANCH   6   7
ENDBRANCH   5   6
ENDBRANCH   4   5
ENDBRANCH   3   4
ENDBRANCH   2   3
ENDBRANCH   1   2
BRANCH   1  11
ATOM     11  C   UNL     1     -26.120  11.111  -5.555  1.00  0.00     0.000 C 
BRANCH  11  12
ATOM     12  C   UNL     1     -25.578  10.792  -4.147  1.00  0.00    -0.000 C 
BRANCH  12  13
ATOM     13  C   UNL     1     -24.091  11.125  -3.923  1.00  0.00    -0.000 C 
BRANCH  13  14
ATOM     14  C   UNL     1     -23.199   9.873  -3.885  1.00  0.00    -0.000 C 
BRANCH  14  15
ATOM     15  C   UNL     1     -24.013   8.569  -3.875  1.00  0.00    -0.000 C 
BRANCH  15  16
ATOM     16  C   UNL     1     -23.661   7.639  -5.049  1.00  0.00    -0.000 C 
BRANCH  16  17
ATOM     17  C   UNL     1     -22.243   7.879  -5.586  1.00  0.00    -0.003 C 
ATOM     18  C   UNL     1     -21.424   6.594  -5.688  1.00  0.00     0.004 C 
ENDBRANCH  16  17
ENDBRANCH  15  16
ENDBRANCH  14  15
ENDBRANCH  13  14
ENDBRANCH  12  13
ENDBRANCH  11  12
ENDBRANCH   1  11
TORSDOF 14
ENDMDL
MODEL 5
REMARK VINA RESULT:    -0.892      3.441      8.077
REMARK INTER + INTRA:          -2.473
REMARK INTER:                  -1.264
REMARK INTRA:                  -1.209
REMARK UNBOUND:                -0.851
REMARK SMILES CCCCCCCCCCCCCCCC(=O)[O-]
REMARK SMILES IDX 9 1 10 2 11 3 12 4 13 5 14 6 15 7 16 8 17 9 18 10 8 11 7 12
REMARK SMILES IDX 6 13 5 14 4 15 3 16 2 17 1 18
REMARK H PARENT
REMARK Flexibility Score: inf
ROOT
ATOM      1  C   UNL     1     -26.038  10.639  -5.846  1.00  0.00     0.000 C 
ENDROOT
BRANCH   1   2
ATOM      2  C   UNL     1     -25.904  10.788  -4.320  1.00  0.00     0.000 C 
BRANCH   2   3
ATOM      3  C   UNL     1     -24.450  11.012  -3.875  1.00  0.00     0.000 C 
BRANCH   3   4
ATOM      4  C   UNL     1     -23.434  10.379  -4.842  1.00  0.00     0.000 C 
BRANCH   4   5
ATOM      5  C   UNL     1     -22.847   9.063  -4.304  1.00  0.00     0.000 C 
BRANCH   5   6
ATOM      6  C   UNL     1     -22.977   7.904  -5.303  1.00  0.00     0.006 C 
BRANCH   6   7
ATOM      7  C   UNL     1     -24.318   7.183  -5.133  1.00  0.00     0.053 C 
BRANCH   7   8
ATOM      8  C   UNL     1     -24.332   5.909  -5.918  1.00  0.00     0.041 C 
ATOM      9  O   UNL     1     -23.263   5.453  -6.403  1.00  0.00    -0.550 OA
ATOM     10  O   UNL     1     -25.532   5.253  -6.158  1.00  0.00    -0.550 OA
ENDBRANCH   7   8
ENDBRANCH   6   7
ENDBRANCH   5   6
ENDBRANCH   4   5
ENDBRANCH   3   4
ENDBRANCH   2   3
ENDBRANCH   1   2
BRANCH   1  11
ATOM     11  C   UNL     1     -27.253   9.790  -6.260  1.00  0.00     0.000 C 
BRANCH  11  12
ATOM     12  C   UNL     1     -27.677   8.710  -5.244  1.00  0.00    -0.000 C 
BRANCH  12  13
ATOM     13  C   UNL     1     -29.157   8.289  -5.312  1.00  0.00    -0.000 C 
BRANCH  13  14
ATOM     14  C   UNL     1     -29.860   8.782  -6.588  1.00  0.00    -0.000 C 
BRANCH  14  15
ATOM     15  C   UNL     1     -31.200   8.071  -6.836  1.00  0.00    -0.000 C 
BRANCH  15  16
ATOM     16  C   UNL     1     -32.351   9.051  -7.121  1.00  0.00    -0.000 C 
BRANCH  16  17
ATOM     17  C   UNL     1     -33.035   8.778  -8.468  1.00  0.00    -0.003 C 
ATOM     18  C   UNL     1     -33.106   7.290  -8.804  1.00  0.00     0.004 C 
ENDBRANCH  16  17
ENDBRANCH  15  16
ENDBRANCH  14  15
ENDBRANCH  13  14
ENDBRANCH  12  13
ENDBRANCH  11  12
ENDBRANCH   1  11
TORSDOF 14
ENDMDL
MODEL 6
REMARK VINA RESULT:    -0.840      4.268      8.746
REMARK INTER + INTRA:          -2.378
REMARK INTER:                  -2.187
REMARK INTRA:                  -0.191
REMARK UNBOUND:                -0.851
REMARK SMILES CCCCCCCCCCCCCCCC(=O)[O-]
REMARK SMILES IDX 9 1 10 2 11 3 12 4 13 5 14 6 15 7 16 8 17 9 18 10 8 11 7 12
REMARK SMILES IDX 6 13 5 14 4 15 3 16 2 17 1 18
REMARK H PARENT
REMARK Flexibility Score: inf
ROOT
ATOM      1  C   UNL     1     -26.302  10.042  -6.306  1.00  0.00     0.000 C 
ENDROOT
BRANCH   1   2
ATOM      2  C   UNL     1     -25.428  11.125  -5.648  1.00  0.00     0.000 C 
BRANCH   2   3
ATOM      3  C   UNL     1     -24.540  10.564  -4.527  1.00  0.00     0.000 C 
BRANCH   3   4
ATOM      4  C   UNL     1     -25.047   9.212  -3.994  1.00  0.00     0.000 C 
BRANCH   4   5
ATOM      5  C   UNL     1     -23.927   8.165  -3.875  1.00  0.00     0.000 C 
BRANCH   5   6
ATOM      6  C   UNL     1     -22.549   8.725  -4.256  1.00  0.00     0.006 C 
BRANCH   6   7
ATOM      7  C   UNL     1     -22.189   8.361  -5.699  1.00  0.00     0.053 C 
BRANCH   7   8
ATOM      8  C   UNL     1     -21.920   6.893  -5.818  1.00  0.00     0.041 C 
ATOM      9  O   UNL     1     -22.871   6.088  -5.995  1.00  0.00    -0.550 OA
ATOM     10  O   UNL     1     -20.625   6.410  -5.682  1.00  0.00    -0.550 OA
ENDBRANCH   7   8
ENDBRANCH   6   7
ENDBRANCH   5   6
ENDBRANCH   4   5
ENDBRANCH   3   4
ENDBRANCH   2   3
ENDBRANCH   1   2
BRANCH   1  11
ATOM     11  C   UNL     1     -27.600   9.767  -5.527  1.00  0.00     0.000 C 
BRANCH  11  12
ATOM     12  C   UNL     1     -28.345   8.476  -5.923  1.00  0.00    -0.000 C 
BRANCH  12  13
ATOM     13  C   UNL     1     -29.357   7.956  -4.885  1.00  0.00    -0.000 C 
BRANCH  13  14
ATOM     14  C   UNL     1     -30.807   8.348  -5.218  1.00  0.00    -0.000 C 
BRANCH  14  15
ATOM     15  C   UNL     1     -31.045   8.496  -6.729  1.00  0.00    -0.000 C 
BRANCH  15  16
ATOM     16  C   UNL     1     -32.110   7.521  -7.262  1.00  0.00    -0.000 C 
BRANCH  16  17
ATOM     17  C   UNL     1     -32.935   8.121  -8.409  1.00  0.00    -0.003 C 
ATOM     18  C   UNL     1     -33.452   7.062  -9.381  1.00  0.00     0.004 C 
ENDBRANCH  16  17
ENDBRANCH  15  16
ENDBRANCH  14  15
ENDBRANCH  13  14
ENDBRANCH  12  13
ENDBRANCH  11  12
ENDBRANCH   1  11
TORSDOF 14
ENDMDL
MODEL 7
REMARK VINA RESULT:    -0.831      1.682      3.203
REMARK INTER + INTRA:          -2.361
REMARK INTER:                  -2.310
REMARK INTRA:                  -0.051
REMARK UNBOUND:                -0.851
REMARK SMILES CCCCCCCCCCCCCCCC(=O)[O-]
REMARK SMILES IDX 9 1 10 2 11 3 12 4 13 5 14 6 15 7 16 8 17 9 18 10 8 11 7 12
REMARK SMILES IDX 6 13 5 14 4 15 3 16 2 17 1 18
REMARK H PARENT
REMARK Flexibility Score: inf
ROOT
ATOM      1  C   UNL     1     -25.306   9.734  -5.642  1.00  0.00     0.000 C 
ENDROOT
BRANCH   1   2
ATOM      2  C   UNL     1     -26.599  10.536  -5.873  1.00  0.00     0.000 C 
BRANCH   2   3
ATOM      3  C   UNL     1     -27.830   9.633  -6.050  1.00  0.00     0.000 C 
BRANCH   3   4
ATOM      4  C   UNL     1     -28.223   8.911  -4.749  1.00  0.00     0.000 C 
BRANCH   4   5
ATOM      5  C   UNL     1     -29.172   7.726  -4.994  1.00  0.00     0.000 C 
BRANCH   5   6
ATOM      6  C   UNL     1     -30.556   8.168  -5.494  1.00  0.00     0.006 C 
BRANCH   6   7
ATOM      7  C   UNL     1     -30.559   8.335  -7.017  1.00  0.00     0.053 C 
BRANCH   7   8
ATOM      8  C   UNL     1     -31.936   8.657  -7.506  1.00  0.00     0.041 C 
ATOM      9  O   UNL     1     -32.465   9.765  -7.223  1.00  0.00    -0.550 OA
ATOM     10  O   UNL     1     -32.655   7.716  -8.230  1.00  0.00    -0.550 OA
ENDBRANCH   7   8
ENDBRANCH   6   7
ENDBRANCH   5   6
ENDBRANCH   4   5
ENDBRANCH   3   4
ENDBRANCH   2   3
ENDBRANCH   1   2
BRANCH   1  11
ATOM     11  C   UNL     1     -24.906   9.660  -4.158  1.00  0.00     0.000 C 
BRANCH  11  12
ATOM     12  C   UNL     1     -23.397   9.804  -3.875  1.00  0.00    -0.000 C 
BRANCH  12  13
ATOM     13  C   UNL     1     -22.558   8.535  -4.114  1.00  0.00    -0.000 C 
BRANCH  13  14
ATOM     14  C   UNL     1     -22.204   8.324  -5.596  1.00  0.00    -0.000 C 
BRANCH  14  15
ATOM     15  C   UNL     1     -21.751   6.886  -5.895  1.00  0.00    -0.000 C 
BRANCH  15  16
ATOM     16  C   UNL     1     -22.927   5.896  -5.976  1.00  0.00    -0.000 C 
BRANCH  16  17
ATOM     17  C   UNL     1     -24.285   6.577  -5.756  1.00  0.00    -0.003 C 
ATOM     18  C   UNL     1     -25.464   5.645  -6.029  1.00  0.00     0.004 C 
ENDBRANCH  16  17
ENDBRANCH  15  16
ENDBRANCH  14  15
ENDBRANCH  13  14
ENDBRANCH  12  13
ENDBRANCH  11  12
ENDBRANCH   1  11
TORSDOF 14
ENDMDL
