MODEL 1
REMARK VINA RESULT:    21.453      0.000      0.000
REMARK INTER + INTRA:          29.017
REMARK INTER:                  29.605
REMARK INTRA:                  -0.588
REMARK UNBOUND:                -0.588
REMARK SMILES CC[C@H](CC[C@@H](C)[C@H]1CC[C@H]2[C@@H]3CC=C4C[C@H](O)CC[C@]4(C)[C@H]3CC[C@]12C)C(C)C
REMARK SMILES IDX 5 1 4 2 3 3 2 4 1 5 28 6 29 7 30 8 6 9 7 10 8 11 9 12 26 13
REMARK SMILES IDX 10 14 11 15 25 16 27 17 12 18 24 19 23 20 13 21 21 22 14 23
REMARK SMILES IDX 15 24 20 25 22 26 16 27 19 28 17 29 18 30
REMARK H PARENT 18 31
REMARK Flexibility Score: inf
ROOT
ATOM      1  C   UNL     1       6.574  13.791  14.587  1.00  0.00     0.004 C 
ENDROOT
BRANCH   1   2
ATOM      2  C   UNL     1       5.334  13.050  14.047  1.00  0.00     0.004 C 
BRANCH   2   3
ATOM      3  C   UNL     1       4.463  13.929  13.094  1.00  0.00    -0.009 C 
BRANCH   3   4
ATOM      4  C   UNL     1       3.961  13.116  11.870  1.00  0.00     0.000 C 
ATOM      5  C   UNL     1       4.694  13.489  10.580  1.00  0.00     0.004 C 
ENDBRANCH   3   4
BRANCH   3   6
ATOM      6  C   UNL     1       3.303  14.623  13.879  1.00  0.00    -0.014 C 
ATOM      7  C   UNL     1       2.257  13.632  14.418  1.00  0.00     0.007 C 
ATOM      8  C   UNL     1       2.618  15.724  13.055  1.00  0.00     0.007 C 
ENDBRANCH   3   6
ENDBRANCH   2   3
ENDBRANCH   1   2
BRANCH   1   9
ATOM      9  C   UNL     1       6.858  13.510  16.086  1.00  0.00    -0.011 C 
ATOM     10  C   UNL     1       8.380  13.422  16.355  1.00  0.00     0.008 C 
BRANCH   9  11
ATOM     11  C   UNL     1       6.027  14.459  17.021  1.00  0.00    -0.002 C 
ATOM     12  C   UNL     1       4.507  14.146  17.057  1.00  0.00     0.005 C 
ATOM     13  C   UNL     1       6.424  14.696  18.511  1.00  0.00    -0.026 C 
ATOM     14  C   UNL     1       3.999  14.590  18.437  1.00  0.00     0.005 C 
ATOM     15  C   UNL     1       5.151  15.403  19.008  1.00  0.00    -0.001 C 
ATOM     16  C   UNL     1       7.597  15.682  18.740  1.00  0.00     0.007 C 
ATOM     17  C   UNL     1       6.703  13.352  19.245  1.00  0.00     0.012 C 
ATOM     18  C   UNL     1       5.158  15.712  20.521  1.00  0.00     0.000 C 
ATOM     19  C   UNL     1       7.716  16.079  20.230  1.00  0.00     0.005 C 
ATOM     20  C   UNL     1       6.383  16.623  20.841  1.00  0.00     0.003 C 
ATOM     21  C   UNL     1       3.867  16.442  20.925  1.00  0.00     0.031 C 
ATOM     22  C   UNL     1       6.468  16.951  22.383  1.00  0.00    -0.008 C 
ATOM     23  C   UNL     1       3.936  17.025  22.308  1.00  0.00    -0.027 C 
ATOM     24  C   UNL     1       5.090  17.373  22.919  1.00  0.00    -0.065 C 
ATOM     25  C   UNL     1       7.470  18.130  22.593  1.00  0.00     0.014 C 
ATOM     26  C   UNL     1       6.949  15.719  23.199  1.00  0.00     0.016 C 
ATOM     27  C   UNL     1       5.011  18.056  24.273  1.00  0.00     0.063 C 
ATOM     28  C   UNL     1       7.425  18.740  24.003  1.00  0.00     0.033 C 
ATOM     29  C   UNL     1       6.013  19.213  24.370  1.00  0.00     0.118 C 
BRANCH  29  30
ATOM     30  O   UNL     1       5.631  20.263  23.518  1.00  0.00    -0.393 OA
ATOM     31  H   UNL     1       6.394  20.898  23.485  1.00  0.00     0.210 HD
ENDBRANCH  29  30
ENDBRANCH   9  11
ENDBRANCH   1   9
TORSDOF 7
ENDMDL
MODEL 2
REMARK VINA RESULT:    22.548     14.278     19.411
REMARK INTER + INTRA:          30.528
REMARK INTER:                  28.720
REMARK INTRA:                   1.808
REMARK UNBOUND:                -0.588
REMARK SMILES CC[C@H](CC[C@@H](C)[C@H]1CC[C@H]2[C@@H]3CC=C4C[C@H](O)CC[C@]4(C)[C@H]3CC[C@]12C)C(C)C
REMARK SMILES IDX 5 1 4 2 3 3 2 4 1 5 28 6 29 7 30 8 6 9 7 10 8 11 9 12 26 13
REMARK SMILES IDX 10 14 11 15 25 16 27 17 12 18 24 19 23 20 13 21 21 22 14 23
REMARK SMILES IDX 15 24 20 25 22 26 16 27 19 28 17 29 18 30
REMARK H PARENT 18 31
REMARK Flexibility Score: inf
ROOT
ATOM      1  C   UNL     1      -1.108  32.752  28.446  1.00  0.00     0.004 C 
ENDROOT
BRANCH   1   2
ATOM      2  C   UNL     1      -0.076  31.830  29.125  1.00  0.00     0.004 C 
BRANCH   2   3
ATOM      3  C   UNL     1       1.308  31.821  28.401  1.00  0.00    -0.009 C 
BRANCH   3   4
ATOM      4  C   UNL     1       2.188  33.023  28.840  1.00  0.00     0.000 C 
ATOM      5  C   UNL     1       3.485  33.123  28.035  1.00  0.00     0.004 C 
ENDBRANCH   3   4
BRANCH   3   6
ATOM      6  C   UNL     1       2.025  30.445  28.583  1.00  0.00    -0.014 C 
ATOM      7  C   UNL     1       3.496  30.579  29.014  1.00  0.00     0.007 C 
ATOM      8  C   UNL     1       1.916  29.560  27.331  1.00  0.00     0.007 C 
ENDBRANCH   3   6
ENDBRANCH   2   3
ENDBRANCH   1   2
BRANCH   1   9
ATOM      9  C   UNL     1      -2.444  32.042  28.106  1.00  0.00    -0.011 C 
ATOM     10  C   UNL     1      -3.648  32.806  28.708  1.00  0.00     0.008 C 
BRANCH   9  11
ATOM     11  C   UNL     1      -2.531  31.669  26.583  1.00  0.00    -0.002 C 
ATOM     12  C   UNL     1      -3.546  32.521  25.775  1.00  0.00     0.005 C 
ATOM     13  C   UNL     1      -1.259  31.597  25.682  1.00  0.00    -0.026 C 
ATOM     14  C   UNL     1      -3.024  32.575  24.331  1.00  0.00     0.005 C 
ATOM     15  C   UNL     1      -1.927  31.522  24.298  1.00  0.00    -0.001 C 
ATOM     16  C   UNL     1      -0.406  30.313  25.833  1.00  0.00     0.007 C 
ATOM     17  C   UNL     1      -0.365  32.858  25.861  1.00  0.00     0.012 C 
ATOM     18  C   UNL     1      -0.928  31.533  23.120  1.00  0.00     0.000 C 
ATOM     19  C   UNL     1       0.644  30.199  24.704  1.00  0.00     0.005 C 
ATOM     20  C   UNL     1       0.036  30.316  23.269  1.00  0.00     0.003 C 
ATOM     21  C   UNL     1      -1.675  31.426  21.782  1.00  0.00     0.031 C 
ATOM     22  C   UNL     1       1.107  30.287  22.111  1.00  0.00    -0.008 C 
ATOM     23  C   UNL     1      -0.761  31.140  20.625  1.00  0.00    -0.027 C 
ATOM     24  C   UNL     1       0.432  30.517  20.747  1.00  0.00    -0.065 C 
ATOM     25  C   UNL     1       1.798  28.886  22.097  1.00  0.00     0.014 C 
ATOM     26  C   UNL     1       2.186  31.388  22.308  1.00  0.00     0.016 C 
ATOM     27  C   UNL     1       1.207  30.190  19.484  1.00  0.00     0.063 C 
ATOM     28  C   UNL     1       2.646  28.624  20.842  1.00  0.00     0.033 C 
ATOM     29  C   UNL     1       1.823  28.787  19.559  1.00  0.00     0.118 C 
BRANCH  29  30
ATOM     30  O   UNL     1       0.816  27.808  19.516  1.00  0.00    -0.393 OA
ATOM     31  H   UNL     1       0.307  27.956  18.675  1.00  0.00     0.210 HD
ENDBRANCH  29  30
ENDBRANCH   9  11
ENDBRANCH   1   9
TORSDOF 7
ENDMDL
MODEL 3
REMARK VINA RESULT:    22.729      1.505      3.178
REMARK INTER + INTRA:          30.778
REMARK INTER:                  30.678
REMARK INTRA:                   0.100
REMARK UNBOUND:                -0.588
REMARK SMILES CC[C@H](CC[C@@H](C)[C@H]1CC[C@H]2[C@@H]3CC=C4C[C@H](O)CC[C@]4(C)[C@H]3CC[C@]12C)C(C)C
REMARK SMILES IDX 5 1 4 2 3 3 2 4 1 5 28 6 29 7 30 8 6 9 7 10 8 11 9 12 26 13
REMARK SMILES IDX 10 14 11 15 25 16 27 17 12 18 24 19 23 20 13 21 21 22 14 23
REMARK SMILES IDX 15 24 20 25 22 26 16 27 19 28 17 29 18 30
REMARK H PARENT 18 31
REMARK Flexibility Score: inf
ROOT
ATOM      1  C   UNL     1       5.068  14.411  16.330  1.00  0.00     0.004 C 
ENDROOT
BRANCH   1   2
ATOM      2  C   UNL     1       4.337  13.608  15.235  1.00  0.00     0.004 C 
BRANCH   2   3
ATOM      3  C   UNL     1       2.991  14.264  14.790  1.00  0.00    -0.009 C 
BRANCH   3   4
ATOM      4  C   UNL     1       3.068  14.788  13.331  1.00  0.00     0.000 C 
ATOM      5  C   UNL     1       3.689  13.767  12.376  1.00  0.00     0.004 C 
ENDBRANCH   3   4
BRANCH   3   6
ATOM      6  C   UNL     1       1.792  13.289  15.024  1.00  0.00    -0.014 C 
ATOM      7  C   UNL     1       0.597  13.564  14.095  1.00  0.00     0.007 C 
ATOM      8  C   UNL     1       1.332  13.272  16.491  1.00  0.00     0.007 C 
ENDBRANCH   3   6
ENDBRANCH   2   3
ENDBRANCH   1   2
BRANCH   1   9
ATOM      9  C   UNL     1       4.445  14.241  17.741  1.00  0.00    -0.011 C 
ATOM     10  C   UNL     1       3.696  12.892  17.859  1.00  0.00     0.008 C 
BRANCH   9  11
ATOM     11  C   UNL     1       5.478  14.581  18.874  1.00  0.00    -0.002 C 
ATOM     12  C   UNL     1       6.948  14.685  18.386  1.00  0.00     0.005 C 
ATOM     13  C   UNL     1       5.281  15.803  19.824  1.00  0.00    -0.026 C 
ATOM     14  C   UNL     1       7.655  15.670  19.329  1.00  0.00     0.005 C 
ATOM     15  C   UNL     1       6.674  15.848  20.478  1.00  0.00    -0.001 C 
ATOM     16  C   UNL     1       4.260  15.599  20.970  1.00  0.00     0.007 C 
ATOM     17  C   UNL     1       4.940  17.094  19.025  1.00  0.00     0.012 C 
ATOM     18  C   UNL     1       6.874  17.037  21.442  1.00  0.00     0.000 C 
ATOM     19  C   UNL     1       4.356  16.733  22.018  1.00  0.00     0.005 C 
ATOM     20  C   UNL     1       5.802  16.952  22.572  1.00  0.00     0.003 C 
ATOM     21  C   UNL     1       8.275  16.989  22.071  1.00  0.00     0.031 C 
ATOM     22  C   UNL     1       5.929  18.161  23.578  1.00  0.00    -0.008 C 
ATOM     23  C   UNL     1       8.429  17.938  23.225  1.00  0.00    -0.027 C 
ATOM     24  C   UNL     1       7.398  18.369  23.985  1.00  0.00    -0.065 C 
ATOM     25  C   UNL     1       5.095  17.842  24.859  1.00  0.00     0.014 C 
ATOM     26  C   UNL     1       5.410  19.482  22.945  1.00  0.00     0.016 C 
ATOM     27  C   UNL     1       7.706  19.240  25.190  1.00  0.00     0.063 C 
ATOM     28  C   UNL     1       5.368  18.798  26.032  1.00  0.00     0.033 C 
ATOM     29  C   UNL     1       6.857  18.830  26.401  1.00  0.00     0.118 C 
BRANCH  29  30
ATOM     30  O   UNL     1       7.254  17.568  26.872  1.00  0.00    -0.393 OA
ATOM     31  H   UNL     1       7.227  16.950  26.095  1.00  0.00     0.210 HD
ENDBRANCH  29  30
ENDBRANCH   9  11
ENDBRANCH   1   9
TORSDOF 7
ENDMDL
MODEL 4
REMARK VINA RESULT:    23.286      1.567      3.316
REMARK INTER + INTRA:          31.546
REMARK INTER:                  32.699
REMARK INTRA:                  -1.153
REMARK UNBOUND:                -0.588
REMARK SMILES CC[C@H](CC[C@@H](C)[C@H]1CC[C@H]2[C@@H]3CC=C4C[C@H](O)CC[C@]4(C)[C@H]3CC[C@]12C)C(C)C
REMARK SMILES IDX 5 1 4 2 3 3 2 4 1 5 28 6 29 7 30 8 6 9 7 10 8 11 9 12 26 13
REMARK SMILES IDX 10 14 11 15 25 16 27 17 12 18 24 19 23 20 13 21 21 22 14 23
REMARK SMILES IDX 15 24 20 25 22 26 16 27 19 28 17 29 18 30
REMARK H PARENT 18 31
REMARK Flexibility Score: inf
ROOT
ATOM      1  C   UNL     1       4.361  14.482  16.247  1.00  0.00     0.004 C 
ENDROOT
BRANCH   1   2
ATOM      2  C   UNL     1       3.223  14.634  15.217  1.00  0.00     0.004 C 
BRANCH   2   3
ATOM      3  C   UNL     1       3.192  13.481  14.164  1.00  0.00    -0.009 C 
BRANCH   3   4
ATOM      4  C   UNL     1       1.769  12.875  14.024  1.00  0.00     0.000 C 
ATOM      5  C   UNL     1       0.728  13.633  14.850  1.00  0.00     0.004 C 
ENDBRANCH   3   4
BRANCH   3   6
ATOM      6  C   UNL     1       3.788  13.955  12.800  1.00  0.00    -0.014 C 
ATOM      7  C   UNL     1       3.182  15.277  12.299  1.00  0.00     0.007 C 
ATOM      8  C   UNL     1       3.683  12.875  11.710  1.00  0.00     0.007 C 
ENDBRANCH   3   6
ENDBRANCH   2   3
ENDBRANCH   1   2
BRANCH   1   9
ATOM      9  C   UNL     1       3.857  14.228  17.692  1.00  0.00    -0.011 C 
ATOM     10  C   UNL     1       3.111  12.876  17.791  1.00  0.00     0.008 C 
BRANCH   9  11
ATOM     11  C   UNL     1       4.984  14.495  18.753  1.00  0.00    -0.002 C 
ATOM     12  C   UNL     1       6.424  14.463  18.175  1.00  0.00     0.005 C 
ATOM     13  C   UNL     1       4.952  15.745  19.686  1.00  0.00    -0.026 C 
ATOM     14  C   UNL     1       7.271  15.399  19.052  1.00  0.00     0.005 C 
ATOM     15  C   UNL     1       6.381  15.680  20.253  1.00  0.00    -0.001 C 
ATOM     16  C   UNL     1       3.990  15.650  20.896  1.00  0.00     0.007 C 
ATOM     17  C   UNL     1       4.673  17.048  18.881  1.00  0.00     0.012 C 
ATOM     18  C   UNL     1       6.742  16.863  21.178  1.00  0.00     0.000 C 
ATOM     19  C   UNL     1       4.248  16.788  21.912  1.00  0.00     0.005 C 
ATOM     20  C   UNL     1       5.739  16.890  22.372  1.00  0.00     0.003 C 
ATOM     21  C   UNL     1       8.170  16.704  21.721  1.00  0.00     0.031 C 
ATOM     22  C   UNL     1       6.032  18.100  23.342  1.00  0.00    -0.008 C 
ATOM     23  C   UNL     1       8.476  17.655  22.843  1.00  0.00    -0.027 C 
ATOM     24  C   UNL     1       7.535  18.187  23.654  1.00  0.00    -0.065 C 
ATOM     25  C   UNL     1       5.255  17.875  24.678  1.00  0.00     0.014 C 
ATOM     26  C   UNL     1       5.589  19.451  22.713  1.00  0.00     0.016 C 
ATOM     27  C   UNL     1       7.991  19.047  24.819  1.00  0.00     0.063 C 
ATOM     28  C   UNL     1       5.681  18.823  25.811  1.00  0.00     0.033 C 
ATOM     29  C   UNL     1       7.187  18.733  26.088  1.00  0.00     0.118 C 
BRANCH  29  30
ATOM     30  O   UNL     1       7.503  17.448  26.562  1.00  0.00    -0.393 OA
ATOM     31  H   UNL     1       6.964  17.306  27.384  1.00  0.00     0.210 HD
ENDBRANCH  29  30
ENDBRANCH   9  11
ENDBRANCH   1   9
TORSDOF 7
ENDMDL
MODEL 5
REMARK VINA RESULT:    24.346      1.334      2.709
REMARK INTER + INTRA:          33.008
REMARK INTER:                  33.439
REMARK INTRA:                  -0.430
REMARK UNBOUND:                -0.588
REMARK SMILES CC[C@H](CC[C@@H](C)[C@H]1CC[C@H]2[C@@H]3CC=C4C[C@H](O)CC[C@]4(C)[C@H]3CC[C@]12C)C(C)C
REMARK SMILES IDX 5 1 4 2 3 3 2 4 1 5 28 6 29 7 30 8 6 9 7 10 8 11 9 12 26 13
REMARK SMILES IDX 10 14 11 15 25 16 27 17 12 18 24 19 23 20 13 21 21 22 14 23
REMARK SMILES IDX 15 24 20 25 22 26 16 27 19 28 17 29 18 30
REMARK H PARENT 18 31
REMARK Flexibility Score: inf
ROOT
ATOM      1  C   UNL     1       3.916  14.741  16.407  1.00  0.00     0.004 C 
ENDROOT
BRANCH   1   2
ATOM      2  C   UNL     1       2.669  13.911  16.043  1.00  0.00     0.004 C 
BRANCH   2   3
ATOM      3  C   UNL     1       2.728  13.319  14.599  1.00  0.00    -0.009 C 
BRANCH   3   4
ATOM      4  C   UNL     1       1.307  13.023  14.046  1.00  0.00     0.000 C 
ATOM      5  C   UNL     1       0.202  13.538  14.970  1.00  0.00     0.004 C 
ENDBRANCH   3   4
BRANCH   3   6
ATOM      6  C   UNL     1       3.568  14.236  13.654  1.00  0.00    -0.014 C 
ATOM      7  C   UNL     1       2.817  15.504  13.213  1.00  0.00     0.007 C 
ATOM      8  C   UNL     1       4.099  13.478  12.426  1.00  0.00     0.007 C 
ENDBRANCH   3   6
ENDBRANCH   2   3
ENDBRANCH   1   2
BRANCH   1   9
ATOM      9  C   UNL     1       5.017  13.919  17.128  1.00  0.00    -0.011 C 
ATOM     10  C   UNL     1       6.392  14.114  16.444  1.00  0.00     0.008 C 
BRANCH   9  11
ATOM     11  C   UNL     1       4.965  14.121  18.684  1.00  0.00    -0.002 C 
ATOM     12  C   UNL     1       5.413  12.880  19.503  1.00  0.00     0.005 C 
ATOM     13  C   UNL     1       5.659  15.333  19.378  1.00  0.00    -0.026 C 
ATOM     14  C   UNL     1       5.989  13.411  20.824  1.00  0.00     0.005 C 
ATOM     15  C   UNL     1       5.575  14.874  20.844  1.00  0.00    -0.001 C 
ATOM     16  C   UNL     1       4.897  16.679  19.290  1.00  0.00     0.007 C 
ATOM     17  C   UNL     1       7.122  15.513  18.877  1.00  0.00     0.012 C 
ATOM     18  C   UNL     1       6.275  15.826  21.839  1.00  0.00     0.000 C 
ATOM     19  C   UNL     1       5.501  17.732  20.248  1.00  0.00     0.005 C 
ATOM     20  C   UNL     1       5.621  17.238  21.726  1.00  0.00     0.003 C 
ATOM     21  C   UNL     1       6.118  15.310  23.277  1.00  0.00     0.031 C 
ATOM     22  C   UNL     1       6.315  18.272  22.696  1.00  0.00    -0.008 C 
ATOM     23  C   UNL     1       6.517  16.327  24.308  1.00  0.00    -0.027 C 
ATOM     24  C   UNL     1       6.488  17.661  24.098  1.00  0.00    -0.065 C 
ATOM     25  C   UNL     1       5.411  19.540  22.812  1.00  0.00     0.014 C 
ATOM     26  C   UNL     1       7.717  18.688  22.173  1.00  0.00     0.016 C 
ATOM     27  C   UNL     1       6.811  18.582  25.261  1.00  0.00     0.063 C 
ATOM     28  C   UNL     1       5.822  20.494  23.945  1.00  0.00     0.033 C 
ATOM     29  C   UNL     1       5.854  19.780  25.302  1.00  0.00     0.118 C 
BRANCH  29  30
ATOM     30  O   UNL     1       4.558  19.359  25.645  1.00  0.00    -0.393 OA
ATOM     31  H   UNL     1       4.114  19.081  24.800  1.00  0.00     0.210 HD
ENDBRANCH  29  30
ENDBRANCH   9  11
ENDBRANCH   1   9
TORSDOF 7
ENDMDL
