MODEL 1
REMARK VINA RESULT:    -3.248      0.000      0.000
REMARK INTER + INTRA:          -7.487
REMARK INTER:                  -6.286
REMARK INTRA:                  -1.201
REMARK UNBOUND:                -1.201
REMARK SMILES CCCCCCCCCCCCCCCCCC(=O)[O-]
REMARK SMILES IDX 10 1 11 2 12 3 13 4 14 5 15 6 16 7 17 8 18 9 19 10 20 11
REMARK SMILES IDX 9 12 8 13 7 14 6 15 5 16 4 17 3 18 2 19 1 20
REMARK H PARENT
REMARK Flexibility Score: inf
ROOT
ATOM      1  C   UNL     1      22.717   6.409 -12.337  1.00  0.00     0.000 C 
ENDROOT
BRANCH   1   2
ATOM      2  C   UNL     1      22.333   5.085 -13.018  1.00  0.00     0.000 C 
BRANCH   2   3
ATOM      3  C   UNL     1      20.819   4.963 -13.264  1.00  0.00     0.000 C 
BRANCH   3   4
ATOM      4  C   UNL     1      20.433   3.637 -13.945  1.00  0.00     0.000 C 
BRANCH   4   5
ATOM      5  C   UNL     1      19.061   3.069 -13.532  1.00  0.00     0.000 C 
BRANCH   5   6
ATOM      6  C   UNL     1      18.899   1.549 -13.713  1.00  0.00     0.000 C 
BRANCH   6   7
ATOM      7  C   UNL     1      18.236   1.174 -15.045  1.00  0.00     0.006 C 
BRANCH   7   8
ATOM      8  C   UNL     1      17.250   0.017 -14.859  1.00  0.00     0.053 C 
BRANCH   8   9
ATOM      9  C   UNL     1      17.177  -0.814 -16.100  1.00  0.00     0.041 C 
ATOM     10  O   UNL     1      16.911  -2.043 -16.025  1.00  0.00    -0.550 OA
ATOM     11  O   UNL     1      17.450  -0.244 -17.337  1.00  0.00    -0.550 OA
ENDBRANCH   8   9
ENDBRANCH   7   8
ENDBRANCH   6   7
ENDBRANCH   5   6
ENDBRANCH   4   5
ENDBRANCH   3   4
ENDBRANCH   2   3
ENDBRANCH   1   2
BRANCH   1  12
ATOM     12  C   UNL     1      21.530   7.060 -11.607  1.00  0.00     0.000 C 
BRANCH  12  13
ATOM     13  C   UNL     1      21.739   7.125 -10.085  1.00  0.00    -0.000 C 
BRANCH  13  14
ATOM     14  C   UNL     1      21.504   5.767  -9.401  1.00  0.00    -0.000 C 
BRANCH  14  15
ATOM     15  C   UNL     1      20.041   5.298  -9.493  1.00  0.00    -0.000 C 
BRANCH  15  16
ATOM     16  C   UNL     1      19.097   6.336 -10.137  1.00  0.00    -0.000 C 
BRANCH  16  17
ATOM     17  C   UNL     1      17.883   5.674 -10.813  1.00  0.00    -0.000 C 
BRANCH  17  18
ATOM     18  C   UNL     1      17.776   4.174 -10.498  1.00  0.00    -0.000 C 
BRANCH  18  19
ATOM     19  C   UNL     1      16.494   3.542 -11.057  1.00  0.00    -0.003 C 
ATOM     20  C   UNL     1      15.284   4.438 -10.803  1.00  0.00     0.004 C 
ENDBRANCH  18  19
ENDBRANCH  17  18
ENDBRANCH  16  17
ENDBRANCH  15  16
ENDBRANCH  14  15
ENDBRANCH  13  14
ENDBRANCH  12  13
ENDBRANCH   1  12
TORSDOF 16
ENDMDL
MODEL 2
REMARK VINA RESULT:    -3.212      4.448      6.633
REMARK INTER + INTRA:          -7.417
REMARK INTER:                  -6.155
REMARK INTRA:                  -1.262
REMARK UNBOUND:                -1.201
REMARK SMILES CCCCCCCCCCCCCCCCCC(=O)[O-]
REMARK SMILES IDX 10 1 11 2 12 3 13 4 14 5 15 6 16 7 17 8 18 9 19 10 20 11
REMARK SMILES IDX 9 12 8 13 7 14 6 15 5 16 4 17 3 18 2 19 1 20
REMARK H PARENT
REMARK Flexibility Score: inf
ROOT
ATOM      1  C   UNL     1      21.172   5.908 -10.478  1.00  0.00     0.000 C 
ENDROOT
BRANCH   1   2
ATOM      2  C   UNL     1      22.063   7.125 -10.773  1.00  0.00     0.000 C 
BRANCH   2   3
ATOM      3  C   UNL     1      22.759   7.032 -12.142  1.00  0.00     0.000 C 
BRANCH   3   4
ATOM      4  C   UNL     1      22.318   5.799 -12.951  1.00  0.00     0.000 C 
BRANCH   4   5
ATOM      5  C   UNL     1      23.442   4.792 -13.267  1.00  0.00     0.000 C 
BRANCH   5   6
ATOM      6  C   UNL     1      24.593   5.344 -14.128  1.00  0.00     0.000 C 
BRANCH   6   7
ATOM      7  C   UNL     1      25.785   4.381 -14.217  1.00  0.00     0.006 C 
BRANCH   7   8
ATOM      8  C   UNL     1      26.956   5.028 -14.963  1.00  0.00     0.053 C 
BRANCH   8   9
ATOM      9  C   UNL     1      28.158   4.140 -14.921  1.00  0.00     0.041 C 
ATOM     10  O   UNL     1      28.436   3.499 -13.873  1.00  0.00    -0.550 OA
ATOM     11  O   UNL     1      29.001   4.057 -16.022  1.00  0.00    -0.550 OA
ENDBRANCH   8   9
ENDBRANCH   7   8
ENDBRANCH   6   7
ENDBRANCH   5   6
ENDBRANCH   4   5
ENDBRANCH   3   4
ENDBRANCH   2   3
ENDBRANCH   1   2
BRANCH   1  12
ATOM     12  C   UNL     1      20.103   6.206  -9.412  1.00  0.00     0.000 C 
BRANCH  12  13
ATOM     13  C   UNL     1      18.912   6.995  -9.977  1.00  0.00    -0.000 C 
BRANCH  13  14
ATOM     14  C   UNL     1      18.327   6.350 -11.245  1.00  0.00    -0.000 C 
BRANCH  14  15
ATOM     15  C   UNL     1      17.564   5.046 -10.952  1.00  0.00    -0.000 C 
BRANCH  15  16
ATOM     16  C   UNL     1      18.124   3.819 -11.704  1.00  0.00    -0.000 C 
BRANCH  16  17
ATOM     17  C   UNL     1      19.357   4.174 -12.554  1.00  0.00    -0.000 C 
BRANCH  17  18
ATOM     18  C   UNL     1      19.620   3.151 -13.670  1.00  0.00    -0.000 C 
BRANCH  18  19
ATOM     19  C   UNL     1      18.701   1.925 -13.579  1.00  0.00    -0.003 C 
ATOM     20  C   UNL     1      18.543   1.254 -14.940  1.00  0.00     0.004 C 
ENDBRANCH  18  19
ENDBRANCH  17  18
ENDBRANCH  16  17
ENDBRANCH  15  16
ENDBRANCH  14  15
ENDBRANCH  13  14
ENDBRANCH  12  13
ENDBRANCH   1  12
TORSDOF 16
ENDMDL
MODEL 3
REMARK VINA RESULT:    -2.828      2.817      5.614
REMARK INTER + INTRA:          -6.675
REMARK INTER:                  -6.829
REMARK INTRA:                   0.154
REMARK UNBOUND:                -1.201
REMARK SMILES CCCCCCCCCCCCCCCCCC(=O)[O-]
REMARK SMILES IDX 10 1 11 2 12 3 13 4 14 5 15 6 16 7 17 8 18 9 19 10 20 11
REMARK SMILES IDX 9 12 8 13 7 14 6 15 5 16 4 17 3 18 2 19 1 20
REMARK H PARENT
REMARK Flexibility Score: inf
ROOT
ATOM      1  C   UNL     1      21.790   6.917 -12.186  1.00  0.00     0.000 C 
ENDROOT
BRANCH   1   2
ATOM      2  C   UNL     1      21.861   7.125 -10.664  1.00  0.00     0.000 C 
BRANCH   2   3
ATOM      3  C   UNL     1      21.538   5.844  -9.875  1.00  0.00     0.000 C 
BRANCH   3   4
ATOM      4  C   UNL     1      20.129   5.866  -9.256  1.00  0.00     0.000 C 
BRANCH   4   5
ATOM      5  C   UNL     1      19.116   6.778  -9.977  1.00  0.00     0.000 C 
BRANCH   5   6
ATOM      6  C   UNL     1      17.954   6.045 -10.672  1.00  0.00     0.000 C 
BRANCH   6   7
ATOM      7  C   UNL     1      18.338   4.638 -11.151  1.00  0.00     0.006 C 
BRANCH   7   8
ATOM      8  C   UNL     1      17.346   3.593 -10.630  1.00  0.00     0.053 C 
BRANCH   8   9
ATOM      9  C   UNL     1      15.986   4.195 -10.476  1.00  0.00     0.041 C 
ATOM     10  O   UNL     1      15.818   5.200  -9.735  1.00  0.00    -0.550 OA
ATOM     11  O   UNL     1      14.893   3.619 -11.112  1.00  0.00    -0.550 OA
ENDBRANCH   8   9
ENDBRANCH   7   8
ENDBRANCH   6   7
ENDBRANCH   5   6
ENDBRANCH   4   5
ENDBRANCH   3   4
ENDBRANCH   2   3
ENDBRANCH   1   2
BRANCH   1  12
ATOM     12  C   UNL     1      22.805   5.873 -12.685  1.00  0.00     0.000 C 
BRANCH  12  13
ATOM     13  C   UNL     1      22.128   4.599 -13.213  1.00  0.00    -0.000 C 
BRANCH  13  14
ATOM     14  C   UNL     1      20.689   4.853 -13.693  1.00  0.00    -0.000 C 
BRANCH  14  15
ATOM     15  C   UNL     1      19.738   3.686 -13.371  1.00  0.00    -0.000 C 
BRANCH  15  16
ATOM     16  C   UNL     1      19.645   2.635 -14.498  1.00  0.00    -0.000 C 
BRANCH  16  17
ATOM     17  C   UNL     1      18.594   1.552 -14.194  1.00  0.00    -0.000 C 
BRANCH  17  18
ATOM     18  C   UNL     1      18.169   0.772 -15.448  1.00  0.00    -0.000 C 
BRANCH  18  19
ATOM     19  C   UNL     1      17.276  -0.433 -15.121  1.00  0.00    -0.003 C 
ATOM     20  C   UNL     1      16.742  -1.082 -16.395  1.00  0.00     0.004 C 
ENDBRANCH  18  19
ENDBRANCH  17  18
ENDBRANCH  16  17
ENDBRANCH  15  16
ENDBRANCH  14  15
ENDBRANCH  13  14
ENDBRANCH  12  13
ENDBRANCH   1  12
TORSDOF 16
ENDMDL
MODEL 4
REMARK VINA RESULT:    -2.242      3.285      6.659
REMARK INTER + INTRA:          -5.541
REMARK INTER:                  -4.773
REMARK INTRA:                  -0.768
REMARK UNBOUND:                -1.201
REMARK SMILES CCCCCCCCCCCCCCCCCC(=O)[O-]
REMARK SMILES IDX 10 1 11 2 12 3 13 4 14 5 15 6 16 7 17 8 18 9 19 10 20 11
REMARK SMILES IDX 9 12 8 13 7 14 6 15 5 16 4 17 3 18 2 19 1 20
REMARK H PARENT
REMARK Flexibility Score: inf
ROOT
ATOM      1  C   UNL     1      20.147   6.247 -10.075  1.00  0.00     0.000 C 
ENDROOT
BRANCH   1   2
ATOM      2  C   UNL     1      19.498   7.125 -11.157  1.00  0.00     0.000 C 
BRANCH   2   3
ATOM      3  C   UNL     1      18.052   6.703 -11.474  1.00  0.00     0.000 C 
BRANCH   3   4
ATOM      4  C   UNL     1      17.428   5.840 -10.363  1.00  0.00     0.000 C 
BRANCH   4   5
ATOM      5  C   UNL     1      16.488   4.722 -10.858  1.00  0.00     0.000 C 
BRANCH   5   6
ATOM      6  C   UNL     1      16.979   3.287 -10.591  1.00  0.00     0.000 C 
BRANCH   6   7
ATOM      7  C   UNL     1      17.678   2.661 -11.806  1.00  0.00     0.006 C 
BRANCH   7   8
ATOM      8  C   UNL     1      18.782   3.581 -12.336  1.00  0.00     0.053 C 
BRANCH   8   9
ATOM      9  C   UNL     1      19.339   3.046 -13.616  1.00  0.00     0.041 C 
ATOM     10  O   UNL     1      20.279   3.649 -14.199  1.00  0.00    -0.550 OA
ATOM     11  O   UNL     1      18.789   1.908 -14.193  1.00  0.00    -0.550 OA
ENDBRANCH   8   9
ENDBRANCH   7   8
ENDBRANCH   6   7
ENDBRANCH   5   6
ENDBRANCH   4   5
ENDBRANCH   3   4
ENDBRANCH   2   3
ENDBRANCH   1   2
BRANCH   1  12
ATOM     12  C   UNL     1      21.573   5.808 -10.452  1.00  0.00     0.000 C 
BRANCH  12  13
ATOM     13  C   UNL     1      22.053   6.435 -11.771  1.00  0.00    -0.000 C 
BRANCH  13  14
ATOM     14  C   UNL     1      22.604   5.388 -12.754  1.00  0.00    -0.000 C 
BRANCH  14  15
ATOM     15  C   UNL     1      23.936   5.815 -13.395  1.00  0.00    -0.000 C 
BRANCH  15  16
ATOM     16  C   UNL     1      24.675   4.665 -14.112  1.00  0.00    -0.000 C 
BRANCH  16  17
ATOM     17  C   UNL     1      26.111   5.057 -14.506  1.00  0.00    -0.000 C 
BRANCH  17  18
ATOM     18  C   UNL     1      27.067   3.854 -14.530  1.00  0.00    -0.000 C 
BRANCH  18  19
ATOM     19  C   UNL     1      28.372   4.150 -15.281  1.00  0.00    -0.003 C 
ATOM     20  C   UNL     1      29.454   3.134 -14.923  1.00  0.00     0.004 C 
ENDBRANCH  18  19
ENDBRANCH  17  18
ENDBRANCH  16  17
ENDBRANCH  15  16
ENDBRANCH  14  15
ENDBRANCH  13  14
ENDBRANCH  12  13
ENDBRANCH   1  12
TORSDOF 16
ENDMDL
MODEL 5
REMARK VINA RESULT:    -2.220      2.553      6.123
REMARK INTER + INTRA:          -5.497
REMARK INTER:                  -4.348
REMARK INTRA:                  -1.149
REMARK UNBOUND:                -1.201
REMARK SMILES CCCCCCCCCCCCCCCCCC(=O)[O-]
REMARK SMILES IDX 10 1 11 2 12 3 13 4 14 5 15 6 16 7 17 8 18 9 19 10 20 11
REMARK SMILES IDX 9 12 8 13 7 14 6 15 5 16 4 17 3 18 2 19 1 20
REMARK H PARENT
REMARK Flexibility Score: inf
ROOT
ATOM      1  C   UNL     1      21.849   4.797 -13.538  1.00  0.00     0.000 C 
ENDROOT
BRANCH   1   2
ATOM      2  C   UNL     1      22.769   5.571 -12.580  1.00  0.00     0.000 C 
BRANCH   2   3
ATOM      3  C   UNL     1      21.997   6.545 -11.674  1.00  0.00     0.000 C 
BRANCH   3   4
ATOM      4  C   UNL     1      21.650   5.935 -10.304  1.00  0.00     0.000 C 
BRANCH   4   5
ATOM      5  C   UNL     1      20.504   6.639  -9.549  1.00  0.00     0.000 C 
BRANCH   5   6
ATOM      6  C   UNL     1      19.150   6.657 -10.282  1.00  0.00     0.000 C 
BRANCH   6   7
ATOM      7  C   UNL     1      18.428   5.304 -10.234  1.00  0.00     0.006 C 
BRANCH   7   8
ATOM      8  C   UNL     1      16.977   5.441 -10.706  1.00  0.00     0.053 C 
BRANCH   8   9
ATOM      9  C   UNL     1      16.359   4.093 -10.896  1.00  0.00     0.041 C 
ATOM     10  O   UNL     1      15.122   3.988 -11.112  1.00  0.00    -0.550 OA
ATOM     11  O   UNL     1      17.138   2.948 -10.788  1.00  0.00    -0.550 OA
ENDBRANCH   8   9
ENDBRANCH   7   8
ENDBRANCH   6   7
ENDBRANCH   5   6
ENDBRANCH   4   5
ENDBRANCH   3   4
ENDBRANCH   2   3
ENDBRANCH   1   2
BRANCH   1  12
ATOM     12  C   UNL     1      20.374   5.213 -13.400  1.00  0.00     0.000 C 
BRANCH  12  13
ATOM     13  C   UNL     1      19.453   4.022 -13.091  1.00  0.00    -0.000 C 
BRANCH  13  14
ATOM     14  C   UNL     1      19.513   2.934 -14.176  1.00  0.00    -0.000 C 
BRANCH  14  15
ATOM     15  C   UNL     1      18.686   1.687 -13.817  1.00  0.00    -0.000 C 
BRANCH  15  16
ATOM     16  C   UNL     1      18.318   0.815 -15.036  1.00  0.00    -0.000 C 
BRANCH  16  17
ATOM     17  C   UNL     1      17.247  -0.236 -14.695  1.00  0.00    -0.000 C 
BRANCH  17  18
ATOM     18  C   UNL     1      16.809  -1.053 -15.921  1.00  0.00    -0.000 C 
BRANCH  18  19
ATOM     19  C   UNL     1      17.570  -0.663 -17.195  1.00  0.00    -0.003 C 
ATOM     20  C   UNL     1      16.692   0.167 -18.127  1.00  0.00     0.004 C 
ENDBRANCH  18  19
ENDBRANCH  17  18
ENDBRANCH  16  17
ENDBRANCH  15  16
ENDBRANCH  14  15
ENDBRANCH  13  14
ENDBRANCH  12  13
ENDBRANCH   1  12
TORSDOF 16
ENDMDL
MODEL 6
REMARK VINA RESULT:    -2.105      4.456      6.934
REMARK INTER + INTRA:          -5.275
REMARK INTER:                  -3.965
REMARK INTRA:                  -1.311
REMARK UNBOUND:                -1.201
REMARK SMILES CCCCCCCCCCCCCCCCCC(=O)[O-]
REMARK SMILES IDX 10 1 11 2 12 3 13 4 14 5 15 6 16 7 17 8 18 9 19 10 20 11
REMARK SMILES IDX 9 12 8 13 7 14 6 15 5 16 4 17 3 18 2 19 1 20
REMARK H PARENT
REMARK Flexibility Score: inf
ROOT
ATOM      1  C   UNL     1      18.895   3.267 -12.998  1.00  0.00     0.000 C 
ENDROOT
BRANCH   1   2
ATOM      2  C   UNL     1      19.817   4.308 -13.651  1.00  0.00     0.000 C 
BRANCH   2   3
ATOM      3  C   UNL     1      21.135   4.500 -12.880  1.00  0.00     0.000 C 
BRANCH   3   4
ATOM      4  C   UNL     1      22.294   4.955 -13.785  1.00  0.00     0.000 C 
BRANCH   4   5
ATOM      5  C   UNL     1      23.629   5.206 -13.057  1.00  0.00     0.000 C 
BRANCH   5   6
ATOM      6  C   UNL     1      24.789   5.671 -13.957  1.00  0.00     0.000 C 
BRANCH   6   7
ATOM      7  C   UNL     1      25.714   4.521 -14.378  1.00  0.00     0.006 C 
BRANCH   7   8
ATOM      8  C   UNL     1      26.973   5.057 -15.068  1.00  0.00     0.053 C 
BRANCH   8   9
ATOM      9  C   UNL     1      28.121   4.122 -14.862  1.00  0.00     0.041 C 
ATOM     10  O   UNL     1      28.303   3.580 -13.739  1.00  0.00    -0.550 OA
ATOM     11  O   UNL     1      29.020   3.885 -15.894  1.00  0.00    -0.550 OA
ENDBRANCH   8   9
ENDBRANCH   7   8
ENDBRANCH   6   7
ENDBRANCH   5   6
ENDBRANCH   4   5
ENDBRANCH   3   4
ENDBRANCH   2   3
ENDBRANCH   1   2
BRANCH   1  12
ATOM     12  C   UNL     1      18.635   3.562 -11.510  1.00  0.00     0.000 C 
BRANCH  12  13
ATOM     13  C   UNL     1      17.145   3.480 -11.145  1.00  0.00    -0.000 C 
BRANCH  13  14
ATOM     14  C   UNL     1      16.502   4.868 -10.980  1.00  0.00    -0.000 C 
BRANCH  14  15
ATOM     15  C   UNL     1      17.474   5.911 -10.401  1.00  0.00    -0.000 C 
BRANCH  15  16
ATOM     16  C   UNL     1      18.296   6.655 -11.475  1.00  0.00    -0.000 C 
BRANCH  16  17
ATOM     17  C   UNL     1      19.696   7.043 -10.968  1.00  0.00    -0.000 C 
BRANCH  17  18
ATOM     18  C   UNL     1      20.010   6.448  -9.586  1.00  0.00    -0.000 C 
BRANCH  18  19
ATOM     19  C   UNL     1      21.516   6.281  -9.342  1.00  0.00    -0.003 C 
ATOM     20  C   UNL     1      21.843   4.865  -8.876  1.00  0.00     0.004 C 
ENDBRANCH  18  19
ENDBRANCH  17  18
ENDBRANCH  16  17
ENDBRANCH  15  16
ENDBRANCH  14  15
ENDBRANCH  13  14
ENDBRANCH  12  13
ENDBRANCH   1  12
TORSDOF 16
ENDMDL
MODEL 7
REMARK VINA RESULT:    -1.940      4.274      7.684
REMARK INTER + INTRA:          -4.957
REMARK INTER:                  -3.880
REMARK INTRA:                  -1.077
REMARK UNBOUND:                -1.201
REMARK SMILES CCCCCCCCCCCCCCCCCC(=O)[O-]
REMARK SMILES IDX 10 1 11 2 12 3 13 4 14 5 15 6 16 7 17 8 18 9 19 10 20 11
REMARK SMILES IDX 9 12 8 13 7 14 6 15 5 16 4 17 3 18 2 19 1 20
REMARK H PARENT
REMARK Flexibility Score: inf
ROOT
ATOM      1  C   UNL     1      20.400   3.619 -13.558  1.00  0.00     0.000 C 
ENDROOT
BRANCH   1   2
ATOM      2  C   UNL     1      19.272   2.616 -13.847  1.00  0.00     0.000 C 
BRANCH   2   3
ATOM      3  C   UNL     1      18.253   2.522 -12.698  1.00  0.00     0.000 C 
BRANCH   3   4
ATOM      4  C   UNL     1      18.471   3.601 -11.621  1.00  0.00     0.000 C 
BRANCH   4   5
ATOM      5  C   UNL     1      17.214   3.974 -10.809  1.00  0.00     0.000 C 
BRANCH   5   6
ATOM      6  C   UNL     1      16.993   5.483 -10.600  1.00  0.00     0.000 C 
BRANCH   6   7
ATOM      7  C   UNL     1      18.212   6.325 -11.000  1.00  0.00     0.006 C 
BRANCH   7   8
ATOM      8  C   UNL     1      18.860   6.968  -9.770  1.00  0.00     0.053 C 
BRANCH   8   9
ATOM      9  C   UNL     1      20.237   6.424  -9.560  1.00  0.00     0.041 C 
ATOM     10  O   UNL     1      21.245   7.117  -9.860  1.00  0.00    -0.550 OA
ATOM     11  O   UNL     1      20.409   5.133  -9.078  1.00  0.00    -0.550 OA
ENDBRANCH   8   9
ENDBRANCH   7   8
ENDBRANCH   6   7
ENDBRANCH   5   6
ENDBRANCH   4   5
ENDBRANCH   3   4
ENDBRANCH   2   3
ENDBRANCH   1   2
BRANCH   1  12
ATOM     12  C   UNL     1      19.977   5.074 -13.828  1.00  0.00     0.000 C 
BRANCH  12  13
ATOM     13  C   UNL     1      20.982   6.093 -13.268  1.00  0.00    -0.000 C 
BRANCH  13  14
ATOM     14  C   UNL     1      22.110   5.425 -12.463  1.00  0.00    -0.000 C 
BRANCH  14  15
ATOM     15  C   UNL     1      23.511   5.798 -12.979  1.00  0.00    -0.000 C 
BRANCH  15  16
ATOM     16  C   UNL     1      24.155   4.709 -13.864  1.00  0.00    -0.000 C 
BRANCH  16  17
ATOM     17  C   UNL     1      25.471   5.186 -14.504  1.00  0.00    -0.000 C 
BRANCH  17  18
ATOM     18  C   UNL     1      26.521   4.068 -14.603  1.00  0.00    -0.000 C 
BRANCH  18  19
ATOM     19  C   UNL     1      27.948   4.610 -14.760  1.00  0.00    -0.003 C 
ATOM     20  C   UNL     1      28.814   3.647 -15.568  1.00  0.00     0.004 C 
ENDBRANCH  18  19
ENDBRANCH  17  18
ENDBRANCH  16  17
ENDBRANCH  15  16
ENDBRANCH  14  15
ENDBRANCH  13  14
ENDBRANCH  12  13
ENDBRANCH   1  12
TORSDOF 16
ENDMDL
MODEL 8
REMARK VINA RESULT:    -1.818      2.019      5.110
REMARK INTER + INTRA:          -4.719
REMARK INTER:                  -3.680
REMARK INTRA:                  -1.040
REMARK UNBOUND:                -1.201
REMARK SMILES CCCCCCCCCCCCCCCCCC(=O)[O-]
REMARK SMILES IDX 10 1 11 2 12 3 13 4 14 5 15 6 16 7 17 8 18 9 19 10 20 11
REMARK SMILES IDX 9 12 8 13 7 14 6 15 5 16 4 17 3 18 2 19 1 20
REMARK H PARENT
REMARK Flexibility Score: inf
ROOT
ATOM      1  C   UNL     1      20.107   5.271  -9.976  1.00  0.00     0.000 C 
ENDROOT
BRANCH   1   2
ATOM      2  C   UNL     1      18.689   5.659 -10.427  1.00  0.00     0.000 C 
BRANCH   2   3
ATOM      3  C   UNL     1      18.269   4.956 -11.730  1.00  0.00     0.000 C 
BRANCH   3   4
ATOM      4  C   UNL     1      17.513   3.639 -11.478  1.00  0.00     0.000 C 
BRANCH   4   5
ATOM      5  C   UNL     1      18.102   2.404 -12.187  1.00  0.00     0.000 C 
BRANCH   5   6
ATOM      6  C   UNL     1      19.040   2.712 -13.368  1.00  0.00     0.000 C 
BRANCH   6   7
ATOM      7  C   UNL     1      18.753   1.842 -14.600  1.00  0.00     0.006 C 
BRANCH   7   8
ATOM      8  C   UNL     1      17.893   0.631 -14.226  1.00  0.00     0.053 C 
BRANCH   8   9
ATOM      9  C   UNL     1      17.358  -0.030 -15.456  1.00  0.00     0.041 C 
ATOM     10  O   UNL     1      17.173  -1.276 -15.476  1.00  0.00    -0.550 OA
ATOM     11  O   UNL     1      17.107   0.721 -16.597  1.00  0.00    -0.550 OA
ENDBRANCH   8   9
ENDBRANCH   7   8
ENDBRANCH   6   7
ENDBRANCH   5   6
ENDBRANCH   4   5
ENDBRANCH   3   4
ENDBRANCH   2   3
ENDBRANCH   1   2
BRANCH   1  12
ATOM     12  C   UNL     1      20.984   6.499  -9.674  1.00  0.00     0.000 C 
BRANCH  12  13
ATOM     13  C   UNL     1      21.981   6.802 -10.803  1.00  0.00    -0.000 C 
BRANCH  13  14
ATOM     14  C   UNL     1      21.331   6.735 -12.196  1.00  0.00    -0.000 C 
BRANCH  14  15
ATOM     15  C   UNL     1      21.721   5.467 -12.976  1.00  0.00    -0.000 C 
BRANCH  15  16
ATOM     16  C   UNL     1      23.154   4.975 -12.679  1.00  0.00    -0.000 C 
BRANCH  16  17
ATOM     17  C   UNL     1      24.175   5.518 -13.696  1.00  0.00    -0.000 C 
BRANCH  17  18
ATOM     18  C   UNL     1      25.250   4.483 -14.065  1.00  0.00    -0.000 C 
BRANCH  18  19
ATOM     19  C   UNL     1      26.445   5.108 -14.797  1.00  0.00    -0.003 C 
ATOM     20  C   UNL     1      27.671   4.201 -14.719  1.00  0.00     0.004 C 
ENDBRANCH  18  19
ENDBRANCH  17  18
ENDBRANCH  16  17
ENDBRANCH  15  16
ENDBRANCH  14  15
ENDBRANCH  13  14
ENDBRANCH  12  13
ENDBRANCH   1  12
TORSDOF 16
ENDMDL
