MODEL 1
REMARK VINA RESULT:    -5.263      0.000      0.000
REMARK INTER + INTRA:         -10.935
REMARK INTER:                  -9.571
REMARK INTRA:                  -1.364
REMARK UNBOUND:                -1.364
REMARK SMILES CCCCCCCCCCCCCCCC(=O)[O-]
REMARK SMILES IDX 9 1 10 2 11 3 12 4 13 5 14 6 15 7 16 8 17 9 18 10 8 11 7 12
REMARK SMILES IDX 6 13 5 14 4 15 3 16 2 17 1 18
REMARK H PARENT
REMARK Flexibility Score: inf
ROOT
ATOM      1  C   UNL     1      75.605  11.396  19.085  1.00  0.00     0.000 C 
ENDROOT
BRANCH   1   2
ATOM      2  C   UNL     1      74.304  12.065  19.561  1.00  0.00     0.000 C 
BRANCH   2   3
ATOM      3  C   UNL     1      73.804  13.150  18.592  1.00  0.00     0.000 C 
BRANCH   3   4
ATOM      4  C   UNL     1      74.897  13.621  17.621  1.00  0.00     0.000 C 
BRANCH   4   5
ATOM      5  C   UNL     1      75.504  14.975  18.028  1.00  0.00     0.000 C 
BRANCH   5   6
ATOM      6  C   UNL     1      76.551  15.481  17.022  1.00  0.00     0.006 C 
BRANCH   6   7
ATOM      7  C   UNL     1      76.064  15.390  15.570  1.00  0.00     0.053 C 
BRANCH   7   8
ATOM      8  C   UNL     1      75.251  16.595  15.216  1.00  0.00     0.041 C 
ATOM      9  O   UNL     1      73.992  16.545  15.261  1.00  0.00    -0.550 OA
ATOM     10  O   UNL     1      75.881  17.787  14.886  1.00  0.00    -0.550 OA
ENDBRANCH   7   8
ENDBRANCH   6   7
ENDBRANCH   5   6
ENDBRANCH   4   5
ENDBRANCH   3   4
ENDBRANCH   2   3
ENDBRANCH   1   2
BRANCH   1  11
ATOM     11  C   UNL     1      76.763  11.434  20.102  1.00  0.00     0.000 C 
BRANCH  11  12
ATOM     12  C   UNL     1      78.081  12.033  19.574  1.00  0.00    -0.000 C 
BRANCH  12  13
ATOM     13  C   UNL     1      78.408  13.444  20.096  1.00  0.00    -0.000 C 
BRANCH  13  14
ATOM     14  C   UNL     1      79.709  14.011  19.509  1.00  0.00    -0.000 C 
BRANCH  14  15
ATOM     15  C   UNL     1      80.477  14.823  20.562  1.00  0.00    -0.000 C 
BRANCH  15  16
ATOM     16  C   UNL     1      81.770  14.130  21.028  1.00  0.00    -0.000 C 
BRANCH  16  17
ATOM     17  C   UNL     1      82.664  13.599  19.894  1.00  0.00    -0.003 C 
ATOM     18  C   UNL     1      82.866  12.086  19.950  1.00  0.00     0.004 C 
ENDBRANCH  16  17
ENDBRANCH  15  16
ENDBRANCH  14  15
ENDBRANCH  13  14
ENDBRANCH  12  13
ENDBRANCH  11  12
ENDBRANCH   1  11
TORSDOF 14
ENDMDL
MODEL 2
REMARK VINA RESULT:    -5.237      1.327      2.273
REMARK INTER + INTRA:         -10.887
REMARK INTER:                  -9.287
REMARK INTRA:                  -1.600
REMARK UNBOUND:                -1.364
REMARK SMILES CCCCCCCCCCCCCCCC(=O)[O-]
REMARK SMILES IDX 9 1 10 2 11 3 12 4 13 5 14 6 15 7 16 8 17 9 18 10 8 11 7 12
REMARK SMILES IDX 6 13 5 14 4 15 3 16 2 17 1 18
REMARK H PARENT
REMARK Flexibility Score: inf
ROOT
ATOM      1  C   UNL     1      74.097  12.099  19.447  1.00  0.00     0.000 C 
ENDROOT
BRANCH   1   2
ATOM      2  C   UNL     1      73.698  13.094  18.343  1.00  0.00     0.000 C 
BRANCH   2   3
ATOM      3  C   UNL     1      74.726  13.159  17.200  1.00  0.00     0.000 C 
BRANCH   3   4
ATOM      4  C   UNL     1      75.029  14.600  16.762  1.00  0.00     0.000 C 
BRANCH   4   5
ATOM      5  C   UNL     1      75.920  15.346  17.771  1.00  0.00     0.000 C 
BRANCH   5   6
ATOM      6  C   UNL     1      77.186  15.930  17.123  1.00  0.00     0.006 C 
BRANCH   6   7
ATOM      7  C   UNL     1      77.096  15.976  15.592  1.00  0.00     0.053 C 
BRANCH   7   8
ATOM      8  C   UNL     1      76.766  17.360  15.130  1.00  0.00     0.041 C 
ATOM      9  O   UNL     1      77.684  18.140  14.759  1.00  0.00    -0.550 OA
ATOM     10  O   UNL     1      75.443  17.774  15.061  1.00  0.00    -0.550 OA
ENDBRANCH   7   8
ENDBRANCH   6   7
ENDBRANCH   5   6
ENDBRANCH   4   5
ENDBRANCH   3   4
ENDBRANCH   2   3
ENDBRANCH   1   2
BRANCH   1  11
ATOM     11  C   UNL     1      75.502  11.484  19.287  1.00  0.00     0.000 C 
BRANCH  11  12
ATOM     12  C   UNL     1      76.532  11.918  20.350  1.00  0.00    -0.000 C 
BRANCH  12  13
ATOM     13  C   UNL     1      77.991  11.964  19.858  1.00  0.00    -0.000 C 
BRANCH  13  14
ATOM     14  C   UNL     1      78.461  13.386  19.521  1.00  0.00    -0.000 C 
BRANCH  14  15
ATOM     15  C   UNL     1      79.962  13.547  19.800  1.00  0.00    -0.000 C 
BRANCH  15  16
ATOM     16  C   UNL     1      80.287  14.802  20.631  1.00  0.00    -0.000 C 
BRANCH  16  17
ATOM     17  C   UNL     1      79.567  16.083  20.175  1.00  0.00    -0.003 C 
ATOM     18  C   UNL     1      80.371  16.891  19.157  1.00  0.00     0.004 C 
ENDBRANCH  16  17
ENDBRANCH  15  16
ENDBRANCH  14  15
ENDBRANCH  13  14
ENDBRANCH  12  13
ENDBRANCH  11  12
ENDBRANCH   1  11
TORSDOF 14
ENDMDL
MODEL 3
REMARK VINA RESULT:    -5.235      3.107      5.769
REMARK INTER + INTRA:         -10.884
REMARK INTER:                  -8.696
REMARK INTRA:                  -2.187
REMARK UNBOUND:                -1.364
REMARK SMILES CCCCCCCCCCCCCCCC(=O)[O-]
REMARK SMILES IDX 9 1 10 2 11 3 12 4 13 5 14 6 15 7 16 8 17 9 18 10 8 11 7 12
REMARK SMILES IDX 6 13 5 14 4 15 3 16 2 17 1 18
REMARK H PARENT
REMARK Flexibility Score: inf
ROOT
ATOM      1  C   UNL     1      75.504  12.013  20.032  1.00  0.00     0.000 C 
ENDROOT
BRANCH   1   2
ATOM      2  C   UNL     1      76.518  10.937  19.602  1.00  0.00     0.000 C 
BRANCH   2   3
ATOM      3  C   UNL     1      77.941  11.495  19.433  1.00  0.00     0.000 C 
BRANCH   3   4
ATOM      4  C   UNL     1      78.013  13.010  19.681  1.00  0.00     0.000 C 
BRANCH   4   5
ATOM      5  C   UNL     1      78.369  13.799  18.409  1.00  0.00     0.000 C 
BRANCH   5   6
ATOM      6  C   UNL     1      77.904  15.263  18.471  1.00  0.00     0.006 C 
BRANCH   6   7
ATOM      7  C   UNL     1      79.036  16.253  18.169  1.00  0.00     0.053 C 
BRANCH   7   8
ATOM      8  C   UNL     1      80.036  16.258  19.283  1.00  0.00     0.041 C 
ATOM      9  O   UNL     1      79.649  16.297  20.481  1.00  0.00    -0.550 OA
ATOM     10  O   UNL     1      81.392  16.169  19.000  1.00  0.00    -0.550 OA
ENDBRANCH   7   8
ENDBRANCH   6   7
ENDBRANCH   5   6
ENDBRANCH   4   5
ENDBRANCH   3   4
ENDBRANCH   2   3
ENDBRANCH   1   2
BRANCH   1  11
ATOM     11  C   UNL     1      74.114  11.891  19.378  1.00  0.00     0.000 C 
BRANCH  11  12
ATOM     12  C   UNL     1      73.643  13.138  18.603  1.00  0.00    -0.000 C 
BRANCH  12  13
ATOM     13  C   UNL     1      74.734  13.837  17.772  1.00  0.00    -0.000 C 
BRANCH  13  14
ATOM     14  C   UNL     1      75.160  13.023  16.542  1.00  0.00    -0.000 C 
BRANCH  14  15
ATOM     15  C   UNL     1      75.937  13.898  15.547  1.00  0.00    -0.000 C 
BRANCH  15  16
ATOM     16  C   UNL     1      75.161  15.157  15.121  1.00  0.00    -0.000 C 
BRANCH  16  17
ATOM     17  C   UNL     1      75.918  16.482  15.322  1.00  0.00    -0.003 C 
ATOM     18  C   UNL     1      75.298  17.368  16.402  1.00  0.00     0.004 C 
ENDBRANCH  16  17
ENDBRANCH  15  16
ENDBRANCH  14  15
ENDBRANCH  13  14
ENDBRANCH  12  13
ENDBRANCH  11  12
ENDBRANCH   1  11
TORSDOF 14
ENDMDL
MODEL 4
REMARK VINA RESULT:    -5.169      1.589      2.173
REMARK INTER + INTRA:         -10.763
REMARK INTER:                  -8.738
REMARK INTRA:                  -2.025
REMARK UNBOUND:                -1.364
REMARK SMILES CCCCCCCCCCCCCCCC(=O)[O-]
REMARK SMILES IDX 9 1 10 2 11 3 12 4 13 5 14 6 15 7 16 8 17 9 18 10 8 11 7 12
REMARK SMILES IDX 6 13 5 14 4 15 3 16 2 17 1 18
REMARK H PARENT
REMARK Flexibility Score: inf
ROOT
ATOM      1  C   UNL     1      77.060  11.161  19.958  1.00  0.00     0.000 C 
ENDROOT
BRANCH   1   2
ATOM      2  C   UNL     1      75.876  11.190  18.974  1.00  0.00     0.000 C 
BRANCH   2   3
ATOM      3  C   UNL     1      74.659  11.948  19.530  1.00  0.00     0.000 C 
BRANCH   3   4
ATOM      4  C   UNL     1      73.976  12.823  18.468  1.00  0.00     0.000 C 
BRANCH   4   5
ATOM      5  C   UNL     1      74.632  14.208  18.335  1.00  0.00     0.000 C 
BRANCH   5   6
ATOM      6  C   UNL     1      74.691  14.698  16.879  1.00  0.00     0.006 C 
BRANCH   6   7
ATOM      7  C   UNL     1      75.343  13.675  15.940  1.00  0.00     0.053 C 
BRANCH   7   8
ATOM      8  C   UNL     1      76.334  14.347  15.044  1.00  0.00     0.041 C 
ATOM      9  O   UNL     1      77.048  13.662  14.262  1.00  0.00    -0.550 OA
ATOM     10  O   UNL     1      76.435  15.732  15.033  1.00  0.00    -0.550 OA
ENDBRANCH   7   8
ENDBRANCH   6   7
ENDBRANCH   5   6
ENDBRANCH   4   5
ENDBRANCH   3   4
ENDBRANCH   2   3
ENDBRANCH   1   2
BRANCH   1  11
ATOM     11  C   UNL     1      78.355  11.810  19.431  1.00  0.00     0.000 C 
BRANCH  11  12
ATOM     12  C   UNL     1      78.261  12.405  18.011  1.00  0.00    -0.000 C 
BRANCH  12  13
ATOM     13  C   UNL     1      78.352  13.940  17.944  1.00  0.00    -0.000 C 
BRANCH  13  14
ATOM     14  C   UNL     1      78.302  14.601  19.329  1.00  0.00    -0.000 C 
BRANCH  14  15
ATOM     15  C   UNL     1      79.104  15.910  19.340  1.00  0.00    -0.000 C 
BRANCH  15  16
ATOM     16  C   UNL     1      80.458  15.778  20.061  1.00  0.00    -0.000 C 
BRANCH  16  17
ATOM     17  C   UNL     1      80.614  14.507  20.914  1.00  0.00    -0.003 C 
ATOM     18  C   UNL     1      82.065  14.044  21.037  1.00  0.00     0.004 C 
ENDBRANCH  16  17
ENDBRANCH  15  16
ENDBRANCH  14  15
ENDBRANCH  13  14
ENDBRANCH  12  13
ENDBRANCH  11  12
ENDBRANCH   1  11
TORSDOF 14
ENDMDL
MODEL 5
REMARK VINA RESULT:    -5.130      3.171      5.890
REMARK INTER + INTRA:         -10.693
REMARK INTER:                  -8.000
REMARK INTRA:                  -2.694
REMARK UNBOUND:                -1.364
REMARK SMILES CCCCCCCCCCCCCCCC(=O)[O-]
REMARK SMILES IDX 9 1 10 2 11 3 12 4 13 5 14 6 15 7 16 8 17 9 18 10 8 11 7 12
REMARK SMILES IDX 6 13 5 14 4 15 3 16 2 17 1 18
REMARK H PARENT
REMARK Flexibility Score: inf
ROOT
ATOM      1  C   UNL     1      77.669  10.355  17.836  1.00  0.00     0.000 C 
ENDROOT
BRANCH   1   2
ATOM      2  C   UNL     1      77.055  10.943  16.554  1.00  0.00     0.000 C 
BRANCH   2   3
ATOM      3  C   UNL     1      77.589  12.349  16.230  1.00  0.00     0.000 C 
BRANCH   3   4
ATOM      4  C   UNL     1      78.550  12.876  17.307  1.00  0.00     0.000 C 
BRANCH   4   5
ATOM      5  C   UNL     1      78.436  14.398  17.504  1.00  0.00     0.000 C 
BRANCH   5   6
ATOM      6  C   UNL     1      78.271  14.793  18.980  1.00  0.00     0.006 C 
BRANCH   6   7
ATOM      7  C   UNL     1      79.208  14.009  19.907  1.00  0.00     0.053 C 
BRANCH   7   8
ATOM      8  C   UNL     1      80.276  14.905  20.449  1.00  0.00     0.041 C 
ATOM      9  O   UNL     1      80.210  16.150  20.269  1.00  0.00    -0.550 OA
ATOM     10  O   UNL     1      81.319  14.373  21.196  1.00  0.00    -0.550 OA
ENDBRANCH   7   8
ENDBRANCH   6   7
ENDBRANCH   5   6
ENDBRANCH   4   5
ENDBRANCH   3   4
ENDBRANCH   2   3
ENDBRANCH   1   2
BRANCH   1  11
ATOM     11  C   UNL     1      76.656  10.045  18.956  1.00  0.00     0.000 C 
BRANCH  11  12
ATOM     12  C   UNL     1      76.617  11.069  20.108  1.00  0.00    -0.000 C 
BRANCH  12  13
ATOM     13  C   UNL     1      75.705  12.286  19.864  1.00  0.00    -0.000 C 
BRANCH  13  14
ATOM     14  C   UNL     1      74.324  11.896  19.318  1.00  0.00    -0.000 C 
BRANCH  14  15
ATOM     15  C   UNL     1      73.855  12.894  18.250  1.00  0.00    -0.000 C 
BRANCH  15  16
ATOM     16  C   UNL     1      74.825  14.075  18.064  1.00  0.00    -0.000 C 
BRANCH  16  17
ATOM     17  C   UNL     1      74.802  14.717  16.666  1.00  0.00    -0.003 C 
ATOM     18  C   UNL     1      75.259  16.174  16.669  1.00  0.00     0.004 C 
ENDBRANCH  16  17
ENDBRANCH  15  16
ENDBRANCH  14  15
ENDBRANCH  13  14
ENDBRANCH  12  13
ENDBRANCH  11  12
ENDBRANCH   1  11
TORSDOF 14
ENDMDL
MODEL 6
REMARK VINA RESULT:    -5.126      3.332      6.325
REMARK INTER + INTRA:         -10.686
REMARK INTER:                  -8.925
REMARK INTRA:                  -1.761
REMARK UNBOUND:                -1.364
REMARK SMILES CCCCCCCCCCCCCCCC(=O)[O-]
REMARK SMILES IDX 9 1 10 2 11 3 12 4 13 5 14 6 15 7 16 8 17 9 18 10 8 11 7 12
REMARK SMILES IDX 6 13 5 14 4 15 3 16 2 17 1 18
REMARK H PARENT
REMARK Flexibility Score: inf
ROOT
ATOM      1  C   UNL     1      76.536  15.337  16.998  1.00  0.00     0.000 C 
ENDROOT
BRANCH   1   2
ATOM      2  C   UNL     1      77.555  14.355  17.604  1.00  0.00     0.000 C 
BRANCH   2   3
ATOM      3  C   UNL     1      78.063  14.802  18.984  1.00  0.00     0.000 C 
BRANCH   3   4
ATOM      4  C   UNL     1      78.981  16.032  18.904  1.00  0.00     0.000 C 
BRANCH   4   5
ATOM      5  C   UNL     1      80.052  16.041  20.010  1.00  0.00     0.000 C 
BRANCH   5   6
ATOM      6  C   UNL     1      80.171  14.688  20.729  1.00  0.00     0.006 C 
BRANCH   6   7
ATOM      7  C   UNL     1      81.624  14.208  20.843  1.00  0.00     0.053 C 
BRANCH   7   8
ATOM      8  C   UNL     1      81.861  13.042  19.936  1.00  0.00     0.041 C 
ATOM      9  O   UNL     1      82.987  12.477  19.913  1.00  0.00    -0.550 OA
ATOM     10  O   UNL     1      80.826  12.547  19.154  1.00  0.00    -0.550 OA
ENDBRANCH   7   8
ENDBRANCH   6   7
ENDBRANCH   5   6
ENDBRANCH   4   5
ENDBRANCH   3   4
ENDBRANCH   2   3
ENDBRANCH   1   2
BRANCH   1  11
ATOM     11  C   UNL     1      75.068  14.872  17.068  1.00  0.00     0.000 C 
BRANCH  11  12
ATOM     12  C   UNL     1      74.866  13.393  17.453  1.00  0.00    -0.000 C 
BRANCH  12  13
ATOM     13  C   UNL     1      74.003  13.161  18.707  1.00  0.00    -0.000 C 
BRANCH  13  14
ATOM     14  C   UNL     1      74.430  11.920  19.504  1.00  0.00    -0.000 C 
BRANCH  14  15
ATOM     15  C   UNL     1      75.840  12.101  20.084  1.00  0.00    -0.000 C 
BRANCH  15  16
ATOM     16  C   UNL     1      76.700  10.829  19.977  1.00  0.00    -0.000 C 
BRANCH  16  17
ATOM     17  C   UNL     1      76.486  10.010  18.692  1.00  0.00    -0.003 C 
ATOM     18  C   UNL     1      77.259  10.563  17.495  1.00  0.00     0.004 C 
ENDBRANCH  16  17
ENDBRANCH  15  16
ENDBRANCH  14  15
ENDBRANCH  13  14
ENDBRANCH  12  13
ENDBRANCH  11  12
ENDBRANCH   1  11
TORSDOF 14
ENDMDL
MODEL 7
REMARK VINA RESULT:    -5.101      2.718      4.744
REMARK INTER + INTRA:         -10.641
REMARK INTER:                  -8.738
REMARK INTRA:                  -1.903
REMARK UNBOUND:                -1.364
REMARK SMILES CCCCCCCCCCCCCCCC(=O)[O-]
REMARK SMILES IDX 9 1 10 2 11 3 12 4 13 5 14 6 15 7 16 8 17 9 18 10 8 11 7 12
REMARK SMILES IDX 6 13 5 14 4 15 3 16 2 17 1 18
REMARK H PARENT
REMARK Flexibility Score: inf
ROOT
ATOM      1  C   UNL     1      75.444  13.889  15.652  1.00  0.00     0.000 C 
ENDROOT
BRANCH   1   2
ATOM      2  C   UNL     1      75.475  15.222  14.883  1.00  0.00     0.000 C 
BRANCH   2   3
ATOM      3  C   UNL     1      74.428  16.227  15.391  1.00  0.00     0.000 C 
BRANCH   3   4
ATOM      4  C   UNL     1      75.066  17.474  16.023  1.00  0.00     0.000 C 
BRANCH   4   5
ATOM      5  C   UNL     1      76.239  18.021  15.190  1.00  0.00     0.000 C 
BRANCH   5   6
ATOM      6  C   UNL     1      77.487  18.304  16.041  1.00  0.00     0.006 C 
BRANCH   6   7
ATOM      7  C   UNL     1      78.375  17.065  16.216  1.00  0.00     0.053 C 
BRANCH   7   8
ATOM      8  C   UNL     1      78.916  17.003  17.609  1.00  0.00     0.041 C 
ATOM      9  O   UNL     1      78.792  15.950  18.290  1.00  0.00    -0.550 OA
ATOM     10  O   UNL     1      79.600  18.089  18.138  1.00  0.00    -0.550 OA
ENDBRANCH   7   8
ENDBRANCH   6   7
ENDBRANCH   5   6
ENDBRANCH   4   5
ENDBRANCH   3   4
ENDBRANCH   2   3
ENDBRANCH   1   2
BRANCH   1  11
ATOM     11  C   UNL     1      76.205  13.897  16.993  1.00  0.00     0.000 C 
BRANCH  11  12
ATOM     12  C   UNL     1      75.369  14.309  18.221  1.00  0.00    -0.000 C 
BRANCH  12  13
ATOM     13  C   UNL     1      74.136  13.427  18.492  1.00  0.00    -0.000 C 
BRANCH  13  14
ATOM     14  C   UNL     1      74.507  11.997  18.909  1.00  0.00    -0.000 C 
BRANCH  14  15
ATOM     15  C   UNL     1      75.411  12.006  20.151  1.00  0.00    -0.000 C 
BRANCH  15  16
ATOM     16  C   UNL     1      76.557  10.982  20.066  1.00  0.00    -0.000 C 
BRANCH  16  17
ATOM     17  C   UNL     1      77.838  11.499  19.387  1.00  0.00    -0.003 C 
ATOM     18  C   UNL     1      78.321  12.831  19.958  1.00  0.00     0.004 C 
ENDBRANCH  16  17
ENDBRANCH  15  16
ENDBRANCH  14  15
ENDBRANCH  13  14
ENDBRANCH  12  13
ENDBRANCH  11  12
ENDBRANCH   1  11
TORSDOF 14
ENDMDL
MODEL 8
REMARK VINA RESULT:    -5.054      3.406      6.519
REMARK INTER + INTRA:         -10.555
REMARK INTER:                  -8.606
REMARK INTRA:                  -1.950
REMARK UNBOUND:                -1.364
REMARK SMILES CCCCCCCCCCCCCCCC(=O)[O-]
REMARK SMILES IDX 9 1 10 2 11 3 12 4 13 5 14 6 15 7 16 8 17 9 18 10 8 11 7 12
REMARK SMILES IDX 6 13 5 14 4 15 3 16 2 17 1 18
REMARK H PARENT
REMARK Flexibility Score: inf
ROOT
ATOM      1  C   UNL     1      77.349  12.457  20.184  1.00  0.00     0.000 C 
ENDROOT
BRANCH   1   2
ATOM      2  C   UNL     1      78.556  13.001  19.399  1.00  0.00     0.000 C 
BRANCH   2   3
ATOM      3  C   UNL     1      78.458  14.512  19.129  1.00  0.00     0.000 C 
BRANCH   3   4
ATOM      4  C   UNL     1      79.574  15.308  19.824  1.00  0.00     0.000 C 
BRANCH   4   5
ATOM      5  C   UNL     1      80.170  14.557  21.028  1.00  0.00     0.000 C 
BRANCH   5   6
ATOM      6  C   UNL     1      81.688  14.346  20.901  1.00  0.00     0.006 C 
BRANCH   6   7
ATOM      7  C   UNL     1      82.218  14.713  19.509  1.00  0.00     0.053 C 
BRANCH   7   8
ATOM      8  C   UNL     1      82.630  13.481  18.766  1.00  0.00     0.041 C 
ATOM      9  O   UNL     1      83.549  13.538  17.905  1.00  0.00    -0.550 OA
ATOM     10  O   UNL     1      82.034  12.262  19.058  1.00  0.00    -0.550 OA
ENDBRANCH   7   8
ENDBRANCH   6   7
ENDBRANCH   5   6
ENDBRANCH   4   5
ENDBRANCH   3   4
ENDBRANCH   2   3
ENDBRANCH   1   2
BRANCH   1  11
ATOM     11  C   UNL     1      76.865  11.062  19.742  1.00  0.00     0.000 C 
BRANCH  11  12
ATOM     12  C   UNL     1      75.509  11.040  19.009  1.00  0.00    -0.000 C 
BRANCH  12  13
ATOM     13  C   UNL     1      74.479  12.064  19.519  1.00  0.00    -0.000 C 
BRANCH  13  14
ATOM     14  C   UNL     1      73.899  12.936  18.397  1.00  0.00    -0.000 C 
BRANCH  14  15
ATOM     15  C   UNL     1      74.709  14.231  18.235  1.00  0.00    -0.000 C 
BRANCH  15  16
ATOM     16  C   UNL     1      75.521  14.271  16.928  1.00  0.00    -0.000 C 
BRANCH  16  17
ATOM     17  C   UNL     1      75.181  13.158  15.922  1.00  0.00    -0.003 C 
ATOM     18  C   UNL     1      76.358  12.224  15.643  1.00  0.00     0.004 C 
ENDBRANCH  16  17
ENDBRANCH  15  16
ENDBRANCH  14  15
ENDBRANCH  13  14
ENDBRANCH  12  13
ENDBRANCH  11  12
ENDBRANCH   1  11
TORSDOF 14
ENDMDL
MODEL 9
REMARK VINA RESULT:    -5.020      1.189      2.162
REMARK INTER + INTRA:         -10.492
REMARK INTER:                  -8.902
REMARK INTRA:                  -1.591
REMARK UNBOUND:                -1.364
REMARK SMILES CCCCCCCCCCCCCCCC(=O)[O-]
REMARK SMILES IDX 9 1 10 2 11 3 12 4 13 5 14 6 15 7 16 8 17 9 18 10 8 11 7 12
REMARK SMILES IDX 6 13 5 14 4 15 3 16 2 17 1 18
REMARK H PARENT
REMARK Flexibility Score: inf
ROOT
ATOM      1  C   UNL     1      77.982  11.070  19.094  1.00  0.00     0.000 C 
ENDROOT
BRANCH   1   2
ATOM      2  C   UNL     1      76.855  10.801  20.107  1.00  0.00     0.000 C 
BRANCH   2   3
ATOM      3  C   UNL     1      75.877  11.981  20.237  1.00  0.00     0.000 C 
BRANCH   3   4
ATOM      4  C   UNL     1      74.621  11.802  19.372  1.00  0.00     0.000 C 
BRANCH   4   5
ATOM      5  C   UNL     1      74.141  13.126  18.750  1.00  0.00     0.000 C 
BRANCH   5   6
ATOM      6  C   UNL     1      74.686  13.344  17.330  1.00  0.00     0.006 C 
BRANCH   6   7
ATOM      7  C   UNL     1      75.160  14.784  17.095  1.00  0.00     0.053 C 
BRANCH   7   8
ATOM      8  C   UNL     1      75.168  15.099  15.633  1.00  0.00     0.041 C 
ATOM      9  O   UNL     1      75.618  14.262  14.807  1.00  0.00    -0.550 OA
ATOM     10  O   UNL     1      74.632  16.296  15.177  1.00  0.00    -0.550 OA
ENDBRANCH   7   8
ENDBRANCH   6   7
ENDBRANCH   5   6
ENDBRANCH   4   5
ENDBRANCH   3   4
ENDBRANCH   2   3
ENDBRANCH   1   2
BRANCH   1  11
ATOM     11  C   UNL     1      78.697  12.424  19.267  1.00  0.00     0.000 C 
BRANCH  11  12
ATOM     12  C   UNL     1      78.622  13.366  18.048  1.00  0.00    -0.000 C 
BRANCH  12  13
ATOM     13  C   UNL     1      78.750  14.865  18.377  1.00  0.00    -0.000 C 
BRANCH  13  14
ATOM     14  C   UNL     1      79.047  15.126  19.860  1.00  0.00    -0.000 C 
BRANCH  14  15
ATOM     15  C   UNL     1      80.509  15.553  20.060  1.00  0.00    -0.000 C 
BRANCH  15  16
ATOM     16  C   UNL     1      81.316  14.554  20.909  1.00  0.00    -0.000 C 
BRANCH  16  17
ATOM     17  C   UNL     1      82.229  13.612  20.105  1.00  0.00    -0.003 C 
ATOM     18  C   UNL     1      83.558  14.256  19.715  1.00  0.00     0.004 C 
ENDBRANCH  16  17
ENDBRANCH  15  16
ENDBRANCH  14  15
ENDBRANCH  13  14
ENDBRANCH  12  13
ENDBRANCH  11  12
ENDBRANCH   1  11
TORSDOF 14
ENDMDL
