MODEL 1
REMARK VINA RESULT:    -3.425      0.000      0.000
REMARK INTER + INTRA:          -6.719
REMARK INTER:                  -5.428
REMARK INTRA:                  -1.292
REMARK UNBOUND:                -1.292
REMARK SMILES CCCCCCCCCCCC(=O)[O-]
REMARK SMILES IDX 7 1 8 2 9 3 10 4 11 5 12 6 13 7 14 8 6 9 5 10 4 11 3 12 2 13
REMARK SMILES IDX 1 14
REMARK H PARENT
REMARK Flexibility Score: inf
ROOT
ATOM      1  C   UNL     1      -4.869 -63.237  -1.444  1.00  0.00     0.000 C 
ENDROOT
BRANCH   1   2
ATOM      2  C   UNL     1      -4.006 -64.510  -1.480  1.00  0.00     0.000 C 
BRANCH   2   3
ATOM      3  C   UNL     1      -4.692 -65.780  -0.940  1.00  0.00     0.000 C 
BRANCH   3   4
ATOM      4  C   UNL     1      -4.972 -66.875  -1.989  1.00  0.00     0.006 C 
BRANCH   4   5
ATOM      5  C   UNL     1      -4.475 -66.527  -3.403  1.00  0.00     0.053 C 
BRANCH   5   6
ATOM      6  C   UNL     1      -4.414 -67.724  -4.305  1.00  0.00     0.041 C 
ATOM      7  O   UNL     1      -3.752 -67.680  -5.374  1.00  0.00    -0.550 OA
ATOM      8  O   UNL     1      -5.120 -68.876  -3.982  1.00  0.00    -0.550 OA
ENDBRANCH   5   6
ENDBRANCH   4   5
ENDBRANCH   3   4
ENDBRANCH   2   3
ENDBRANCH   1   2
BRANCH   1   9
ATOM      9  C   UNL     1      -6.079 -63.305  -2.392  1.00  0.00     0.000 C 
BRANCH   9  10
ATOM     10  C   UNL     1      -7.416 -63.116  -1.646  1.00  0.00    -0.000 C 
BRANCH  10  11
ATOM     11  C   UNL     1      -8.120 -64.440  -1.301  1.00  0.00    -0.000 C 
BRANCH  11  12
ATOM     12  C   UNL     1      -8.115 -64.742   0.207  1.00  0.00    -0.000 C 
BRANCH  12  13
ATOM     13  C   UNL     1      -8.068 -66.249   0.505  1.00  0.00    -0.003 C 
ATOM     14  C   UNL     1      -8.630 -67.095  -0.637  1.00  0.00     0.004 C 
ENDBRANCH  12  13
ENDBRANCH  11  12
ENDBRANCH  10  11
ENDBRANCH   9  10
ENDBRANCH   1   9
TORSDOF 10
ENDMDL
MODEL 2
REMARK VINA RESULT:    -3.367      2.130      3.256
REMARK INTER + INTRA:          -6.626
REMARK INTER:                  -5.900
REMARK INTRA:                  -0.726
REMARK UNBOUND:                -1.292
REMARK SMILES CCCCCCCCCCCC(=O)[O-]
REMARK SMILES IDX 7 1 8 2 9 3 10 4 11 5 12 6 13 7 14 8 6 9 5 10 4 11 3 12 2 13
REMARK SMILES IDX 1 14
REMARK H PARENT
REMARK Flexibility Score: inf
ROOT
ATOM      1  C   UNL     1      -5.562 -67.608  -2.242  1.00  0.00     0.000 C 
ENDROOT
BRANCH   1   2
ATOM      2  C   UNL     1      -4.852 -67.940  -3.567  1.00  0.00     0.000 C 
BRANCH   2   3
ATOM      3  C   UNL     1      -3.960 -66.817  -4.130  1.00  0.00     0.000 C 
BRANCH   3   4
ATOM      4  C   UNL     1      -4.055 -66.600  -5.653  1.00  0.00     0.006 C 
BRANCH   4   5
ATOM      5  C   UNL     1      -4.025 -67.903  -6.473  1.00  0.00     0.053 C 
BRANCH   5   6
ATOM      6  C   UNL     1      -4.628 -67.742  -7.836  1.00  0.00     0.041 C 
ATOM      7  O   UNL     1      -4.447 -68.622  -8.718  1.00  0.00    -0.550 OA
ATOM      8  O   UNL     1      -5.356 -66.601  -8.145  1.00  0.00    -0.550 OA
ENDBRANCH   5   6
ENDBRANCH   4   5
ENDBRANCH   3   4
ENDBRANCH   2   3
ENDBRANCH   1   2
BRANCH   1   9
ATOM      9  C   UNL     1      -5.134 -66.252  -1.656  1.00  0.00     0.000 C 
BRANCH   9  10
ATOM     10  C   UNL     1      -6.054 -65.797  -0.505  1.00  0.00    -0.000 C 
BRANCH  10  11
ATOM     11  C   UNL     1      -7.179 -64.849  -0.955  1.00  0.00    -0.000 C 
BRANCH  11  12
ATOM     12  C   UNL     1      -8.559 -65.527  -0.973  1.00  0.00    -0.000 C 
BRANCH  12  13
ATOM     13  C   UNL     1      -8.598 -66.806  -0.123  1.00  0.00    -0.003 C 
ATOM     14  C   UNL     1      -9.266 -67.976  -0.845  1.00  0.00     0.004 C 
ENDBRANCH  12  13
ENDBRANCH  11  12
ENDBRANCH  10  11
ENDBRANCH   9  10
ENDBRANCH   1   9
TORSDOF 10
ENDMDL
MODEL 3
REMARK VINA RESULT:    -3.310      1.762      2.848
REMARK INTER + INTRA:          -6.536
REMARK INTER:                  -5.410
REMARK INTRA:                  -1.126
REMARK UNBOUND:                -1.292
REMARK SMILES CCCCCCCCCCCC(=O)[O-]
REMARK SMILES IDX 7 1 8 2 9 3 10 4 11 5 12 6 13 7 14 8 6 9 5 10 4 11 3 12 2 13
REMARK SMILES IDX 1 14
REMARK H PARENT
REMARK Flexibility Score: inf
ROOT
ATOM      1  C   UNL     1      -5.685 -64.284   2.103  1.00  0.00     0.000 C 
ENDROOT
BRANCH   1   2
ATOM      2  C   UNL     1      -5.192 -63.797   0.729  1.00  0.00     0.000 C 
BRANCH   2   3
ATOM      3  C   UNL     1      -5.624 -64.668  -0.467  1.00  0.00     0.000 C 
BRANCH   3   4
ATOM      4  C   UNL     1      -4.722 -65.883  -0.758  1.00  0.00     0.006 C 
BRANCH   4   5
ATOM      5  C   UNL     1      -5.188 -66.736  -1.952  1.00  0.00     0.053 C 
BRANCH   5   6
ATOM      6  C   UNL     1      -4.463 -66.399  -3.220  1.00  0.00     0.041 C 
ATOM      7  O   UNL     1      -4.445 -65.215  -3.647  1.00  0.00    -0.550 OA
ATOM      8  O   UNL     1      -3.838 -67.401  -3.952  1.00  0.00    -0.550 OA
ENDBRANCH   5   6
ENDBRANCH   4   5
ENDBRANCH   3   4
ENDBRANCH   2   3
ENDBRANCH   1   2
BRANCH   1   9
ATOM      9  C   UNL     1      -7.217 -64.392   2.187  1.00  0.00     0.000 C 
BRANCH   9  10
ATOM     10  C   UNL     1      -7.677 -65.765   2.717  1.00  0.00    -0.000 C 
BRANCH  10  11
ATOM     11  C   UNL     1      -8.484 -66.582   1.693  1.00  0.00    -0.000 C 
BRANCH  11  12
ATOM     12  C   UNL     1      -8.982 -65.731   0.512  1.00  0.00    -0.000 C 
BRANCH  12  13
ATOM     13  C   UNL     1      -8.838 -66.454  -0.836  1.00  0.00    -0.003 C 
ATOM     14  C   UNL     1      -9.216 -67.933  -0.756  1.00  0.00     0.004 C 
ENDBRANCH  12  13
ENDBRANCH  11  12
ENDBRANCH  10  11
ENDBRANCH   9  10
ENDBRANCH   1   9
TORSDOF 10
ENDMDL
MODEL 4
REMARK VINA RESULT:    -3.304      1.376      1.781
REMARK INTER + INTRA:          -6.527
REMARK INTER:                  -5.555
REMARK INTRA:                  -0.972
REMARK UNBOUND:                -1.292
REMARK SMILES CCCCCCCCCCCC(=O)[O-]
REMARK SMILES IDX 7 1 8 2 9 3 10 4 11 5 12 6 13 7 14 8 6 9 5 10 4 11 3 12 2 13
REMARK SMILES IDX 1 14
REMARK H PARENT
REMARK Flexibility Score: inf
ROOT
ATOM      1  C   UNL     1      -4.818 -64.437  -0.823  1.00  0.00     0.000 C 
ENDROOT
BRANCH   1   2
ATOM      2  C   UNL     1      -4.536 -65.337  -2.039  1.00  0.00     0.000 C 
BRANCH   2   3
ATOM      3  C   UNL     1      -5.111 -66.764  -1.943  1.00  0.00     0.000 C 
BRANCH   3   4
ATOM      4  C   UNL     1      -4.933 -67.633  -3.204  1.00  0.00     0.006 C 
BRANCH   4   5
ATOM      5  C   UNL     1      -3.872 -67.101  -4.184  1.00  0.00     0.053 C 
BRANCH   5   6
ATOM      6  C   UNL     1      -4.353 -67.087  -5.604  1.00  0.00     0.041 C 
ATOM      7  O   UNL     1      -4.819 -66.031  -6.106  1.00  0.00    -0.550 OA
ATOM      8  O   UNL     1      -4.322 -68.250  -6.362  1.00  0.00    -0.550 OA
ENDBRANCH   5   6
ENDBRANCH   4   5
ENDBRANCH   3   4
ENDBRANCH   2   3
ENDBRANCH   1   2
BRANCH   1   9
ATOM      9  C   UNL     1      -5.540 -65.177   0.316  1.00  0.00     0.000 C 
BRANCH   9  10
ATOM     10  C   UNL     1      -6.895 -64.528   0.666  1.00  0.00    -0.000 C 
BRANCH  10  11
ATOM     11  C   UNL     1      -7.905 -64.551  -0.494  1.00  0.00    -0.000 C 
BRANCH  11  12
ATOM     12  C   UNL     1      -9.196 -65.310  -0.146  1.00  0.00    -0.000 C 
BRANCH  12  13
ATOM     13  C   UNL     1      -8.936 -66.781   0.212  1.00  0.00    -0.003 C 
ATOM     14  C   UNL     1      -8.662 -67.648  -1.017  1.00  0.00     0.004 C 
ENDBRANCH  12  13
ENDBRANCH  11  12
ENDBRANCH  10  11
ENDBRANCH   9  10
ENDBRANCH   1   9
TORSDOF 10
ENDMDL
MODEL 5
REMARK VINA RESULT:    -3.265      2.519      3.877
REMARK INTER + INTRA:          -6.466
REMARK INTER:                  -4.880
REMARK INTRA:                  -1.586
REMARK UNBOUND:                -1.292
REMARK SMILES CCCCCCCCCCCC(=O)[O-]
REMARK SMILES IDX 7 1 8 2 9 3 10 4 11 5 12 6 13 7 14 8 6 9 5 10 4 11 3 12 2 13
REMARK SMILES IDX 1 14
REMARK H PARENT
REMARK Flexibility Score: inf
ROOT
ATOM      1  C   UNL     1      -8.093 -64.537  -1.166  1.00  0.00     0.000 C 
ENDROOT
BRANCH   1   2
ATOM      2  C   UNL     1      -6.581 -64.610  -1.448  1.00  0.00     0.000 C 
BRANCH   2   3
ATOM      3  C   UNL     1      -5.928 -65.975  -1.157  1.00  0.00     0.000 C 
BRANCH   3   4
ATOM      4  C   UNL     1      -4.516 -65.912  -0.541  1.00  0.00     0.006 C 
BRANCH   4   5
ATOM      5  C   UNL     1      -3.933 -64.490  -0.458  1.00  0.00     0.053 C 
BRANCH   5   6
ATOM      6  C   UNL     1      -2.765 -64.289  -1.375  1.00  0.00     0.041 C 
ATOM      7  O   UNL     1      -1.633 -63.998  -0.907  1.00  0.00    -0.550 OA
ATOM      8  O   UNL     1      -2.934 -64.385  -2.750  1.00  0.00    -0.550 OA
ENDBRANCH   5   6
ENDBRANCH   4   5
ENDBRANCH   3   4
ENDBRANCH   2   3
ENDBRANCH   1   2
BRANCH   1   9
ATOM      9  C   UNL     1      -8.700 -65.900  -0.795  1.00  0.00     0.000 C 
BRANCH   9  10
ATOM     10  C   UNL     1      -9.269 -65.915   0.639  1.00  0.00    -0.000 C 
BRANCH  10  11
ATOM     11  C   UNL     1      -8.334 -66.582   1.664  1.00  0.00    -0.000 C 
BRANCH  11  12
ATOM     12  C   UNL     1      -7.863 -65.613   2.760  1.00  0.00    -0.000 C 
BRANCH  12  13
ATOM     13  C   UNL     1      -6.485 -65.005   2.456  1.00  0.00    -0.003 C 
ATOM     14  C   UNL     1      -6.557 -63.514   2.130  1.00  0.00     0.004 C 
ENDBRANCH  12  13
ENDBRANCH  11  12
ENDBRANCH  10  11
ENDBRANCH   9  10
ENDBRANCH   1   9
TORSDOF 10
ENDMDL
MODEL 6
REMARK VINA RESULT:    -3.253      3.800      5.791
REMARK INTER + INTRA:          -6.446
REMARK INTER:                  -5.131
REMARK INTRA:                  -1.315
REMARK UNBOUND:                -1.292
REMARK SMILES CCCCCCCCCCCC(=O)[O-]
REMARK SMILES IDX 7 1 8 2 9 3 10 4 11 5 12 6 13 7 14 8 6 9 5 10 4 11 3 12 2 13
REMARK SMILES IDX 1 14
REMARK H PARENT
REMARK Flexibility Score: inf
ROOT
ATOM      1  C   UNL     1      -7.901 -64.130  -1.454  1.00  0.00     0.000 C 
ENDROOT
BRANCH   1   2
ATOM      2  C   UNL     1      -8.813 -65.326  -1.129  1.00  0.00     0.000 C 
BRANCH   2   3
ATOM      3  C   UNL     1      -8.157 -66.439  -0.290  1.00  0.00     0.000 C 
BRANCH   3   4
ATOM      4  C   UNL     1      -8.826 -66.722   1.069  1.00  0.00     0.006 C 
BRANCH   4   5
ATOM      5  C   UNL     1      -8.028 -66.204   2.279  1.00  0.00     0.053 C 
BRANCH   5   6
ATOM      6  C   UNL     1      -8.501 -66.786   3.577  1.00  0.00     0.041 C 
ATOM      7  O   UNL     1      -9.260 -66.122   4.330  1.00  0.00    -0.550 OA
ATOM      8  O   UNL     1      -8.073 -68.046   3.972  1.00  0.00    -0.550 OA
ENDBRANCH   5   6
ENDBRANCH   4   5
ENDBRANCH   3   4
ENDBRANCH   2   3
ENDBRANCH   1   2
BRANCH   1   9
ATOM      9  C   UNL     1      -7.336 -63.448  -0.197  1.00  0.00     0.000 C 
BRANCH   9  10
ATOM     10  C   UNL     1      -5.793 -63.407  -0.199  1.00  0.00    -0.000 C 
BRANCH  10  11
ATOM     11  C   UNL     1      -5.146 -64.633   0.468  1.00  0.00    -0.000 C 
BRANCH  11  12
ATOM     12  C   UNL     1      -4.045 -65.270  -0.397  1.00  0.00    -0.000 C 
BRANCH  12  13
ATOM     13  C   UNL     1      -4.492 -65.492  -1.850  1.00  0.00    -0.003 C 
ATOM     14  C   UNL     1      -5.069 -66.888  -2.084  1.00  0.00     0.004 C 
ENDBRANCH  12  13
ENDBRANCH  11  12
ENDBRANCH  10  11
ENDBRANCH   9  10
ENDBRANCH   1   9
TORSDOF 10
ENDMDL
MODEL 7
REMARK VINA RESULT:    -3.224      3.917      5.819
REMARK INTER + INTRA:          -6.400
REMARK INTER:                  -4.819
REMARK INTRA:                  -1.581
REMARK UNBOUND:                -1.292
REMARK SMILES CCCCCCCCCCCC(=O)[O-]
REMARK SMILES IDX 7 1 8 2 9 3 10 4 11 5 12 6 13 7 14 8 6 9 5 10 4 11 3 12 2 13
REMARK SMILES IDX 1 14
REMARK H PARENT
REMARK Flexibility Score: inf
ROOT
ATOM      1  C   UNL     1      -8.727 -65.935  -1.009  1.00  0.00     0.000 C 
ENDROOT
BRANCH   1   2
ATOM      2  C   UNL     1      -8.372 -66.745   0.251  1.00  0.00     0.000 C 
BRANCH   2   3
ATOM      3  C   UNL     1      -8.714 -66.058   1.588  1.00  0.00     0.000 C 
BRANCH   3   4
ATOM      4  C   UNL     1      -7.544 -65.930   2.582  1.00  0.00     0.006 C 
BRANCH   4   5
ATOM      5  C   UNL     1      -6.690 -64.664   2.382  1.00  0.00     0.053 C 
BRANCH   5   6
ATOM      6  C   UNL     1      -7.401 -63.414   2.805  1.00  0.00     0.041 C 
ATOM      7  O   UNL     1      -7.553 -62.465   1.993  1.00  0.00    -0.550 OA
ATOM      8  O   UNL     1      -7.862 -63.282   4.108  1.00  0.00    -0.550 OA
ENDBRANCH   5   6
ENDBRANCH   4   5
ENDBRANCH   3   4
ENDBRANCH   2   3
ENDBRANCH   1   2
BRANCH   1   9
ATOM      9  C   UNL     1      -8.526 -64.421  -0.825  1.00  0.00     0.000 C 
BRANCH   9  10
ATOM     10  C   UNL     1      -7.449 -63.857  -1.776  1.00  0.00    -0.000 C 
BRANCH  10  11
ATOM     11  C   UNL     1      -6.111 -63.557  -1.079  1.00  0.00    -0.000 C 
BRANCH  11  12
ATOM     12  C   UNL     1      -4.963 -64.446  -1.585  1.00  0.00    -0.000 C 
BRANCH  12  13
ATOM     13  C   UNL     1      -4.963 -65.836  -0.930  1.00  0.00    -0.003 C 
ATOM     14  C   UNL     1      -5.230 -66.960  -1.930  1.00  0.00     0.004 C 
ENDBRANCH  12  13
ENDBRANCH  11  12
ENDBRANCH  10  11
ENDBRANCH   9  10
ENDBRANCH   1   9
TORSDOF 10
ENDMDL
MODEL 8
REMARK VINA RESULT:    -3.220      6.512      8.732
REMARK INTER + INTRA:          -6.394
REMARK INTER:                  -6.015
REMARK INTRA:                  -0.379
REMARK UNBOUND:                -1.292
REMARK SMILES CCCCCCCCCCCC(=O)[O-]
REMARK SMILES IDX 7 1 8 2 9 3 10 4 11 5 12 6 13 7 14 8 6 9 5 10 4 11 3 12 2 13
REMARK SMILES IDX 1 14
REMARK H PARENT
REMARK Flexibility Score: inf
ROOT
ATOM      1  C   UNL     1      -8.027 -68.466   4.469  1.00  0.00     0.000 C 
ENDROOT
BRANCH   1   2
ATOM      2  C   UNL     1      -8.570 -69.013   5.801  1.00  0.00     0.000 C 
BRANCH   2   3
ATOM      3  C   UNL     1      -8.984 -70.497   5.778  1.00  0.00     0.000 C 
BRANCH   3   4
ATOM      4  C   UNL     1      -8.568 -71.278   4.516  1.00  0.00     0.006 C 
BRANCH   4   5
ATOM      5  C   UNL     1      -9.456 -72.500   4.217  1.00  0.00     0.053 C 
BRANCH   5   6
ATOM      6  C   UNL     1      -9.999 -73.138   5.460  1.00  0.00     0.041 C 
ATOM      7  O   UNL     1      -9.265 -73.873   6.169  1.00  0.00    -0.550 OA
ATOM      8  O   UNL     1     -11.329 -72.951   5.814  1.00  0.00    -0.550 OA
ENDBRANCH   5   6
ENDBRANCH   4   5
ENDBRANCH   3   4
ENDBRANCH   2   3
ENDBRANCH   1   2
BRANCH   1   9
ATOM      9  C   UNL     1      -8.531 -67.047   4.155  1.00  0.00     0.000 C 
BRANCH   9  10
ATOM     10  C   UNL     1      -7.781 -66.413   2.964  1.00  0.00    -0.000 C 
BRANCH  10  11
ATOM     11  C   UNL     1      -8.567 -66.470   1.642  1.00  0.00    -0.000 C 
BRANCH  11  12
ATOM     12  C   UNL     1      -7.725 -66.044   0.428  1.00  0.00    -0.000 C 
BRANCH  12  13
ATOM     13  C   UNL     1      -7.952 -66.948  -0.793  1.00  0.00    -0.003 C 
ATOM     14  C   UNL     1      -9.248 -67.753  -0.698  1.00  0.00     0.004 C 
ENDBRANCH  12  13
ENDBRANCH  11  12
ENDBRANCH  10  11
ENDBRANCH   9  10
ENDBRANCH   1   9
TORSDOF 10
ENDMDL
MODEL 9
REMARK VINA RESULT:    -3.198      2.077      4.053
REMARK INTER + INTRA:          -6.359
REMARK INTER:                  -4.971
REMARK INTRA:                  -1.388
REMARK UNBOUND:                -1.292
REMARK SMILES CCCCCCCCCCCC(=O)[O-]
REMARK SMILES IDX 7 1 8 2 9 3 10 4 11 5 12 6 13 7 14 8 6 9 5 10 4 11 3 12 2 13
REMARK SMILES IDX 1 14
REMARK H PARENT
REMARK Flexibility Score: inf
ROOT
ATOM      1  C   UNL     1      -9.312 -65.778   0.652  1.00  0.00     0.000 C 
ENDROOT
BRANCH   1   2
ATOM      2  C   UNL     1      -8.579 -65.573  -0.687  1.00  0.00     0.000 C 
BRANCH   2   3
ATOM      3  C   UNL     1      -7.198 -66.248  -0.786  1.00  0.00     0.000 C 
BRANCH   3   4
ATOM      4  C   UNL     1      -6.014 -65.293  -1.033  1.00  0.00     0.006 C 
BRANCH   4   5
ATOM      5  C   UNL     1      -4.685 -66.010  -1.336  1.00  0.00     0.053 C 
BRANCH   5   6
ATOM      6  C   UNL     1      -4.573 -66.438  -2.768  1.00  0.00     0.041 C 
ATOM      7  O   UNL     1      -4.815 -67.629  -3.096  1.00  0.00    -0.550 OA
ATOM      8  O   UNL     1      -4.164 -65.530  -3.737  1.00  0.00    -0.550 OA
ENDBRANCH   5   6
ENDBRANCH   4   5
ENDBRANCH   3   4
ENDBRANCH   2   3
ENDBRANCH   1   2
BRANCH   1   9
ATOM      9  C   UNL     1      -8.526 -66.660   1.636  1.00  0.00     0.000 C 
BRANCH   9  10
ATOM     10  C   UNL     1      -8.475 -66.051   3.053  1.00  0.00    -0.000 C 
BRANCH  10  11
ATOM     11  C   UNL     1      -7.065 -65.610   3.482  1.00  0.00    -0.000 C 
BRANCH  11  12
ATOM     12  C   UNL     1      -6.470 -64.534   2.559  1.00  0.00    -0.000 C 
BRANCH  12  13
ATOM     13  C   UNL     1      -7.268 -63.221   2.596  1.00  0.00    -0.003 C 
ATOM     14  C   UNL     1      -7.389 -62.565   1.221  1.00  0.00     0.004 C 
ENDBRANCH  12  13
ENDBRANCH  11  12
ENDBRANCH  10  11
ENDBRANCH   9  10
ENDBRANCH   1   9
TORSDOF 10
ENDMDL
