MODEL 1
REMARK VINA RESULT:    -7.772      0.000      0.000
REMARK INTER + INTRA:          -9.541
REMARK INTER:                  -9.362
REMARK INTRA:                  -0.178
REMARK UNBOUND:                -0.178
REMARK SMILES O=c1c(O)c(-c2ccc(O)c(O)c2)oc2cc(O)cc(O)c12
REMARK SMILES IDX 5 1 3 2 2 3 1 4 22 5 20 6 19 7 17 8 16 9 15 10 14 11 6 12
REMARK SMILES IDX 7 13 8 14 9 15 13 16 11 17 10 18 12 20 4 22 21 24 18 26
REMARK H PARENT 10 19 12 21 4 23 21 25 18 27
REMARK Flexibility Score: inf
ROOT
ATOM      1  C   UNL     1      -3.856 -22.215  47.426  1.00  0.00     0.180 A 
ATOM      2  C   UNL     1      -4.349 -23.218  48.281  1.00  0.00     0.208 A 
ATOM      3  C   UNL     1      -3.528 -23.693  49.316  1.00  0.00     0.238 A 
ATOM      4  O   UNL     1      -3.963 -24.584  50.095  1.00  0.00    -0.285 OA
ATOM      5  C   UNL     1      -2.225 -23.174  49.465  1.00  0.00     0.111 A 
ATOM      6  C   UNL     1      -1.333 -23.601  50.477  1.00  0.00     0.134 A 
ATOM      7  C   UNL     1      -0.049 -23.043  50.553  1.00  0.00     0.093 A 
ATOM      8  C   UNL     1       0.360 -22.067  49.637  1.00  0.00     0.123 A 
ATOM      9  C   UNL     1      -0.516 -21.642  48.638  1.00  0.00     0.094 A 
ATOM     10  C   UNL     1      -1.801 -22.186  48.546  1.00  0.00     0.146 A 
ATOM     11  O   UNL     1      -2.617 -21.760  47.588  1.00  0.00    -0.452 OA
ENDROOT
BRANCH   1  12
ATOM     12  C   UNL     1      -4.669 -21.649  46.326  1.00  0.00     0.025 A 
ATOM     13  C   UNL     1      -4.339 -21.879  44.979  1.00  0.00     0.016 A 
ATOM     14  C   UNL     1      -5.136 -21.354  43.958  1.00  0.00     0.051 A 
ATOM     15  C   UNL     1      -6.279 -20.605  44.266  1.00  0.00     0.157 A 
ATOM     16  C   UNL     1      -5.827 -20.914  46.629  1.00  0.00     0.062 A 
ATOM     17  C   UNL     1      -6.627 -20.387  45.609  1.00  0.00     0.158 A 
BRANCH  15  18
ATOM     18  O   UNL     1      -7.070 -20.081  43.243  1.00  0.00    -0.504 OA
ATOM     19  H   UNL     1      -7.417 -19.130  43.275  1.00  0.00     0.293 HD
ENDBRANCH  15  18
BRANCH  17  20
ATOM     20  O   UNL     1      -7.762 -19.651  45.949  1.00  0.00    -0.504 OA
ATOM     21  H   UNL     1      -7.862 -18.673  45.708  1.00  0.00     0.293 HD
ENDBRANCH  17  20
ENDBRANCH   1  12
BRANCH   2  22
ATOM     22  O   UNL     1      -5.626 -23.751  48.082  1.00  0.00    -0.502 OA
ATOM     23  H   UNL     1      -6.339 -23.267  47.548  1.00  0.00     0.293 HD
ENDBRANCH   2  22
BRANCH   6  24
ATOM     24  O   UNL     1      -1.711 -24.574  51.404  1.00  0.00    -0.507 OA
ATOM     25  H   UNL     1      -1.288 -24.625  52.325  1.00  0.00     0.293 HD
ENDBRANCH   6  24
BRANCH   8  26
ATOM     26  O   UNL     1       1.636 -21.512  49.713  1.00  0.00    -0.508 OA
ATOM     27  H   UNL     1       2.456 -22.088  49.861  1.00  0.00     0.293 HD
ENDBRANCH   8  26
TORSDOF 6
ENDMDL
MODEL 2
REMARK VINA RESULT:    -7.619      1.376      6.936
REMARK INTER + INTRA:          -9.357
REMARK INTER:                  -9.141
REMARK INTRA:                  -0.216
REMARK UNBOUND:                -0.178
REMARK SMILES O=c1c(O)c(-c2ccc(O)c(O)c2)oc2cc(O)cc(O)c12
REMARK SMILES IDX 5 1 3 2 2 3 1 4 22 5 20 6 19 7 17 8 16 9 15 10 14 11 6 12
REMARK SMILES IDX 7 13 8 14 9 15 13 16 11 17 10 18 12 20 4 22 21 24 18 26
REMARK H PARENT 10 19 12 21 4 23 21 25 18 27
REMARK Flexibility Score: inf
ROOT
ATOM      1  C   UNL     1      -3.712 -21.617  47.772  1.00  0.00     0.180 A 
ATOM      2  C   UNL     1      -4.730 -20.827  48.339  1.00  0.00     0.208 A 
ATOM      3  C   UNL     1      -5.795 -20.407  47.527  1.00  0.00     0.238 A 
ATOM      4  O   UNL     1      -6.718 -19.708  48.026  1.00  0.00    -0.285 OA
ATOM      5  C   UNL     1      -5.814 -20.763  46.162  1.00  0.00     0.111 A 
ATOM      6  C   UNL     1      -6.847 -20.377  45.276  1.00  0.00     0.134 A 
ATOM      7  C   UNL     1      -6.789 -20.764  43.929  1.00  0.00     0.093 A 
ATOM      8  C   UNL     1      -5.718 -21.529  43.453  1.00  0.00     0.123 A 
ATOM      9  C   UNL     1      -4.698 -21.913  44.323  1.00  0.00     0.094 A 
ATOM     10  C   UNL     1      -4.738 -21.538  45.670  1.00  0.00     0.146 A 
ATOM     11  O   UNL     1      -3.756 -21.922  46.477  1.00  0.00    -0.452 OA
ENDROOT
BRANCH   1  12
ATOM     12  C   UNL     1      -2.567 -22.116  48.567  1.00  0.00     0.025 A 
ATOM     13  C   UNL     1      -1.273 -21.594  48.396  1.00  0.00     0.016 A 
ATOM     14  C   UNL     1      -0.213 -22.064  49.176  1.00  0.00     0.051 A 
ATOM     15  C   UNL     1      -0.432 -23.052  50.145  1.00  0.00     0.157 A 
ATOM     16  C   UNL     1      -2.784 -23.092  49.555  1.00  0.00     0.062 A 
ATOM     17  C   UNL     1      -1.725 -23.565  50.337  1.00  0.00     0.158 A 
BRANCH  15  18
ATOM     18  O   UNL     1       0.630 -23.520  50.919  1.00  0.00    -0.504 OA
ATOM     19  H   UNL     1       1.211 -22.890  51.460  1.00  0.00     0.293 HD
ENDBRANCH  15  18
BRANCH  17  20
ATOM     20  O   UNL     1      -1.977 -24.543  51.298  1.00  0.00    -0.504 OA
ATOM     21  H   UNL     1      -1.799 -24.388  52.283  1.00  0.00     0.293 HD
ENDBRANCH  17  20
ENDBRANCH   1  12
BRANCH   2  22
ATOM     22  O   UNL     1      -4.662 -20.446  49.682  1.00  0.00    -0.502 OA
ATOM     23  H   UNL     1      -5.023 -21.028  50.429  1.00  0.00     0.293 HD
ENDBRANCH   2  22
BRANCH   6  24
ATOM     24  O   UNL     1      -7.927 -19.613  45.721  1.00  0.00    -0.507 OA
ATOM     25  H   UNL     1      -7.810 -18.870  46.402  1.00  0.00     0.293 HD
ENDBRANCH   6  24
BRANCH   8  26
ATOM     26  O   UNL     1      -5.660 -21.914  42.115  1.00  0.00    -0.508 OA
ATOM     27  H   UNL     1      -4.783 -21.944  41.610  1.00  0.00     0.293 HD
ENDBRANCH   8  26
TORSDOF 6
ENDMDL
MODEL 3
REMARK VINA RESULT:    -7.541      2.891      3.737
REMARK INTER + INTRA:          -9.262
REMARK INTER:                  -8.939
REMARK INTRA:                  -0.324
REMARK UNBOUND:                -0.178
REMARK SMILES O=c1c(O)c(-c2ccc(O)c(O)c2)oc2cc(O)cc(O)c12
REMARK SMILES IDX 5 1 3 2 2 3 1 4 22 5 20 6 19 7 17 8 16 9 15 10 14 11 6 12
REMARK SMILES IDX 7 13 8 14 9 15 13 16 11 17 10 18 12 20 4 22 21 24 18 26
REMARK H PARENT 10 19 12 21 4 23 21 25 18 27
REMARK Flexibility Score: inf
ROOT
ATOM      1  C   UNL     1      -5.522 -20.706  46.273  1.00  0.00     0.180 A 
ATOM      2  C   UNL     1      -6.001 -20.545  47.587  1.00  0.00     0.208 A 
ATOM      3  C   UNL     1      -5.638 -21.487  48.562  1.00  0.00     0.238 A 
ATOM      4  O   UNL     1      -6.052 -21.347  49.745  1.00  0.00    -0.285 OA
ATOM      5  C   UNL     1      -4.822 -22.581  48.205  1.00  0.00     0.111 A 
ATOM      6  C   UNL     1      -4.414 -23.575  49.126  1.00  0.00     0.134 A 
ATOM      7  C   UNL     1      -3.610 -24.638  48.691  1.00  0.00     0.093 A 
ATOM      8  C   UNL     1      -3.206 -24.726  47.354  1.00  0.00     0.123 A 
ATOM      9  C   UNL     1      -3.605 -23.747  46.442  1.00  0.00     0.094 A 
ATOM     10  C   UNL     1      -4.406 -22.679  46.857  1.00  0.00     0.146 A 
ATOM     11  O   UNL     1      -4.767 -21.759  45.970  1.00  0.00    -0.452 OA
ENDROOT
BRANCH   1  12
ATOM     12  C   UNL     1      -5.844 -19.745  45.194  1.00  0.00     0.025 A 
ATOM     13  C   UNL     1      -6.971 -19.918  44.372  1.00  0.00     0.016 A 
ATOM     14  C   UNL     1      -7.269 -18.983  43.376  1.00  0.00     0.051 A 
ATOM     15  C   UNL     1      -6.453 -17.859  43.195  1.00  0.00     0.157 A 
ATOM     16  C   UNL     1      -5.042 -18.605  45.021  1.00  0.00     0.062 A 
ATOM     17  C   UNL     1      -5.336 -17.668  44.025  1.00  0.00     0.158 A 
BRANCH  15  18
ATOM     18  O   UNL     1      -6.752 -16.931  42.198  1.00  0.00    -0.504 OA
ATOM     19  H   UNL     1      -7.541 -17.056  41.575  1.00  0.00     0.293 HD
ENDBRANCH  15  18
BRANCH  17  20
ATOM     20  O   UNL     1      -4.509 -16.556  43.874  1.00  0.00    -0.504 OA
ATOM     21  H   UNL     1      -4.559 -15.953  43.062  1.00  0.00     0.293 HD
ENDBRANCH  17  20
ENDBRANCH   1  12
BRANCH   2  22
ATOM     22  O   UNL     1      -6.848 -19.480  47.903  1.00  0.00    -0.502 OA
ATOM     23  H   UNL     1      -7.821 -19.616  48.152  1.00  0.00     0.293 HD
ENDBRANCH   2  22
BRANCH   6  24
ATOM     24  O   UNL     1      -4.803 -23.516  50.466  1.00  0.00    -0.507 OA
ATOM     25  H   UNL     1      -5.779 -23.537  50.739  1.00  0.00     0.293 HD
ENDBRANCH   6  24
BRANCH   8  26
ATOM     26  O   UNL     1      -2.407 -25.782  46.921  1.00  0.00    -0.508 OA
ATOM     27  H   UNL     1      -1.748 -26.237  47.542  1.00  0.00     0.293 HD
ENDBRANCH   8  26
TORSDOF 6
ENDMDL
MODEL 4
REMARK VINA RESULT:    -7.324      1.925      7.252
REMARK INTER + INTRA:          -9.000
REMARK INTER:                  -8.709
REMARK INTRA:                  -0.292
REMARK UNBOUND:                -0.178
REMARK SMILES O=c1c(O)c(-c2ccc(O)c(O)c2)oc2cc(O)cc(O)c12
REMARK SMILES IDX 5 1 3 2 2 3 1 4 22 5 20 6 19 7 17 8 16 9 15 10 14 11 6 12
REMARK SMILES IDX 7 13 8 14 9 15 13 16 11 17 10 18 12 20 4 22 21 24 18 26
REMARK H PARENT 10 19 12 21 4 23 21 25 18 27
REMARK Flexibility Score: inf
ROOT
ATOM      1  C   UNL     1      -3.095 -21.682  47.130  1.00  0.00     0.180 A 
ATOM      2  C   UNL     1      -2.278 -21.220  46.080  1.00  0.00     0.208 A 
ATOM      3  C   UNL     1      -2.859 -20.466  45.049  1.00  0.00     0.238 A 
ATOM      4  O   UNL     1      -2.135 -20.038  44.109  1.00  0.00    -0.285 OA
ATOM      5  C   UNL     1      -4.245 -20.204  45.072  1.00  0.00     0.111 A 
ATOM      6  C   UNL     1      -4.908 -19.456  44.071  1.00  0.00     0.134 A 
ATOM      7  C   UNL     1      -6.292 -19.247  44.161  1.00  0.00     0.093 A 
ATOM      8  C   UNL     1      -7.024 -19.771  45.233  1.00  0.00     0.123 A 
ATOM      9  C   UNL     1      -6.373 -20.508  46.223  1.00  0.00     0.094 A 
ATOM     10  C   UNL     1      -4.994 -20.727  46.152  1.00  0.00     0.146 A 
ATOM     11  O   UNL     1      -4.400 -21.428  47.111  1.00  0.00    -0.452 OA
ENDROOT
BRANCH   1  12
ATOM     12  C   UNL     1      -2.553 -22.465  48.262  1.00  0.00     0.025 A 
ATOM     13  C   UNL     1      -2.319 -21.875  49.516  1.00  0.00     0.016 A 
ATOM     14  C   UNL     1      -1.829 -22.641  50.578  1.00  0.00     0.051 A 
ATOM     15  C   UNL     1      -1.579 -24.009  50.406  1.00  0.00     0.157 A 
ATOM     16  C   UNL     1      -2.319 -23.842  48.102  1.00  0.00     0.062 A 
ATOM     17  C   UNL     1      -1.828 -24.611  49.162  1.00  0.00     0.158 A 
BRANCH  15  18
ATOM     18  O   UNL     1      -1.088 -24.769  51.467  1.00  0.00    -0.504 OA
ATOM     19  H   UNL     1      -0.181 -25.218  51.424  1.00  0.00     0.293 HD
ENDBRANCH  15  18
BRANCH  17  20
ATOM     20  O   UNL     1      -1.596 -25.971  48.961  1.00  0.00    -0.504 OA
ATOM     21  H   UNL     1      -1.173 -26.327  48.113  1.00  0.00     0.293 HD
ENDBRANCH  17  20
ENDBRANCH   1  12
BRANCH   2  22
ATOM     22  O   UNL     1      -0.916 -21.536  46.054  1.00  0.00    -0.502 OA
ATOM     23  H   UNL     1      -0.226 -20.925  45.633  1.00  0.00     0.293 HD
ENDBRANCH   2  22
BRANCH   6  24
ATOM     24  O   UNL     1      -4.206 -18.923  42.989  1.00  0.00    -0.507 OA
ATOM     25  H   UNL     1      -3.575 -18.136  43.099  1.00  0.00     0.293 HD
ENDBRANCH   6  24
BRANCH   8  26
ATOM     26  O   UNL     1      -8.398 -19.563  45.323  1.00  0.00    -0.508 OA
ATOM     27  H   UNL     1      -8.833 -19.255  46.185  1.00  0.00     0.293 HD
ENDBRANCH   8  26
TORSDOF 6
ENDMDL
MODEL 5
REMARK VINA RESULT:    -7.310      1.911      6.698
REMARK INTER + INTRA:          -8.984
REMARK INTER:                  -8.676
REMARK INTRA:                  -0.308
REMARK UNBOUND:                -0.178
REMARK SMILES O=c1c(O)c(-c2ccc(O)c(O)c2)oc2cc(O)cc(O)c12
REMARK SMILES IDX 5 1 3 2 2 3 1 4 22 5 20 6 19 7 17 8 16 9 15 10 14 11 6 12
REMARK SMILES IDX 7 13 8 14 9 15 13 16 11 17 10 18 12 20 4 22 21 24 18 26
REMARK H PARENT 10 19 12 21 4 23 21 25 18 27
REMARK Flexibility Score: inf
ROOT
ATOM      1  C   UNL     1      -4.086 -21.514  47.273  1.00  0.00     0.180 A 
ATOM      2  C   UNL     1      -5.445 -21.148  47.294  1.00  0.00     0.208 A 
ATOM      3  C   UNL     1      -5.964 -20.397  46.228  1.00  0.00     0.238 A 
ATOM      4  O   UNL     1      -7.183 -20.074  46.231  1.00  0.00    -0.285 OA
ATOM      5  C   UNL     1      -5.114 -20.006  45.172  1.00  0.00     0.111 A 
ATOM      6  C   UNL     1      -5.556 -19.246  44.064  1.00  0.00     0.134 A 
ATOM      7  C   UNL     1      -4.646 -18.889  43.058  1.00  0.00     0.093 A 
ATOM      8  C   UNL     1      -3.304 -19.278  43.140  1.00  0.00     0.123 A 
ATOM      9  C   UNL     1      -2.864 -20.029  44.231  1.00  0.00     0.094 A 
ATOM     10  C   UNL     1      -3.756 -20.395  45.243  1.00  0.00     0.146 A 
ATOM     11  O   UNL     1      -3.311 -21.115  46.268  1.00  0.00    -0.452 OA
ENDROOT
BRANCH   1  12
ATOM     12  C   UNL     1      -3.471 -22.321  48.349  1.00  0.00     0.025 A 
ATOM     13  C   UNL     1      -3.640 -23.715  48.407  1.00  0.00     0.016 A 
ATOM     14  C   UNL     1      -3.029 -24.460  49.420  1.00  0.00     0.051 A 
ATOM     15  C   UNL     1      -2.231 -23.825  50.381  1.00  0.00     0.157 A 
ATOM     16  C   UNL     1      -2.653 -21.693  49.304  1.00  0.00     0.062 A 
ATOM     17  C   UNL     1      -2.040 -22.435  50.319  1.00  0.00     0.158 A 
BRANCH  15  18
ATOM     18  O   UNL     1      -1.626 -24.572  51.392  1.00  0.00    -0.504 OA
ATOM     19  H   UNL     1      -0.634 -24.497  51.586  1.00  0.00     0.293 HD
ENDBRANCH  15  18
BRANCH  17  20
ATOM     20  O   UNL     1      -1.246 -21.775  51.256  1.00  0.00    -0.504 OA
ATOM     21  H   UNL     1      -0.548 -22.259  51.807  1.00  0.00     0.293 HD
ENDBRANCH  17  20
ENDBRANCH   1  12
BRANCH   2  22
ATOM     22  O   UNL     1      -6.255 -21.506  48.377  1.00  0.00    -0.502 OA
ATOM     23  H   UNL     1      -5.881 -21.666  49.305  1.00  0.00     0.293 HD
ENDBRANCH   2  22
BRANCH   6  24
ATOM     24  O   UNL     1      -6.888 -18.842  43.955  1.00  0.00    -0.507 OA
ATOM     25  H   UNL     1      -7.508 -18.829  44.758  1.00  0.00     0.293 HD
ENDBRANCH   6  24
BRANCH   8  26
ATOM     26  O   UNL     1      -2.400 -18.923  42.141  1.00  0.00    -0.508 OA
ATOM     27  H   UNL     1      -2.712 -18.547  41.253  1.00  0.00     0.293 HD
ENDBRANCH   8  26
TORSDOF 6
ENDMDL
MODEL 6
REMARK VINA RESULT:    -7.189      2.593      3.003
REMARK INTER + INTRA:          -8.838
REMARK INTER:                  -8.515
REMARK INTRA:                  -0.324
REMARK UNBOUND:                -0.178
REMARK SMILES O=c1c(O)c(-c2ccc(O)c(O)c2)oc2cc(O)cc(O)c12
REMARK SMILES IDX 5 1 3 2 2 3 1 4 22 5 20 6 19 7 17 8 16 9 15 10 14 11 6 12
REMARK SMILES IDX 7 13 8 14 9 15 13 16 11 17 10 18 12 20 4 22 21 24 18 26
REMARK H PARENT 10 19 12 21 4 23 21 25 18 27
REMARK Flexibility Score: inf
ROOT
ATOM      1  C   UNL     1      -1.562 -21.992  46.544  1.00  0.00     0.180 A 
ATOM      2  C   UNL     1      -2.586 -22.803  47.070  1.00  0.00     0.208 A 
ATOM      3  C   UNL     1      -2.471 -23.273  48.387  1.00  0.00     0.238 A 
ATOM      4  O   UNL     1      -3.387 -23.991  48.872  1.00  0.00    -0.285 OA
ATOM      5  C   UNL     1      -1.329 -22.945  49.147  1.00  0.00     0.111 A 
ATOM      6  C   UNL     1      -1.135 -23.382  50.479  1.00  0.00     0.134 A 
ATOM      7  C   UNL     1       0.034 -23.020  51.166  1.00  0.00     0.093 A 
ATOM      8  C   UNL     1       1.009 -22.231  50.547  1.00  0.00     0.123 A 
ATOM      9  C   UNL     1       0.821 -21.797  49.233  1.00  0.00     0.094 A 
ATOM     10  C   UNL     1      -0.337 -22.146  48.532  1.00  0.00     0.146 A 
ATOM     11  O   UNL     1      -0.493 -21.715  47.286  1.00  0.00    -0.452 OA
ENDROOT
BRANCH   1  12
ATOM     12  C   UNL     1      -1.620 -21.441  45.172  1.00  0.00     0.025 A 
ATOM     13  C   UNL     1      -1.068 -22.133  44.080  1.00  0.00     0.016 A 
ATOM     14  C   UNL     1      -1.157 -21.604  42.790  1.00  0.00     0.051 A 
ATOM     15  C   UNL     1      -1.809 -20.384  42.569  1.00  0.00     0.157 A 
ATOM     16  C   UNL     1      -2.291 -20.228  44.941  1.00  0.00     0.062 A 
ATOM     17  C   UNL     1      -2.381 -19.695  43.651  1.00  0.00     0.158 A 
BRANCH  15  18
ATOM     18  O   UNL     1      -1.893 -19.858  41.280  1.00  0.00    -0.504 OA
ATOM     19  H   UNL     1      -2.721 -19.981  40.709  1.00  0.00     0.293 HD
ENDBRANCH  15  18
BRANCH  17  20
ATOM     20  O   UNL     1      -3.043 -18.483  43.463  1.00  0.00    -0.504 OA
ATOM     21  H   UNL     1      -2.580 -17.670  43.077  1.00  0.00     0.293 HD
ENDBRANCH  17  20
ENDBRANCH   1  12
BRANCH   2  22
ATOM     22  O   UNL     1      -3.684 -23.154  46.279  1.00  0.00    -0.502 OA
ATOM     23  H   UNL     1      -4.571 -23.437  46.678  1.00  0.00     0.293 HD
ENDBRANCH   2  22
BRANCH   6  24
ATOM     24  O   UNL     1      -2.089 -24.171  51.123  1.00  0.00    -0.507 OA
ATOM     25  H   UNL     1      -3.008 -23.812  51.355  1.00  0.00     0.293 HD
ENDBRANCH   6  24
BRANCH   8  26
ATOM     26  O   UNL     1       2.170 -21.872  51.229  1.00  0.00    -0.508 OA
ATOM     27  H   UNL     1       2.845 -21.233  50.826  1.00  0.00     0.293 HD
ENDBRANCH   8  26
TORSDOF 6
ENDMDL
MODEL 7
REMARK VINA RESULT:    -7.168      3.477      5.542
REMARK INTER + INTRA:          -8.814
REMARK INTER:                  -8.485
REMARK INTRA:                  -0.328
REMARK UNBOUND:                -0.178
REMARK SMILES O=c1c(O)c(-c2ccc(O)c(O)c2)oc2cc(O)cc(O)c12
REMARK SMILES IDX 5 1 3 2 2 3 1 4 22 5 20 6 19 7 17 8 16 9 15 10 14 11 6 12
REMARK SMILES IDX 7 13 8 14 9 15 13 16 11 17 10 18 12 20 4 22 21 24 18 26
REMARK H PARENT 10 19 12 21 4 23 21 25 18 27
REMARK Flexibility Score: inf
ROOT
ATOM      1  C   UNL     1      -3.740 -24.311  46.996  1.00  0.00     0.180 A 
ATOM      2  C   UNL     1      -3.277 -24.452  48.318  1.00  0.00     0.208 A 
ATOM      3  C   UNL     1      -3.674 -23.510  49.281  1.00  0.00     0.238 A 
ATOM      4  O   UNL     1      -3.276 -23.632  50.471  1.00  0.00    -0.285 OA
ATOM      5  C   UNL     1      -4.507 -22.436  48.903  1.00  0.00     0.111 A 
ATOM      6  C   UNL     1      -4.948 -21.443  49.810  1.00  0.00     0.134 A 
ATOM      7  C   UNL     1      -5.768 -20.400  49.354  1.00  0.00     0.093 A 
ATOM      8  C   UNL     1      -6.153 -20.331  48.011  1.00  0.00     0.123 A 
ATOM      9  C   UNL     1      -5.721 -21.309  47.113  1.00  0.00     0.094 A 
ATOM     10  C   UNL     1      -4.904 -22.357  47.548  1.00  0.00     0.146 A 
ATOM     11  O   UNL     1      -4.512 -23.277  46.674  1.00  0.00    -0.452 OA
ENDROOT
BRANCH   1  12
ATOM     12  C   UNL     1      -3.382 -25.273  45.931  1.00  0.00     0.025 A 
ATOM     13  C   UNL     1      -4.202 -26.374  45.631  1.00  0.00     0.016 A 
ATOM     14  C   UNL     1      -3.855 -27.255  44.604  1.00  0.00     0.051 A 
ATOM     15  C   UNL     1      -2.691 -27.044  43.853  1.00  0.00     0.157 A 
ATOM     16  C   UNL     1      -2.226 -25.054  45.161  1.00  0.00     0.062 A 
ATOM     17  C   UNL     1      -1.875 -25.935  44.132  1.00  0.00     0.158 A 
BRANCH  15  18
ATOM     18  O   UNL     1      -2.347 -27.927  42.831  1.00  0.00    -0.504 OA
ATOM     19  H   UNL     1      -1.381 -28.157  42.630  1.00  0.00     0.293 HD
ENDBRANCH  15  18
BRANCH  17  20
ATOM     20  O   UNL     1      -0.715 -25.692  43.398  1.00  0.00    -0.504 OA
ATOM     21  H   UNL     1      -0.272 -26.410  42.838  1.00  0.00     0.293 HD
ENDBRANCH  17  20
ENDBRANCH   1  12
BRANCH   2  22
ATOM     22  O   UNL     1      -2.413 -25.497  48.656  1.00  0.00    -0.502 OA
ATOM     23  H   UNL     1      -2.134 -25.682  49.613  1.00  0.00     0.293 HD
ENDBRANCH   2  22
BRANCH   6  24
ATOM     24  O   UNL     1      -4.579 -21.484  51.155  1.00  0.00    -0.507 OA
ATOM     25  H   UNL     1      -4.295 -20.649  51.655  1.00  0.00     0.293 HD
ENDBRANCH   6  24
BRANCH   8  26
ATOM     26  O   UNL     1      -6.967 -19.295  47.558  1.00  0.00    -0.508 OA
ATOM     27  H   UNL     1      -6.617 -18.581  46.930  1.00  0.00     0.293 HD
ENDBRANCH   8  26
TORSDOF 6
ENDMDL
MODEL 8
REMARK VINA RESULT:    -7.138      4.154      5.629
REMARK INTER + INTRA:          -8.777
REMARK INTER:                  -8.969
REMARK INTRA:                   0.191
REMARK UNBOUND:                -0.178
REMARK SMILES O=c1c(O)c(-c2ccc(O)c(O)c2)oc2cc(O)cc(O)c12
REMARK SMILES IDX 5 1 3 2 2 3 1 4 22 5 20 6 19 7 17 8 16 9 15 10 14 11 6 12
REMARK SMILES IDX 7 13 8 14 9 15 13 16 11 17 10 18 12 20 4 22 21 24 18 26
REMARK H PARENT 10 19 12 21 4 23 21 25 18 27
REMARK Flexibility Score: inf
ROOT
ATOM      1  C   UNL     1      -2.934 -25.411  46.533  1.00  0.00     0.180 A 
ATOM      2  C   UNL     1      -3.283 -24.114  46.112  1.00  0.00     0.208 A 
ATOM      3  C   UNL     1      -2.860 -23.015  46.877  1.00  0.00     0.238 A 
ATOM      4  O   UNL     1      -3.156 -21.848  46.504  1.00  0.00    -0.285 OA
ATOM      5  C   UNL     1      -2.117 -23.231  48.056  1.00  0.00     0.111 A 
ATOM      6  C   UNL     1      -1.656 -22.180  48.884  1.00  0.00     0.134 A 
ATOM      7  C   UNL     1      -0.931 -22.478  50.047  1.00  0.00     0.093 A 
ATOM      8  C   UNL     1      -0.656 -23.805  50.396  1.00  0.00     0.123 A 
ATOM      9  C   UNL     1      -1.108 -24.845  49.582  1.00  0.00     0.094 A 
ATOM     10  C   UNL     1      -1.832 -24.569  48.418  1.00  0.00     0.146 A 
ATOM     11  O   UNL     1      -2.245 -25.577  47.659  1.00  0.00    -0.452 OA
ENDROOT
BRANCH   1  12
ATOM     12  C   UNL     1      -3.326 -26.618  45.771  1.00  0.00     0.025 A 
ATOM     13  C   UNL     1      -4.569 -26.702  45.119  1.00  0.00     0.016 A 
ATOM     14  C   UNL     1      -4.906 -27.842  44.385  1.00  0.00     0.051 A 
ATOM     15  C   UNL     1      -4.003 -28.908  44.280  1.00  0.00     0.157 A 
ATOM     16  C   UNL     1      -2.417 -27.682  45.645  1.00  0.00     0.062 A 
ATOM     17  C   UNL     1      -2.751 -28.825  44.912  1.00  0.00     0.158 A 
BRANCH  15  18
ATOM     18  O   UNL     1      -4.345 -30.046  43.549  1.00  0.00    -0.504 OA
ATOM     19  H   UNL     1      -3.698 -30.816  43.432  1.00  0.00     0.293 HD
ENDBRANCH  15  18
BRANCH  17  20
ATOM     20  O   UNL     1      -1.828 -29.866  44.820  1.00  0.00    -0.504 OA
ATOM     21  H   UNL     1      -2.112 -30.838  44.804  1.00  0.00     0.293 HD
ENDBRANCH  17  20
ENDBRANCH   1  12
BRANCH   2  22
ATOM     22  O   UNL     1      -4.062 -23.929  44.967  1.00  0.00    -0.502 OA
ATOM     23  H   UNL     1      -4.950 -23.440  44.988  1.00  0.00     0.293 HD
ENDBRANCH   2  22
BRANCH   6  24
ATOM     24  O   UNL     1      -1.915 -20.847  48.563  1.00  0.00    -0.507 OA
ATOM     25  H   UNL     1      -2.311 -20.203  49.239  1.00  0.00     0.293 HD
ENDBRANCH   6  24
BRANCH   8  26
ATOM     26  O   UNL     1       0.065 -24.101  51.551  1.00  0.00    -0.508 OA
ATOM     27  H   UNL     1      -0.398 -24.273  52.435  1.00  0.00     0.293 HD
ENDBRANCH   8  26
TORSDOF 6
ENDMDL
MODEL 9
REMARK VINA RESULT:    -7.117      2.151      2.532
REMARK INTER + INTRA:          -8.751
REMARK INTER:                  -8.419
REMARK INTRA:                  -0.332
REMARK UNBOUND:                -0.178
REMARK SMILES O=c1c(O)c(-c2ccc(O)c(O)c2)oc2cc(O)cc(O)c12
REMARK SMILES IDX 5 1 3 2 2 3 1 4 22 5 20 6 19 7 17 8 16 9 15 10 14 11 6 12
REMARK SMILES IDX 7 13 8 14 9 15 13 16 11 17 10 18 12 20 4 22 21 24 18 26
REMARK H PARENT 10 19 12 21 4 23 21 25 18 27
REMARK Flexibility Score: inf
ROOT
ATOM      1  C   UNL     1      -3.210 -21.872  46.743  1.00  0.00     0.180 A 
ATOM      2  C   UNL     1      -3.425 -23.231  46.442  1.00  0.00     0.208 A 
ATOM      3  C   UNL     1      -2.848 -24.209  47.266  1.00  0.00     0.238 A 
ATOM      4  O   UNL     1      -3.043 -25.429  47.013  1.00  0.00    -0.285 OA
ATOM      5  C   UNL     1      -2.051 -23.816  48.362  1.00  0.00     0.111 A 
ATOM      6  C   UNL     1      -1.431 -24.738  49.238  1.00  0.00     0.134 A 
ATOM      7  C   UNL     1      -0.646 -24.267  50.301  1.00  0.00     0.093 A 
ATOM      8  C   UNL     1      -0.469 -22.894  50.503  1.00  0.00     0.123 A 
ATOM      9  C   UNL     1      -1.080 -21.981  49.642  1.00  0.00     0.094 A 
ATOM     10  C   UNL     1      -1.867 -22.430  48.577  1.00  0.00     0.146 A 
ATOM     11  O   UNL     1      -2.441 -21.539  47.776  1.00  0.00    -0.452 OA
ENDROOT
BRANCH   1  12
ATOM     12  C   UNL     1      -3.800 -20.784  45.933  1.00  0.00     0.025 A 
ATOM     13  C   UNL     1      -5.096 -20.302  46.187  1.00  0.00     0.016 A 
ATOM     14  C   UNL     1      -5.623 -19.256  45.424  1.00  0.00     0.051 A 
ATOM     15  C   UNL     1      -4.860 -18.668  44.407  1.00  0.00     0.157 A 
ATOM     16  C   UNL     1      -3.032 -20.177  44.925  1.00  0.00     0.062 A 
ATOM     17  C   UNL     1      -3.556 -19.130  44.159  1.00  0.00     0.158 A 
BRANCH  15  18
ATOM     18  O   UNL     1      -5.390 -17.627  43.646  1.00  0.00    -0.504 OA
ATOM     19  H   UNL     1      -5.401 -17.660  42.634  1.00  0.00     0.293 HD
ENDBRANCH  15  18
BRANCH  17  20
ATOM     20  O   UNL     1      -2.769 -18.561  43.159  1.00  0.00    -0.504 OA
ATOM     21  H   UNL     1      -2.923 -18.753  42.177  1.00  0.00     0.293 HD
ENDBRANCH  17  20
ENDBRANCH   1  12
BRANCH   2  22
ATOM     22  O   UNL     1      -4.177 -23.594  45.321  1.00  0.00    -0.502 OA
ATOM     23  H   UNL     1      -3.786 -24.132  44.556  1.00  0.00     0.293 HD
ENDBRANCH   2  22
BRANCH   6  24
ATOM     24  O   UNL     1      -1.588 -26.114  49.062  1.00  0.00    -0.507 OA
ATOM     25  H   UNL     1      -1.342 -26.776  49.790  1.00  0.00     0.293 HD
ENDBRANCH   6  24
BRANCH   8  26
ATOM     26  O   UNL     1       0.311 -22.426  51.558  1.00  0.00    -0.508 OA
ATOM     27  H   UNL     1       1.244 -22.784  51.727  1.00  0.00     0.293 HD
ENDBRANCH   8  26
TORSDOF 6
ENDMDL
