MODEL 1
REMARK VINA RESULT:    -4.166      0.000      0.000
REMARK INTER + INTRA:          -7.973
REMARK INTER:                  -6.601
REMARK INTRA:                  -1.372
REMARK UNBOUND:                -1.372
REMARK SMILES CCCCCCCCCCCC(=O)[O-]
REMARK SMILES IDX 7 1 8 2 9 3 10 4 11 5 12 6 13 7 14 8 6 9 5 10 4 11 3 12 2 13
REMARK SMILES IDX 1 14
REMARK H PARENT
REMARK Flexibility Score: inf
ROOT
ATOM      1  C   UNL     1      -3.773  61.143  46.701  1.00  0.00     0.000 C 
ENDROOT
BRANCH   1   2
ATOM      2  C   UNL     1      -3.007  60.919  45.386  1.00  0.00     0.000 C 
BRANCH   2   3
ATOM      3  C   UNL     1      -2.531  59.467  45.219  1.00  0.00     0.000 C 
BRANCH   3   4
ATOM      4  C   UNL     1      -1.009  59.321  45.368  1.00  0.00     0.006 C 
BRANCH   4   5
ATOM      5  C   UNL     1      -0.519  58.021  44.721  1.00  0.00     0.053 C 
BRANCH   5   6
ATOM      6  C   UNL     1       0.582  58.303  43.747  1.00  0.00     0.041 C 
ATOM      7  O   UNL     1       1.330  57.371  43.350  1.00  0.00    -0.550 OA
ATOM      8  O   UNL     1       0.751  59.585  43.241  1.00  0.00    -0.550 OA
ENDBRANCH   5   6
ENDBRANCH   4   5
ENDBRANCH   3   4
ENDBRANCH   2   3
ENDBRANCH   1   2
BRANCH   1   9
ATOM      9  C   UNL     1      -4.036  59.831  47.461  1.00  0.00     0.000 C 
BRANCH   9  10
ATOM     10  C   UNL     1      -3.394  59.822  48.859  1.00  0.00    -0.000 C 
BRANCH  10  11
ATOM     11  C   UNL     1      -2.171  58.892  48.947  1.00  0.00    -0.000 C 
BRANCH  11  12
ATOM     12  C   UNL     1      -2.495  57.385  49.006  1.00  0.00    -0.000 C 
BRANCH  12  13
ATOM     13  C   UNL     1      -2.106  56.586  47.751  1.00  0.00    -0.003 C 
ATOM     14  C   UNL     1      -3.296  56.293  46.839  1.00  0.00     0.004 C 
ENDBRANCH  12  13
ENDBRANCH  11  12
ENDBRANCH  10  11
ENDBRANCH   9  10
ENDBRANCH   1   9
TORSDOF 10
ENDMDL
MODEL 2
REMARK VINA RESULT:    -4.109      1.514      2.843
REMARK INTER + INTRA:          -7.883
REMARK INTER:                  -6.584
REMARK INTRA:                  -1.299
REMARK UNBOUND:                -1.372
REMARK SMILES CCCCCCCCCCCC(=O)[O-]
REMARK SMILES IDX 7 1 8 2 9 3 10 4 11 5 12 6 13 7 14 8 6 9 5 10 4 11 3 12 2 13
REMARK SMILES IDX 1 14
REMARK H PARENT
REMARK Flexibility Score: inf
ROOT
ATOM      1  C   UNL     1      -4.093  57.524  45.698  1.00  0.00     0.000 C 
ENDROOT
BRANCH   1   2
ATOM      2  C   UNL     1      -2.873  58.141  44.993  1.00  0.00     0.000 C 
BRANCH   2   3
ATOM      3  C   UNL     1      -2.760  59.656  45.227  1.00  0.00     0.000 C 
BRANCH   3   4
ATOM      4  C   UNL     1      -1.352  60.085  45.669  1.00  0.00     0.006 C 
BRANCH   4   5
ATOM      5  C   UNL     1      -0.423  60.238  44.460  1.00  0.00     0.053 C 
BRANCH   5   6
ATOM      6  C   UNL     1       0.986  60.474  44.908  1.00  0.00     0.041 C 
ATOM      7  O   UNL     1       1.948  60.007  44.243  1.00  0.00    -0.550 OA
ATOM      8  O   UNL     1       1.237  61.249  46.033  1.00  0.00    -0.550 OA
ENDBRANCH   5   6
ENDBRANCH   4   5
ENDBRANCH   3   4
ENDBRANCH   2   3
ENDBRANCH   1   2
BRANCH   1   9
ATOM      9  C   UNL     1      -3.708  56.372  46.642  1.00  0.00     0.000 C 
BRANCH   9  10
ATOM     10  C   UNL     1      -2.196  56.320  46.920  1.00  0.00    -0.000 C 
BRANCH  10  11
ATOM     11  C   UNL     1      -1.864  56.362  48.423  1.00  0.00    -0.000 C 
BRANCH  11  12
ATOM     12  C   UNL     1      -2.636  57.421  49.236  1.00  0.00    -0.000 C 
BRANCH  12  13
ATOM     13  C   UNL     1      -2.277  58.880  48.911  1.00  0.00    -0.003 C 
ATOM     14  C   UNL     1      -3.499  59.796  48.853  1.00  0.00     0.004 C 
ENDBRANCH  12  13
ENDBRANCH  11  12
ENDBRANCH  10  11
ENDBRANCH   9  10
ENDBRANCH   1   9
TORSDOF 10
ENDMDL
MODEL 3
REMARK VINA RESULT:    -4.068      1.524      2.950
REMARK INTER + INTRA:          -7.818
REMARK INTER:                  -6.726
REMARK INTRA:                  -1.092
REMARK UNBOUND:                -1.372
REMARK SMILES CCCCCCCCCCCC(=O)[O-]
REMARK SMILES IDX 7 1 8 2 9 3 10 4 11 5 12 6 13 7 14 8 6 9 5 10 4 11 3 12 2 13
REMARK SMILES IDX 1 14
REMARK H PARENT
REMARK Flexibility Score: inf
ROOT
ATOM      1  C   UNL     1      -2.691  59.159  45.201  1.00  0.00     0.000 C 
ENDROOT
BRANCH   1   2
ATOM      2  C   UNL     1      -1.156  59.201  45.292  1.00  0.00     0.000 C 
BRANCH   2   3
ATOM      3  C   UNL     1      -0.488  58.027  44.557  1.00  0.00     0.000 C 
BRANCH   3   4
ATOM      4  C   UNL     1       0.620  58.482  43.595  1.00  0.00     0.006 C 
BRANCH   4   5
ATOM      5  C   UNL     1       1.537  57.312  43.225  1.00  0.00     0.053 C 
BRANCH   5   6
ATOM      6  C   UNL     1       2.968  57.751  43.216  1.00  0.00     0.041 C 
ATOM      7  O   UNL     1       3.265  58.950  43.462  1.00  0.00    -0.550 OA
ATOM      8  O   UNL     1       3.977  56.824  42.985  1.00  0.00    -0.550 OA
ENDBRANCH   5   6
ENDBRANCH   4   5
ENDBRANCH   3   4
ENDBRANCH   2   3
ENDBRANCH   1   2
BRANCH   1   9
ATOM      9  C   UNL     1      -3.224  57.752  44.879  1.00  0.00     0.000 C 
BRANCH   9  10
ATOM     10  C   UNL     1      -3.855  57.067  46.103  1.00  0.00    -0.000 C 
BRANCH  10  11
ATOM     11  C   UNL     1      -2.923  56.025  46.748  1.00  0.00    -0.000 C 
BRANCH  11  12
ATOM     12  C   UNL     1      -1.955  56.579  47.813  1.00  0.00    -0.000 C 
BRANCH  12  13
ATOM     13  C   UNL     1      -2.621  57.383  48.942  1.00  0.00    -0.003 C 
ATOM     14  C   UNL     1      -2.258  58.867  48.911  1.00  0.00     0.004 C 
ENDBRANCH  12  13
ENDBRANCH  11  12
ENDBRANCH  10  11
ENDBRANCH   9  10
ENDBRANCH   1   9
TORSDOF 10
ENDMDL
MODEL 4
REMARK VINA RESULT:    -4.000      2.277      4.218
REMARK INTER + INTRA:          -7.710
REMARK INTER:                  -6.310
REMARK INTRA:                  -1.400
REMARK UNBOUND:                -1.372
REMARK SMILES CCCCCCCCCCCC(=O)[O-]
REMARK SMILES IDX 7 1 8 2 9 3 10 4 11 5 12 6 13 7 14 8 6 9 5 10 4 11 3 12 2 13
REMARK SMILES IDX 1 14
REMARK H PARENT
REMARK Flexibility Score: inf
ROOT
ATOM      1  C   UNL     1      -2.157  58.870  48.827  1.00  0.00     0.000 C 
ENDROOT
BRANCH   1   2
ATOM      2  C   UNL     1      -3.391  59.769  49.020  1.00  0.00     0.000 C 
BRANCH   2   3
ATOM      3  C   UNL     1      -4.119  60.064  47.699  1.00  0.00     0.000 C 
BRANCH   3   4
ATOM      4  C   UNL     1      -3.621  61.349  47.020  1.00  0.00     0.006 C 
BRANCH   4   5
ATOM      5  C   UNL     1      -3.908  61.319  45.516  1.00  0.00     0.053 C 
BRANCH   5   6
ATOM      6  C   UNL     1      -3.035  62.299  44.796  1.00  0.00     0.041 C 
ATOM      7  O   UNL     1      -3.431  62.833  43.726  1.00  0.00    -0.550 OA
ATOM      8  O   UNL     1      -1.805  62.658  45.332  1.00  0.00    -0.550 OA
ENDBRANCH   5   6
ENDBRANCH   4   5
ENDBRANCH   3   4
ENDBRANCH   2   3
ENDBRANCH   1   2
BRANCH   1   9
ATOM      9  C   UNL     1      -2.482  57.377  49.000  1.00  0.00     0.000 C 
BRANCH   9  10
ATOM     10  C   UNL     1      -2.183  56.559  47.732  1.00  0.00    -0.000 C 
BRANCH  10  11
ATOM     11  C   UNL     1      -3.274  56.708  46.656  1.00  0.00    -0.000 C 
BRANCH  11  12
ATOM     12  C   UNL     1      -2.883  57.575  45.441  1.00  0.00    -0.000 C 
BRANCH  12  13
ATOM     13  C   UNL     1      -1.371  57.753  45.229  1.00  0.00    -0.003 C 
ATOM     14  C   UNL     1      -0.938  59.218  45.227  1.00  0.00     0.004 C 
ENDBRANCH  12  13
ENDBRANCH  11  12
ENDBRANCH  10  11
ENDBRANCH   9  10
ENDBRANCH   1   9
TORSDOF 10
ENDMDL
MODEL 5
REMARK VINA RESULT:    -3.955      3.229      6.093
REMARK INTER + INTRA:          -7.640
REMARK INTER:                  -7.295
REMARK INTRA:                  -0.345
REMARK UNBOUND:                -1.372
REMARK SMILES CCCCCCCCCCCC(=O)[O-]
REMARK SMILES IDX 7 1 8 2 9 3 10 4 11 5 12 6 13 7 14 8 6 9 5 10 4 11 3 12 2 13
REMARK SMILES IDX 1 14
REMARK H PARENT
REMARK Flexibility Score: inf
ROOT
ATOM      1  C   UNL     1      -1.498  58.640  45.130  1.00  0.00     0.000 C 
ENDROOT
BRANCH   1   2
ATOM      2  C   UNL     1      -2.822  57.939  44.783  1.00  0.00     0.000 C 
BRANCH   2   3
ATOM      3  C   UNL     1      -3.799  57.900  45.970  1.00  0.00     0.000 C 
BRANCH   3   4
ATOM      4  C   UNL     1      -3.780  56.554  46.710  1.00  0.00     0.006 C 
BRANCH   4   5
ATOM      5  C   UNL     1      -2.479  56.384  47.501  1.00  0.00     0.053 C 
BRANCH   5   6
ATOM      6  C   UNL     1      -2.579  57.071  48.827  1.00  0.00     0.041 C 
ATOM      7  O   UNL     1      -2.708  56.396  49.882  1.00  0.00    -0.550 OA
ATOM      8  O   UNL     1      -2.481  58.455  48.902  1.00  0.00    -0.550 OA
ENDBRANCH   5   6
ENDBRANCH   4   5
ENDBRANCH   3   4
ENDBRANCH   2   3
ENDBRANCH   1   2
BRANCH   1   9
ATOM      9  C   UNL     1      -0.269  57.772  44.808  1.00  0.00     0.000 C 
BRANCH   9  10
ATOM     10  C   UNL     1       0.115  57.825  43.320  1.00  0.00    -0.000 C 
BRANCH  10  11
ATOM     11  C   UNL     1       1.546  58.343  43.091  1.00  0.00    -0.000 C 
BRANCH  11  12
ATOM     12  C   UNL     1       2.641  57.257  43.063  1.00  0.00    -0.000 C 
BRANCH  12  13
ATOM     13  C   UNL     1       4.080  57.778  43.208  1.00  0.00    -0.003 C 
ATOM     14  C   UNL     1       4.152  59.298  43.344  1.00  0.00     0.004 C 
ENDBRANCH  12  13
ENDBRANCH  11  12
ENDBRANCH  10  11
ENDBRANCH   9  10
ENDBRANCH   1   9
TORSDOF 10
ENDMDL
MODEL 6
REMARK VINA RESULT:    -3.952      2.226      4.535
REMARK INTER + INTRA:          -7.635
REMARK INTER:                  -6.633
REMARK INTRA:                  -1.002
REMARK UNBOUND:                -1.372
REMARK SMILES CCCCCCCCCCCC(=O)[O-]
REMARK SMILES IDX 7 1 8 2 9 3 10 4 11 5 12 6 13 7 14 8 6 9 5 10 4 11 3 12 2 13
REMARK SMILES IDX 1 14
REMARK H PARENT
REMARK Flexibility Score: inf
ROOT
ATOM      1  C   UNL     1      -3.879  59.892  46.077  1.00  0.00     0.000 C 
ENDROOT
BRANCH   1   2
ATOM      2  C   UNL     1      -3.458  60.557  47.400  1.00  0.00     0.000 C 
BRANCH   2   3
ATOM      3  C   UNL     1      -3.520  59.589  48.593  1.00  0.00     0.000 C 
BRANCH   3   4
ATOM      4  C   UNL     1      -2.219  58.792  48.778  1.00  0.00     0.006 C 
BRANCH   4   5
ATOM      5  C   UNL     1      -2.516  57.304  48.991  1.00  0.00     0.053 C 
BRANCH   5   6
ATOM      6  C   UNL     1      -2.444  56.564  47.692  1.00  0.00     0.041 C 
ATOM      7  O   UNL     1      -3.467  56.456  46.967  1.00  0.00    -0.550 OA
ATOM      8  O   UNL     1      -1.235  56.034  47.261  1.00  0.00    -0.550 OA
ENDBRANCH   5   6
ENDBRANCH   4   5
ENDBRANCH   3   4
ENDBRANCH   2   3
ENDBRANCH   1   2
BRANCH   1   9
ATOM      9  C   UNL     1      -2.674  59.448  45.231  1.00  0.00     0.000 C 
BRANCH   9  10
ATOM     10  C   UNL     1      -1.523  60.468  45.266  1.00  0.00    -0.000 C 
BRANCH  10  11
ATOM     11  C   UNL     1      -0.146  59.821  45.028  1.00  0.00    -0.000 C 
BRANCH  11  12
ATOM     12  C   UNL     1      -0.176  58.312  44.707  1.00  0.00    -0.000 C 
BRANCH  12  13
ATOM     13  C   UNL     1       0.267  57.941  43.282  1.00  0.00    -0.003 C 
ATOM     14  C   UNL     1       1.707  57.434  43.219  1.00  0.00     0.004 C 
ENDBRANCH  12  13
ENDBRANCH  11  12
ENDBRANCH  10  11
ENDBRANCH   9  10
ENDBRANCH   1   9
TORSDOF 10
ENDMDL
MODEL 7
REMARK VINA RESULT:    -3.870     14.075     15.616
REMARK INTER + INTRA:          -7.505
REMARK INTER:                  -6.478
REMARK INTRA:                  -1.027
REMARK UNBOUND:                -1.372
REMARK SMILES CCCCCCCCCCCC(=O)[O-]
REMARK SMILES IDX 7 1 8 2 9 3 10 4 11 5 12 6 13 7 14 8 6 9 5 10 4 11 3 12 2 13
REMARK SMILES IDX 1 14
REMARK H PARENT
REMARK Flexibility Score: inf
ROOT
ATOM      1  C   UNL     1       6.102  60.917  59.703  1.00  0.00     0.000 C 
ENDROOT
BRANCH   1   2
ATOM      2  C   UNL     1       6.722  61.963  58.761  1.00  0.00     0.000 C 
BRANCH   2   3
ATOM      3  C   UNL     1       8.131  62.392  59.200  1.00  0.00     0.000 C 
BRANCH   3   4
ATOM      4  C   UNL     1       9.150  62.349  58.050  1.00  0.00     0.006 C 
BRANCH   4   5
ATOM      5  C   UNL     1      10.147  63.507  58.161  1.00  0.00     0.053 C 
BRANCH   5   6
ATOM      6  C   UNL     1      10.110  64.350  56.924  1.00  0.00     0.041 C 
ATOM      7  O   UNL     1      10.540  63.893  55.833  1.00  0.00    -0.550 OA
ATOM      8  O   UNL     1       9.556  65.623  56.968  1.00  0.00    -0.550 OA
ENDBRANCH   5   6
ENDBRANCH   4   5
ENDBRANCH   3   4
ENDBRANCH   2   3
ENDBRANCH   1   2
BRANCH   1   9
ATOM      9  C   UNL     1       5.670  59.640  58.963  1.00  0.00     0.000 C 
BRANCH   9  10
ATOM     10  C   UNL     1       5.787  59.777  57.435  1.00  0.00    -0.000 C 
BRANCH  10  11
ATOM     11  C   UNL     1       6.704  58.711  56.809  1.00  0.00    -0.000 C 
BRANCH  11  12
ATOM     12  C   UNL     1       7.840  59.260  55.923  1.00  0.00    -0.000 C 
BRANCH  12  13
ATOM     13  C   UNL     1       7.608  60.677  55.372  1.00  0.00    -0.003 C 
ATOM     14  C   UNL     1       8.574  61.046  54.247  1.00  0.00     0.004 C 
ENDBRANCH  12  13
ENDBRANCH  11  12
ENDBRANCH  10  11
ENDBRANCH   9  10
ENDBRANCH   1   9
TORSDOF 10
ENDMDL
MODEL 8
REMARK VINA RESULT:    -3.784      3.100      5.195
REMARK INTER + INTRA:          -7.368
REMARK INTER:                  -6.344
REMARK INTRA:                  -1.024
REMARK UNBOUND:                -1.372
REMARK SMILES CCCCCCCCCCCC(=O)[O-]
REMARK SMILES IDX 7 1 8 2 9 3 10 4 11 5 12 6 13 7 14 8 6 9 5 10 4 11 3 12 2 13
REMARK SMILES IDX 1 14
REMARK H PARENT
REMARK Flexibility Score: inf
ROOT
ATOM      1  C   UNL     1      -2.312  59.588  45.472  1.00  0.00     0.000 C 
ENDROOT
BRANCH   1   2
ATOM      2  C   UNL     1      -2.343  58.074  45.199  1.00  0.00     0.000 C 
BRANCH   2   3
ATOM      3  C   UNL     1      -3.734  57.461  45.429  1.00  0.00     0.000 C 
BRANCH   3   4
ATOM      4  C   UNL     1      -3.777  56.529  46.650  1.00  0.00     0.006 C 
BRANCH   4   5
ATOM      5  C   UNL     1      -2.423  56.503  47.365  1.00  0.00     0.053 C 
BRANCH   5   6
ATOM      6  C   UNL     1      -2.535  57.124  48.723  1.00  0.00     0.041 C 
ATOM      7  O   UNL     1      -2.560  56.397  49.751  1.00  0.00    -0.550 OA
ATOM      8  O   UNL     1      -2.563  58.506  48.855  1.00  0.00    -0.550 OA
ENDBRANCH   5   6
ENDBRANCH   4   5
ENDBRANCH   3   4
ENDBRANCH   2   3
ENDBRANCH   1   2
BRANCH   1   9
ATOM      9  C   UNL     1      -3.689  60.143  45.873  1.00  0.00     0.000 C 
BRANCH   9  10
ATOM     10  C   UNL     1      -3.588  61.267  46.918  1.00  0.00    -0.000 C 
BRANCH  10  11
ATOM     11  C   UNL     1      -4.125  62.614  46.399  1.00  0.00    -0.000 C 
BRANCH  11  12
ATOM     12  C   UNL     1      -3.311  63.245  45.250  1.00  0.00    -0.000 C 
BRANCH  12  13
ATOM     13  C   UNL     1      -1.879  63.665  45.621  1.00  0.00    -0.003 C 
ATOM     14  C   UNL     1      -0.814  62.941  44.799  1.00  0.00     0.004 C 
ENDBRANCH  12  13
ENDBRANCH  11  12
ENDBRANCH  10  11
ENDBRANCH   9  10
ENDBRANCH   1   9
TORSDOF 10
ENDMDL
MODEL 9
REMARK VINA RESULT:    -3.755      2.453      4.103
REMARK INTER + INTRA:          -7.323
REMARK INTER:                  -6.119
REMARK INTRA:                  -1.203
REMARK UNBOUND:                -1.372
REMARK SMILES CCCCCCCCCCCC(=O)[O-]
REMARK SMILES IDX 7 1 8 2 9 3 10 4 11 5 12 6 13 7 14 8 6 9 5 10 4 11 3 12 2 13
REMARK SMILES IDX 1 14
REMARK H PARENT
REMARK Flexibility Score: inf
ROOT
ATOM      1  C   UNL     1      -2.298  58.104  45.236  1.00  0.00     0.000 C 
ENDROOT
BRANCH   1   2
ATOM      2  C   UNL     1      -2.409  59.637  45.177  1.00  0.00     0.000 C 
BRANCH   2   3
ATOM      3  C   UNL     1      -3.825  60.140  45.506  1.00  0.00     0.000 C 
BRANCH   3   4
ATOM      4  C   UNL     1      -3.886  61.664  45.687  1.00  0.00     0.006 C 
BRANCH   4   5
ATOM      5  C   UNL     1      -2.898  62.366  44.751  1.00  0.00     0.053 C 
BRANCH   5   6
ATOM      6  C   UNL     1      -2.022  63.304  45.520  1.00  0.00     0.041 C 
ATOM      7  O   UNL     1      -2.531  64.144  46.308  1.00  0.00    -0.550 OA
ATOM      8  O   UNL     1      -0.640  63.219  45.403  1.00  0.00    -0.550 OA
ENDBRANCH   5   6
ENDBRANCH   4   5
ENDBRANCH   3   4
ENDBRANCH   2   3
ENDBRANCH   1   2
BRANCH   1   9
ATOM      9  C   UNL     1      -3.671  57.416  45.332  1.00  0.00     0.000 C 
BRANCH   9  10
ATOM     10  C   UNL     1      -3.822  56.581  46.615  1.00  0.00    -0.000 C 
BRANCH  10  11
ATOM     11  C   UNL     1      -2.528  56.527  47.447  1.00  0.00    -0.000 C 
BRANCH  11  12
ATOM     12  C   UNL     1      -2.616  57.184  48.840  1.00  0.00    -0.000 C 
BRANCH  12  13
ATOM     13  C   UNL     1      -2.239  58.675  48.881  1.00  0.00    -0.003 C 
ATOM     14  C   UNL     1      -3.457  59.597  48.915  1.00  0.00     0.004 C 
ENDBRANCH  12  13
ENDBRANCH  11  12
ENDBRANCH  10  11
ENDBRANCH   9  10
ENDBRANCH   1   9
TORSDOF 10
ENDMDL
