MODEL 1
REMARK VINA RESULT:    -2.631      0.000      0.000
REMARK INTER + INTRA:          -5.785
REMARK INTER:                  -4.476
REMARK INTRA:                  -1.309
REMARK UNBOUND:                -1.309
REMARK SMILES CCCCCCCCCCCCCC(=O)[O-]
REMARK SMILES IDX 8 1 9 2 10 3 11 4 12 5 13 6 14 7 15 8 16 9 7 10 6 11 5 12
REMARK SMILES IDX 4 13 3 14 2 15 1 16
REMARK H PARENT
REMARK Flexibility Score: inf
ROOT
ATOM      1  C   UNL     1       7.335 -22.640 -18.893  1.00  0.00     0.000 C 
ENDROOT
BRANCH   1   2
ATOM      2  C   UNL     1       6.209 -23.123 -17.972  1.00  0.00     0.000 C 
BRANCH   2   3
ATOM      3  C   UNL     1       6.511 -22.793 -16.503  1.00  0.00     0.000 C 
BRANCH   3   4
ATOM      4  C   UNL     1       6.169 -21.328 -16.156  1.00  0.00     0.000 C 
BRANCH   4   5
ATOM      5  C   UNL     1       7.381 -20.516 -15.661  1.00  0.00     0.006 C 
BRANCH   5   6
ATOM      6  C   UNL     1       8.529 -21.374 -15.106  1.00  0.00     0.053 C 
BRANCH   6   7
ATOM      7  C   UNL     1       9.786 -20.578 -14.924  1.00  0.00     0.041 C 
ATOM      8  O   UNL     1       9.885 -19.754 -13.976  1.00  0.00    -0.550 OA
ATOM      9  O   UNL     1      10.851 -20.750 -15.797  1.00  0.00    -0.550 OA
ENDBRANCH   6   7
ENDBRANCH   5   6
ENDBRANCH   4   5
ENDBRANCH   3   4
ENDBRANCH   2   3
ENDBRANCH   1   2
BRANCH   1  10
ATOM     10  C   UNL     1       8.704 -23.071 -18.348  1.00  0.00     0.000 C 
BRANCH  10  11
ATOM     11  C   UNL     1       9.844 -22.134 -18.784  1.00  0.00    -0.000 C 
BRANCH  11  12
ATOM     12  C   UNL     1      10.720 -22.668 -19.935  1.00  0.00    -0.000 C 
BRANCH  12  13
ATOM     13  C   UNL     1      10.509 -21.930 -21.274  1.00  0.00    -0.000 C 
BRANCH  13  14
ATOM     14  C   UNL     1      10.128 -22.893 -22.415  1.00  0.00    -0.000 C 
BRANCH  14  15
ATOM     15  C   UNL     1       8.931 -22.389 -23.235  1.00  0.00    -0.003 C 
ATOM     16  C   UNL     1       8.185 -21.250 -22.541  1.00  0.00     0.004 C 
ENDBRANCH  14  15
ENDBRANCH  13  14
ENDBRANCH  12  13
ENDBRANCH  11  12
ENDBRANCH  10  11
ENDBRANCH   1  10
TORSDOF 12
ENDMDL
MODEL 2
REMARK VINA RESULT:    -1.934      3.093      5.973
REMARK INTER + INTRA:          -4.600
REMARK INTER:                  -4.129
REMARK INTRA:                  -0.471
REMARK UNBOUND:                -1.309
REMARK SMILES CCCCCCCCCCCCCC(=O)[O-]
REMARK SMILES IDX 8 1 9 2 10 3 11 4 12 5 13 6 14 7 15 8 16 9 7 10 6 11 5 12
REMARK SMILES IDX 4 13 3 14 2 15 1 16
REMARK H PARENT
REMARK Flexibility Score: inf
ROOT
ATOM      1  C   UNL     1       5.837 -21.517 -16.904  1.00  0.00     0.000 C 
ENDROOT
BRANCH   1   2
ATOM      2  C   UNL     1       6.017 -22.924 -17.482  1.00  0.00     0.000 C 
BRANCH   2   3
ATOM      3  C   UNL     1       6.500 -22.869 -18.939  1.00  0.00     0.000 C 
BRANCH   3   4
ATOM      4  C   UNL     1       8.019 -23.115 -19.057  1.00  0.00     0.000 C 
BRANCH   4   5
ATOM      5  C   UNL     1       8.715 -22.180 -20.064  1.00  0.00     0.006 C 
BRANCH   5   6
ATOM      6  C   UNL     1       9.213 -22.884 -21.337  1.00  0.00     0.053 C 
BRANCH   6   7
ATOM      7  C   UNL     1       8.508 -22.389 -22.563  1.00  0.00     0.041 C 
ATOM      8  O   UNL     1       8.455 -23.105 -23.599  1.00  0.00    -0.550 OA
ATOM      9  O   UNL     1       7.902 -21.139 -22.562  1.00  0.00    -0.550 OA
ENDBRANCH   6   7
ENDBRANCH   5   6
ENDBRANCH   4   5
ENDBRANCH   3   4
ENDBRANCH   2   3
ENDBRANCH   1   2
BRANCH   1  10
ATOM     10  C   UNL     1       7.199 -20.839 -16.692  1.00  0.00     0.000 C 
BRANCH  10  11
ATOM     11  C   UNL     1       7.387 -20.309 -15.259  1.00  0.00    -0.000 C 
BRANCH  11  12
ATOM     12  C   UNL     1       8.543 -20.960 -14.473  1.00  0.00    -0.000 C 
BRANCH  12  13
ATOM     13  C   UNL     1       9.840 -20.123 -14.461  1.00  0.00    -0.000 C 
BRANCH  13  14
ATOM     14  C   UNL     1      10.786 -20.500 -15.615  1.00  0.00    -0.000 C 
BRANCH  14  15
ATOM     15  C   UNL     1      10.254 -21.671 -16.453  1.00  0.00    -0.003 C 
ATOM     16  C   UNL     1      11.125 -21.957 -17.677  1.00  0.00     0.004 C 
ENDBRANCH  14  15
ENDBRANCH  13  14
ENDBRANCH  12  13
ENDBRANCH  11  12
ENDBRANCH  10  11
ENDBRANCH   1  10
TORSDOF 12
ENDMDL
MODEL 3
REMARK VINA RESULT:    -1.750      2.163      6.020
REMARK INTER + INTRA:          -4.287
REMARK INTER:                  -3.461
REMARK INTRA:                  -0.825
REMARK UNBOUND:                -1.309
REMARK SMILES CCCCCCCCCCCCCC(=O)[O-]
REMARK SMILES IDX 8 1 9 2 10 3 11 4 12 5 13 6 14 7 15 8 16 9 7 10 6 11 5 12
REMARK SMILES IDX 4 13 3 14 2 15 1 16
REMARK H PARENT
REMARK Flexibility Score: inf
ROOT
ATOM      1  C   UNL     1       5.589 -22.913 -18.501  1.00  0.00     0.000 C 
ENDROOT
BRANCH   1   2
ATOM      2  C   UNL     1       5.799 -23.125 -20.005  1.00  0.00     0.000 C 
BRANCH   2   3
ATOM      3  C   UNL     1       7.281 -22.993 -20.384  1.00  0.00     0.000 C 
BRANCH   3   4
ATOM      4  C   UNL     1       7.480 -22.854 -21.909  1.00  0.00     0.000 C 
BRANCH   4   5
ATOM      5  C   UNL     1       8.945 -22.609 -22.316  1.00  0.00     0.006 C 
BRANCH   5   6
ATOM      6  C   UNL     1       9.922 -22.529 -21.132  1.00  0.00     0.053 C 
BRANCH   6   7
ATOM      7  C   UNL     1      10.512 -21.159 -20.984  1.00  0.00     0.041 C 
ATOM      8  O   UNL     1      10.449 -20.333 -21.933  1.00  0.00    -0.550 OA
ATOM      9  O   UNL     1      11.125 -20.790 -19.793  1.00  0.00    -0.550 OA
ENDBRANCH   6   7
ENDBRANCH   5   6
ENDBRANCH   4   5
ENDBRANCH   3   4
ENDBRANCH   2   3
ENDBRANCH   1   2
BRANCH   1  10
ATOM     10  C   UNL     1       6.938 -22.776 -17.780  1.00  0.00     0.000 C 
BRANCH  10  11
ATOM     11  C   UNL     1       6.810 -22.134 -16.387  1.00  0.00    -0.000 C 
BRANCH  11  12
ATOM     12  C   UNL     1       7.155 -20.632 -16.330  1.00  0.00    -0.000 C 
BRANCH  12  13
ATOM     13  C   UNL     1       7.684 -20.165 -14.957  1.00  0.00    -0.000 C 
BRANCH  13  14
ATOM     14  C   UNL     1       8.663 -21.178 -14.335  1.00  0.00    -0.000 C 
BRANCH  14  15
ATOM     15  C   UNL     1      10.090 -20.624 -14.220  1.00  0.00    -0.003 C 
ATOM     16  C   UNL     1      10.703 -20.299 -15.582  1.00  0.00     0.004 C 
ENDBRANCH  14  15
ENDBRANCH  13  14
ENDBRANCH  12  13
ENDBRANCH  11  12
ENDBRANCH  10  11
ENDBRANCH   1  10
TORSDOF 12
ENDMDL
MODEL 4
REMARK VINA RESULT:    -1.665      3.359      6.811
REMARK INTER + INTRA:          -4.143
REMARK INTER:                  -3.341
REMARK INTRA:                  -0.802
REMARK UNBOUND:                -1.309
REMARK SMILES CCCCCCCCCCCCCC(=O)[O-]
REMARK SMILES IDX 8 1 9 2 10 3 11 4 12 5 13 6 14 7 15 8 16 9 7 10 6 11 5 12
REMARK SMILES IDX 4 13 3 14 2 15 1 16
REMARK H PARENT
REMARK Flexibility Score: inf
ROOT
ATOM      1  C   UNL     1       8.466 -21.686 -16.397  1.00  0.00     0.000 C 
ENDROOT
BRANCH   1   2
ATOM      2  C   UNL     1       9.853 -21.631 -17.048  1.00  0.00     0.000 C 
BRANCH   2   3
ATOM      3  C   UNL     1      10.126 -22.889 -17.884  1.00  0.00     0.000 C 
BRANCH   3   4
ATOM      4  C   UNL     1      10.999 -22.587 -19.121  1.00  0.00     0.000 C 
BRANCH   4   5
ATOM      5  C   UNL     1      10.234 -22.699 -20.453  1.00  0.00     0.006 C 
BRANCH   5   6
ATOM      6  C   UNL     1       9.633 -21.373 -20.948  1.00  0.00     0.053 C 
BRANCH   6   7
ATOM      7  C   UNL     1       9.164 -21.465 -22.368  1.00  0.00     0.041 C 
ATOM      8  O   UNL     1       7.969 -21.198 -22.662  1.00  0.00    -0.550 OA
ATOM      9  O   UNL     1      10.050 -21.841 -23.371  1.00  0.00    -0.550 OA
ENDBRANCH   6   7
ENDBRANCH   5   6
ENDBRANCH   4   5
ENDBRANCH   3   4
ENDBRANCH   2   3
ENDBRANCH   1   2
BRANCH   1  10
ATOM     10  C   UNL     1       7.365 -21.502 -17.452  1.00  0.00     0.000 C 
BRANCH  10  11
ATOM     11  C   UNL     1       6.499 -22.760 -17.638  1.00  0.00    -0.000 C 
BRANCH  11  12
ATOM     12  C   UNL     1       5.320 -22.889 -16.652  1.00  0.00    -0.000 C 
BRANCH  12  13
ATOM     13  C   UNL     1       4.839 -21.540 -16.074  1.00  0.00    -0.000 C 
BRANCH  13  14
ATOM     14  C   UNL     1       3.529 -21.684 -15.278  1.00  0.00    -0.000 C 
BRANCH  14  15
ATOM     15  C   UNL     1       2.511 -22.596 -15.978  1.00  0.00    -0.003 C 
ATOM     16  C   UNL     1       1.106 -21.994 -16.001  1.00  0.00     0.004 C 
ENDBRANCH  14  15
ENDBRANCH  13  14
ENDBRANCH  12  13
ENDBRANCH  11  12
ENDBRANCH  10  11
ENDBRANCH   1  10
TORSDOF 12
ENDMDL
MODEL 5
REMARK VINA RESULT:    -1.503      6.070      8.055
REMARK INTER + INTRA:          -3.866
REMARK INTER:                  -3.343
REMARK INTRA:                  -0.523
REMARK UNBOUND:                -1.309
REMARK SMILES CCCCCCCCCCCCCC(=O)[O-]
REMARK SMILES IDX 8 1 9 2 10 3 11 4 12 5 13 6 14 7 15 8 16 9 7 10 6 11 5 12
REMARK SMILES IDX 4 13 3 14 2 15 1 16
REMARK H PARENT
REMARK Flexibility Score: inf
ROOT
ATOM      1  C   UNL     1       3.770 -21.600 -15.512  1.00  0.00     0.000 C 
ENDROOT
BRANCH   1   2
ATOM      2  C   UNL     1       3.338 -23.008 -15.937  1.00  0.00     0.000 C 
BRANCH   2   3
ATOM      3  C   UNL     1       1.809 -23.125 -16.000  1.00  0.00     0.000 C 
BRANCH   3   4
ATOM      4  C   UNL     1       1.133 -21.763 -16.269  1.00  0.00     0.000 C 
BRANCH   4   5
ATOM      5  C   UNL     1      -0.388 -21.774 -16.020  1.00  0.00     0.006 C 
BRANCH   5   6
ATOM      6  C   UNL     1      -0.895 -23.023 -15.282  1.00  0.00     0.053 C 
BRANCH   6   7
ATOM      7  C   UNL     1      -2.262 -22.815 -14.703  1.00  0.00     0.041 C 
ATOM      8  O   UNL     1      -3.288 -23.079 -15.384  1.00  0.00    -0.550 OA
ATOM      9  O   UNL     1      -2.403 -22.334 -13.407  1.00  0.00    -0.550 OA
ENDBRANCH   6   7
ENDBRANCH   5   6
ENDBRANCH   4   5
ENDBRANCH   3   4
ENDBRANCH   2   3
ENDBRANCH   1   2
BRANCH   1  10
ATOM     10  C   UNL     1       5.225 -21.331 -15.926  1.00  0.00     0.000 C 
BRANCH  10  11
ATOM     11  C   UNL     1       5.929 -22.581 -16.482  1.00  0.00    -0.000 C 
BRANCH  11  12
ATOM     12  C   UNL     1       6.963 -22.304 -17.592  1.00  0.00    -0.000 C 
BRANCH  12  13
ATOM     13  C   UNL     1       8.252 -21.618 -17.088  1.00  0.00    -0.000 C 
BRANCH  13  14
ATOM     14  C   UNL     1       8.478 -21.841 -15.582  1.00  0.00    -0.000 C 
BRANCH  14  15
ATOM     15  C   UNL     1       8.647 -20.524 -14.810  1.00  0.00    -0.003 C 
ATOM     16  C   UNL     1      10.114 -20.188 -14.541  1.00  0.00     0.004 C 
ENDBRANCH  14  15
ENDBRANCH  13  14
ENDBRANCH  12  13
ENDBRANCH  11  12
ENDBRANCH  10  11
ENDBRANCH   1  10
TORSDOF 12
ENDMDL
MODEL 6
REMARK VINA RESULT:    -1.362     14.113     17.328
REMARK INTER + INTRA:          -3.626
REMARK INTER:                  -3.490
REMARK INTRA:                  -0.136
REMARK UNBOUND:                -1.309
REMARK SMILES CCCCCCCCCCCCCC(=O)[O-]
REMARK SMILES IDX 8 1 9 2 10 3 11 4 12 5 13 6 14 7 15 8 16 9 7 10 6 11 5 12
REMARK SMILES IDX 4 13 3 14 2 15 1 16
REMARK H PARENT
REMARK Flexibility Score: inf
ROOT
ATOM      1  C   UNL     1      -3.924 -22.915 -13.661  1.00  0.00     0.000 C 
ENDROOT
BRANCH   1   2
ATOM      2  C   UNL     1      -3.536 -22.702 -15.129  1.00  0.00     0.000 C 
BRANCH   2   3
ATOM      3  C   UNL     1      -4.749 -22.866 -16.055  1.00  0.00     0.000 C 
BRANCH   3   4
ATOM      4  C   UNL     1      -5.546 -21.553 -16.206  1.00  0.00     0.000 C 
BRANCH   4   5
ATOM      5  C   UNL     1      -6.450 -21.524 -17.453  1.00  0.00     0.006 C 
BRANCH   5   6
ATOM      6  C   UNL     1      -7.942 -21.737 -17.154  1.00  0.00     0.053 C 
BRANCH   6   7
ATOM      7  C   UNL     1      -8.237 -21.654 -15.687  1.00  0.00     0.041 C 
ATOM      8  O   UNL     1      -8.039 -20.580 -15.058  1.00  0.00    -0.550 OA
ATOM      9  O   UNL     1      -8.737 -22.761 -15.014  1.00  0.00    -0.550 OA
ENDBRANCH   6   7
ENDBRANCH   5   6
ENDBRANCH   4   5
ENDBRANCH   3   4
ENDBRANCH   2   3
ENDBRANCH   1   2
BRANCH   1  10
ATOM     10  C   UNL     1      -5.446 -23.074 -13.521  1.00  0.00     0.000 C 
BRANCH  10  11
ATOM     11  C   UNL     1      -5.944 -22.823 -12.087  1.00  0.00    -0.000 C 
BRANCH  11  12
ATOM     12  C   UNL     1      -7.271 -22.044 -11.987  1.00  0.00    -0.000 C 
BRANCH  12  13
ATOM     13  C   UNL     1      -8.303 -22.688 -11.038  1.00  0.00    -0.000 C 
BRANCH  13  14
ATOM     14  C   UNL     1      -8.327 -22.007  -9.657  1.00  0.00    -0.000 C 
BRANCH  14  15
ATOM     15  C   UNL     1      -7.816 -22.926  -8.538  1.00  0.00    -0.003 C 
ATOM     16  C   UNL     1      -6.301 -23.125  -8.591  1.00  0.00     0.004 C 
ENDBRANCH  14  15
ENDBRANCH  13  14
ENDBRANCH  12  13
ENDBRANCH  11  12
ENDBRANCH  10  11
ENDBRANCH   1  10
TORSDOF 12
ENDMDL
