MODEL 1
REMARK VINA RESULT:    -5.980      0.000      0.000
REMARK INTER + INTRA:          -7.316
REMARK INTER:                  -7.029
REMARK INTRA:                  -0.287
REMARK UNBOUND:                -0.287
REMARK SMILES O=c1c(O)c(-c2ccc(O)cc2)oc2cc(O)cc(O)c12
REMARK SMILES IDX 5 1 3 2 2 3 1 4 21 5 19 6 18 7 16 8 15 9 14 10 13 11 6 12
REMARK SMILES IDX 7 13 8 14 9 15 12 16 11 17 10 18 4 20 20 22 17 24
REMARK H PARENT 10 19 4 21 20 23 17 25
REMARK Flexibility Score: inf
ROOT
ATOM      1  C   UNL     1      -7.885   3.764  14.494  1.00  0.00     0.180 A 
ATOM      2  C   UNL     1      -7.459   2.643  15.227  1.00  0.00     0.208 A 
ATOM      3  C   UNL     1      -7.284   2.764  16.615  1.00  0.00     0.238 A 
ATOM      4  O   UNL     1      -6.954   1.744  17.274  1.00  0.00    -0.285 OA
ATOM      5  C   UNL     1      -7.520   4.008  17.250  1.00  0.00     0.111 A 
ATOM      6  C   UNL     1      -7.335   4.255  18.644  1.00  0.00     0.134 A 
ATOM      7  C   UNL     1      -7.726   5.486  19.184  1.00  0.00     0.093 A 
ATOM      8  C   UNL     1      -8.232   6.501  18.373  1.00  0.00     0.123 A 
ATOM      9  C   UNL     1      -8.360   6.291  17.000  1.00  0.00     0.094 A 
ATOM     10  C   UNL     1      -8.014   5.060  16.436  1.00  0.00     0.146 A 
ATOM     11  O   UNL     1      -8.161   4.898  15.127  1.00  0.00    -0.452 OA
ENDROOT
BRANCH   1  12
ATOM     12  C   UNL     1      -8.068   3.721  13.025  1.00  0.00     0.021 A 
ATOM     13  C   UNL     1      -6.989   4.045  12.184  1.00  0.00     0.016 A 
ATOM     14  C   UNL     1      -7.133   3.989  10.795  1.00  0.00     0.047 A 
ATOM     15  C   UNL     1      -8.352   3.594  10.229  1.00  0.00     0.115 A 
ATOM     16  C   UNL     1      -9.282   3.305  12.449  1.00  0.00     0.016 A 
ATOM     17  C   UNL     1      -9.422   3.249  11.059  1.00  0.00     0.047 A 
BRANCH  15  18
ATOM     18  O   UNL     1      -8.508   3.535   8.846  1.00  0.00    -0.508 OA
ATOM     19  H   UNL     1      -7.722   3.662   8.219  1.00  0.00     0.293 HD
ENDBRANCH  15  18
ENDBRANCH   1  12
BRANCH   2  20
ATOM     20  O   UNL     1      -7.252   1.420  14.585  1.00  0.00    -0.502 OA
ATOM     21  H   UNL     1      -7.020   1.353  13.602  1.00  0.00     0.293 HD
ENDBRANCH   2  20
BRANCH   6  22
ATOM     22  O   UNL     1      -6.753   3.341  19.527  1.00  0.00    -0.507 OA
ATOM     23  H   UNL     1      -7.257   2.819  20.229  1.00  0.00     0.293 HD
ENDBRANCH   6  22
BRANCH   8  24
ATOM     24  O   UNL     1      -8.595   7.720  18.942  1.00  0.00    -0.508 OA
ATOM     25  H   UNL     1      -9.209   7.766  19.746  1.00  0.00     0.293 HD
ENDBRANCH   8  24
TORSDOF 5
ENDMDL
MODEL 2
REMARK VINA RESULT:    -5.815      1.598      6.427
REMARK INTER + INTRA:          -7.121
REMARK INTER:                  -6.854
REMARK INTRA:                  -0.268
REMARK UNBOUND:                -0.287
REMARK SMILES O=c1c(O)c(-c2ccc(O)cc2)oc2cc(O)cc(O)c12
REMARK SMILES IDX 5 1 3 2 2 3 1 4 21 5 19 6 18 7 16 8 15 9 14 10 13 11 6 12
REMARK SMILES IDX 7 13 8 14 9 15 12 16 11 17 10 18 4 20 20 22 17 24
REMARK H PARENT 10 19 4 21 20 23 17 25
REMARK Flexibility Score: inf
ROOT
ATOM      1  C   UNL     1      -7.830   5.128  16.051  1.00  0.00     0.180 A 
ATOM      2  C   UNL     1      -7.918   3.751  16.321  1.00  0.00     0.208 A 
ATOM      3  C   UNL     1      -8.264   2.874  15.281  1.00  0.00     0.238 A 
ATOM      4  O   UNL     1      -8.288   1.637  15.516  1.00  0.00    -0.285 OA
ATOM      5  C   UNL     1      -8.534   3.384  13.988  1.00  0.00     0.111 A 
ATOM      6  C   UNL     1      -8.933   2.592  12.870  1.00  0.00     0.134 A 
ATOM      7  C   UNL     1      -9.047   3.187  11.607  1.00  0.00     0.093 A 
ATOM      8  C   UNL     1      -8.840   4.555  11.434  1.00  0.00     0.123 A 
ATOM      9  C   UNL     1      -8.508   5.349  12.532  1.00  0.00     0.094 A 
ATOM     10  C   UNL     1      -8.351   4.779  13.798  1.00  0.00     0.146 A 
ATOM     11  O   UNL     1      -8.025   5.569  14.814  1.00  0.00    -0.452 OA
ENDROOT
BRANCH   1  12
ATOM     12  C   UNL     1      -7.495   6.117  17.101  1.00  0.00     0.021 A 
ATOM     13  C   UNL     1      -6.206   6.675  17.139  1.00  0.00     0.016 A 
ATOM     14  C   UNL     1      -5.875   7.627  18.107  1.00  0.00     0.047 A 
ATOM     15  C   UNL     1      -6.833   8.044  19.040  1.00  0.00     0.115 A 
ATOM     16  C   UNL     1      -8.458   6.556  18.028  1.00  0.00     0.016 A 
ATOM     17  C   UNL     1      -8.124   7.510  18.995  1.00  0.00     0.047 A 
BRANCH  15  18
ATOM     18  O   UNL     1      -6.515   8.992  20.011  1.00  0.00    -0.508 OA
ATOM     19  H   UNL     1      -6.868   9.940  19.960  1.00  0.00     0.293 HD
ENDBRANCH  15  18
ENDBRANCH   1  12
BRANCH   2  20
ATOM     20  O   UNL     1      -7.626   3.265  17.598  1.00  0.00    -0.502 OA
ATOM     21  H   UNL     1      -8.342   3.089  18.291  1.00  0.00     0.293 HD
ENDBRANCH   2  20
BRANCH   6  22
ATOM     22  O   UNL     1      -9.253   1.234  12.952  1.00  0.00    -0.507 OA
ATOM     23  H   UNL     1      -8.578   0.485  12.983  1.00  0.00     0.293 HD
ENDBRANCH   6  22
BRANCH   8  24
ATOM     24  O   UNL     1      -8.976   5.116  10.166  1.00  0.00    -0.508 OA
ATOM     25  H   UNL     1      -9.753   5.723   9.937  1.00  0.00     0.293 HD
ENDBRANCH   8  24
TORSDOF 5
ENDMDL
MODEL 3
REMARK VINA RESULT:    -5.801      2.111      2.839
REMARK INTER + INTRA:          -7.105
REMARK INTER:                  -6.829
REMARK INTRA:                  -0.276
REMARK UNBOUND:                -0.287
REMARK SMILES O=c1c(O)c(-c2ccc(O)cc2)oc2cc(O)cc(O)c12
REMARK SMILES IDX 5 1 3 2 2 3 1 4 21 5 19 6 18 7 16 8 15 9 14 10 13 11 6 12
REMARK SMILES IDX 7 13 8 14 9 15 12 16 11 17 10 18 4 20 20 22 17 24
REMARK H PARENT 10 19 4 21 20 23 17 25
REMARK Flexibility Score: inf
ROOT
ATOM      1  C   UNL     1      -7.796   3.362  12.232  1.00  0.00     0.180 A 
ATOM      2  C   UNL     1      -8.417   2.547  13.195  1.00  0.00     0.208 A 
ATOM      3  C   UNL     1      -8.574   3.036  14.502  1.00  0.00     0.238 A 
ATOM      4  O   UNL     1      -9.178   2.324  15.346  1.00  0.00    -0.285 OA
ATOM      5  C   UNL     1      -8.093   4.327  14.834  1.00  0.00     0.111 A 
ATOM      6  C   UNL     1      -8.162   4.907  16.136  1.00  0.00     0.134 A 
ATOM      7  C   UNL     1      -7.774   6.240  16.319  1.00  0.00     0.093 A 
ATOM      8  C   UNL     1      -7.260   6.992  15.264  1.00  0.00     0.123 A 
ATOM      9  C   UNL     1      -7.132   6.416  14.000  1.00  0.00     0.094 A 
ATOM     10  C   UNL     1      -7.545   5.099  13.777  1.00  0.00     0.146 A 
ATOM     11  O   UNL     1      -7.416   4.592  12.557  1.00  0.00    -0.452 OA
ENDROOT
BRANCH   1  12
ATOM     12  C   UNL     1      -7.573   2.906  10.841  1.00  0.00     0.021 A 
ATOM     13  C   UNL     1      -6.461   2.098  10.547  1.00  0.00     0.016 A 
ATOM     14  C   UNL     1      -6.244   1.639   9.246  1.00  0.00     0.047 A 
ATOM     15  C   UNL     1      -7.144   1.968   8.223  1.00  0.00     0.115 A 
ATOM     16  C   UNL     1      -8.483   3.215   9.813  1.00  0.00     0.016 A 
ATOM     17  C   UNL     1      -8.264   2.753   8.512  1.00  0.00     0.047 A 
BRANCH  15  18
ATOM     18  O   UNL     1      -6.937   1.516   6.922  1.00  0.00    -0.508 OA
ATOM     19  H   UNL     1      -6.472   0.636   6.735  1.00  0.00     0.293 HD
ENDBRANCH  15  18
ENDBRANCH   1  12
BRANCH   2  20
ATOM     20  O   UNL     1      -8.903   1.286  12.841  1.00  0.00    -0.502 OA
ATOM     21  H   UNL     1      -8.481   0.724  12.113  1.00  0.00     0.293 HD
ENDBRANCH   2  20
BRANCH   6  22
ATOM     22  O   UNL     1      -8.575   4.214  17.278  1.00  0.00    -0.507 OA
ATOM     23  H   UNL     1      -8.198   3.328  17.580  1.00  0.00     0.293 HD
ENDBRANCH   6  22
BRANCH   8  24
ATOM     24  O   UNL     1      -6.869   8.311  15.486  1.00  0.00    -0.508 OA
ATOM     25  H   UNL     1      -6.046   8.701  15.045  1.00  0.00     0.293 HD
ENDBRANCH   8  24
TORSDOF 5
ENDMDL
MODEL 4
REMARK VINA RESULT:    -5.791      1.778      3.123
REMARK INTER + INTRA:          -7.093
REMARK INTER:                  -7.378
REMARK INTRA:                   0.285
REMARK UNBOUND:                -0.287
REMARK SMILES O=c1c(O)c(-c2ccc(O)cc2)oc2cc(O)cc(O)c12
REMARK SMILES IDX 5 1 3 2 2 3 1 4 21 5 19 6 18 7 16 8 15 9 14 10 13 11 6 12
REMARK SMILES IDX 7 13 8 14 9 15 12 16 11 17 10 18 4 20 20 22 17 24
REMARK H PARENT 10 19 4 21 20 23 17 25
REMARK Flexibility Score: inf
ROOT
ATOM      1  C   UNL     1      -7.987   5.336  14.339  1.00  0.00     0.180 A 
ATOM      2  C   UNL     1      -7.294   6.557  14.401  1.00  0.00     0.208 A 
ATOM      3  C   UNL     1      -6.870   7.037  15.651  1.00  0.00     0.238 A 
ATOM      4  O   UNL     1      -6.203   8.104  15.694  1.00  0.00    -0.285 OA
ATOM      5  C   UNL     1      -7.159   6.299  16.824  1.00  0.00     0.111 A 
ATOM      6  C   UNL     1      -6.814   6.711  18.147  1.00  0.00     0.134 A 
ATOM      7  C   UNL     1      -7.033   5.839  19.221  1.00  0.00     0.093 A 
ATOM      8  C   UNL     1      -7.645   4.600  19.030  1.00  0.00     0.123 A 
ATOM      9  C   UNL     1      -8.041   4.214  17.749  1.00  0.00     0.094 A 
ATOM     10  C   UNL     1      -7.802   5.046  16.652  1.00  0.00     0.146 A 
ATOM     11  O   UNL     1      -8.185   4.635  15.449  1.00  0.00    -0.452 OA
ENDROOT
BRANCH   1  12
ATOM     12  C   UNL     1      -8.487   4.778  13.061  1.00  0.00     0.021 A 
ATOM     13  C   UNL     1      -8.660   3.389  12.934  1.00  0.00     0.016 A 
ATOM     14  C   UNL     1      -9.152   2.843  11.746  1.00  0.00     0.047 A 
ATOM     15  C   UNL     1      -9.491   3.680  10.674  1.00  0.00     0.115 A 
ATOM     16  C   UNL     1      -8.850   5.613  11.989  1.00  0.00     0.016 A 
ATOM     17  C   UNL     1      -9.343   5.063  10.801  1.00  0.00     0.047 A 
BRANCH  15  18
ATOM     18  O   UNL     1      -9.982   3.146   9.484  1.00  0.00    -0.508 OA
ATOM     19  H   UNL     1     -10.174   3.733   8.681  1.00  0.00     0.293 HD
ENDBRANCH  15  18
ENDBRANCH   1  12
BRANCH   2  20
ATOM     20  O   UNL     1      -6.999   7.259  13.229  1.00  0.00    -0.502 OA
ATOM     21  H   UNL     1      -6.604   6.812  12.412  1.00  0.00     0.293 HD
ENDBRANCH   2  20
BRANCH   6  22
ATOM     22  O   UNL     1      -6.282   7.965  18.459  1.00  0.00    -0.507 OA
ATOM     23  H   UNL     1      -6.829   8.778  18.701  1.00  0.00     0.293 HD
ENDBRANCH   6  22
BRANCH   8  24
ATOM     24  O   UNL     1      -7.862   3.765  20.123  1.00  0.00    -0.508 OA
ATOM     25  H   UNL     1      -7.287   3.822  20.955  1.00  0.00     0.293 HD
ENDBRANCH   8  24
TORSDOF 5
ENDMDL
MODEL 5
REMARK VINA RESULT:    -5.741      1.370      3.017
REMARK INTER + INTRA:          -7.034
REMARK INTER:                  -6.734
REMARK INTRA:                  -0.300
REMARK UNBOUND:                -0.287
REMARK SMILES O=c1c(O)c(-c2ccc(O)cc2)oc2cc(O)cc(O)c12
REMARK SMILES IDX 5 1 3 2 2 3 1 4 21 5 19 6 18 7 16 8 15 9 14 10 13 11 6 12
REMARK SMILES IDX 7 13 8 14 9 15 12 16 11 17 10 18 4 20 20 22 17 24
REMARK H PARENT 10 19 4 21 20 23 17 25
REMARK Flexibility Score: inf
ROOT
ATOM      1  C   UNL     1      -7.829   4.051  13.958  1.00  0.00     0.180 A 
ATOM      2  C   UNL     1      -7.879   5.327  14.545  1.00  0.00     0.208 A 
ATOM      3  C   UNL     1      -7.617   5.456  15.919  1.00  0.00     0.238 A 
ATOM      4  O   UNL     1      -7.611   6.607  16.428  1.00  0.00    -0.285 OA
ATOM      5  C   UNL     1      -7.325   4.306  16.691  1.00  0.00     0.111 A 
ATOM      6  C   UNL     1      -7.083   4.314  18.098  1.00  0.00     0.134 A 
ATOM      7  C   UNL     1      -6.674   3.135  18.736  1.00  0.00     0.093 A 
ATOM      8  C   UNL     1      -6.562   1.937  18.031  1.00  0.00     0.123 A 
ATOM      9  C   UNL     1      -6.854   1.906  16.667  1.00  0.00     0.094 A 
ATOM     10  C   UNL     1      -7.229   3.072  15.995  1.00  0.00     0.146 A 
ATOM     11  O   UNL     1      -7.488   3.001  14.695  1.00  0.00    -0.452 OA
ENDROOT
BRANCH   1  12
ATOM     12  C   UNL     1      -8.118   3.832  12.522  1.00  0.00     0.021 A 
ATOM     13  C   UNL     1      -7.059   3.817  11.598  1.00  0.00     0.016 A 
ATOM     14  C   UNL     1      -7.306   3.590  10.242  1.00  0.00     0.047 A 
ATOM     15  C   UNL     1      -8.613   3.360   9.794  1.00  0.00     0.115 A 
ATOM     16  C   UNL     1      -9.425   3.580  12.068  1.00  0.00     0.016 A 
ATOM     17  C   UNL     1      -9.669   3.352  10.709  1.00  0.00     0.047 A 
BRANCH  15  18
ATOM     18  O   UNL     1      -8.872   3.133   8.443  1.00  0.00    -0.508 OA
ATOM     19  H   UNL     1      -8.792   2.208   8.037  1.00  0.00     0.293 HD
ENDBRANCH  15  18
ENDBRANCH   1  12
BRANCH   2  20
ATOM     20  O   UNL     1      -8.148   6.452  13.761  1.00  0.00    -0.502 OA
ATOM     21  H   UNL     1      -8.467   7.327  14.156  1.00  0.00     0.293 HD
ENDBRANCH   2  20
BRANCH   6  22
ATOM     22  O   UNL     1      -7.255   5.437  18.912  1.00  0.00    -0.507 OA
ATOM     23  H   UNL     1      -7.764   5.443  19.783  1.00  0.00     0.293 HD
ENDBRANCH   6  22
BRANCH   8  24
ATOM     24  O   UNL     1      -6.168   0.781  18.701  1.00  0.00    -0.508 OA
ATOM     25  H   UNL     1      -6.276   0.686  19.703  1.00  0.00     0.293 HD
ENDBRANCH   8  24
TORSDOF 5
ENDMDL
MODEL 6
REMARK VINA RESULT:    -5.729      1.371      1.881
REMARK INTER + INTRA:          -7.021
REMARK INTER:                  -6.731
REMARK INTRA:                  -0.289
REMARK UNBOUND:                -0.287
REMARK SMILES O=c1c(O)c(-c2ccc(O)cc2)oc2cc(O)cc(O)c12
REMARK SMILES IDX 5 1 3 2 2 3 1 4 21 5 19 6 18 7 16 8 15 9 14 10 13 11 6 12
REMARK SMILES IDX 7 13 8 14 9 15 12 16 11 17 10 18 4 20 20 22 17 24
REMARK H PARENT 10 19 4 21 20 23 17 25
REMARK Flexibility Score: inf
ROOT
ATOM      1  C   UNL     1      -8.122   4.863  14.621  1.00  0.00     0.180 A 
ATOM      2  C   UNL     1      -8.273   3.890  15.624  1.00  0.00     0.208 A 
ATOM      3  C   UNL     1      -8.202   4.283  16.970  1.00  0.00     0.238 A 
ATOM      4  O   UNL     1      -8.391   3.417  17.864  1.00  0.00    -0.285 OA
ATOM      5  C   UNL     1      -7.965   5.640  17.297  1.00  0.00     0.111 A 
ATOM      6  C   UNL     1      -7.834   6.143  18.626  1.00  0.00     0.134 A 
ATOM      7  C   UNL     1      -7.732   7.525  18.835  1.00  0.00     0.093 A 
ATOM      8  C   UNL     1      -7.690   8.414  17.762  1.00  0.00     0.123 A 
ATOM      9  C   UNL     1      -7.757   7.927  16.456  1.00  0.00     0.094 A 
ATOM     10  C   UNL     1      -7.896   6.558  16.216  1.00  0.00     0.146 A 
ATOM     11  O   UNL     1      -7.967   6.137  14.959  1.00  0.00    -0.452 OA
ENDROOT
BRANCH   1  12
ATOM     12  C   UNL     1      -8.160   4.521  13.180  1.00  0.00     0.021 A 
ATOM     13  C   UNL     1      -9.391   4.515  12.503  1.00  0.00     0.016 A 
ATOM     14  C   UNL     1      -9.447   4.218  11.139  1.00  0.00     0.047 A 
ATOM     15  C   UNL     1      -8.270   3.939  10.431  1.00  0.00     0.115 A 
ATOM     16  C   UNL     1      -6.981   4.261  12.458  1.00  0.00     0.016 A 
ATOM     17  C   UNL     1      -7.040   3.965  11.092  1.00  0.00     0.047 A 
BRANCH  15  18
ATOM     18  O   UNL     1      -8.313   3.641   9.070  1.00  0.00    -0.508 OA
ATOM     19  H   UNL     1      -7.807   4.195   8.390  1.00  0.00     0.293 HD
ENDBRANCH  15  18
ENDBRANCH   1  12
BRANCH   2  20
ATOM     20  O   UNL     1      -8.527   2.560  15.281  1.00  0.00    -0.502 OA
ATOM     21  H   UNL     1      -9.395   2.265  14.851  1.00  0.00     0.293 HD
ENDBRANCH   2  20
BRANCH   6  22
ATOM     22  O   UNL     1      -7.773   5.334  19.764  1.00  0.00    -0.507 OA
ATOM     23  H   UNL     1      -8.430   5.366  20.529  1.00  0.00     0.293 HD
ENDBRANCH   6  22
BRANCH   8  24
ATOM     24  O   UNL     1      -7.572   9.780  18.006  1.00  0.00    -0.508 OA
ATOM     25  H   UNL     1      -8.335  10.419  17.820  1.00  0.00     0.293 HD
ENDBRANCH   8  24
TORSDOF 5
ENDMDL
MODEL 7
REMARK VINA RESULT:    -5.629     15.590     17.090
REMARK INTER + INTRA:          -6.903
REMARK INTER:                  -6.611
REMARK INTRA:                  -0.292
REMARK UNBOUND:                -0.287
REMARK SMILES O=c1c(O)c(-c2ccc(O)cc2)oc2cc(O)cc(O)c12
REMARK SMILES IDX 5 1 3 2 2 3 1 4 21 5 19 6 18 7 16 8 15 9 14 10 13 11 6 12
REMARK SMILES IDX 7 13 8 14 9 15 12 16 11 17 10 18 4 20 20 22 17 24
REMARK H PARENT 10 19 4 21 20 23 17 25
REMARK Flexibility Score: inf
ROOT
ATOM      1  C   UNL     1     -24.231   6.435  13.540  1.00  0.00     0.180 A 
ATOM      2  C   UNL     1     -24.935   7.152  12.557  1.00  0.00     0.208 A 
ATOM      3  C   UNL     1     -24.405   8.364  12.087  1.00  0.00     0.238 A 
ATOM      4  O   UNL     1     -25.013   8.975  11.168  1.00  0.00    -0.285 OA
ATOM      5  C   UNL     1     -23.187   8.854  12.617  1.00  0.00     0.111 A 
ATOM      6  C   UNL     1     -22.578  10.090  12.244  1.00  0.00     0.134 A 
ATOM      7  C   UNL     1     -21.307  10.410  12.736  1.00  0.00     0.093 A 
ATOM      8  C   UNL     1     -20.652   9.572  13.638  1.00  0.00     0.123 A 
ATOM      9  C   UNL     1     -21.264   8.391  14.056  1.00  0.00     0.094 A 
ATOM     10  C   UNL     1     -22.516   8.025  13.554  1.00  0.00     0.146 A 
ATOM     11  O   UNL     1     -23.059   6.887  13.969  1.00  0.00    -0.452 OA
ENDROOT
BRANCH   1  12
ATOM     12  C   UNL     1     -24.739   5.163  14.102  1.00  0.00     0.021 A 
ATOM     13  C   UNL     1     -24.385   3.947  13.492  1.00  0.00     0.016 A 
ATOM     14  C   UNL     1     -24.834   2.734  14.019  1.00  0.00     0.047 A 
ATOM     15  C   UNL     1     -25.630   2.719  15.172  1.00  0.00     0.115 A 
ATOM     16  C   UNL     1     -25.521   5.139  15.272  1.00  0.00     0.016 A 
ATOM     17  C   UNL     1     -25.967   3.922  15.798  1.00  0.00     0.047 A 
BRANCH  15  18
ATOM     18  O   UNL     1     -26.084   1.515  15.707  1.00  0.00    -0.508 OA
ATOM     19  H   UNL     1     -27.045   1.396  16.003  1.00  0.00     0.293 HD
ENDBRANCH  15  18
ENDBRANCH   1  12
BRANCH   2  20
ATOM     20  O   UNL     1     -26.125   6.642  12.031  1.00  0.00    -0.502 OA
ATOM     21  H   UNL     1     -26.197   6.295  11.083  1.00  0.00     0.293 HD
ENDBRANCH   2  20
BRANCH   6  22
ATOM     22  O   UNL     1     -23.187  11.041  11.420  1.00  0.00    -0.507 OA
ATOM     23  H   UNL     1     -22.946  12.021  11.398  1.00  0.00     0.293 HD
ENDBRANCH   6  22
BRANCH   8  24
ATOM     24  O   UNL     1     -19.395   9.930  14.120  1.00  0.00    -0.508 OA
ATOM     25  H   UNL     1     -18.552   9.482  13.785  1.00  0.00     0.293 HD
ENDBRANCH   8  24
TORSDOF 5
ENDMDL
MODEL 8
REMARK VINA RESULT:    -5.397     14.655     16.415
REMARK INTER + INTRA:          -6.630
REMARK INTER:                  -6.372
REMARK INTRA:                  -0.259
REMARK UNBOUND:                -0.287
REMARK SMILES O=c1c(O)c(-c2ccc(O)cc2)oc2cc(O)cc(O)c12
REMARK SMILES IDX 5 1 3 2 2 3 1 4 21 5 19 6 18 7 16 8 15 9 14 10 13 11 6 12
REMARK SMILES IDX 7 13 8 14 9 15 12 16 11 17 10 18 4 20 20 22 17 24
REMARK H PARENT 10 19 4 21 20 23 17 25
REMARK Flexibility Score: inf
ROOT
ATOM      1  C   UNL     1     -22.260   9.312  13.757  1.00  0.00     0.180 A 
ATOM      2  C   UNL     1     -21.043   9.738  14.314  1.00  0.00     0.208 A 
ATOM      3  C   UNL     1     -20.187  10.544  13.547  1.00  0.00     0.238 A 
ATOM      4  O   UNL     1     -19.123  10.967  14.071  1.00  0.00    -0.285 OA
ATOM      5  C   UNL     1     -20.551  10.901  12.226  1.00  0.00     0.111 A 
ATOM      6  C   UNL     1     -19.743  11.680  11.344  1.00  0.00     0.134 A 
ATOM      7  C   UNL     1     -20.261  12.082  10.106  1.00  0.00     0.093 A 
ATOM      8  C   UNL     1     -21.530  11.679   9.692  1.00  0.00     0.123 A 
ATOM      9  C   UNL     1     -22.305  10.868  10.521  1.00  0.00     0.094 A 
ATOM     10  C   UNL     1     -21.831  10.480  11.777  1.00  0.00     0.146 A 
ATOM     11  O   UNL     1     -22.604   9.717  12.540  1.00  0.00    -0.452 OA
ENDROOT
BRANCH   1  12
ATOM     12  C   UNL     1     -23.203   8.440  14.495  1.00  0.00     0.021 A 
ATOM     13  C   UNL     1     -23.183   7.053  14.270  1.00  0.00     0.016 A 
ATOM     14  C   UNL     1     -24.047   6.209  14.971  1.00  0.00     0.047 A 
ATOM     15  C   UNL     1     -24.933   6.739  15.918  1.00  0.00     0.115 A 
ATOM     16  C   UNL     1     -24.080   8.963  15.462  1.00  0.00     0.016 A 
ATOM     17  C   UNL     1     -24.944   8.115  16.164  1.00  0.00     0.047 A 
BRANCH  15  18
ATOM     18  O   UNL     1     -25.801   5.908  16.624  1.00  0.00    -0.508 OA
ATOM     19  H   UNL     1     -26.792   6.107  16.685  1.00  0.00     0.293 HD
ENDBRANCH  15  18
ENDBRANCH   1  12
BRANCH   2  20
ATOM     20  O   UNL     1     -20.712   9.393  15.627  1.00  0.00    -0.502 OA
ATOM     21  H   UNL     1     -20.956   8.499  16.033  1.00  0.00     0.293 HD
ENDBRANCH   2  20
BRANCH   6  22
ATOM     22  O   UNL     1     -18.427  12.058  11.623  1.00  0.00    -0.507 OA
ATOM     23  H   UNL     1     -17.775  11.514  12.168  1.00  0.00     0.293 HD
ENDBRANCH   6  22
BRANCH   8  24
ATOM     24  O   UNL     1     -22.007  12.085   8.447  1.00  0.00    -0.508 OA
ATOM     25  H   UNL     1     -22.942  12.457   8.334  1.00  0.00     0.293 HD
ENDBRANCH   8  24
TORSDOF 5
ENDMDL
MODEL 9
REMARK VINA RESULT:    -5.355      1.909      3.821
REMARK INTER + INTRA:          -6.581
REMARK INTER:                  -6.539
REMARK INTRA:                  -0.042
REMARK UNBOUND:                -0.287
REMARK SMILES O=c1c(O)c(-c2ccc(O)cc2)oc2cc(O)cc(O)c12
REMARK SMILES IDX 5 1 3 2 2 3 1 4 21 5 19 6 18 7 16 8 15 9 14 10 13 11 6 12
REMARK SMILES IDX 7 13 8 14 9 15 12 16 11 17 10 18 4 20 20 22 17 24
REMARK H PARENT 10 19 4 21 20 23 17 25
REMARK Flexibility Score: inf
ROOT
ATOM      1  C   UNL     1      -7.443   3.353  12.137  1.00  0.00     0.180 A 
ATOM      2  C   UNL     1      -7.717   4.692  12.466  1.00  0.00     0.208 A 
ATOM      3  C   UNL     1      -7.864   5.046  13.817  1.00  0.00     0.238 A 
ATOM      4  O   UNL     1      -8.055   6.256  14.108  1.00  0.00    -0.285 OA
ATOM      5  C   UNL     1      -7.751   4.055  14.821  1.00  0.00     0.111 A 
ATOM      6  C   UNL     1      -7.922   4.293  16.218  1.00  0.00     0.134 A 
ATOM      7  C   UNL     1      -7.658   3.264  17.132  1.00  0.00     0.093 A 
ATOM      8  C   UNL     1      -7.295   1.990  16.696  1.00  0.00     0.123 A 
ATOM      9  C   UNL     1      -7.184   1.730  15.330  1.00  0.00     0.094 A 
ATOM     10  C   UNL     1      -7.404   2.746  14.395  1.00  0.00     0.146 A 
ATOM     11  O   UNL     1      -7.278   2.459  13.105  1.00  0.00    -0.452 OA
ENDROOT
BRANCH   1  12
ATOM     12  C   UNL     1      -7.299   2.900  10.735  1.00  0.00     0.021 A 
ATOM     13  C   UNL     1      -6.168   2.154  10.362  1.00  0.00     0.016 A 
ATOM     14  C   UNL     1      -6.023   1.696   9.049  1.00  0.00     0.047 A 
ATOM     15  C   UNL     1      -7.015   1.965   8.097  1.00  0.00     0.115 A 
ATOM     16  C   UNL     1      -8.301   3.147   9.779  1.00  0.00     0.016 A 
ATOM     17  C   UNL     1      -8.154   2.686   8.466  1.00  0.00     0.047 A 
BRANCH  15  18
ATOM     18  O   UNL     1      -6.882   1.514   6.785  1.00  0.00    -0.508 OA
ATOM     19  H   UNL     1      -6.020   1.638   6.268  1.00  0.00     0.293 HD
ENDBRANCH  15  18
ENDBRANCH   1  12
BRANCH   2  20
ATOM     20  O   UNL     1      -7.802   5.659  11.461  1.00  0.00    -0.502 OA
ATOM     21  H   UNL     1      -8.143   6.597  11.635  1.00  0.00     0.293 HD
ENDBRANCH   2  20
BRANCH   6  22
ATOM     22  O   UNL     1      -8.370   5.503  16.754  1.00  0.00    -0.507 OA
ATOM     23  H   UNL     1      -8.862   6.215  16.234  1.00  0.00     0.293 HD
ENDBRANCH   6  22
BRANCH   8  24
ATOM     24  O   UNL     1      -7.056   0.986  17.632  1.00  0.00    -0.508 OA
ATOM     25  H   UNL     1      -7.776   0.676  18.272  1.00  0.00     0.293 HD
ENDBRANCH   8  24
TORSDOF 5
ENDMDL
