MODEL 1
REMARK VINA RESULT:    -3.804      0.000      0.000
REMARK INTER + INTRA:          -3.476
REMARK INTER:                  -4.138
REMARK INTRA:                   0.662
REMARK UNBOUND:                 0.662
REMARK SMILES C[C@H]1[C@H]2C3=CC[C@@H]4[C@]5(C)CC[C@H](O)C(C)(C)[C@@H]5CC[C@]4(C)[C@@]3(C)CC[C@]2(C(=O)[O-])CC[C@@H]1C
REMARK SMILES IDX 26 1 30 2 25 3 3 4 31 5 24 6 4 7 2 8 32 9 22 10 5 11 1 12
REMARK SMILES IDX 33 13 23 14 20 15 6 16 7 17 19 18 21 19 8 20 18 21 17 22
REMARK SMILES IDX 10 23 9 24 14 25 11 26 12 27 15 28 16 29 27 30 28 31 29 32
REMARK SMILES IDX 13 33
REMARK H PARENT 13 34
REMARK Flexibility Score: inf
ROOT
ATOM      1  C   UNL     1      10.525 -22.817  -9.505  1.00  0.00     0.017 C 
ATOM      2  C   UNL     1      11.954 -22.493 -10.054  1.00  0.00     0.014 C 
ATOM      3  C   UNL     1      10.676 -23.921  -8.393  1.00  0.00     0.014 C 
ATOM      4  C   UNL     1       9.937 -21.521  -8.856  1.00  0.00     0.030 C 
ATOM      5  C   UNL     1      12.020 -21.225 -10.931  1.00  0.00     0.004 C 
ATOM      6  C   UNL     1       9.482 -24.074  -7.395  1.00  0.00     0.013 C 
ATOM      7  C   UNL     1       8.687 -21.853  -8.025  1.00  0.00    -0.063 C 
ATOM      8  C   UNL     1       9.996 -20.208  -9.723  1.00  0.00    -0.003 C 
ATOM      9  C   UNL     1      11.452 -19.970 -10.237  1.00  0.00    -0.011 C 
ATOM     10  C   UNL     1       8.930 -22.729  -6.792  1.00  0.00    -0.006 C 
ATOM     11  C   UNL     1       7.486 -21.875  -8.619  1.00  0.00    -0.027 C 
ATOM     12  C   UNL     1       8.997 -20.097 -10.900  1.00  0.00     0.008 C 
ATOM     13  C   UNL     1      12.401 -19.443  -9.141  1.00  0.00     0.008 C 
ATOM     14  C   UNL     1      10.045 -22.075  -5.888  1.00  0.00     0.017 C 
ATOM     15  C   UNL     1       7.589 -22.954  -5.912  1.00  0.00    -0.020 C 
ATOM     16  C   UNL     1       6.355 -22.773  -8.234  1.00  0.00     0.032 C 
ATOM     17  C   UNL     1       6.346 -23.394  -6.806  1.00  0.00     0.006 C 
ATOM     18  C   UNL     1       7.190 -21.652  -5.101  1.00  0.00     0.008 C 
ATOM     19  C   UNL     1       7.905 -24.110  -4.881  1.00  0.00     0.012 C 
ATOM     20  C   UNL     1       4.901 -23.205  -6.133  1.00  0.00    -0.025 C 
ATOM     21  C   UNL     1       6.007 -20.869  -5.681  1.00  0.00     0.005 C 
ATOM     22  C   UNL     1       4.689 -21.689  -5.639  1.00  0.00     0.003 C 
ATOM     23  C   UNL     1       3.789 -23.777  -7.116  1.00  0.00     0.010 C 
ATOM     24  C   UNL     1       4.792 -24.125  -4.875  1.00  0.00     0.012 C 
ATOM     25  C   UNL     1       3.432 -20.863  -6.165  1.00  0.00    -0.006 C 
ATOM     26  C   UNL     1       2.785 -22.781  -7.684  1.00  0.00     0.033 C 
ATOM     27  C   UNL     1       2.297 -21.826  -6.602  1.00  0.00     0.120 C 
ATOM     28  C   UNL     1       3.783 -19.871  -7.315  1.00  0.00     0.014 C 
ATOM     29  C   UNL     1       2.872 -19.993  -5.004  1.00  0.00     0.014 C 
ENDROOT
BRANCH   1  30
ATOM     30  C   UNL     1       9.647 -23.386 -10.622  1.00  0.00     0.048 C 
ATOM     31  O   UNL     1       9.958 -23.245 -11.835  1.00  0.00    -0.550 OA
ATOM     32  O   UNL     1       8.509 -24.124 -10.325  1.00  0.00    -0.550 OA
ENDBRANCH   1  30
BRANCH  27  33
ATOM     33  O   UNL     1       1.188 -21.104  -7.079  1.00  0.00    -0.393 OA
ATOM     34  H   UNL     1       0.377 -21.528  -6.692  1.00  0.00     0.210 HD
ENDBRANCH  27  33
TORSDOF 2
ENDMDL
MODEL 2
REMARK VINA RESULT:    -2.951      2.246      7.405
REMARK INTER + INTRA:          -2.548
REMARK INTER:                  -3.137
REMARK INTRA:                   0.589
REMARK UNBOUND:                 0.662
REMARK SMILES C[C@H]1[C@H]2C3=CC[C@@H]4[C@]5(C)CC[C@H](O)C(C)(C)[C@@H]5CC[C@]4(C)[C@@]3(C)CC[C@]2(C(=O)[O-])CC[C@@H]1C
REMARK SMILES IDX 26 1 30 2 25 3 3 4 31 5 24 6 4 7 2 8 32 9 22 10 5 11 1 12
REMARK SMILES IDX 33 13 23 14 20 15 6 16 7 17 19 18 21 19 8 20 18 21 17 22
REMARK SMILES IDX 10 23 9 24 14 25 11 26 12 27 15 28 16 29 27 30 28 31 29 32
REMARK SMILES IDX 13 33
REMARK H PARENT 13 34
REMARK Flexibility Score: inf
ROOT
ATOM      1  C   UNL     1       5.259 -22.785  -6.890  1.00  0.00     0.017 C 
ATOM      2  C   UNL     1       3.754 -23.048  -6.555  1.00  0.00     0.014 C 
ATOM      3  C   UNL     1       5.869 -24.125  -7.445  1.00  0.00     0.014 C 
ATOM      4  C   UNL     1       5.334 -21.692  -8.007  1.00  0.00     0.030 C 
ATOM      5  C   UNL     1       2.933 -21.769  -6.285  1.00  0.00     0.004 C 
ATOM      6  C   UNL     1       7.196 -24.001  -8.265  1.00  0.00     0.013 C 
ATOM      7  C   UNL     1       6.751 -21.623  -8.599  1.00  0.00    -0.063 C 
ATOM      8  C   UNL     1       4.503 -20.377  -7.765  1.00  0.00    -0.003 C 
ATOM      9  C   UNL     1       3.020 -20.735  -7.426  1.00  0.00    -0.011 C 
ATOM     10  C   UNL     1       7.208 -22.871  -9.361  1.00  0.00    -0.006 C 
ATOM     11  C   UNL     1       7.669 -20.832  -8.025  1.00  0.00    -0.027 C 
ATOM     12  C   UNL     1       5.055 -19.378  -6.721  1.00  0.00     0.008 C 
ATOM     13  C   UNL     1       2.208 -21.175  -8.661  1.00  0.00     0.008 C 
ATOM     14  C   UNL     1       6.152 -23.226 -10.478  1.00  0.00     0.017 C 
ATOM     15  C   UNL     1       8.666 -22.688 -10.041  1.00  0.00    -0.020 C 
ATOM     16  C   UNL     1       9.136 -21.115  -7.979  1.00  0.00     0.032 C 
ATOM     17  C   UNL     1       9.740 -22.103  -9.019  1.00  0.00     0.006 C 
ATOM     18  C   UNL     1       8.612 -21.742 -11.312  1.00  0.00     0.008 C 
ATOM     19  C   UNL     1       9.140 -24.124 -10.505  1.00  0.00     0.012 C 
ATOM     20  C   UNL     1      11.058 -21.469  -9.681  1.00  0.00    -0.025 C 
ATOM     21  C   UNL     1       9.157 -20.328 -11.085  1.00  0.00     0.005 C 
ATOM     22  C   UNL     1      10.675 -20.335 -10.755  1.00  0.00     0.003 C 
ATOM     23  C   UNL     1      12.057 -21.022  -8.526  1.00  0.00     0.010 C 
ATOM     24  C   UNL     1      11.844 -22.585 -10.440  1.00  0.00     0.012 C 
ATOM     25  C   UNL     1      11.277 -18.868 -10.595  1.00  0.00    -0.006 C 
ATOM     26  C   UNL     1      12.355 -19.532  -8.404  1.00  0.00     0.033 C 
ATOM     27  C   UNL     1      12.593 -18.912  -9.775  1.00  0.00     0.120 C 
ATOM     28  C   UNL     1      10.272 -17.854  -9.969  1.00  0.00     0.014 C 
ATOM     29  C   UNL     1      11.633 -18.307 -12.001  1.00  0.00     0.014 C 
ENDROOT
BRANCH   1  30
ATOM     30  C   UNL     1       6.024 -22.405  -5.620  1.00  0.00     0.048 C 
ATOM     31  O   UNL     1       5.642 -21.456  -4.885  1.00  0.00    -0.550 OA
ATOM     32  O   UNL     1       7.132 -23.136  -5.213  1.00  0.00    -0.550 OA
ENDBRANCH   1  30
BRANCH  27  33
ATOM     33  O   UNL     1      13.125 -17.619  -9.618  1.00  0.00    -0.393 OA
ATOM     34  H   UNL     1      14.013 -17.615 -10.063  1.00  0.00     0.210 HD
ENDBRANCH  27  33
TORSDOF 2
ENDMDL
MODEL 3
REMARK VINA RESULT:    -0.830      1.669      7.321
REMARK INTER + INTRA:          -0.241
REMARK INTER:                  -1.133
REMARK INTRA:                   0.891
REMARK UNBOUND:                 0.662
REMARK SMILES C[C@H]1[C@H]2C3=CC[C@@H]4[C@]5(C)CC[C@H](O)C(C)(C)[C@@H]5CC[C@]4(C)[C@@]3(C)CC[C@]2(C(=O)[O-])CC[C@@H]1C
REMARK SMILES IDX 26 1 30 2 25 3 3 4 31 5 24 6 4 7 2 8 32 9 22 10 5 11 1 12
REMARK SMILES IDX 33 13 23 14 20 15 6 16 7 17 19 18 21 19 8 20 18 21 17 22
REMARK SMILES IDX 10 23 9 24 14 25 11 26 12 27 15 28 16 29 27 30 28 31 29 32
REMARK SMILES IDX 13 33
REMARK H PARENT 13 34
REMARK Flexibility Score: inf
ROOT
ATOM      1  C   UNL     1       4.761 -21.035  -6.130  1.00  0.00     0.017 C 
ATOM      2  C   UNL     1       3.284 -21.212  -5.646  1.00  0.00     0.014 C 
ATOM      3  C   UNL     1       5.700 -21.179  -4.875  1.00  0.00     0.014 C 
ATOM      4  C   UNL     1       5.091 -22.179  -7.144  1.00  0.00     0.030 C 
ATOM      5  C   UNL     1       2.263 -21.398  -6.788  1.00  0.00     0.004 C 
ATOM      6  C   UNL     1       7.204 -21.498  -5.161  1.00  0.00     0.013 C 
ATOM      7  C   UNL     1       6.605 -22.249  -7.406  1.00  0.00    -0.063 C 
ATOM      8  C   UNL     1       4.065 -22.400  -8.318  1.00  0.00    -0.003 C 
ATOM      9  C   UNL     1       2.620 -22.555  -7.745  1.00  0.00    -0.011 C 
ATOM     10  C   UNL     1       7.463 -22.649  -6.203  1.00  0.00    -0.006 C 
ATOM     11  C   UNL     1       7.142 -21.492  -8.373  1.00  0.00    -0.027 C 
ATOM     12  C   UNL     1       4.069 -21.357  -9.461  1.00  0.00     0.008 C 
ATOM     13  C   UNL     1       2.372 -23.932  -7.096  1.00  0.00     0.008 C 
ATOM     14  C   UNL     1       6.936 -24.012  -5.605  1.00  0.00     0.017 C 
ATOM     15  C   UNL     1       9.032 -22.800  -6.577  1.00  0.00    -0.020 C 
ATOM     16  C   UNL     1       8.518 -20.908  -8.339  1.00  0.00     0.032 C 
ATOM     17  C   UNL     1       9.579 -21.548  -7.397  1.00  0.00     0.006 C 
ATOM     18  C   UNL     1       9.316 -24.115  -7.415  1.00  0.00     0.008 C 
ATOM     19  C   UNL     1       9.822 -22.895  -5.211  1.00  0.00     0.012 C 
ATOM     20  C   UNL     1      10.952 -21.784  -8.194  1.00  0.00    -0.025 C 
ATOM     21  C   UNL     1       9.554 -23.885  -8.912  1.00  0.00     0.005 C 
ATOM     22  C   UNL     1      10.838 -23.053  -9.176  1.00  0.00     0.003 C 
ATOM     23  C   UNL     1      11.401 -20.418  -8.875  1.00  0.00     0.010 C 
ATOM     24  C   UNL     1      12.097 -22.085  -7.175  1.00  0.00     0.012 C 
ATOM     25  C   UNL     1      11.146 -22.872 -10.729  1.00  0.00    -0.006 C 
ATOM     26  C   UNL     1      11.438 -20.380 -10.398  1.00  0.00     0.033 C 
ATOM     27  C   UNL     1      12.071 -21.648 -10.957  1.00  0.00     0.120 C 
ATOM     28  C   UNL     1       9.860 -22.758 -11.604  1.00  0.00     0.014 C 
ATOM     29  C   UNL     1      11.908 -24.125 -11.247  1.00  0.00     0.014 C 
ENDROOT
BRANCH   1  30
ATOM     30  C   UNL     1       4.961 -19.634  -6.713  1.00  0.00     0.048 C 
ATOM     31  O   UNL     1       5.633 -18.760  -6.102  1.00  0.00    -0.550 OA
ATOM     32  O   UNL     1       4.454 -19.306  -7.963  1.00  0.00    -0.550 OA
ENDBRANCH   1  30
BRANCH  27  33
ATOM     33  O   UNL     1      12.338 -21.474 -12.327  1.00  0.00    -0.393 OA
ATOM     34  H   UNL     1      11.869 -22.204 -12.810  1.00  0.00     0.210 HD
ENDBRANCH  27  33
TORSDOF 2
ENDMDL
