MODEL 1
REMARK VINA RESULT:    -3.801      0.000      0.000
REMARK INTER + INTRA:          -8.887
REMARK INTER:                  -6.912
REMARK INTRA:                  -1.975
REMARK UNBOUND:                -1.975
REMARK SMILES CCCCCCCCCCCCCCCC(=O)[O-]
REMARK SMILES IDX 9 1 10 2 11 3 12 4 13 5 14 6 15 7 16 8 17 9 18 10 8 11 7 12
REMARK SMILES IDX 6 13 5 14 4 15 3 16 2 17 1 18
REMARK H PARENT
REMARK Flexibility Score: inf
ROOT
ATOM      1  C   UNL     1     -12.066 -10.728  29.722  1.00  0.00     0.000 C 
ENDROOT
BRANCH   1   2
ATOM      2  C   UNL     1     -11.217 -10.045  28.637  1.00  0.00     0.000 C 
BRANCH   2   3
ATOM      3  C   UNL     1     -11.875  -8.763  28.096  1.00  0.00     0.000 C 
BRANCH   3   4
ATOM      4  C   UNL     1     -11.446  -8.444  26.655  1.00  0.00     0.000 C 
BRANCH   4   5
ATOM      5  C   UNL     1     -12.642  -8.166  25.728  1.00  0.00     0.000 C 
BRANCH   5   6
ATOM      6  C   UNL     1     -12.286  -7.219  24.567  1.00  0.00     0.006 C 
BRANCH   6   7
ATOM      7  C   UNL     1     -13.293  -7.239  23.406  1.00  0.00     0.053 C 
BRANCH   7   8
ATOM      8  C   UNL     1     -14.141  -6.005  23.379  1.00  0.00     0.041 C 
ATOM      9  O   UNL     1     -14.508  -5.512  22.279  1.00  0.00    -0.550 OA
ATOM     10  O   UNL     1     -14.556  -5.419  24.568  1.00  0.00    -0.550 OA
ENDBRANCH   7   8
ENDBRANCH   6   7
ENDBRANCH   5   6
ENDBRANCH   4   5
ENDBRANCH   3   4
ENDBRANCH   2   3
ENDBRANCH   1   2
BRANCH   1  11
ATOM     11  C   UNL     1     -13.540 -10.880  29.306  1.00  0.00     0.000 C 
BRANCH  11  12
ATOM     12  C   UNL     1     -13.756 -11.982  28.252  1.00  0.00    -0.000 C 
BRANCH  12  13
ATOM     13  C   UNL     1     -14.191 -11.487  26.860  1.00  0.00    -0.000 C 
BRANCH  13  14
ATOM     14  C   UNL     1     -13.128 -11.734  25.776  1.00  0.00    -0.000 C 
BRANCH  14  15
ATOM     15  C   UNL     1     -12.176 -12.893  26.122  1.00  0.00    -0.000 C 
BRANCH  15  16
ATOM     16  C   UNL     1     -10.681 -12.522  26.192  1.00  0.00    -0.000 C 
BRANCH  16  17
ATOM     17  C   UNL     1     -10.184 -11.605  25.060  1.00  0.00    -0.003 C 
ATOM     18  C   UNL     1     -10.350 -12.227  23.675  1.00  0.00     0.004 C 
ENDBRANCH  16  17
ENDBRANCH  15  16
ENDBRANCH  14  15
ENDBRANCH  13  14
ENDBRANCH  12  13
ENDBRANCH  11  12
ENDBRANCH   1  11
TORSDOF 14
ENDMDL
MODEL 2
REMARK VINA RESULT:    -3.750      3.140      4.814
REMARK INTER + INTRA:          -8.794
REMARK INTER:                  -6.294
REMARK INTRA:                  -2.500
REMARK UNBOUND:                -1.975
REMARK SMILES CCCCCCCCCCCCCCCC(=O)[O-]
REMARK SMILES IDX 9 1 10 2 11 3 12 4 13 5 14 6 15 7 16 8 17 9 18 10 8 11 7 12
REMARK SMILES IDX 6 13 5 14 4 15 3 16 2 17 1 18
REMARK H PARENT
REMARK Flexibility Score: inf
ROOT
ATOM      1  C   UNL     1     -14.264  -8.219  26.794  1.00  0.00     0.000 C 
ENDROOT
BRANCH   1   2
ATOM      2  C   UNL     1     -13.517  -7.816  25.510  1.00  0.00     0.000 C 
BRANCH   2   3
ATOM      3  C   UNL     1     -12.009  -8.113  25.589  1.00  0.00     0.000 C 
BRANCH   3   4
ATOM      4  C   UNL     1     -11.560  -8.506  27.005  1.00  0.00     0.000 C 
BRANCH   4   5
ATOM      5  C   UNL     1     -10.886  -9.889  27.050  1.00  0.00     0.000 C 
BRANCH   5   6
ATOM      6  C   UNL     1     -10.905 -10.513  28.459  1.00  0.00     0.006 C 
BRANCH   6   7
ATOM      7  C   UNL     1     -12.085 -10.061  29.332  1.00  0.00     0.053 C 
BRANCH   7   8
ATOM      8  C   UNL     1     -11.629  -9.498  30.643  1.00  0.00     0.041 C 
ATOM      9  O   UNL     1     -11.508 -10.249  31.647  1.00  0.00    -0.550 OA
ATOM     10  O   UNL     1     -11.303  -8.152  30.747  1.00  0.00    -0.550 OA
ENDBRANCH   7   8
ENDBRANCH   6   7
ENDBRANCH   5   6
ENDBRANCH   4   5
ENDBRANCH   3   4
ENDBRANCH   2   3
ENDBRANCH   1   2
BRANCH   1  11
ATOM     11  C   UNL     1     -15.498  -9.091  26.506  1.00  0.00     0.000 C 
BRANCH  11  12
ATOM     12  C   UNL     1     -15.150 -10.405  25.782  1.00  0.00    -0.000 C 
BRANCH  12  13
ATOM     13  C   UNL     1     -14.247 -11.373  26.570  1.00  0.00    -0.000 C 
BRANCH  13  14
ATOM     14  C   UNL     1     -13.443 -12.319  25.662  1.00  0.00    -0.000 C 
BRANCH  14  15
ATOM     15  C   UNL     1     -12.893 -11.619  24.406  1.00  0.00    -0.000 C 
BRANCH  15  16
ATOM     16  C   UNL     1     -11.419 -11.926  24.070  1.00  0.00    -0.000 C 
BRANCH  16  17
ATOM     17  C   UNL     1     -10.764 -13.009  24.946  1.00  0.00    -0.003 C 
ATOM     18  C   UNL     1     -10.568 -14.332  24.207  1.00  0.00     0.004 C 
ENDBRANCH  16  17
ENDBRANCH  15  16
ENDBRANCH  14  15
ENDBRANCH  13  14
ENDBRANCH  12  13
ENDBRANCH  11  12
ENDBRANCH   1  11
TORSDOF 14
ENDMDL
MODEL 3
REMARK VINA RESULT:    -3.695     13.784     16.419
REMARK INTER + INTRA:          -8.695
REMARK INTER:                  -6.924
REMARK INTRA:                  -1.770
REMARK UNBOUND:                -1.975
REMARK SMILES CCCCCCCCCCCCCCCC(=O)[O-]
REMARK SMILES IDX 9 1 10 2 11 3 12 4 13 5 14 6 15 7 16 8 17 9 18 10 8 11 7 12
REMARK SMILES IDX 6 13 5 14 4 15 3 16 2 17 1 18
REMARK H PARENT
REMARK Flexibility Score: inf
ROOT
ATOM      1  C   UNL     1       1.429 -19.936  29.769  1.00  0.00     0.000 C 
ENDROOT
BRANCH   1   2
ATOM      2  C   UNL     1       1.222 -21.457  29.874  1.00  0.00     0.000 C 
BRANCH   2   3
ATOM      3  C   UNL     1      -0.097 -21.824  30.577  1.00  0.00     0.000 C 
BRANCH   3   4
ATOM      4  C   UNL     1      -0.659 -20.666  31.416  1.00  0.00     0.000 C 
BRANCH   4   5
ATOM      5  C   UNL     1      -2.175 -20.478  31.225  1.00  0.00     0.000 C 
BRANCH   5   6
ATOM      6  C   UNL     1      -2.747 -21.368  30.105  1.00  0.00     0.006 C 
BRANCH   6   7
ATOM      7  C   UNL     1      -3.825 -20.686  29.248  1.00  0.00     0.053 C 
BRANCH   7   8
ATOM      8  C   UNL     1      -3.762 -21.121  27.817  1.00  0.00     0.041 C 
ATOM      9  O   UNL     1      -4.667 -21.853  27.336  1.00  0.00    -0.550 OA
ATOM     10  O   UNL     1      -2.721 -20.690  27.004  1.00  0.00    -0.550 OA
ENDBRANCH   7   8
ENDBRANCH   6   7
ENDBRANCH   5   6
ENDBRANCH   4   5
ENDBRANCH   3   4
ENDBRANCH   2   3
ENDBRANCH   1   2
BRANCH   1  11
ATOM     11  C   UNL     1       2.748 -19.569  29.066  1.00  0.00     0.000 C 
BRANCH  11  12
ATOM     12  C   UNL     1       2.812 -18.090  28.645  1.00  0.00    -0.000 C 
BRANCH  12  13
ATOM     13  C   UNL     1       1.472 -17.471  28.205  1.00  0.00    -0.000 C 
BRANCH  13  14
ATOM     14  C   UNL     1       0.847 -16.564  29.280  1.00  0.00    -0.000 C 
BRANCH  14  15
ATOM     15  C   UNL     1      -0.636 -16.880  29.542  1.00  0.00    -0.000 C 
BRANCH  15  16
ATOM     16  C   UNL     1      -1.279 -17.888  28.569  1.00  0.00    -0.000 C 
BRANCH  16  17
ATOM     17  C   UNL     1      -2.319 -17.290  27.604  1.00  0.00    -0.003 C 
ATOM     18  C   UNL     1      -1.684 -16.627  26.383  1.00  0.00     0.004 C 
ENDBRANCH  16  17
ENDBRANCH  15  16
ENDBRANCH  14  15
ENDBRANCH  13  14
ENDBRANCH  12  13
ENDBRANCH  11  12
ENDBRANCH   1  11
TORSDOF 14
ENDMDL
MODEL 4
REMARK VINA RESULT:    -3.686      3.390      5.985
REMARK INTER + INTRA:          -8.678
REMARK INTER:                  -6.576
REMARK INTRA:                  -2.102
REMARK UNBOUND:                -1.975
REMARK SMILES CCCCCCCCCCCCCCCC(=O)[O-]
REMARK SMILES IDX 9 1 10 2 11 3 12 4 13 5 14 6 15 7 16 8 17 9 18 10 8 11 7 12
REMARK SMILES IDX 6 13 5 14 4 15 3 16 2 17 1 18
REMARK H PARENT
REMARK Flexibility Score: inf
ROOT
ATOM      1  C   UNL     1     -11.249 -10.179  28.671  1.00  0.00     0.000 C 
ENDROOT
BRANCH   1   2
ATOM      2  C   UNL     1     -12.319 -10.894  29.513  1.00  0.00     0.000 C 
BRANCH   2   3
ATOM      3  C   UNL     1     -13.682 -10.958  28.801  1.00  0.00     0.000 C 
BRANCH   3   4
ATOM      4  C   UNL     1     -13.762 -12.108  27.784  1.00  0.00     0.000 C 
BRANCH   4   5
ATOM      5  C   UNL     1     -14.298 -11.653  26.415  1.00  0.00     0.000 C 
BRANCH   5   6
ATOM      6  C   UNL     1     -13.284 -11.875  25.277  1.00  0.00     0.006 C 
BRANCH   6   7
ATOM      7  C   UNL     1     -11.891 -12.315  25.752  1.00  0.00     0.053 C 
BRANCH   7   8
ATOM      8  C   UNL     1     -11.559 -13.705  25.304  1.00  0.00     0.041 C 
ATOM      9  O   UNL     1     -10.471 -14.239  25.649  1.00  0.00    -0.550 OA
ATOM     10  O   UNL     1     -12.466 -14.424  24.536  1.00  0.00    -0.550 OA
ENDBRANCH   7   8
ENDBRANCH   6   7
ENDBRANCH   5   6
ENDBRANCH   4   5
ENDBRANCH   3   4
ENDBRANCH   2   3
ENDBRANCH   1   2
BRANCH   1  11
ATOM     11  C   UNL     1     -11.688  -8.770  28.235  1.00  0.00     0.000 C 
BRANCH  11  12
ATOM     12  C   UNL     1     -11.285  -8.437  26.787  1.00  0.00    -0.000 C 
BRANCH  12  13
ATOM     13  C   UNL     1     -12.449  -8.351  25.782  1.00  0.00    -0.000 C 
BRANCH  13  14
ATOM     14  C   UNL     1     -13.802  -8.061  26.454  1.00  0.00    -0.000 C 
BRANCH  14  15
ATOM     15  C   UNL     1     -14.955  -7.923  25.443  1.00  0.00    -0.000 C 
BRANCH  15  16
ATOM     16  C   UNL     1     -15.935  -6.764  25.714  1.00  0.00    -0.000 C 
BRANCH  16  17
ATOM     17  C   UNL     1     -15.670  -5.483  24.902  1.00  0.00    -0.003 C 
ATOM     18  C   UNL     1     -14.518  -5.636  23.910  1.00  0.00     0.004 C 
ENDBRANCH  16  17
ENDBRANCH  15  16
ENDBRANCH  14  15
ENDBRANCH  13  14
ENDBRANCH  12  13
ENDBRANCH  11  12
ENDBRANCH   1  11
TORSDOF 14
ENDMDL
MODEL 5
REMARK VINA RESULT:    -3.671      3.299      5.948
REMARK INTER + INTRA:          -8.651
REMARK INTER:                  -6.660
REMARK INTRA:                  -1.991
REMARK UNBOUND:                -1.975
REMARK SMILES CCCCCCCCCCCCCCCC(=O)[O-]
REMARK SMILES IDX 9 1 10 2 11 3 12 4 13 5 14 6 15 7 16 8 17 9 18 10 8 11 7 12
REMARK SMILES IDX 6 13 5 14 4 15 3 16 2 17 1 18
REMARK H PARENT
REMARK Flexibility Score: inf
ROOT
ATOM      1  C   UNL     1     -15.973  -8.945  26.142  1.00  0.00     0.000 C 
ENDROOT
BRANCH   1   2
ATOM      2  C   UNL     1     -14.684  -9.759  26.343  1.00  0.00     0.000 C 
BRANCH   2   3
ATOM      3  C   UNL     1     -13.994 -10.107  25.012  1.00  0.00     0.000 C 
BRANCH   3   4
ATOM      4  C   UNL     1     -12.511  -9.702  24.993  1.00  0.00     0.000 C 
BRANCH   4   5
ATOM      5  C   UNL     1     -12.253  -8.367  25.715  1.00  0.00     0.000 C 
BRANCH   5   6
ATOM      6  C   UNL     1     -11.200  -8.490  26.832  1.00  0.00     0.006 C 
BRANCH   6   7
ATOM      7  C   UNL     1     -11.758  -8.285  28.249  1.00  0.00     0.053 C 
BRANCH   7   8
ATOM      8  C   UNL     1     -11.755  -9.554  29.043  1.00  0.00     0.041 C 
ATOM      9  O   UNL     1     -12.071 -10.644  28.497  1.00  0.00    -0.550 OA
ATOM     10  O   UNL     1     -11.368  -9.540  30.377  1.00  0.00    -0.550 OA
ENDBRANCH   7   8
ENDBRANCH   6   7
ENDBRANCH   5   6
ENDBRANCH   4   5
ENDBRANCH   3   4
ENDBRANCH   2   3
ENDBRANCH   1   2
BRANCH   1  11
ATOM     11  C   UNL     1     -15.903  -8.029  24.907  1.00  0.00     0.000 C 
BRANCH  11  12
ATOM     12  C   UNL     1     -15.741  -6.541  25.272  1.00  0.00    -0.000 C 
BRANCH  12  13
ATOM     13  C   UNL     1     -14.547  -5.827  24.612  1.00  0.00    -0.000 C 
BRANCH  13  14
ATOM     14  C   UNL     1     -14.650  -5.780  23.077  1.00  0.00    -0.000 C 
BRANCH  14  15
ATOM     15  C   UNL     1     -13.432  -6.408  22.376  1.00  0.00    -0.000 C 
BRANCH  15  16
ATOM     16  C   UNL     1     -13.586  -7.893  21.989  1.00  0.00    -0.000 C 
BRANCH  16  17
ATOM     17  C   UNL     1     -12.939  -8.286  20.649  1.00  0.00    -0.003 C 
ATOM     18  C   UNL     1     -13.773  -7.866  19.440  1.00  0.00     0.004 C 
ENDBRANCH  16  17
ENDBRANCH  15  16
ENDBRANCH  14  15
ENDBRANCH  13  14
ENDBRANCH  12  13
ENDBRANCH  11  12
ENDBRANCH   1  11
TORSDOF 14
ENDMDL
MODEL 6
REMARK VINA RESULT:    -3.661      2.896      5.033
REMARK INTER + INTRA:          -8.633
REMARK INTER:                  -6.291
REMARK INTRA:                  -2.341
REMARK UNBOUND:                -1.975
REMARK SMILES CCCCCCCCCCCCCCCC(=O)[O-]
REMARK SMILES IDX 9 1 10 2 11 3 12 4 13 5 14 6 15 7 16 8 17 9 18 10 8 11 7 12
REMARK SMILES IDX 6 13 5 14 4 15 3 16 2 17 1 18
REMARK H PARENT
REMARK Flexibility Score: inf
ROOT
ATOM      1  C   UNL     1     -13.047 -13.392  23.285  1.00  0.00     0.000 C 
ENDROOT
BRANCH   1   2
ATOM      2  C   UNL     1     -11.780 -14.134  22.827  1.00  0.00     0.000 C 
BRANCH   2   3
ATOM      3  C   UNL     1     -10.498 -13.539  23.434  1.00  0.00     0.000 C 
BRANCH   3   4
ATOM      4  C   UNL     1     -10.708 -12.117  23.978  1.00  0.00     0.000 C 
BRANCH   4   5
ATOM      5  C   UNL     1     -10.051 -11.906  25.354  1.00  0.00     0.000 C 
BRANCH   5   6
ATOM      6  C   UNL     1     -10.864 -10.965  26.262  1.00  0.00     0.006 C 
BRANCH   6   7
ATOM      7  C   UNL     1     -11.888 -10.097  25.515  1.00  0.00     0.053 C 
BRANCH   7   8
ATOM      8  C   UNL     1     -11.832  -8.665  25.949  1.00  0.00     0.041 C 
ATOM      9  O   UNL     1     -11.468  -8.370  27.118  1.00  0.00    -0.550 OA
ATOM     10  O   UNL     1     -12.147  -7.652  25.051  1.00  0.00    -0.550 OA
ENDBRANCH   7   8
ENDBRANCH   6   7
ENDBRANCH   5   6
ENDBRANCH   4   5
ENDBRANCH   3   4
ENDBRANCH   2   3
ENDBRANCH   1   2
BRANCH   1  11
ATOM     11  C   UNL     1     -13.862 -14.198  24.312  1.00  0.00     0.000 C 
BRANCH  11  12
ATOM     12  C   UNL     1     -13.519 -13.836  25.769  1.00  0.00    -0.000 C 
BRANCH  12  13
ATOM     13  C   UNL     1     -12.742 -14.911  26.550  1.00  0.00    -0.000 C 
BRANCH  13  14
ATOM     14  C   UNL     1     -13.095 -16.344  26.114  1.00  0.00    -0.000 C 
BRANCH  14  15
ATOM     15  C   UNL     1     -11.858 -17.245  25.956  1.00  0.00    -0.000 C 
BRANCH  15  16
ATOM     16  C   UNL     1     -10.597 -16.546  25.410  1.00  0.00    -0.000 C 
BRANCH  16  17
ATOM     17  C   UNL     1      -9.404 -16.502  26.382  1.00  0.00    -0.003 C 
ATOM     18  C   UNL     1      -9.014 -15.080  26.780  1.00  0.00     0.004 C 
ENDBRANCH  16  17
ENDBRANCH  15  16
ENDBRANCH  14  15
ENDBRANCH  13  14
ENDBRANCH  12  13
ENDBRANCH  11  12
ENDBRANCH   1  11
TORSDOF 14
ENDMDL
MODEL 7
REMARK VINA RESULT:    -3.656      3.309      4.756
REMARK INTER + INTRA:          -8.623
REMARK INTER:                  -6.023
REMARK INTRA:                  -2.600
REMARK UNBOUND:                -1.975
REMARK SMILES CCCCCCCCCCCCCCCC(=O)[O-]
REMARK SMILES IDX 9 1 10 2 11 3 12 4 13 5 14 6 15 7 16 8 17 9 18 10 8 11 7 12
REMARK SMILES IDX 6 13 5 14 4 15 3 16 2 17 1 18
REMARK H PARENT
REMARK Flexibility Score: inf
ROOT
ATOM      1  C   UNL     1     -13.887 -11.167  25.859  1.00  0.00     0.000 C 
ENDROOT
BRANCH   1   2
ATOM      2  C   UNL     1     -14.069 -10.130  24.738  1.00  0.00     0.000 C 
BRANCH   2   3
ATOM      3  C   UNL     1     -12.875  -9.165  24.630  1.00  0.00     0.000 C 
BRANCH   3   4
ATOM      4  C   UNL     1     -12.765  -8.226  25.842  1.00  0.00     0.000 C 
BRANCH   4   5
ATOM      5  C   UNL     1     -11.458  -8.426  26.629  1.00  0.00     0.000 C 
BRANCH   5   6
ATOM      6  C   UNL     1     -11.663  -8.336  28.153  1.00  0.00     0.006 C 
BRANCH   6   7
ATOM      7  C   UNL     1     -12.071  -9.662  28.813  1.00  0.00     0.053 C 
BRANCH   7   8
ATOM      8  C   UNL     1     -11.419  -9.847  30.148  1.00  0.00     0.041 C 
ATOM      9  O   UNL     1     -11.544  -8.970  31.043  1.00  0.00    -0.550 OA
ATOM     10  O   UNL     1     -10.701 -11.006  30.417  1.00  0.00    -0.550 OA
ENDBRANCH   7   8
ENDBRANCH   6   7
ENDBRANCH   5   6
ENDBRANCH   4   5
ENDBRANCH   3   4
ENDBRANCH   2   3
ENDBRANCH   1   2
BRANCH   1  11
ATOM     11  C   UNL     1     -14.201 -12.599  25.392  1.00  0.00     0.000 C 
BRANCH  11  12
ATOM     12  C   UNL     1     -13.504 -13.676  26.245  1.00  0.00    -0.000 C 
BRANCH  12  13
ATOM     13  C   UNL     1     -12.442 -13.151  27.230  1.00  0.00    -0.000 C 
BRANCH  13  14
ATOM     14  C   UNL     1     -11.006 -13.295  26.697  1.00  0.00    -0.000 C 
BRANCH  14  15
ATOM     15  C   UNL     1     -10.300 -11.941  26.505  1.00  0.00    -0.000 C 
BRANCH  15  16
ATOM     16  C   UNL     1     -10.071 -11.517  25.040  1.00  0.00    -0.000 C 
BRANCH  16  17
ATOM     17  C   UNL     1     -10.402 -12.594  23.991  1.00  0.00    -0.003 C 
ATOM     18  C   UNL     1     -11.461 -12.142  22.988  1.00  0.00     0.004 C 
ENDBRANCH  16  17
ENDBRANCH  15  16
ENDBRANCH  14  15
ENDBRANCH  13  14
ENDBRANCH  12  13
ENDBRANCH  11  12
ENDBRANCH   1  11
TORSDOF 14
ENDMDL
MODEL 8
REMARK VINA RESULT:    -3.621      3.513      5.718
REMARK INTER + INTRA:          -8.559
REMARK INTER:                  -5.835
REMARK INTRA:                  -2.723
REMARK UNBOUND:                -1.975
REMARK SMILES CCCCCCCCCCCCCCCC(=O)[O-]
REMARK SMILES IDX 9 1 10 2 11 3 12 4 13 5 14 6 15 7 16 8 17 9 18 10 8 11 7 12
REMARK SMILES IDX 6 13 5 14 4 15 3 16 2 17 1 18
REMARK H PARENT
REMARK Flexibility Score: inf
ROOT
ATOM      1  C   UNL     1     -13.876 -11.473  27.973  1.00  0.00     0.000 C 
ENDROOT
BRANCH   1   2
ATOM      2  C   UNL     1     -13.494 -12.331  26.755  1.00  0.00     0.000 C 
BRANCH   2   3
ATOM      3  C   UNL     1     -14.619 -12.398  25.707  1.00  0.00     0.000 C 
BRANCH   3   4
ATOM      4  C   UNL     1     -14.103 -12.181  24.275  1.00  0.00     0.000 C 
BRANCH   4   5
ATOM      5  C   UNL     1     -12.810 -11.348  24.232  1.00  0.00     0.000 C 
BRANCH   5   6
ATOM      6  C   UNL     1     -11.786 -11.895  23.219  1.00  0.00     0.006 C 
BRANCH   6   7
ATOM      7  C   UNL     1     -10.450 -12.325  23.844  1.00  0.00     0.053 C 
BRANCH   7   8
ATOM      8  C   UNL     1     -10.580 -13.595  24.627  1.00  0.00     0.041 C 
ATOM      9  O   UNL     1     -10.244 -13.630  25.840  1.00  0.00    -0.550 OA
ATOM     10  O   UNL     1     -11.107 -14.732  24.026  1.00  0.00    -0.550 OA
ENDBRANCH   7   8
ENDBRANCH   6   7
ENDBRANCH   5   6
ENDBRANCH   4   5
ENDBRANCH   3   4
ENDBRANCH   2   3
ENDBRANCH   1   2
BRANCH   1  11
ATOM     11  C   UNL     1     -12.732 -10.547  28.421  1.00  0.00     0.000 C 
BRANCH  11  12
ATOM     12  C   UNL     1     -11.395 -10.864  27.726  1.00  0.00    -0.000 C 
BRANCH  12  13
ATOM     13  C   UNL     1     -10.852  -9.756  26.804  1.00  0.00    -0.000 C 
BRANCH  13  14
ATOM     14  C   UNL     1     -11.721  -8.486  26.815  1.00  0.00    -0.000 C 
BRANCH  14  15
ATOM     15  C   UNL     1     -12.106  -8.011  25.403  1.00  0.00    -0.000 C 
BRANCH  15  16
ATOM     16  C   UNL     1     -13.574  -7.575  25.230  1.00  0.00    -0.000 C 
BRANCH  16  17
ATOM     17  C   UNL     1     -14.619  -8.606  25.692  1.00  0.00    -0.003 C 
ATOM     18  C   UNL     1     -15.429  -8.132  26.897  1.00  0.00     0.004 C 
ENDBRANCH  16  17
ENDBRANCH  15  16
ENDBRANCH  14  15
ENDBRANCH  13  14
ENDBRANCH  12  13
ENDBRANCH  11  12
ENDBRANCH   1  11
TORSDOF 14
ENDMDL
MODEL 9
REMARK VINA RESULT:    -3.585      4.055      6.565
REMARK INTER + INTRA:          -8.493
REMARK INTER:                  -5.898
REMARK INTRA:                  -2.596
REMARK UNBOUND:                -1.975
REMARK SMILES CCCCCCCCCCCCCCCC(=O)[O-]
REMARK SMILES IDX 9 1 10 2 11 3 12 4 13 5 14 6 15 7 16 8 17 9 18 10 8 11 7 12
REMARK SMILES IDX 6 13 5 14 4 15 3 16 2 17 1 18
REMARK H PARENT
REMARK Flexibility Score: inf
ROOT
ATOM      1  C   UNL     1     -13.959  -8.152  26.417  1.00  0.00     0.000 C 
ENDROOT
BRANCH   1   2
ATOM      2  C   UNL     1     -14.844  -9.401  26.566  1.00  0.00     0.000 C 
BRANCH   2   3
ATOM      3  C   UNL     1     -14.385 -10.560  25.664  1.00  0.00     0.000 C 
BRANCH   3   4
ATOM      4  C   UNL     1     -14.334 -11.903  26.409  1.00  0.00     0.000 C 
BRANCH   4   5
ATOM      5  C   UNL     1     -13.221 -12.829  25.887  1.00  0.00     0.000 C 
BRANCH   5   6
ATOM      6  C   UNL     1     -12.610 -13.706  26.996  1.00  0.00     0.006 C 
BRANCH   6   7
ATOM      7  C   UNL     1     -11.161 -14.140  26.729  1.00  0.00     0.053 C 
BRANCH   7   8
ATOM      8  C   UNL     1     -11.090 -15.482  26.069  1.00  0.00     0.041 C 
ATOM      9  O   UNL     1     -11.207 -15.581  24.819  1.00  0.00    -0.550 OA
ATOM     10  O   UNL     1     -10.858 -16.621  26.830  1.00  0.00    -0.550 OA
ENDBRANCH   7   8
ENDBRANCH   6   7
ENDBRANCH   5   6
ENDBRANCH   4   5
ENDBRANCH   3   4
ENDBRANCH   2   3
ENDBRANCH   1   2
BRANCH   1  11
ATOM     11  C   UNL     1     -12.621  -8.460  25.721  1.00  0.00     0.000 C 
BRANCH  11  12
ATOM     12  C   UNL     1     -11.454  -8.630  26.711  1.00  0.00    -0.000 C 
BRANCH  12  13
ATOM     13  C   UNL     1     -10.860 -10.048  26.793  1.00  0.00    -0.000 C 
BRANCH  13  14
ATOM     14  C   UNL     1     -10.911 -10.640  28.212  1.00  0.00    -0.000 C 
BRANCH  14  15
ATOM     15  C   UNL     1     -11.941  -9.940  29.116  1.00  0.00    -0.000 C 
BRANCH  15  16
ATOM     16  C   UNL     1     -13.120 -10.819  29.580  1.00  0.00    -0.000 C 
BRANCH  16  17
ATOM     17  C   UNL     1     -12.724 -12.055  30.409  1.00  0.00    -0.003 C 
ATOM     18  C   UNL     1     -13.882 -13.031  30.611  1.00  0.00     0.004 C 
ENDBRANCH  16  17
ENDBRANCH  15  16
ENDBRANCH  14  15
ENDBRANCH  13  14
ENDBRANCH  12  13
ENDBRANCH  11  12
ENDBRANCH   1  11
TORSDOF 14
ENDMDL
