MODEL 1
REMARK VINA RESULT:    -4.392      0.000      0.000
REMARK INTER + INTRA:         -12.173
REMARK INTER:                  -9.527
REMARK INTRA:                  -2.645
REMARK UNBOUND:                -2.645
REMARK SMILES CCCCCCCCCCCCCCCCCCCCCC(=O)[O-]
REMARK SMILES IDX 12 1 11 2 10 3 9 4 8 5 7 6 6 7 5 8 4 9 3 10 2 11 1 12 13 13
REMARK SMILES IDX 14 14 15 15 16 16 17 17 18 18 19 19 20 20 21 21 22 22 23 23
REMARK SMILES IDX 24 24
REMARK H PARENT
REMARK Flexibility Score: inf
ROOT
ATOM      1  C   UNL     1     -28.323  21.422  23.008  1.00  0.00     0.000 C 
ENDROOT
BRANCH   1   2
ATOM      2  C   UNL     1     -28.069  19.916  23.234  1.00  0.00     0.000 C 
BRANCH   2   3
ATOM      3  C   UNL     1     -29.307  19.039  22.989  1.00  0.00     0.000 C 
BRANCH   3   4
ATOM      4  C   UNL     1     -30.560  19.858  22.642  1.00  0.00    -0.000 C 
BRANCH   4   5
ATOM      5  C   UNL     1     -31.639  19.778  23.734  1.00  0.00    -0.000 C 
BRANCH   5   6
ATOM      6  C   UNL     1     -31.102  19.190  25.049  1.00  0.00    -0.000 C 
BRANCH   6   7
ATOM      7  C   UNL     1     -32.217  18.659  25.966  1.00  0.00    -0.000 C 
BRANCH   7   8
ATOM      8  C   UNL     1     -33.596  18.583  25.279  1.00  0.00    -0.000 C 
BRANCH   8   9
ATOM      9  C   UNL     1     -34.256  17.205  25.446  1.00  0.00    -0.000 C 
BRANCH   9  10
ATOM     10  C   UNL     1     -33.314  16.085  24.982  1.00  0.00    -0.000 C 
BRANCH  10  11
ATOM     11  C   UNL     1     -33.219  15.987  23.451  1.00  0.00    -0.003 C 
ATOM     12  C   UNL     1     -31.789  16.143  22.936  1.00  0.00     0.004 C 
ENDBRANCH  10  11
ENDBRANCH   9  10
ENDBRANCH   8   9
ENDBRANCH   7   8
ENDBRANCH   6   7
ENDBRANCH   5   6
ENDBRANCH   4   5
ENDBRANCH   3   4
ENDBRANCH   2   3
ENDBRANCH   1   2
BRANCH   1  13
ATOM     13  C   UNL     1     -27.946  22.268  24.237  1.00  0.00     0.000 C 
BRANCH  13  14
ATOM     14  C   UNL     1     -28.786  21.922  25.477  1.00  0.00     0.000 C 
BRANCH  14  15
ATOM     15  C   UNL     1     -28.169  22.464  26.778  1.00  0.00     0.000 C 
BRANCH  15  16
ATOM     16  C   UNL     1     -28.971  22.068  28.028  1.00  0.00     0.000 C 
BRANCH  16  17
ATOM     17  C   UNL     1     -30.445  21.760  27.714  1.00  0.00     0.000 C 
BRANCH  17  18
ATOM     18  C   UNL     1     -31.400  22.203  28.839  1.00  0.00     0.000 C 
BRANCH  18  19
ATOM     19  C   UNL     1     -30.761  22.325  30.238  1.00  0.00     0.000 C 
BRANCH  19  20
ATOM     20  C   UNL     1     -30.811  23.732  30.861  1.00  0.00     0.006 C 
BRANCH  20  21
ATOM     21  C   UNL     1     -31.769  24.676  30.123  1.00  0.00     0.053 C 
BRANCH  21  22
ATOM     22  C   UNL     1     -32.963  24.977  30.973  1.00  0.00     0.041 C 
ATOM     23  O   UNL     1     -33.036  24.524  32.145  1.00  0.00    -0.550 OA
ATOM     24  O   UNL     1     -33.969  25.802  30.489  1.00  0.00    -0.550 OA
ENDBRANCH  21  22
ENDBRANCH  20  21
ENDBRANCH  19  20
ENDBRANCH  18  19
ENDBRANCH  17  18
ENDBRANCH  16  17
ENDBRANCH  15  16
ENDBRANCH  14  15
ENDBRANCH  13  14
ENDBRANCH   1  13
TORSDOF 20
ENDMDL
MODEL 2
REMARK VINA RESULT:    -4.318      1.814      2.739
REMARK INTER + INTRA:         -12.012
REMARK INTER:                 -10.290
REMARK INTRA:                  -1.722
REMARK UNBOUND:                -2.645
REMARK SMILES CCCCCCCCCCCCCCCCCCCCCC(=O)[O-]
REMARK SMILES IDX 12 1 11 2 10 3 9 4 8 5 7 6 6 7 5 8 4 9 3 10 2 11 1 12 13 13
REMARK SMILES IDX 14 14 15 15 16 16 17 17 18 18 19 19 20 20 21 21 22 22 23 23
REMARK SMILES IDX 24 24
REMARK H PARENT
REMARK Flexibility Score: inf
ROOT
ATOM      1  C   UNL     1     -29.209  20.122  23.175  1.00  0.00     0.000 C 
ENDROOT
BRANCH   1   2
ATOM      2  C   UNL     1     -30.681  19.685  23.012  1.00  0.00     0.000 C 
BRANCH   2   3
ATOM      3  C   UNL     1     -31.564  20.031  24.222  1.00  0.00     0.000 C 
BRANCH   3   4
ATOM      4  C   UNL     1     -32.079  18.786  24.962  1.00  0.00    -0.000 C 
BRANCH   4   5
ATOM      5  C   UNL     1     -32.412  17.628  24.007  1.00  0.00    -0.000 C 
BRANCH   5   6
ATOM      6  C   UNL     1     -33.605  16.790  24.493  1.00  0.00    -0.000 C 
BRANCH   6   7
ATOM      7  C   UNL     1     -34.275  17.375  25.747  1.00  0.00    -0.000 C 
BRANCH   7   8
ATOM      8  C   UNL     1     -34.322  16.393  26.937  1.00  0.00    -0.000 C 
BRANCH   8   9
ATOM      9  C   UNL     1     -33.017  15.596  27.088  1.00  0.00    -0.000 C 
BRANCH   9  10
ATOM     10  C   UNL     1     -33.292  14.085  27.075  1.00  0.00    -0.000 C 
BRANCH  10  11
ATOM     11  C   UNL     1     -32.650  13.355  28.265  1.00  0.00    -0.003 C 
ATOM     12  C   UNL     1     -33.631  13.118  29.412  1.00  0.00     0.004 C 
ENDBRANCH  10  11
ENDBRANCH   9  10
ENDBRANCH   8   9
ENDBRANCH   7   8
ENDBRANCH   6   7
ENDBRANCH   5   6
ENDBRANCH   4   5
ENDBRANCH   3   4
ENDBRANCH   2   3
ENDBRANCH   1   2
BRANCH   1  13
ATOM     13  C   UNL     1     -29.078  21.627  23.471  1.00  0.00     0.000 C 
BRANCH  13  14
ATOM     14  C   UNL     1     -28.183  21.919  24.686  1.00  0.00     0.000 C 
BRANCH  14  15
ATOM     15  C   UNL     1     -28.989  22.360  25.921  1.00  0.00     0.000 C 
BRANCH  15  16
ATOM     16  C   UNL     1     -29.247  21.208  26.906  1.00  0.00     0.000 C 
BRANCH  16  17
ATOM     17  C   UNL     1     -30.491  21.442  27.779  1.00  0.00     0.000 C 
BRANCH  17  18
ATOM     18  C   UNL     1     -30.473  22.810  28.488  1.00  0.00     0.000 C 
BRANCH  18  19
ATOM     19  C   UNL     1     -31.665  23.079  29.431  1.00  0.00     0.000 C 
BRANCH  19  20
ATOM     20  C   UNL     1     -31.321  23.860  30.713  1.00  0.00     0.006 C 
BRANCH  20  21
ATOM     21  C   UNL     1     -31.934  25.266  30.737  1.00  0.00     0.053 C 
BRANCH  21  22
ATOM     22  C   UNL     1     -33.395  25.193  31.050  1.00  0.00     0.041 C 
ATOM     23  O   UNL     1     -34.226  25.826  30.349  1.00  0.00    -0.550 OA
ATOM     24  O   UNL     1     -33.842  24.381  32.085  1.00  0.00    -0.550 OA
ENDBRANCH  21  22
ENDBRANCH  20  21
ENDBRANCH  19  20
ENDBRANCH  18  19
ENDBRANCH  17  18
ENDBRANCH  16  17
ENDBRANCH  15  16
ENDBRANCH  14  15
ENDBRANCH  13  14
ENDBRANCH   1  13
TORSDOF 20
ENDMDL
MODEL 3
REMARK VINA RESULT:    -4.316      4.384      7.083
REMARK INTER + INTRA:         -12.007
REMARK INTER:                  -7.827
REMARK INTRA:                  -4.180
REMARK UNBOUND:                -2.645
REMARK SMILES CCCCCCCCCCCCCCCCCCCCCC(=O)[O-]
REMARK SMILES IDX 12 1 11 2 10 3 9 4 8 5 7 6 6 7 5 8 4 9 3 10 2 11 1 12 13 13
REMARK SMILES IDX 14 14 15 15 16 16 17 17 18 18 19 19 20 20 21 21 22 22 23 23
REMARK SMILES IDX 24 24
REMARK H PARENT
REMARK Flexibility Score: inf
ROOT
ATOM      1  C   UNL     1     -29.864  18.198  25.691  1.00  0.00     0.000 C 
ENDROOT
BRANCH   1   2
ATOM      2  C   UNL     1     -30.914  19.282  26.018  1.00  0.00     0.000 C 
BRANCH   2   3
ATOM      3  C   UNL     1     -31.285  20.163  24.814  1.00  0.00     0.000 C 
BRANCH   3   4
ATOM      4  C   UNL     1     -30.933  19.512  23.467  1.00  0.00    -0.000 C 
BRANCH   4   5
ATOM      5  C   UNL     1     -30.204  20.478  22.519  1.00  0.00    -0.000 C 
BRANCH   5   6
ATOM      6  C   UNL     1     -29.376  21.531  23.273  1.00  0.00    -0.000 C 
BRANCH   6   7
ATOM      7  C   UNL     1     -27.860  21.336  23.099  1.00  0.00    -0.000 C 
BRANCH   7   8
ATOM      8  C   UNL     1     -27.313  20.081  23.810  1.00  0.00    -0.000 C 
BRANCH   8   9
ATOM      9  C   UNL     1     -26.724  19.060  22.824  1.00  0.00    -0.000 C 
BRANCH   9  10
ATOM     10  C   UNL     1     -27.596  17.798  22.754  1.00  0.00    -0.000 C 
BRANCH  10  11
ATOM     11  C   UNL     1     -27.955  17.406  21.312  1.00  0.00    -0.003 C 
ATOM     12  C   UNL     1     -29.405  16.943  21.169  1.00  0.00     0.004 C 
ENDBRANCH  10  11
ENDBRANCH   9  10
ENDBRANCH   8   9
ENDBRANCH   7   8
ENDBRANCH   6   7
ENDBRANCH   5   6
ENDBRANCH   4   5
ENDBRANCH   3   4
ENDBRANCH   2   3
ENDBRANCH   1   2
BRANCH   1  13
ATOM     13  C   UNL     1     -30.412  16.775  25.899  1.00  0.00     0.000 C 
BRANCH  13  14
ATOM     14  C   UNL     1     -30.197  15.870  24.675  1.00  0.00     0.000 C 
BRANCH  14  15
ATOM     15  C   UNL     1     -31.509  15.252  24.159  1.00  0.00     0.000 C 
BRANCH  15  16
ATOM     16  C   UNL     1     -32.299  16.205  23.248  1.00  0.00     0.000 C 
BRANCH  16  17
ATOM     17  C   UNL     1     -33.747  16.416  23.723  1.00  0.00     0.000 C 
BRANCH  17  18
ATOM     18  C   UNL     1     -33.892  17.614  24.680  1.00  0.00     0.000 C 
BRANCH  18  19
ATOM     19  C   UNL     1     -34.128  17.251  26.161  1.00  0.00     0.000 C 
BRANCH  19  20
ATOM     20  C   UNL     1     -34.388  15.759  26.435  1.00  0.00     0.006 C 
BRANCH  20  21
ATOM     21  C   UNL     1     -34.289  15.400  27.924  1.00  0.00     0.053 C 
BRANCH  21  22
ATOM     22  C   UNL     1     -32.899  14.964  28.263  1.00  0.00     0.041 C 
ATOM     23  O   UNL     1     -32.363  15.334  29.340  1.00  0.00    -0.550 OA
ATOM     24  O   UNL     1     -32.215  14.105  27.413  1.00  0.00    -0.550 OA
ENDBRANCH  21  22
ENDBRANCH  20  21
ENDBRANCH  19  20
ENDBRANCH  18  19
ENDBRANCH  17  18
ENDBRANCH  16  17
ENDBRANCH  15  16
ENDBRANCH  14  15
ENDBRANCH  13  14
ENDBRANCH   1  13
TORSDOF 20
ENDMDL
MODEL 4
REMARK VINA RESULT:    -4.307      1.469      3.008
REMARK INTER + INTRA:         -11.987
REMARK INTER:                  -8.402
REMARK INTRA:                  -3.586
REMARK UNBOUND:                -2.645
REMARK SMILES CCCCCCCCCCCCCCCCCCCCCC(=O)[O-]
REMARK SMILES IDX 12 1 11 2 10 3 9 4 8 5 7 6 6 7 5 8 4 9 3 10 2 11 1 12 13 13
REMARK SMILES IDX 14 14 15 15 16 16 17 17 18 18 19 19 20 20 21 21 22 22 23 23
REMARK SMILES IDX 24 24
REMARK H PARENT
REMARK Flexibility Score: inf
ROOT
ATOM      1  C   UNL     1     -31.231  18.946  26.416  1.00  0.00     0.000 C 
ENDROOT
BRANCH   1   2
ATOM      2  C   UNL     1     -31.639  20.155  25.546  1.00  0.00     0.000 C 
BRANCH   2   3
ATOM      3  C   UNL     1     -31.971  19.784  24.092  1.00  0.00     0.000 C 
BRANCH   3   4
ATOM      4  C   UNL     1     -30.784  19.988  23.138  1.00  0.00    -0.000 C 
BRANCH   4   5
ATOM      5  C   UNL     1     -30.161  18.659  22.679  1.00  0.00    -0.000 C 
BRANCH   5   6
ATOM      6  C   UNL     1     -31.164  17.494  22.719  1.00  0.00    -0.000 C 
BRANCH   6   7
ATOM      7  C   UNL     1     -30.832  16.457  23.805  1.00  0.00    -0.000 C 
BRANCH   7   8
ATOM      8  C   UNL     1     -32.079  15.819  24.451  1.00  0.00    -0.000 C 
BRANCH   8   9
ATOM      9  C   UNL     1     -33.387  16.436  23.932  1.00  0.00    -0.000 C 
BRANCH   9  10
ATOM     10  C   UNL     1     -34.226  16.997  25.089  1.00  0.00    -0.000 C 
BRANCH  10  11
ATOM     11  C   UNL     1     -33.721  16.537  26.465  1.00  0.00    -0.003 C 
ATOM     12  C   UNL     1     -34.696  15.592  27.167  1.00  0.00     0.004 C 
ENDBRANCH  10  11
ENDBRANCH   9  10
ENDBRANCH   8   9
ENDBRANCH   7   8
ENDBRANCH   6   7
ENDBRANCH   5   6
ENDBRANCH   4   5
ENDBRANCH   3   4
ENDBRANCH   2   3
ENDBRANCH   1   2
BRANCH   1  13
ATOM     13  C   UNL     1     -29.821  19.106  27.013  1.00  0.00     0.000 C 
BRANCH  13  14
ATOM     14  C   UNL     1     -28.707  18.847  25.985  1.00  0.00     0.000 C 
BRANCH  14  15
ATOM     15  C   UNL     1     -27.670  19.983  25.941  1.00  0.00     0.000 C 
BRANCH  15  16
ATOM     16  C   UNL     1     -28.242  21.290  25.369  1.00  0.00     0.000 C 
BRANCH  16  17
ATOM     17  C   UNL     1     -28.154  22.461  26.362  1.00  0.00     0.000 C 
BRANCH  17  18
ATOM     18  C   UNL     1     -29.526  22.857  26.940  1.00  0.00     0.000 C 
BRANCH  18  19
ATOM     19  C   UNL     1     -29.795  22.382  28.384  1.00  0.00     0.000 C 
BRANCH  19  20
ATOM     20  C   UNL     1     -31.277  22.373  28.804  1.00  0.00     0.006 C 
BRANCH  20  21
ATOM     21  C   UNL     1     -31.683  23.630  29.585  1.00  0.00     0.053 C 
BRANCH  21  22
ATOM     22  C   UNL     1     -32.529  23.261  30.762  1.00  0.00     0.041 C 
ATOM     23  O   UNL     1     -32.427  22.119  31.284  1.00  0.00    -0.550 OA
ATOM     24  O   UNL     1     -33.393  24.196  31.316  1.00  0.00    -0.550 OA
ENDBRANCH  21  22
ENDBRANCH  20  21
ENDBRANCH  19  20
ENDBRANCH  18  19
ENDBRANCH  17  18
ENDBRANCH  16  17
ENDBRANCH  15  16
ENDBRANCH  14  15
ENDBRANCH  13  14
ENDBRANCH   1  13
TORSDOF 20
ENDMDL
MODEL 5
REMARK VINA RESULT:    -4.278      3.295      8.223
REMARK INTER + INTRA:         -11.925
REMARK INTER:                  -9.623
REMARK INTRA:                  -2.302
REMARK UNBOUND:                -2.645
REMARK SMILES CCCCCCCCCCCCCCCCCCCCCC(=O)[O-]
REMARK SMILES IDX 12 1 11 2 10 3 9 4 8 5 7 6 6 7 5 8 4 9 3 10 2 11 1 12 13 13
REMARK SMILES IDX 14 14 15 15 16 16 17 17 18 18 19 19 20 20 21 21 22 22 23 23
REMARK SMILES IDX 24 24
REMARK H PARENT
REMARK Flexibility Score: inf
ROOT
ATOM      1  C   UNL     1     -30.231  22.303  28.836  1.00  0.00     0.000 C 
ENDROOT
BRANCH   1   2
ATOM      2  C   UNL     1     -29.334  22.041  30.066  1.00  0.00     0.000 C 
BRANCH   2   3
ATOM      3  C   UNL     1     -30.116  21.922  31.384  1.00  0.00     0.000 C 
BRANCH   3   4
ATOM      4  C   UNL     1     -31.567  21.461  31.178  1.00  0.00    -0.000 C 
BRANCH   4   5
ATOM      5  C   UNL     1     -32.377  21.460  32.485  1.00  0.00    -0.000 C 
BRANCH   5   6
ATOM      6  C   UNL     1     -32.158  22.737  33.313  1.00  0.00    -0.000 C 
BRANCH   6   7
ATOM      7  C   UNL     1     -33.475  23.435  33.694  1.00  0.00    -0.000 C 
BRANCH   7   8
ATOM      8  C   UNL     1     -34.379  23.748  32.484  1.00  0.00    -0.000 C 
BRANCH   8   9
ATOM      9  C   UNL     1     -34.448  25.253  32.180  1.00  0.00    -0.000 C 
BRANCH   9  10
ATOM     10  C   UNL     1     -34.127  25.530  30.704  1.00  0.00    -0.000 C 
BRANCH  10  11
ATOM     11  C   UNL     1     -32.971  24.665  30.178  1.00  0.00    -0.003 C 
ATOM     12  C   UNL     1     -31.598  25.215  30.562  1.00  0.00     0.004 C 
ENDBRANCH  10  11
ENDBRANCH   9  10
ENDBRANCH   8   9
ENDBRANCH   7   8
ENDBRANCH   6   7
ENDBRANCH   5   6
ENDBRANCH   4   5
ENDBRANCH   3   4
ENDBRANCH   2   3
ENDBRANCH   1   2
BRANCH   1  13
ATOM     13  C   UNL     1     -29.413  22.680  27.588  1.00  0.00     0.000 C 
BRANCH  13  14
ATOM     14  C   UNL     1     -29.340  21.541  26.558  1.00  0.00     0.000 C 
BRANCH  14  15
ATOM     15  C   UNL     1     -28.593  21.950  25.277  1.00  0.00     0.000 C 
BRANCH  15  16
ATOM     16  C   UNL     1     -28.657  20.874  24.181  1.00  0.00     0.000 C 
BRANCH  16  17
ATOM     17  C   UNL     1     -29.659  21.221  23.067  1.00  0.00     0.000 C 
BRANCH  17  18
ATOM     18  C   UNL     1     -30.527  20.019  22.649  1.00  0.00     0.000 C 
BRANCH  18  19
ATOM     19  C   UNL     1     -31.141  19.213  23.813  1.00  0.00     0.000 C 
BRANCH  19  20
ATOM     20  C   UNL     1     -32.148  19.985  24.685  1.00  0.00     0.006 C 
BRANCH  20  21
ATOM     21  C   UNL     1     -33.580  19.451  24.557  1.00  0.00     0.053 C 
BRANCH  21  22
ATOM     22  C   UNL     1     -33.628  17.997  24.908  1.00  0.00     0.041 C 
ATOM     23  O   UNL     1     -33.315  17.614  26.065  1.00  0.00    -0.550 OA
ATOM     24  O   UNL     1     -34.068  17.072  23.970  1.00  0.00    -0.550 OA
ENDBRANCH  21  22
ENDBRANCH  20  21
ENDBRANCH  19  20
ENDBRANCH  18  19
ENDBRANCH  17  18
ENDBRANCH  16  17
ENDBRANCH  15  16
ENDBRANCH  14  15
ENDBRANCH  13  14
ENDBRANCH   1  13
TORSDOF 20
ENDMDL
MODEL 6
REMARK VINA RESULT:    -4.229      3.049      7.067
REMARK INTER + INTRA:         -11.818
REMARK INTER:                  -9.366
REMARK INTRA:                  -2.452
REMARK UNBOUND:                -2.645
REMARK SMILES CCCCCCCCCCCCCCCCCCCCCC(=O)[O-]
REMARK SMILES IDX 12 1 11 2 10 3 9 4 8 5 7 6 6 7 5 8 4 9 3 10 2 11 1 12 13 13
REMARK SMILES IDX 14 14 15 15 16 16 17 17 18 18 19 19 20 20 21 21 22 22 23 23
REMARK SMILES IDX 24 24
REMARK H PARENT
REMARK Flexibility Score: inf
ROOT
ATOM      1  C   UNL     1     -27.415  19.077  24.028  1.00  0.00     0.000 C 
ENDROOT
BRANCH   1   2
ATOM      2  C   UNL     1     -27.303  20.180  22.953  1.00  0.00     0.000 C 
BRANCH   2   3
ATOM      3  C   UNL     1     -27.668  21.581  23.468  1.00  0.00     0.000 C 
BRANCH   3   4
ATOM      4  C   UNL     1     -29.107  21.666  23.999  1.00  0.00    -0.000 C 
BRANCH   4   5
ATOM      5  C   UNL     1     -29.167  22.084  25.477  1.00  0.00    -0.000 C 
BRANCH   5   6
ATOM      6  C   UNL     1     -29.538  20.916  26.405  1.00  0.00    -0.000 C 
BRANCH   6   7
ATOM      7  C   UNL     1     -30.659  21.272  27.396  1.00  0.00    -0.000 C 
BRANCH   7   8
ATOM      8  C   UNL     1     -30.297  22.431  28.347  1.00  0.00    -0.000 C 
BRANCH   8   9
ATOM      9  C   UNL     1     -31.458  22.805  29.282  1.00  0.00    -0.000 C 
BRANCH   9  10
ATOM     10  C   UNL     1     -31.440  24.306  29.606  1.00  0.00    -0.000 C 
BRANCH  10  11
ATOM     11  C   UNL     1     -32.716  24.771  30.325  1.00  0.00    -0.003 C 
ATOM     12  C   UNL     1     -33.128  23.838  31.464  1.00  0.00     0.004 C 
ENDBRANCH  10  11
ENDBRANCH   9  10
ENDBRANCH   8   9
ENDBRANCH   7   8
ENDBRANCH   6   7
ENDBRANCH   5   6
ENDBRANCH   4   5
ENDBRANCH   3   4
ENDBRANCH   2   3
ENDBRANCH   1   2
BRANCH   1  13
ATOM     13  C   UNL     1     -28.410  17.972  23.627  1.00  0.00     0.000 C 
BRANCH  13  14
ATOM     14  C   UNL     1     -29.145  18.282  22.313  1.00  0.00     0.000 C 
BRANCH  14  15
ATOM     15  C   UNL     1     -30.642  18.564  22.527  1.00  0.00     0.000 C 
BRANCH  15  16
ATOM     16  C   UNL     1     -31.047  18.541  24.010  1.00  0.00     0.000 C 
BRANCH  16  17
ATOM     17  C   UNL     1     -32.310  19.372  24.293  1.00  0.00     0.000 C 
BRANCH  17  18
ATOM     18  C   UNL     1     -33.384  18.582  25.065  1.00  0.00     0.000 C 
BRANCH  18  19
ATOM     19  C   UNL     1     -33.808  17.245  24.421  1.00  0.00     0.000 C 
BRANCH  19  20
ATOM     20  C   UNL     1     -33.456  15.986  25.235  1.00  0.00     0.006 C 
BRANCH  20  21
ATOM     21  C   UNL     1     -32.505  16.278  26.404  1.00  0.00     0.053 C 
BRANCH  21  22
ATOM     22  C   UNL     1     -33.187  16.014  27.709  1.00  0.00     0.041 C 
ATOM     23  O   UNL     1     -32.508  15.813  28.749  1.00  0.00    -0.550 OA
ATOM     24  O   UNL     1     -34.573  16.042  27.785  1.00  0.00    -0.550 OA
ENDBRANCH  21  22
ENDBRANCH  20  21
ENDBRANCH  19  20
ENDBRANCH  18  19
ENDBRANCH  17  18
ENDBRANCH  16  17
ENDBRANCH  15  16
ENDBRANCH  14  15
ENDBRANCH  13  14
ENDBRANCH   1  13
TORSDOF 20
ENDMDL
MODEL 7
REMARK VINA RESULT:    -4.208      1.231      2.006
REMARK INTER + INTRA:         -11.774
REMARK INTER:                  -9.087
REMARK INTRA:                  -2.687
REMARK UNBOUND:                -2.645
REMARK SMILES CCCCCCCCCCCCCCCCCCCCCC(=O)[O-]
REMARK SMILES IDX 12 1 11 2 10 3 9 4 8 5 7 6 6 7 5 8 4 9 3 10 2 11 1 12 13 13
REMARK SMILES IDX 14 14 15 15 16 16 17 17 18 18 19 19 20 20 21 21 22 22 23 23
REMARK SMILES IDX 24 24
REMARK H PARENT
REMARK Flexibility Score: inf
ROOT
ATOM      1  C   UNL     1     -27.172  20.521  23.316  1.00  0.00     0.000 C 
ENDROOT
BRANCH   1   2
ATOM      2  C   UNL     1     -27.162  19.318  22.349  1.00  0.00     0.000 C 
BRANCH   2   3
ATOM      3  C   UNL     1     -27.932  18.097  22.877  1.00  0.00     0.000 C 
BRANCH   3   4
ATOM      4  C   UNL     1     -28.334  18.237  24.354  1.00  0.00    -0.000 C 
BRANCH   4   5
ATOM      5  C   UNL     1     -29.855  18.148  24.562  1.00  0.00    -0.000 C 
BRANCH   5   6
ATOM      6  C   UNL     1     -30.646  18.765  23.396  1.00  0.00    -0.000 C 
BRANCH   6   7
ATOM      7  C   UNL     1     -31.829  19.627  23.866  1.00  0.00    -0.000 C 
BRANCH   7   8
ATOM      8  C   UNL     1     -32.694  18.950  24.949  1.00  0.00    -0.000 C 
BRANCH   8   9
ATOM      9  C   UNL     1     -33.608  17.858  24.370  1.00  0.00    -0.000 C 
BRANCH   9  10
ATOM     10  C   UNL     1     -33.474  16.551  25.166  1.00  0.00    -0.000 C 
BRANCH  10  11
ATOM     11  C   UNL     1     -33.815  16.727  26.654  1.00  0.00    -0.003 C 
ATOM     12  C   UNL     1     -34.615  15.553  27.220  1.00  0.00     0.004 C 
ENDBRANCH  10  11
ENDBRANCH   9  10
ENDBRANCH   8   9
ENDBRANCH   7   8
ENDBRANCH   6   7
ENDBRANCH   5   6
ENDBRANCH   4   5
ENDBRANCH   3   4
ENDBRANCH   2   3
ENDBRANCH   1   2
BRANCH   1  13
ATOM     13  C   UNL     1     -28.113  21.643  22.841  1.00  0.00     0.000 C 
BRANCH  13  14
ATOM     14  C   UNL     1     -29.089  22.105  23.936  1.00  0.00     0.000 C 
BRANCH  14  15
ATOM     15  C   UNL     1     -28.608  21.734  25.350  1.00  0.00     0.000 C 
BRANCH  15  16
ATOM     16  C   UNL     1     -29.768  21.436  26.313  1.00  0.00     0.000 C 
BRANCH  16  17
ATOM     17  C   UNL     1     -29.302  20.747  27.607  1.00  0.00     0.000 C 
BRANCH  17  18
ATOM     18  C   UNL     1     -30.008  21.295  28.862  1.00  0.00     0.000 C 
BRANCH  18  19
ATOM     19  C   UNL     1     -30.660  22.683  28.699  1.00  0.00     0.000 C 
BRANCH  19  20
ATOM     20  C   UNL     1     -31.702  23.048  29.773  1.00  0.00     0.006 C 
BRANCH  20  21
ATOM     21  C   UNL     1     -32.024  24.547  29.807  1.00  0.00     0.053 C 
BRANCH  21  22
ATOM     22  C   UNL     1     -33.158  24.815  30.745  1.00  0.00     0.041 C 
ATOM     23  O   UNL     1     -33.447  23.983  31.644  1.00  0.00    -0.550 OA
ATOM     24  O   UNL     1     -33.862  26.009  30.658  1.00  0.00    -0.550 OA
ENDBRANCH  21  22
ENDBRANCH  20  21
ENDBRANCH  19  20
ENDBRANCH  18  19
ENDBRANCH  17  18
ENDBRANCH  16  17
ENDBRANCH  15  16
ENDBRANCH  14  15
ENDBRANCH  13  14
ENDBRANCH   1  13
TORSDOF 20
ENDMDL
MODEL 8
REMARK VINA RESULT:    -4.171      1.692      3.586
REMARK INTER + INTRA:         -11.692
REMARK INTER:                  -8.460
REMARK INTRA:                  -3.232
REMARK UNBOUND:                -2.645
REMARK SMILES CCCCCCCCCCCCCCCCCCCCCC(=O)[O-]
REMARK SMILES IDX 12 1 11 2 10 3 9 4 8 5 7 6 6 7 5 8 4 9 3 10 2 11 1 12 13 13
REMARK SMILES IDX 14 14 15 15 16 16 17 17 18 18 19 19 20 20 21 21 22 22 23 23
REMARK SMILES IDX 24 24
REMARK H PARENT
REMARK Flexibility Score: inf
ROOT
ATOM      1  C   UNL     1     -31.072  19.807  23.846  1.00  0.00     0.000 C 
ENDROOT
BRANCH   1   2
ATOM      2  C   UNL     1     -32.087  20.068  24.981  1.00  0.00     0.000 C 
BRANCH   2   3
ATOM      3  C   UNL     1     -33.512  19.595  24.652  1.00  0.00     0.000 C 
BRANCH   3   4
ATOM      4  C   UNL     1     -33.888  18.288  25.368  1.00  0.00    -0.000 C 
BRANCH   4   5
ATOM      5  C   UNL     1     -33.818  17.066  24.438  1.00  0.00    -0.000 C 
BRANCH   5   6
ATOM      6  C   UNL     1     -32.981  15.921  25.032  1.00  0.00    -0.000 C 
BRANCH   6   7
ATOM      7  C   UNL     1     -31.571  15.834  24.425  1.00  0.00    -0.000 C 
BRANCH   7   8
ATOM      8  C   UNL     1     -30.476  16.456  25.316  1.00  0.00    -0.000 C 
BRANCH   8   9
ATOM      9  C   UNL     1     -30.908  16.560  26.787  1.00  0.00    -0.000 C 
BRANCH   9  10
ATOM     10  C   UNL     1     -30.717  17.989  27.316  1.00  0.00    -0.000 C 
BRANCH  10  11
ATOM     11  C   UNL     1     -29.443  18.142  28.161  1.00  0.00    -0.003 C 
ATOM     12  C   UNL     1     -29.724  18.122  29.664  1.00  0.00     0.004 C 
ENDBRANCH  10  11
ENDBRANCH   9  10
ENDBRANCH   8   9
ENDBRANCH   7   8
ENDBRANCH   6   7
ENDBRANCH   5   6
ENDBRANCH   4   5
ENDBRANCH   3   4
ENDBRANCH   2   3
ENDBRANCH   1   2
BRANCH   1  13
ATOM     13  C   UNL     1     -29.615  19.919  24.331  1.00  0.00     0.000 C 
BRANCH  13  14
ATOM     14  C   UNL     1     -28.826  21.013  23.594  1.00  0.00     0.000 C 
BRANCH  14  15
ATOM     15  C   UNL     1     -28.280  22.091  24.546  1.00  0.00     0.000 C 
BRANCH  15  16
ATOM     16  C   UNL     1     -29.123  22.239  25.823  1.00  0.00     0.000 C 
BRANCH  16  17
ATOM     17  C   UNL     1     -28.302  22.015  27.105  1.00  0.00     0.000 C 
BRANCH  17  18
ATOM     18  C   UNL     1     -29.185  21.790  28.347  1.00  0.00     0.000 C 
BRANCH  18  19
ATOM     19  C   UNL     1     -30.706  21.863  28.098  1.00  0.00     0.000 C 
BRANCH  19  20
ATOM     20  C   UNL     1     -31.520  22.547  29.211  1.00  0.00     0.006 C 
BRANCH  20  21
ATOM     21  C   UNL     1     -31.249  24.054  29.309  1.00  0.00     0.053 C 
BRANCH  21  22
ATOM     22  C   UNL     1     -31.731  24.587  30.621  1.00  0.00     0.041 C 
ATOM     23  O   UNL     1     -32.633  25.464  30.657  1.00  0.00    -0.550 OA
ATOM     24  O   UNL     1     -31.219  24.075  31.807  1.00  0.00    -0.550 OA
ENDBRANCH  21  22
ENDBRANCH  20  21
ENDBRANCH  19  20
ENDBRANCH  18  19
ENDBRANCH  17  18
ENDBRANCH  16  17
ENDBRANCH  15  16
ENDBRANCH  14  15
ENDBRANCH  13  14
ENDBRANCH   1  13
TORSDOF 20
ENDMDL
MODEL 9
REMARK VINA RESULT:    -4.138      5.431      7.812
REMARK INTER + INTRA:         -11.621
REMARK INTER:                  -8.291
REMARK INTRA:                  -3.330
REMARK UNBOUND:                -2.645
REMARK SMILES CCCCCCCCCCCCCCCCCCCCCC(=O)[O-]
REMARK SMILES IDX 12 1 11 2 10 3 9 4 8 5 7 6 6 7 5 8 4 9 3 10 2 11 1 12 13 13
REMARK SMILES IDX 14 14 15 15 16 16 17 17 18 18 19 19 20 20 21 21 22 22 23 23
REMARK SMILES IDX 24 24
REMARK H PARENT
REMARK Flexibility Score: inf
ROOT
ATOM      1  C   UNL     1     -33.370  18.854  24.896  1.00  0.00     0.000 C 
ENDROOT
BRANCH   1   2
ATOM      2  C   UNL     1     -33.246  17.466  24.230  1.00  0.00     0.000 C 
BRANCH   2   3
ATOM      3  C   UNL     1     -33.673  16.305  25.143  1.00  0.00     0.000 C 
BRANCH   3   4
ATOM      4  C   UNL     1     -34.522  16.766  26.338  1.00  0.00    -0.000 C 
BRANCH   4   5
ATOM      5  C   UNL     1     -34.549  15.732  27.476  1.00  0.00    -0.000 C 
BRANCH   5   6
ATOM      6  C   UNL     1     -33.244  14.924  27.569  1.00  0.00    -0.000 C 
BRANCH   6   7
ATOM      7  C   UNL     1     -32.397  15.296  28.797  1.00  0.00    -0.000 C 
BRANCH   7   8
ATOM      8  C   UNL     1     -31.011  15.871  28.439  1.00  0.00    -0.000 C 
BRANCH   8   9
ATOM      9  C   UNL     1     -31.104  17.255  27.778  1.00  0.00    -0.000 C 
BRANCH   9  10
ATOM     10  C   UNL     1     -30.183  17.342  26.553  1.00  0.00    -0.000 C 
BRANCH  10  11
ATOM     11  C   UNL     1     -30.055  16.002  25.812  1.00  0.00    -0.003 C 
ATOM     12  C   UNL     1     -29.247  16.115  24.520  1.00  0.00     0.004 C 
ENDBRANCH  10  11
ENDBRANCH   9  10
ENDBRANCH   8   9
ENDBRANCH   7   8
ENDBRANCH   6   7
ENDBRANCH   5   6
ENDBRANCH   4   5
ENDBRANCH   3   4
ENDBRANCH   2   3
ENDBRANCH   1   2
BRANCH   1  13
ATOM     13  C   UNL     1     -32.196  19.781  24.533  1.00  0.00     0.000 C 
BRANCH  13  14
ATOM     14  C   UNL     1     -31.185  19.117  23.585  1.00  0.00     0.000 C 
BRANCH  14  15
ATOM     15  C   UNL     1     -30.515  20.126  22.636  1.00  0.00     0.000 C 
BRANCH  15  16
ATOM     16  C   UNL     1     -29.757  21.235  23.384  1.00  0.00     0.000 C 
BRANCH  16  17
ATOM     17  C   UNL     1     -28.239  21.182  23.143  1.00  0.00     0.000 C 
BRANCH  17  18
ATOM     18  C   UNL     1     -27.513  20.231  24.113  1.00  0.00     0.000 C 
BRANCH  18  19
ATOM     19  C   UNL     1     -26.993  18.920  23.487  1.00  0.00     0.000 C 
BRANCH  19  20
ATOM     20  C   UNL     1     -26.549  19.027  22.017  1.00  0.00     0.006 C 
BRANCH  20  21
ATOM     21  C   UNL     1     -26.259  17.662  21.380  1.00  0.00     0.053 C 
BRANCH  21  22
ATOM     22  C   UNL     1     -27.368  17.273  20.454  1.00  0.00     0.041 C 
ATOM     23  O   UNL     1     -27.146  17.134  19.223  1.00  0.00    -0.550 OA
ATOM     24  O   UNL     1     -28.634  17.012  20.960  1.00  0.00    -0.550 OA
ENDBRANCH  21  22
ENDBRANCH  20  21
ENDBRANCH  19  20
ENDBRANCH  18  19
ENDBRANCH  17  18
ENDBRANCH  16  17
ENDBRANCH  15  16
ENDBRANCH  14  15
ENDBRANCH  13  14
ENDBRANCH   1  13
TORSDOF 20
ENDMDL
