MODEL 1
REMARK VINA RESULT:    -4.712      0.000      0.000
REMARK INTER + INTRA:         -10.734
REMARK INTER:                  -9.119
REMARK INTRA:                  -1.615
REMARK UNBOUND:                -1.615
REMARK SMILES CCCCCCCCCCCCCCCCCC(=O)[O-]
REMARK SMILES IDX 10 1 11 2 12 3 13 4 14 5 15 6 16 7 17 8 18 9 19 10 20 11
REMARK SMILES IDX 9 12 8 13 7 14 6 15 5 16 4 17 3 18 2 19 1 20
REMARK H PARENT
REMARK Flexibility Score: inf
ROOT
ATOM      1  C   UNL     1     192.021   2.486  98.662  1.00  0.00     0.000 C 
ENDROOT
BRANCH   1   2
ATOM      2  C   UNL     1     192.670   2.257 100.032  1.00  0.00     0.000 C 
BRANCH   2   3
ATOM      3  C   UNL     1     191.915   1.187 100.829  1.00  0.00     0.000 C 
BRANCH   3   4
ATOM      4  C   UNL     1     192.611   0.907 102.167  1.00  0.00     0.000 C 
BRANCH   4   5
ATOM      5  C   UNL     1     193.735   1.922 102.425  1.00  0.00     0.000 C 
BRANCH   5   6
ATOM      6  C   UNL     1     193.823   2.359 103.899  1.00  0.00     0.000 C 
BRANCH   6   7
ATOM      7  C   UNL     1     192.492   2.313 104.672  1.00  0.00     0.006 C 
BRANCH   7   8
ATOM      8  C   UNL     1     192.667   1.889 106.137  1.00  0.00     0.053 C 
BRANCH   8   9
ATOM      9  C   UNL     1     191.967   0.592 106.392  1.00  0.00     0.041 C 
ATOM     10  O   UNL     1     192.522  -0.497 106.090  1.00  0.00    -0.550 OA
ATOM     11  O   UNL     1     190.721   0.583 107.006  1.00  0.00    -0.550 OA
ENDBRANCH   8   9
ENDBRANCH   7   8
ENDBRANCH   6   7
ENDBRANCH   5   6
ENDBRANCH   4   5
ENDBRANCH   3   4
ENDBRANCH   2   3
ENDBRANCH   1   2
BRANCH   1  12
ATOM     12  C   UNL     1     191.461   3.909  98.550  1.00  0.00     0.000 C 
BRANCH  12  13
ATOM     13  C   UNL     1     189.961   3.890  98.230  1.00  0.00    -0.000 C 
BRANCH  13  14
ATOM     14  C   UNL     1     189.449   5.304  97.922  1.00  0.00    -0.000 C 
BRANCH  14  15
ATOM     15  C   UNL     1     188.852   5.426  96.511  1.00  0.00    -0.000 C 
BRANCH  15  16
ATOM     16  C   UNL     1     188.705   4.062  95.815  1.00  0.00    -0.000 C 
BRANCH  16  17
ATOM     17  C   UNL     1     189.677   3.886  94.635  1.00  0.00    -0.000 C 
BRANCH  17  18
ATOM     18  C   UNL     1     191.020   4.632  94.772  1.00  0.00    -0.000 C 
BRANCH  18  19
ATOM     19  C   UNL     1     192.238   3.736  95.053  1.00  0.00    -0.003 C 
ATOM     20  C   UNL     1     191.906   2.245  94.992  1.00  0.00     0.004 C 
ENDBRANCH  18  19
ENDBRANCH  17  18
ENDBRANCH  16  17
ENDBRANCH  15  16
ENDBRANCH  14  15
ENDBRANCH  13  14
ENDBRANCH  12  13
ENDBRANCH   1  12
TORSDOF 16
ENDMDL
MODEL 2
REMARK VINA RESULT:    -4.562      4.031      8.666
REMARK INTER + INTRA:         -10.444
REMARK INTER:                  -8.472
REMARK INTRA:                  -1.972
REMARK UNBOUND:                -1.615
REMARK SMILES CCCCCCCCCCCCCCCCCC(=O)[O-]
REMARK SMILES IDX 10 1 11 2 12 3 13 4 14 5 15 6 16 7 17 8 18 9 19 10 20 11
REMARK SMILES IDX 9 12 8 13 7 14 6 15 5 16 4 17 3 18 2 19 1 20
REMARK H PARENT
REMARK Flexibility Score: inf
ROOT
ATOM      1  C   UNL     1     193.073   2.095 102.866  1.00  0.00     0.000 C 
ENDROOT
BRANCH   1   2
ATOM      2  C   UNL     1     191.885   1.256 102.380  1.00  0.00     0.000 C 
BRANCH   2   3
ATOM      3  C   UNL     1     191.986   0.973 100.876  1.00  0.00     0.000 C 
BRANCH   3   4
ATOM      4  C   UNL     1     192.731   2.103 100.155  1.00  0.00     0.000 C 
BRANCH   4   5
ATOM      5  C   UNL     1     192.005   2.502  98.861  1.00  0.00     0.000 C 
BRANCH   5   6
ATOM      6  C   UNL     1     192.014   4.020  98.609  1.00  0.00     0.000 C 
BRANCH   6   7
ATOM      7  C   UNL     1     190.649   4.624  98.228  1.00  0.00     0.006 C 
BRANCH   7   8
ATOM      8  C   UNL     1     189.625   3.564  97.803  1.00  0.00     0.053 C 
BRANCH   8   9
ATOM      9  C   UNL     1     189.458   3.564  96.316  1.00  0.00     0.041 C 
ATOM     10  O   UNL     1     188.406   4.021  95.797  1.00  0.00    -0.550 OA
ATOM     11  O   UNL     1     190.483   3.101  95.501  1.00  0.00    -0.550 OA
ENDBRANCH   8   9
ENDBRANCH   7   8
ENDBRANCH   6   7
ENDBRANCH   5   6
ENDBRANCH   4   5
ENDBRANCH   3   4
ENDBRANCH   2   3
ENDBRANCH   1   2
BRANCH   1  12
ATOM     12  C   UNL     1     192.777   2.728 104.231  1.00  0.00     0.000 C 
BRANCH  12  13
ATOM     13  C   UNL     1     193.251   1.824 105.375  1.00  0.00    -0.000 C 
BRANCH  13  14
ATOM     14  C   UNL     1     192.068   1.376 106.246  1.00  0.00    -0.000 C 
BRANCH  14  15
ATOM     15  C   UNL     1     192.015  -0.147 106.439  1.00  0.00    -0.000 C 
BRANCH  15  16
ATOM     16  C   UNL     1     193.080  -0.883 105.607  1.00  0.00    -0.000 C 
BRANCH  16  17
ATOM     17  C   UNL     1     192.487  -1.623 104.396  1.00  0.00    -0.000 C 
BRANCH  17  18
ATOM     18  C   UNL     1     193.519  -2.288 103.462  1.00  0.00    -0.000 C 
BRANCH  18  19
ATOM     19  C   UNL     1     194.567  -1.333 102.865  1.00  0.00    -0.003 C 
ATOM     20  C   UNL     1     194.723  -1.491 101.352  1.00  0.00     0.004 C 
ENDBRANCH  18  19
ENDBRANCH  17  18
ENDBRANCH  16  17
ENDBRANCH  15  16
ENDBRANCH  14  15
ENDBRANCH  13  14
ENDBRANCH  12  13
ENDBRANCH   1  12
TORSDOF 16
ENDMDL
MODEL 3
REMARK VINA RESULT:    -4.555      3.945      8.696
REMARK INTER + INTRA:         -10.431
REMARK INTER:                  -8.524
REMARK INTRA:                  -1.906
REMARK UNBOUND:                -1.615
REMARK SMILES CCCCCCCCCCCCCCCCCC(=O)[O-]
REMARK SMILES IDX 10 1 11 2 12 3 13 4 14 5 15 6 16 7 17 8 18 9 19 10 20 11
REMARK SMILES IDX 9 12 8 13 7 14 6 15 5 16 4 17 3 18 2 19 1 20
REMARK H PARENT
REMARK Flexibility Score: inf
ROOT
ATOM      1  C   UNL     1     192.355  -1.777 102.253  1.00  0.00     0.000 C 
ENDROOT
BRANCH   1   2
ATOM      2  C   UNL     1     191.646  -0.650 101.493  1.00  0.00     0.000 C 
BRANCH   2   3
ATOM      3  C   UNL     1     192.652   0.223 100.733  1.00  0.00     0.000 C 
BRANCH   3   4
ATOM      4  C   UNL     1     192.345   1.712 100.930  1.00  0.00     0.000 C 
BRANCH   4   5
ATOM      5  C   UNL     1     192.739   2.525  99.688  1.00  0.00     0.000 C 
BRANCH   5   6
ATOM      6  C   UNL     1     191.604   2.631  98.653  1.00  0.00     0.000 C 
BRANCH   6   7
ATOM      7  C   UNL     1     191.312   4.058  98.152  1.00  0.00     0.006 C 
BRANCH   7   8
ATOM      8  C   UNL     1     189.812   4.338  97.987  1.00  0.00     0.053 C 
BRANCH   8   9
ATOM      9  C   UNL     1     189.266   3.589  96.813  1.00  0.00     0.041 C 
ATOM     10  O   UNL     1     188.054   3.249  96.787  1.00  0.00    -0.550 OA
ATOM     11  O   UNL     1     190.084   3.307  95.726  1.00  0.00    -0.550 OA
ENDBRANCH   8   9
ENDBRANCH   7   8
ENDBRANCH   6   7
ENDBRANCH   5   6
ENDBRANCH   4   5
ENDBRANCH   3   4
ENDBRANCH   2   3
ENDBRANCH   1   2
BRANCH   1  12
ATOM     12  C   UNL     1     191.599  -2.132 103.539  1.00  0.00     0.000 C 
BRANCH  12  13
ATOM     13  C   UNL     1     192.518  -2.048 104.763  1.00  0.00    -0.000 C 
BRANCH  13  14
ATOM     14  C   UNL     1     193.633  -1.015 104.542  1.00  0.00    -0.000 C 
BRANCH  14  15
ATOM     15  C   UNL     1     193.382   0.300 105.296  1.00  0.00    -0.000 C 
BRANCH  15  16
ATOM     16  C   UNL     1     193.573   1.538 104.402  1.00  0.00    -0.000 C 
BRANCH  16  17
ATOM     17  C   UNL     1     192.375   2.502 104.452  1.00  0.00    -0.000 C 
BRANCH  17  18
ATOM     18  C   UNL     1     190.990   1.837 104.316  1.00  0.00    -0.000 C 
BRANCH  18  19
ATOM     19  C   UNL     1     189.945   2.290 105.351  1.00  0.00    -0.003 C 
ATOM     20  C   UNL     1     190.070   1.551 106.684  1.00  0.00     0.004 C 
ENDBRANCH  18  19
ENDBRANCH  17  18
ENDBRANCH  16  17
ENDBRANCH  15  16
ENDBRANCH  14  15
ENDBRANCH  13  14
ENDBRANCH  12  13
ENDBRANCH   1  12
TORSDOF 16
ENDMDL
MODEL 4
REMARK VINA RESULT:    -4.474      4.049      8.992
REMARK INTER + INTRA:         -10.275
REMARK INTER:                  -8.650
REMARK INTRA:                  -1.624
REMARK UNBOUND:                -1.615
REMARK SMILES CCCCCCCCCCCCCCCCCC(=O)[O-]
REMARK SMILES IDX 10 1 11 2 12 3 13 4 14 5 15 6 16 7 17 8 18 9 19 10 20 11
REMARK SMILES IDX 9 12 8 13 7 14 6 15 5 16 4 17 3 18 2 19 1 20
REMARK H PARENT
REMARK Flexibility Score: inf
ROOT
ATOM      1  C   UNL     1     193.063   3.072  99.910  1.00  0.00     0.000 C 
ENDROOT
BRANCH   1   2
ATOM      2  C   UNL     1     191.918   2.811  98.925  1.00  0.00     0.000 C 
BRANCH   2   3
ATOM      3  C   UNL     1     191.350   4.125  98.376  1.00  0.00     0.000 C 
BRANCH   3   4
ATOM      4  C   UNL     1     189.821   4.065  98.281  1.00  0.00     0.000 C 
BRANCH   4   5
ATOM      5  C   UNL     1     189.253   5.370  97.704  1.00  0.00     0.000 C 
BRANCH   5   6
ATOM      6  C   UNL     1     188.748   5.219  96.258  1.00  0.00     0.000 C 
BRANCH   6   7
ATOM      7  C   UNL     1     189.064   3.864  95.597  1.00  0.00     0.006 C 
BRANCH   7   8
ATOM      8  C   UNL     1     189.921   4.002  94.331  1.00  0.00     0.053 C 
BRANCH   8   9
ATOM      9  C   UNL     1     191.285   3.429  94.559  1.00  0.00     0.041 C 
ATOM     10  O   UNL     1     191.528   2.233  94.250  1.00  0.00    -0.550 OA
ATOM     11  O   UNL     1     192.299   4.228  95.069  1.00  0.00    -0.550 OA
ENDBRANCH   8   9
ENDBRANCH   7   8
ENDBRANCH   6   7
ENDBRANCH   5   6
ENDBRANCH   4   5
ENDBRANCH   3   4
ENDBRANCH   2   3
ENDBRANCH   1   2
BRANCH   1  12
ATOM     12  C   UNL     1     193.082   2.018 101.023  1.00  0.00     0.000 C 
BRANCH  12  13
ATOM     13  C   UNL     1     191.878   1.076 100.914  1.00  0.00    -0.000 C 
BRANCH  13  14
ATOM     14  C   UNL     1     192.259  -0.353 101.330  1.00  0.00    -0.000 C 
BRANCH  14  15
ATOM     15  C   UNL     1     191.241  -0.984 102.292  1.00  0.00    -0.000 C 
BRANCH  15  16
ATOM     16  C   UNL     1     191.903  -1.917 103.321  1.00  0.00    -0.000 C 
BRANCH  16  17
ATOM     17  C   UNL     1     193.090  -1.259 104.046  1.00  0.00    -0.000 C 
BRANCH  17  18
ATOM     18  C   UNL     1     192.724  -0.078 104.968  1.00  0.00    -0.000 C 
BRANCH  18  19
ATOM     19  C   UNL     1     193.445   1.243 104.651  1.00  0.00    -0.003 C 
ATOM     20  C   UNL     1     192.504   2.448 104.641  1.00  0.00     0.004 C 
ENDBRANCH  18  19
ENDBRANCH  17  18
ENDBRANCH  16  17
ENDBRANCH  15  16
ENDBRANCH  14  15
ENDBRANCH  13  14
ENDBRANCH  12  13
ENDBRANCH   1  12
TORSDOF 16
ENDMDL
MODEL 5
REMARK VINA RESULT:    -4.465      3.691      8.567
REMARK INTER + INTRA:         -10.257
REMARK INTER:                  -7.903
REMARK INTRA:                  -2.354
REMARK UNBOUND:                -1.615
REMARK SMILES CCCCCCCCCCCCCCCCCC(=O)[O-]
REMARK SMILES IDX 10 1 11 2 12 3 13 4 14 5 15 6 16 7 17 8 18 9 19 10 20 11
REMARK SMILES IDX 9 12 8 13 7 14 6 15 5 16 4 17 3 18 2 19 1 20
REMARK H PARENT
REMARK Flexibility Score: inf
ROOT
ATOM      1  C   UNL     1     192.066  -1.447 104.357  1.00  0.00     0.000 C 
ENDROOT
BRANCH   1   2
ATOM      2  C   UNL     1     192.742  -2.224 103.222  1.00  0.00     0.000 C 
BRANCH   2   3
ATOM      3  C   UNL     1     192.057  -1.948 101.878  1.00  0.00     0.000 C 
BRANCH   3   4
ATOM      4  C   UNL     1     191.743  -0.456 101.719  1.00  0.00     0.000 C 
BRANCH   4   5
ATOM      5  C   UNL     1     192.690   0.200 100.703  1.00  0.00     0.000 C 
BRANCH   5   6
ATOM      6  C   UNL     1     193.140   1.611 101.123  1.00  0.00     0.000 C 
BRANCH   6   7
ATOM      7  C   UNL     1     192.916   2.707 100.065  1.00  0.00     0.006 C 
BRANCH   7   8
ATOM      8  C   UNL     1     191.980   2.263  98.933  1.00  0.00     0.053 C 
BRANCH   8   9
ATOM      9  C   UNL     1     191.518   3.445  98.142  1.00  0.00     0.041 C 
ATOM     10  O   UNL     1     191.650   4.608  98.605  1.00  0.00    -0.550 OA
ATOM     11  O   UNL     1     190.982   3.267  96.873  1.00  0.00    -0.550 OA
ENDBRANCH   8   9
ENDBRANCH   7   8
ENDBRANCH   6   7
ENDBRANCH   5   6
ENDBRANCH   4   5
ENDBRANCH   3   4
ENDBRANCH   2   3
ENDBRANCH   1   2
BRANCH   1  12
ATOM     12  C   UNL     1     193.108  -0.778 105.262  1.00  0.00     0.000 C 
BRANCH  12  13
ATOM     13  C   UNL     1     193.685   0.481 104.605  1.00  0.00    -0.000 C 
BRANCH  13  14
ATOM     14  C   UNL     1     193.099   1.749 105.243  1.00  0.00    -0.000 C 
BRANCH  14  15
ATOM     15  C   UNL     1     192.108   2.476 104.319  1.00  0.00    -0.000 C 
BRANCH  15  16
ATOM     16  C   UNL     1     190.680   1.915 104.431  1.00  0.00    -0.000 C 
BRANCH  16  17
ATOM     17  C   UNL     1     189.996   2.283 105.759  1.00  0.00    -0.000 C 
BRANCH  17  18
ATOM     18  C   UNL     1     189.741   1.101 106.716  1.00  0.00    -0.000 C 
BRANCH  18  19
ATOM     19  C   UNL     1     190.829   0.880 107.782  1.00  0.00    -0.003 C 
ATOM     20  C   UNL     1     191.226   2.168 108.503  1.00  0.00     0.004 C 
ENDBRANCH  18  19
ENDBRANCH  17  18
ENDBRANCH  16  17
ENDBRANCH  15  16
ENDBRANCH  14  15
ENDBRANCH  13  14
ENDBRANCH  12  13
ENDBRANCH   1  12
TORSDOF 16
ENDMDL
MODEL 6
REMARK VINA RESULT:    -4.420      4.060      8.907
REMARK INTER + INTRA:         -10.168
REMARK INTER:                  -8.657
REMARK INTRA:                  -1.512
REMARK UNBOUND:                -1.615
REMARK SMILES CCCCCCCCCCCCCCCCCC(=O)[O-]
REMARK SMILES IDX 10 1 11 2 12 3 13 4 14 5 15 6 16 7 17 8 18 9 19 10 20 11
REMARK SMILES IDX 9 12 8 13 7 14 6 15 5 16 4 17 3 18 2 19 1 20
REMARK H PARENT
REMARK Flexibility Score: inf
ROOT
ATOM      1  C   UNL     1     193.384   1.262 101.324  1.00  0.00     0.000 C 
ENDROOT
BRANCH   1   2
ATOM      2  C   UNL     1     192.068   1.128 100.550  1.00  0.00     0.000 C 
BRANCH   2   3
ATOM      3  C   UNL     1     192.012   2.118  99.380  1.00  0.00     0.000 C 
BRANCH   3   4
ATOM      4  C   UNL     1     192.808   3.389  99.699  1.00  0.00     0.000 C 
BRANCH   4   5
ATOM      5  C   UNL     1     192.433   4.529  98.740  1.00  0.00     0.000 C 
BRANCH   5   6
ATOM      6  C   UNL     1     191.045   4.345  98.101  1.00  0.00     0.000 C 
BRANCH   6   7
ATOM      7  C   UNL     1     191.059   3.789  96.665  1.00  0.00     0.006 C 
BRANCH   7   8
ATOM      8  C   UNL     1     190.093   4.529  95.729  1.00  0.00     0.053 C 
BRANCH   8   9
ATOM      9  C   UNL     1     188.699   4.015  95.905  1.00  0.00     0.041 C 
ATOM     10  O   UNL     1     188.459   3.111  96.747  1.00  0.00    -0.550 OA
ATOM     11  O   UNL     1     187.656   4.567  95.171  1.00  0.00    -0.550 OA
ENDBRANCH   8   9
ENDBRANCH   7   8
ENDBRANCH   6   7
ENDBRANCH   5   6
ENDBRANCH   4   5
ENDBRANCH   3   4
ENDBRANCH   2   3
ENDBRANCH   1   2
BRANCH   1  12
ATOM     12  C   UNL     1     193.779  -0.070 101.972  1.00  0.00     0.000 C 
BRANCH  12  13
ATOM     13  C   UNL     1     192.625  -1.078 101.912  1.00  0.00    -0.000 C 
BRANCH  13  14
ATOM     14  C   UNL     1     192.067  -1.358 103.315  1.00  0.00    -0.000 C 
BRANCH  14  15
ATOM     15  C   UNL     1     193.108  -1.988 104.254  1.00  0.00    -0.000 C 
BRANCH  15  16
ATOM     16  C   UNL     1     193.476  -1.066 105.429  1.00  0.00    -0.000 C 
BRANCH  16  17
ATOM     17  C   UNL     1     192.445   0.054 105.655  1.00  0.00    -0.000 C 
BRANCH  17  18
ATOM     18  C   UNL     1     192.995   1.489 105.527  1.00  0.00    -0.000 C 
BRANCH  18  19
ATOM     19  C   UNL     1     192.233   2.392 104.541  1.00  0.00    -0.003 C 
ATOM     20  C   UNL     1     190.782   1.958 104.335  1.00  0.00     0.004 C 
ENDBRANCH  18  19
ENDBRANCH  17  18
ENDBRANCH  16  17
ENDBRANCH  15  16
ENDBRANCH  14  15
ENDBRANCH  13  14
ENDBRANCH  12  13
ENDBRANCH   1  12
TORSDOF 16
ENDMDL
MODEL 7
REMARK VINA RESULT:    -4.410      1.805      2.916
REMARK INTER + INTRA:         -10.150
REMARK INTER:                  -8.420
REMARK INTRA:                  -1.731
REMARK UNBOUND:                -1.615
REMARK SMILES CCCCCCCCCCCCCCCCCC(=O)[O-]
REMARK SMILES IDX 10 1 11 2 12 3 13 4 14 5 15 6 16 7 17 8 18 9 19 10 20 11
REMARK SMILES IDX 9 12 8 13 7 14 6 15 5 16 4 17 3 18 2 19 1 20
REMARK H PARENT
REMARK Flexibility Score: inf
ROOT
ATOM      1  C   UNL     1     191.624   0.964 101.284  1.00  0.00     0.000 C 
ENDROOT
BRANCH   1   2
ATOM      2  C   UNL     1     191.708  -0.501 101.729  1.00  0.00     0.000 C 
BRANCH   2   3
ATOM      3  C   UNL     1     192.966  -1.177 101.171  1.00  0.00     0.000 C 
BRANCH   3   4
ATOM      4  C   UNL     1     193.748  -1.884 102.284  1.00  0.00     0.000 C 
BRANCH   4   5
ATOM      5  C   UNL     1     194.095  -0.909 103.418  1.00  0.00     0.000 C 
BRANCH   5   6
ATOM      6  C   UNL     1     193.604  -1.389 104.796  1.00  0.00     0.000 C 
BRANCH   6   7
ATOM      7  C   UNL     1     192.419  -0.595 105.378  1.00  0.00     0.006 C 
BRANCH   7   8
ATOM      8  C   UNL     1     192.793   0.846 105.754  1.00  0.00     0.053 C 
BRANCH   8   9
ATOM      9  C   UNL     1     192.057   1.820 104.890  1.00  0.00     0.041 C 
ATOM     10  O   UNL     1     190.803   1.761 104.796  1.00  0.00    -0.550 OA
ATOM     11  O   UNL     1     192.752   2.821 104.222  1.00  0.00    -0.550 OA
ENDBRANCH   8   9
ENDBRANCH   7   8
ENDBRANCH   6   7
ENDBRANCH   5   6
ENDBRANCH   4   5
ENDBRANCH   3   4
ENDBRANCH   2   3
ENDBRANCH   1   2
BRANCH   1  12
ATOM     12  C   UNL     1     193.022   1.546 101.044  1.00  0.00     0.000 C 
BRANCH  12  13
ATOM     13  C   UNL     1     192.968   2.738 100.081  1.00  0.00    -0.000 C 
BRANCH  13  14
ATOM     14  C   UNL     1     192.006   2.459  98.917  1.00  0.00    -0.000 C 
BRANCH  14  15
ATOM     15  C   UNL     1     191.563   3.739  98.191  1.00  0.00    -0.000 C 
BRANCH  15  16
ATOM     16  C   UNL     1     190.056   3.749  97.882  1.00  0.00    -0.000 C 
BRANCH  16  17
ATOM     17  C   UNL     1     189.751   4.062  96.406  1.00  0.00    -0.000 C 
BRANCH  17  18
ATOM     18  C   UNL     1     190.988   4.213  95.498  1.00  0.00    -0.000 C 
BRANCH  18  19
ATOM     19  C   UNL     1     191.160   3.107  94.442  1.00  0.00    -0.003 C 
ATOM     20  C   UNL     1     192.101   1.992  94.898  1.00  0.00     0.004 C 
ENDBRANCH  18  19
ENDBRANCH  17  18
ENDBRANCH  16  17
ENDBRANCH  15  16
ENDBRANCH  14  15
ENDBRANCH  13  14
ENDBRANCH  12  13
ENDBRANCH   1  12
TORSDOF 16
ENDMDL
MODEL 8
REMARK VINA RESULT:    -4.395      2.966      4.395
REMARK INTER + INTRA:         -10.121
REMARK INTER:                  -8.535
REMARK INTRA:                  -1.586
REMARK UNBOUND:                -1.615
REMARK SMILES CCCCCCCCCCCCCCCCCC(=O)[O-]
REMARK SMILES IDX 10 1 11 2 12 3 13 4 14 5 15 6 16 7 17 8 18 9 19 10 20 11
REMARK SMILES IDX 9 12 8 13 7 14 6 15 5 16 4 17 3 18 2 19 1 20
REMARK H PARENT
REMARK Flexibility Score: inf
ROOT
ATOM      1  C   UNL     1     193.563   1.720 101.610  1.00  0.00     0.000 C 
ENDROOT
BRANCH   1   2
ATOM      2  C   UNL     1     193.381   2.389 102.977  1.00  0.00     0.000 C 
BRANCH   2   3
ATOM      3  C   UNL     1     192.229   1.746 103.758  1.00  0.00     0.000 C 
BRANCH   3   4
ATOM      4  C   UNL     1     192.759   0.744 104.791  1.00  0.00     0.000 C 
BRANCH   4   5
ATOM      5  C   UNL     1     192.253  -0.675 104.491  1.00  0.00     0.000 C 
BRANCH   5   6
ATOM      6  C   UNL     1     193.150  -1.437 103.500  1.00  0.00     0.000 C 
BRANCH   6   7
ATOM      7  C   UNL     1     192.502  -2.676 102.855  1.00  0.00     0.006 C 
BRANCH   7   8
ATOM      8  C   UNL     1     192.154  -2.467 101.375  1.00  0.00     0.053 C 
BRANCH   8   9
ATOM      9  C   UNL     1     191.911  -3.782 100.704  1.00  0.00     0.041 C 
ATOM     10  O   UNL     1     191.093  -4.602 101.196  1.00  0.00    -0.550 OA
ATOM     11  O   UNL     1     192.555  -4.084  99.511  1.00  0.00    -0.550 OA
ENDBRANCH   8   9
ENDBRANCH   7   8
ENDBRANCH   6   7
ENDBRANCH   5   6
ENDBRANCH   4   5
ENDBRANCH   3   4
ENDBRANCH   2   3
ENDBRANCH   1   2
BRANCH   1  12
ATOM     12  C   UNL     1     192.208   1.344 100.997  1.00  0.00     0.000 C 
BRANCH  12  13
ATOM     13  C   UNL     1     192.066   1.910  99.579  1.00  0.00    -0.000 C 
BRANCH  13  14
ATOM     14  C   UNL     1     192.821   3.240  99.442  1.00  0.00    -0.000 C 
BRANCH  14  15
ATOM     15  C   UNL     1     192.056   4.274  98.601  1.00  0.00    -0.000 C 
BRANCH  15  16
ATOM     16  C   UNL     1     190.762   3.700  97.997  1.00  0.00    -0.000 C 
BRANCH  16  17
ATOM     17  C   UNL     1     190.458   4.258  96.596  1.00  0.00    -0.000 C 
BRANCH  17  18
ATOM     18  C   UNL     1     191.510   3.932  95.516  1.00  0.00    -0.000 C 
BRANCH  18  19
ATOM     19  C   UNL     1     191.825   2.436  95.345  1.00  0.00    -0.003 C 
ATOM     20  C   UNL     1     191.645   1.950  93.907  1.00  0.00     0.004 C 
ENDBRANCH  18  19
ENDBRANCH  17  18
ENDBRANCH  16  17
ENDBRANCH  15  16
ENDBRANCH  14  15
ENDBRANCH  13  14
ENDBRANCH  12  13
ENDBRANCH   1  12
TORSDOF 16
ENDMDL
MODEL 9
REMARK VINA RESULT:    -4.367      3.932      9.382
REMARK INTER + INTRA:         -10.066
REMARK INTER:                  -8.981
REMARK INTRA:                  -1.086
REMARK UNBOUND:                -1.615
REMARK SMILES CCCCCCCCCCCCCCCCCC(=O)[O-]
REMARK SMILES IDX 10 1 11 2 12 3 13 4 14 5 15 6 16 7 17 8 18 9 19 10 20 11
REMARK SMILES IDX 9 12 8 13 7 14 6 15 5 16 4 17 3 18 2 19 1 20
REMARK H PARENT
REMARK Flexibility Score: inf
ROOT
ATOM      1  C   UNL     1     191.984   1.630 100.107  1.00  0.00     0.000 C 
ENDROOT
BRANCH   1   2
ATOM      2  C   UNL     1     192.749   2.911  99.753  1.00  0.00     0.000 C 
BRANCH   2   3
ATOM      3  C   UNL     1     192.058   3.671  98.615  1.00  0.00     0.000 C 
BRANCH   3   4
ATOM      4  C   UNL     1     190.547   3.409  98.619  1.00  0.00     0.000 C 
BRANCH   4   5
ATOM      5  C   UNL     1     189.837   4.262  97.557  1.00  0.00     0.000 C 
BRANCH   5   6
ATOM      6  C   UNL     1     189.767   3.575  96.181  1.00  0.00     0.000 C 
BRANCH   6   7
ATOM      7  C   UNL     1     190.601   4.248  95.075  1.00  0.00     0.006 C 
BRANCH   7   8
ATOM      8  C   UNL     1     192.041   3.721  95.008  1.00  0.00     0.053 C 
BRANCH   8   9
ATOM      9  C   UNL     1     192.047   2.246  94.756  1.00  0.00     0.041 C 
ATOM     10  O   UNL     1     192.455   1.454  95.645  1.00  0.00    -0.550 OA
ATOM     11  O   UNL     1     191.560   1.743  93.556  1.00  0.00    -0.550 OA
ENDBRANCH   8   9
ENDBRANCH   7   8
ENDBRANCH   6   7
ENDBRANCH   5   6
ENDBRANCH   4   5
ENDBRANCH   3   4
ENDBRANCH   2   3
ENDBRANCH   1   2
BRANCH   1  12
ATOM     12  C   UNL     1     192.779   0.771 101.097  1.00  0.00     0.000 C 
BRANCH  12  13
ATOM     13  C   UNL     1     192.201  -0.646 101.189  1.00  0.00    -0.000 C 
BRANCH  13  14
ATOM     14  C   UNL     1     191.749  -0.962 102.622  1.00  0.00    -0.000 C 
BRANCH  14  15
ATOM     15  C   UNL     1     191.985   0.208 103.591  1.00  0.00    -0.000 C 
BRANCH  15  16
ATOM     16  C   UNL     1     192.940  -0.162 104.739  1.00  0.00    -0.000 C 
BRANCH  16  17
ATOM     17  C   UNL     1     192.339   0.114 106.129  1.00  0.00    -0.000 C 
BRANCH  17  18
ATOM     18  C   UNL     1     192.126   1.604 106.467  1.00  0.00    -0.000 C 
BRANCH  18  19
ATOM     19  C   UNL     1     191.166   1.874 107.639  1.00  0.00    -0.003 C 
ATOM     20  C   UNL     1     189.695   1.836 107.225  1.00  0.00     0.004 C 
ENDBRANCH  18  19
ENDBRANCH  17  18
ENDBRANCH  16  17
ENDBRANCH  15  16
ENDBRANCH  14  15
ENDBRANCH  13  14
ENDBRANCH  12  13
ENDBRANCH   1  12
TORSDOF 16
ENDMDL
