MODEL 1
REMARK VINA RESULT:    -5.737      0.000      0.000
REMARK INTER + INTRA:         -14.520
REMARK INTER:                 -12.444
REMARK INTRA:                  -2.075
REMARK UNBOUND:                -2.075
REMARK SMILES CCCCCCCCCCCCCCCCCCCCCC(=O)[O-]
REMARK SMILES IDX 12 1 11 2 10 3 9 4 8 5 7 6 6 7 5 8 4 9 3 10 2 11 1 12 13 13
REMARK SMILES IDX 14 14 15 15 16 16 17 17 18 18 19 19 20 20 21 21 22 22 23 23
REMARK SMILES IDX 24 24
REMARK H PARENT
REMARK Flexibility Score: inf
ROOT
ATOM      1  C   UNL     1      12.893   2.625 -32.216  1.00  0.00     0.000 C 
ENDROOT
BRANCH   1   2
ATOM      2  C   UNL     1      13.373   3.414 -30.988  1.00  0.00     0.000 C 
BRANCH   2   3
ATOM      3  C   UNL     1      12.271   3.495 -29.921  1.00  0.00     0.000 C 
BRANCH   3   4
ATOM      4  C   UNL     1      11.305   2.296 -29.962  1.00  0.00    -0.000 C 
BRANCH   4   5
ATOM      5  C   UNL     1      10.753   1.856 -28.594  1.00  0.00    -0.000 C 
BRANCH   5   6
ATOM      6  C   UNL     1      10.355   0.371 -28.561  1.00  0.00    -0.000 C 
BRANCH   6   7
ATOM      7  C   UNL     1       9.160   0.095 -27.633  1.00  0.00    -0.000 C 
BRANCH   7   8
ATOM      8  C   UNL     1       7.899   0.931 -27.922  1.00  0.00    -0.000 C 
BRANCH   8   9
ATOM      9  C   UNL     1       6.694   0.097 -28.406  1.00  0.00    -0.000 C 
BRANCH   9  10
ATOM     10  C   UNL     1       6.348   0.376 -29.880  1.00  0.00    -0.000 C 
BRANCH  10  11
ATOM     11  C   UNL     1       6.789   1.774 -30.335  1.00  0.00    -0.003 C 
ATOM     12  C   UNL     1       7.883   1.727 -31.403  1.00  0.00     0.004 C 
ENDBRANCH  10  11
ENDBRANCH   9  10
ENDBRANCH   8   9
ENDBRANCH   7   8
ENDBRANCH   6   7
ENDBRANCH   5   6
ENDBRANCH   4   5
ENDBRANCH   3   4
ENDBRANCH   2   3
ENDBRANCH   1   2
BRANCH   1  13
ATOM     13  C   UNL     1      14.031   2.277 -33.193  1.00  0.00     0.000 C 
BRANCH  13  14
ATOM     14  C   UNL     1      13.578   1.752 -34.568  1.00  0.00     0.000 C 
BRANCH  14  15
ATOM     15  C   UNL     1      12.651   2.730 -35.308  1.00  0.00     0.000 C 
BRANCH  15  16
ATOM     16  C   UNL     1      11.308   2.092 -35.707  1.00  0.00     0.000 C 
BRANCH  16  17
ATOM     17  C   UNL     1      10.481   1.510 -34.543  1.00  0.00     0.000 C 
BRANCH  17  18
ATOM     18  C   UNL     1       8.965   1.423 -34.796  1.00  0.00     0.000 C 
BRANCH  18  19
ATOM     19  C   UNL     1       8.621   0.731 -36.123  1.00  0.00     0.000 C 
BRANCH  19  20
ATOM     20  C   UNL     1       7.275  -0.001 -36.028  1.00  0.00     0.006 C 
BRANCH  20  21
ATOM     21  C   UNL     1       6.427   0.495 -34.848  1.00  0.00     0.053 C 
BRANCH  21  22
ATOM     22  C   UNL     1       5.654  -0.621 -34.214  1.00  0.00     0.041 C 
ATOM     23  O   UNL     1       5.147  -0.472 -33.072  1.00  0.00    -0.550 OA
ATOM     24  O   UNL     1       5.464  -1.814 -34.901  1.00  0.00    -0.550 OA
ENDBRANCH  21  22
ENDBRANCH  20  21
ENDBRANCH  19  20
ENDBRANCH  18  19
ENDBRANCH  17  18
ENDBRANCH  16  17
ENDBRANCH  15  16
ENDBRANCH  14  15
ENDBRANCH  13  14
ENDBRANCH   1  13
TORSDOF 20
ENDMDL
MODEL 2
REMARK VINA RESULT:    -5.649      5.433      8.111
REMARK INTER + INTRA:         -14.329
REMARK INTER:                 -12.610
REMARK INTRA:                  -1.719
REMARK UNBOUND:                -2.075
REMARK SMILES CCCCCCCCCCCCCCCCCCCCCC(=O)[O-]
REMARK SMILES IDX 12 1 11 2 10 3 9 4 8 5 7 6 6 7 5 8 4 9 3 10 2 11 1 12 13 13
REMARK SMILES IDX 14 14 15 15 16 16 17 17 18 18 19 19 20 20 21 21 22 22 23 23
REMARK SMILES IDX 24 24
REMARK H PARENT
REMARK Flexibility Score: inf
ROOT
ATOM      1  C   UNL     1       6.165  -3.833 -36.370  1.00  0.00     0.000 C 
ENDROOT
BRANCH   1   2
ATOM      2  C   UNL     1       6.287  -5.213 -35.707  1.00  0.00     0.000 C 
BRANCH   2   3
ATOM      3  C   UNL     1       7.504  -5.269 -34.771  1.00  0.00     0.000 C 
BRANCH   3   4
ATOM      4  C   UNL     1       7.150  -5.756 -33.353  1.00  0.00    -0.000 C 
BRANCH   4   5
ATOM      5  C   UNL     1       7.840  -7.062 -32.921  1.00  0.00    -0.000 C 
BRANCH   5   6
ATOM      6  C   UNL     1       6.849  -8.217 -32.706  1.00  0.00    -0.000 C 
BRANCH   6   7
ATOM      7  C   UNL     1       5.449  -7.731 -32.292  1.00  0.00    -0.000 C 
BRANCH   7   8
ATOM      8  C   UNL     1       5.030  -8.091 -30.853  1.00  0.00    -0.000 C 
BRANCH   8   9
ATOM      9  C   UNL     1       5.927  -7.462 -29.766  1.00  0.00    -0.000 C 
BRANCH   9  10
ATOM     10  C   UNL     1       6.804  -8.510 -29.058  1.00  0.00    -0.000 C 
BRANCH  10  11
ATOM     11  C   UNL     1       8.298  -8.158 -29.104  1.00  0.00    -0.003 C 
ATOM     12  C   UNL     1       8.620  -6.861 -28.360  1.00  0.00     0.004 C 
ENDBRANCH  10  11
ENDBRANCH   9  10
ENDBRANCH   8   9
ENDBRANCH   7   8
ENDBRANCH   6   7
ENDBRANCH   5   6
ENDBRANCH   4   5
ENDBRANCH   3   4
ENDBRANCH   2   3
ENDBRANCH   1   2
BRANCH   1  13
ATOM     13  C   UNL     1       7.526  -3.152 -36.602  1.00  0.00     0.000 C 
BRANCH  13  14
ATOM     14  C   UNL     1       7.458  -1.655 -36.959  1.00  0.00     0.000 C 
BRANCH  14  15
ATOM     15  C   UNL     1       8.352  -1.282 -38.152  1.00  0.00     0.000 C 
BRANCH  15  16
ATOM     16  C   UNL     1       8.948   0.132 -38.032  1.00  0.00     0.000 C 
BRANCH  16  17
ATOM     17  C   UNL     1       7.923   1.265 -37.820  1.00  0.00     0.000 C 
BRANCH  17  18
ATOM     18  C   UNL     1       8.164   2.141 -36.577  1.00  0.00     0.000 C 
BRANCH  18  19
ATOM     19  C   UNL     1       7.625   1.506 -35.286  1.00  0.00     0.000 C 
BRANCH  19  20
ATOM     20  C   UNL     1       8.717   1.439 -34.209  1.00  0.00     0.006 C 
BRANCH  20  21
ATOM     21  C   UNL     1      10.128   1.444 -34.813  1.00  0.00     0.053 C 
BRANCH  21  22
ATOM     22  C   UNL     1      11.185   1.439 -33.751  1.00  0.00     0.041 C 
ATOM     23  O   UNL     1      12.365   1.103 -34.032  1.00  0.00    -0.550 OA
ATOM     24  O   UNL     1      10.874   1.840 -32.457  1.00  0.00    -0.550 OA
ENDBRANCH  21  22
ENDBRANCH  20  21
ENDBRANCH  19  20
ENDBRANCH  18  19
ENDBRANCH  17  18
ENDBRANCH  16  17
ENDBRANCH  15  16
ENDBRANCH  14  15
ENDBRANCH  13  14
ENDBRANCH   1  13
TORSDOF 20
ENDMDL
MODEL 3
REMARK VINA RESULT:    -5.586      9.711     12.617
REMARK INTER + INTRA:         -14.193
REMARK INTER:                 -11.074
REMARK INTRA:                  -3.119
REMARK UNBOUND:                -2.075
REMARK SMILES CCCCCCCCCCCCCCCCCCCCCC(=O)[O-]
REMARK SMILES IDX 12 1 11 2 10 3 9 4 8 5 7 6 6 7 5 8 4 9 3 10 2 11 1 12 13 13
REMARK SMILES IDX 14 14 15 15 16 16 17 17 18 18 19 19 20 20 21 21 22 22 23 23
REMARK SMILES IDX 24 24
REMARK H PARENT
REMARK Flexibility Score: inf
ROOT
ATOM      1  C   UNL     1       6.170  -8.593 -29.203  1.00  0.00     0.000 C 
ENDROOT
BRANCH   1   2
ATOM      2  C   UNL     1       5.613  -9.290 -30.453  1.00  0.00     0.000 C 
BRANCH   2   3
ATOM      3  C   UNL     1       4.661  -8.362 -31.223  1.00  0.00     0.000 C 
BRANCH   3   4
ATOM      4  C   UNL     1       5.114  -8.105 -32.673  1.00  0.00    -0.000 C 
BRANCH   4   5
ATOM      5  C   UNL     1       6.325  -7.166 -32.821  1.00  0.00    -0.000 C 
BRANCH   5   6
ATOM      6  C   UNL     1       7.344  -7.666 -33.858  1.00  0.00    -0.000 C 
BRANCH   6   7
ATOM      7  C   UNL     1       7.320  -9.195 -34.027  1.00  0.00    -0.000 C 
BRANCH   7   8
ATOM      8  C   UNL     1       8.163  -9.979 -33.002  1.00  0.00    -0.000 C 
BRANCH   8   9
ATOM      9  C   UNL     1       9.499  -9.298 -32.639  1.00  0.00    -0.000 C 
BRANCH   9  10
ATOM     10  C   UNL     1      10.715 -10.145 -33.057  1.00  0.00    -0.000 C 
BRANCH  10  11
ATOM     11  C   UNL     1      12.049  -9.510 -32.638  1.00  0.00    -0.003 C 
ATOM     12  C   UNL     1      13.103  -9.575 -33.744  1.00  0.00     0.004 C 
ENDBRANCH  10  11
ENDBRANCH   9  10
ENDBRANCH   8   9
ENDBRANCH   7   8
ENDBRANCH   6   7
ENDBRANCH   5   6
ENDBRANCH   4   5
ENDBRANCH   3   4
ENDBRANCH   2   3
ENDBRANCH   1   2
BRANCH   1  13
ATOM     13  C   UNL     1       5.763  -7.112 -29.106  1.00  0.00     0.000 C 
BRANCH  13  14
ATOM     14  C   UNL     1       6.933  -6.115 -28.999  1.00  0.00     0.000 C 
BRANCH  14  15
ATOM     15  C   UNL     1       8.301  -6.764 -29.266  1.00  0.00     0.000 C 
BRANCH  15  16
ATOM     16  C   UNL     1       9.296  -6.555 -28.111  1.00  0.00     0.000 C 
BRANCH  16  17
ATOM     17  C   UNL     1       9.883  -7.845 -27.503  1.00  0.00     0.000 C 
BRANCH  17  18
ATOM     18  C   UNL     1      10.907  -8.579 -28.390  1.00  0.00     0.000 C 
BRANCH  18  19
ATOM     19  C   UNL     1      10.275  -9.703 -29.224  1.00  0.00     0.000 C 
BRANCH  19  20
ATOM     20  C   UNL     1       9.101 -10.349 -28.475  1.00  0.00     0.006 C 
BRANCH  20  21
ATOM     21  C   UNL     1       8.645 -11.659 -29.132  1.00  0.00     0.053 C 
BRANCH  21  22
ATOM     22  C   UNL     1       9.162 -12.857 -28.396  1.00  0.00     0.041 C 
ATOM     23  O   UNL     1      10.317 -13.297 -28.632  1.00  0.00    -0.550 OA
ATOM     24  O   UNL     1       8.379 -13.467 -27.422  1.00  0.00    -0.550 OA
ENDBRANCH  21  22
ENDBRANCH  20  21
ENDBRANCH  19  20
ENDBRANCH  18  19
ENDBRANCH  17  18
ENDBRANCH  16  17
ENDBRANCH  15  16
ENDBRANCH  14  15
ENDBRANCH  13  14
ENDBRANCH   1  13
TORSDOF 20
ENDMDL
MODEL 4
REMARK VINA RESULT:    -5.557      2.549      6.724
REMARK INTER + INTRA:         -14.129
REMARK INTER:                 -12.104
REMARK INTRA:                  -2.025
REMARK UNBOUND:                -2.075
REMARK SMILES CCCCCCCCCCCCCCCCCCCCCC(=O)[O-]
REMARK SMILES IDX 12 1 11 2 10 3 9 4 8 5 7 6 6 7 5 8 4 9 3 10 2 11 1 12 13 13
REMARK SMILES IDX 14 14 15 15 16 16 17 17 18 18 19 19 20 20 21 21 22 22 23 23
REMARK SMILES IDX 24 24
REMARK H PARENT
REMARK Flexibility Score: inf
ROOT
ATOM      1  C   UNL     1      10.805   1.947 -31.967  1.00  0.00     0.000 C 
ENDROOT
BRANCH   1   2
ATOM      2  C   UNL     1      11.642   3.125 -31.446  1.00  0.00     0.000 C 
BRANCH   2   3
ATOM      3  C   UNL     1      13.111   2.990 -31.873  1.00  0.00     0.000 C 
BRANCH   3   4
ATOM      4  C   UNL     1      13.327   1.907 -32.947  1.00  0.00    -0.000 C 
BRANCH   4   5
ATOM      5  C   UNL     1      14.036   2.389 -34.226  1.00  0.00    -0.000 C 
BRANCH   5   6
ATOM      6  C   UNL     1      13.210   2.131 -35.497  1.00  0.00    -0.000 C 
BRANCH   6   7
ATOM      7  C   UNL     1      11.790   2.717 -35.414  1.00  0.00    -0.000 C 
BRANCH   7   8
ATOM      8  C   UNL     1      10.654   1.676 -35.380  1.00  0.00    -0.000 C 
BRANCH   8   9
ATOM      9  C   UNL     1       9.538   1.935 -36.414  1.00  0.00    -0.000 C 
BRANCH   9  10
ATOM     10  C   UNL     1       8.134   1.839 -35.791  1.00  0.00    -0.000 C 
BRANCH  10  11
ATOM     11  C   UNL     1       7.534   0.430 -35.901  1.00  0.00    -0.003 C 
ATOM     12  C   UNL     1       6.272   0.260 -35.055  1.00  0.00     0.004 C 
ENDBRANCH  10  11
ENDBRANCH   9  10
ENDBRANCH   8   9
ENDBRANCH   7   8
ENDBRANCH   6   7
ENDBRANCH   5   6
ENDBRANCH   4   5
ENDBRANCH   3   4
ENDBRANCH   2   3
ENDBRANCH   1   2
BRANCH   1  13
ATOM     13  C   UNL     1       9.449   1.806 -31.251  1.00  0.00     0.000 C 
BRANCH  13  14
ATOM     14  C   UNL     1       8.236   1.601 -32.178  1.00  0.00     0.000 C 
BRANCH  14  15
ATOM     15  C   UNL     1       6.897   1.609 -31.424  1.00  0.00     0.000 C 
BRANCH  15  16
ATOM     16  C   UNL     1       7.055   1.947 -29.931  1.00  0.00     0.000 C 
BRANCH  16  17
ATOM     17  C   UNL     1       6.934   0.750 -28.966  1.00  0.00     0.000 C 
BRANCH  17  18
ATOM     18  C   UNL     1       6.107  -0.436 -29.497  1.00  0.00     0.000 C 
BRANCH  18  19
ATOM     19  C   UNL     1       5.565  -1.333 -28.375  1.00  0.00     0.000 C 
BRANCH  19  20
ATOM     20  C   UNL     1       6.381  -2.628 -28.264  1.00  0.00     0.006 C 
BRANCH  20  21
ATOM     21  C   UNL     1       7.208  -2.683 -26.972  1.00  0.00     0.053 C 
BRANCH  21  22
ATOM     22  C   UNL     1       8.535  -2.007 -27.134  1.00  0.00     0.041 C 
ATOM     23  O   UNL     1       9.364  -2.432 -27.980  1.00  0.00    -0.550 OA
ATOM     24  O   UNL     1       8.842  -0.884 -26.373  1.00  0.00    -0.550 OA
ENDBRANCH  21  22
ENDBRANCH  20  21
ENDBRANCH  19  20
ENDBRANCH  18  19
ENDBRANCH  17  18
ENDBRANCH  16  17
ENDBRANCH  15  16
ENDBRANCH  14  15
ENDBRANCH  13  14
ENDBRANCH   1  13
TORSDOF 20
ENDMDL
MODEL 5
REMARK VINA RESULT:    -5.490      8.515     11.581
REMARK INTER + INTRA:         -13.984
REMARK INTER:                 -10.693
REMARK INTRA:                  -3.291
REMARK UNBOUND:                -2.075
REMARK SMILES CCCCCCCCCCCCCCCCCCCCCC(=O)[O-]
REMARK SMILES IDX 12 1 11 2 10 3 9 4 8 5 7 6 6 7 5 8 4 9 3 10 2 11 1 12 13 13
REMARK SMILES IDX 14 14 15 15 16 16 17 17 18 18 19 19 20 20 21 21 22 22 23 23
REMARK SMILES IDX 24 24
REMARK H PARENT
REMARK Flexibility Score: inf
ROOT
ATOM      1  C   UNL     1       6.403 -10.066 -30.514  1.00  0.00     0.000 C 
ENDROOT
BRANCH   1   2
ATOM      2  C   UNL     1       5.882  -9.230 -29.335  1.00  0.00     0.000 C 
BRANCH   2   3
ATOM      3  C   UNL     1       5.683  -7.763 -29.745  1.00  0.00     0.000 C 
BRANCH   3   4
ATOM      4  C   UNL     1       5.855  -7.534 -31.258  1.00  0.00    -0.000 C 
BRANCH   4   5
ATOM      5  C   UNL     1       7.048  -6.644 -31.652  1.00  0.00    -0.000 C 
BRANCH   5   6
ATOM      6  C   UNL     1       7.485  -6.846 -33.112  1.00  0.00    -0.000 C 
BRANCH   6   7
ATOM      7  C   UNL     1       7.945  -8.285 -33.402  1.00  0.00    -0.000 C 
BRANCH   7   8
ATOM      8  C   UNL     1       9.197  -8.741 -32.627  1.00  0.00    -0.000 C 
BRANCH   8   9
ATOM      9  C   UNL     1       9.863 -10.007 -33.206  1.00  0.00    -0.000 C 
BRANCH   9  10
ATOM     10  C   UNL     1      10.851 -10.648 -32.215  1.00  0.00    -0.000 C 
BRANCH  10  11
ATOM     11  C   UNL     1      12.180  -9.884 -32.129  1.00  0.00    -0.003 C 
ATOM     12  C   UNL     1      12.753  -9.542 -33.506  1.00  0.00     0.004 C 
ENDBRANCH  10  11
ENDBRANCH   9  10
ENDBRANCH   8   9
ENDBRANCH   7   8
ENDBRANCH   6   7
ENDBRANCH   5   6
ENDBRANCH   4   5
ENDBRANCH   3   4
ENDBRANCH   2   3
ENDBRANCH   1   2
BRANCH   1  13
ATOM     13  C   UNL     1       7.607 -10.950 -30.142  1.00  0.00     0.000 C 
BRANCH  13  14
ATOM     14  C   UNL     1       8.297 -10.594 -28.811  1.00  0.00     0.000 C 
BRANCH  14  15
ATOM     15  C   UNL     1       9.599  -9.800 -29.004  1.00  0.00     0.000 C 
BRANCH  15  16
ATOM     16  C   UNL     1       9.387  -8.277 -28.928  1.00  0.00     0.000 C 
BRANCH  16  17
ATOM     17  C   UNL     1       9.739  -7.629 -27.573  1.00  0.00     0.000 C 
BRANCH  17  18
ATOM     18  C   UNL     1       9.492  -6.111 -27.491  1.00  0.00     0.000 C 
BRANCH  18  19
ATOM     19  C   UNL     1       8.315  -5.651 -28.364  1.00  0.00     0.000 C 
BRANCH  19  20
ATOM     20  C   UNL     1       8.332  -4.127 -28.551  1.00  0.00     0.006 C 
BRANCH  20  21
ATOM     21  C   UNL     1       9.750  -3.547 -28.452  1.00  0.00     0.053 C 
BRANCH  21  22
ATOM     22  C   UNL     1       9.799  -2.354 -27.549  1.00  0.00     0.041 C 
ATOM     23  O   UNL     1       9.819  -2.504 -26.299  1.00  0.00    -0.550 OA
ATOM     24  O   UNL     1       9.856  -1.074 -28.088  1.00  0.00    -0.550 OA
ENDBRANCH  21  22
ENDBRANCH  20  21
ENDBRANCH  19  20
ENDBRANCH  18  19
ENDBRANCH  17  18
ENDBRANCH  16  17
ENDBRANCH  15  16
ENDBRANCH  14  15
ENDBRANCH  13  14
ENDBRANCH   1  13
TORSDOF 20
ENDMDL
MODEL 6
REMARK VINA RESULT:    -5.485      9.510     12.021
REMARK INTER + INTRA:         -13.974
REMARK INTER:                 -10.306
REMARK INTRA:                  -3.668
REMARK UNBOUND:                -2.075
REMARK SMILES CCCCCCCCCCCCCCCCCCCCCC(=O)[O-]
REMARK SMILES IDX 12 1 11 2 10 3 9 4 8 5 7 6 6 7 5 8 4 9 3 10 2 11 1 12 13 13
REMARK SMILES IDX 14 14 15 15 16 16 17 17 18 18 19 19 20 20 21 21 22 22 23 23
REMARK SMILES IDX 24 24
REMARK H PARENT
REMARK Flexibility Score: inf
ROOT
ATOM      1  C   UNL     1       7.802  -6.571 -28.859  1.00  0.00     0.000 C 
ENDROOT
BRANCH   1   2
ATOM      2  C   UNL     1       6.426  -6.840 -29.487  1.00  0.00     0.000 C 
BRANCH   2   3
ATOM      3  C   UNL     1       5.889  -8.217 -29.068  1.00  0.00     0.000 C 
BRANCH   3   4
ATOM      4  C   UNL     1       5.514  -9.106 -30.269  1.00  0.00    -0.000 C 
BRANCH   4   5
ATOM      5  C   UNL     1       4.765  -8.386 -31.405  1.00  0.00    -0.000 C 
BRANCH   5   6
ATOM      6  C   UNL     1       4.836  -9.145 -32.740  1.00  0.00    -0.000 C 
BRANCH   6   7
ATOM      7  C   UNL     1       6.190  -9.842 -32.957  1.00  0.00    -0.000 C 
BRANCH   7   8
ATOM      8  C   UNL     1       7.216  -9.038 -33.778  1.00  0.00    -0.000 C 
BRANCH   8   9
ATOM      9  C   UNL     1       8.180  -8.193 -32.918  1.00  0.00    -0.000 C 
BRANCH   9  10
ATOM     10  C   UNL     1       7.810  -6.699 -32.927  1.00  0.00    -0.000 C 
BRANCH  10  11
ATOM     11  C   UNL     1       6.939  -6.315 -34.132  1.00  0.00    -0.003 C 
ATOM     12  C   UNL     1       7.533  -5.163 -34.944  1.00  0.00     0.004 C 
ENDBRANCH  10  11
ENDBRANCH   9  10
ENDBRANCH   8   9
ENDBRANCH   7   8
ENDBRANCH   6   7
ENDBRANCH   5   6
ENDBRANCH   4   5
ENDBRANCH   3   4
ENDBRANCH   2   3
ENDBRANCH   1   2
BRANCH   1  13
ATOM     13  C   UNL     1       8.837  -7.662 -29.184  1.00  0.00     0.000 C 
BRANCH  13  14
ATOM     14  C   UNL     1       9.356  -8.457 -27.971  1.00  0.00     0.000 C 
BRANCH  14  15
ATOM     15  C   UNL     1       9.743  -9.903 -28.322  1.00  0.00     0.000 C 
BRANCH  15  16
ATOM     16  C   UNL     1       8.582 -10.697 -28.946  1.00  0.00     0.000 C 
BRANCH  16  17
ATOM     17  C   UNL     1       8.733 -11.018 -30.447  1.00  0.00     0.000 C 
BRANCH  17  18
ATOM     18  C   UNL     1       9.501 -12.313 -30.766  1.00  0.00     0.000 C 
BRANCH  18  19
ATOM     19  C   UNL     1       9.611 -12.586 -32.273  1.00  0.00     0.000 C 
BRANCH  19  20
ATOM     20  C   UNL     1      10.050 -11.324 -33.028  1.00  0.00     0.006 C 
BRANCH  20  21
ATOM     21  C   UNL     1      11.577 -11.220 -33.147  1.00  0.00     0.053 C 
BRANCH  21  22
ATOM     22  C   UNL     1      12.087  -9.916 -32.614  1.00  0.00     0.041 C 
ATOM     23  O   UNL     1      11.748  -9.524 -31.466  1.00  0.00    -0.550 OA
ATOM     24  O   UNL     1      12.964  -9.149 -33.372  1.00  0.00    -0.550 OA
ENDBRANCH  21  22
ENDBRANCH  20  21
ENDBRANCH  19  20
ENDBRANCH  18  19
ENDBRANCH  17  18
ENDBRANCH  16  17
ENDBRANCH  15  16
ENDBRANCH  14  15
ENDBRANCH  13  14
ENDBRANCH   1  13
TORSDOF 20
ENDMDL
MODEL 7
REMARK VINA RESULT:    -5.443      9.943     12.411
REMARK INTER + INTRA:         -13.882
REMARK INTER:                 -10.236
REMARK INTRA:                  -3.646
REMARK UNBOUND:                -2.075
REMARK SMILES CCCCCCCCCCCCCCCCCCCCCC(=O)[O-]
REMARK SMILES IDX 12 1 11 2 10 3 9 4 8 5 7 6 6 7 5 8 4 9 3 10 2 11 1 12 13 13
REMARK SMILES IDX 14 14 15 15 16 16 17 17 18 18 19 19 20 20 21 21 22 22 23 23
REMARK SMILES IDX 24 24
REMARK H PARENT
REMARK Flexibility Score: inf
ROOT
ATOM      1  C   UNL     1       8.893  -8.347 -32.259  1.00  0.00     0.000 C 
ENDROOT
BRANCH   1   2
ATOM      2  C   UNL     1       9.872  -9.449 -31.827  1.00  0.00     0.000 C 
BRANCH   2   3
ATOM      3  C   UNL     1       9.482 -10.803 -32.440  1.00  0.00     0.000 C 
BRANCH   3   4
ATOM      4  C   UNL     1       9.266 -11.901 -31.382  1.00  0.00    -0.000 C 
BRANCH   4   5
ATOM      5  C   UNL     1       8.127 -11.628 -30.382  1.00  0.00    -0.000 C 
BRANCH   5   6
ATOM      6  C   UNL     1       8.569 -11.788 -28.918  1.00  0.00    -0.000 C 
BRANCH   6   7
ATOM      7  C   UNL     1      10.045 -12.200 -28.783  1.00  0.00    -0.000 C 
BRANCH   7   8
ATOM      8  C   UNL     1      10.975 -11.120 -28.198  1.00  0.00    -0.000 C 
BRANCH   8   9
ATOM      9  C   UNL     1      10.394 -10.396 -26.965  1.00  0.00    -0.000 C 
BRANCH   9  10
ATOM     10  C   UNL     1      11.120 -10.788 -25.666  1.00  0.00    -0.000 C 
BRANCH  10  11
ATOM     11  C   UNL     1      10.157 -11.288 -24.580  1.00  0.00    -0.003 C 
ATOM     12  C   UNL     1       9.374 -12.528 -25.014  1.00  0.00     0.004 C 
ENDBRANCH  10  11
ENDBRANCH   9  10
ENDBRANCH   8   9
ENDBRANCH   7   8
ENDBRANCH   6   7
ENDBRANCH   5   6
ENDBRANCH   4   5
ENDBRANCH   3   4
ENDBRANCH   2   3
ENDBRANCH   1   2
BRANCH   1  13
ATOM     13  C   UNL     1       8.059  -8.731 -33.495  1.00  0.00     0.000 C 
BRANCH  13  14
ATOM     14  C   UNL     1       6.566  -8.358 -33.421  1.00  0.00     0.000 C 
BRANCH  14  15
ATOM     15  C   UNL     1       5.685  -9.511 -32.914  1.00  0.00     0.000 C 
BRANCH  15  16
ATOM     16  C   UNL     1       5.349  -9.391 -31.416  1.00  0.00     0.000 C 
BRANCH  16  17
ATOM     17  C   UNL     1       5.008  -7.968 -30.928  1.00  0.00     0.000 C 
BRANCH  17  18
ATOM     18  C   UNL     1       5.627  -7.575 -29.574  1.00  0.00     0.000 C 
BRANCH  18  19
ATOM     19  C   UNL     1       6.514  -8.680 -28.982  1.00  0.00     0.000 C 
BRANCH  19  20
ATOM     20  C   UNL     1       7.957  -8.188 -28.804  1.00  0.00     0.006 C 
BRANCH  20  21
ATOM     21  C   UNL     1       8.075  -6.665 -28.959  1.00  0.00     0.053 C 
BRANCH  21  22
ATOM     22  C   UNL     1       8.912  -6.061 -27.873  1.00  0.00     0.041 C 
ATOM     23  O   UNL     1       9.650  -6.790 -27.161  1.00  0.00    -0.550 OA
ATOM     24  O   UNL     1       8.901  -4.686 -27.670  1.00  0.00    -0.550 OA
ENDBRANCH  21  22
ENDBRANCH  20  21
ENDBRANCH  19  20
ENDBRANCH  18  19
ENDBRANCH  17  18
ENDBRANCH  16  17
ENDBRANCH  15  16
ENDBRANCH  14  15
ENDBRANCH  13  14
ENDBRANCH   1  13
TORSDOF 20
ENDMDL
MODEL 8
REMARK VINA RESULT:    -5.439      8.658     10.922
REMARK INTER + INTRA:         -13.874
REMARK INTER:                 -10.615
REMARK INTRA:                  -3.258
REMARK UNBOUND:                -2.075
REMARK SMILES CCCCCCCCCCCCCCCCCCCCCC(=O)[O-]
REMARK SMILES IDX 12 1 11 2 10 3 9 4 8 5 7 6 6 7 5 8 4 9 3 10 2 11 1 12 13 13
REMARK SMILES IDX 14 14 15 15 16 16 17 17 18 18 19 19 20 20 21 21 22 22 23 23
REMARK SMILES IDX 24 24
REMARK H PARENT
REMARK Flexibility Score: inf
ROOT
ATOM      1  C   UNL     1       6.993  -6.369 -29.202  1.00  0.00     0.000 C 
ENDROOT
BRANCH   1   2
ATOM      2  C   UNL     1       8.379  -7.030 -29.163  1.00  0.00     0.000 C 
BRANCH   2   3
ATOM      3  C   UNL     1       9.080  -6.764 -27.823  1.00  0.00     0.000 C 
BRANCH   3   4
ATOM      4  C   UNL     1      10.065  -7.880 -27.428  1.00  0.00    -0.000 C 
BRANCH   4   5
ATOM      5  C   UNL     1       9.714  -9.280 -27.965  1.00  0.00    -0.000 C 
BRANCH   5   6
ATOM      6  C   UNL     1      10.048 -10.401 -26.968  1.00  0.00    -0.000 C 
BRANCH   6   7
ATOM      7  C   UNL     1       9.812 -11.806 -27.551  1.00  0.00    -0.000 C 
BRANCH   7   8
ATOM      8  C   UNL     1       9.075 -11.838 -28.904  1.00  0.00    -0.000 C 
BRANCH   8   9
ATOM      9  C   UNL     1       9.844 -12.581 -30.017  1.00  0.00    -0.000 C 
BRANCH   9  10
ATOM     10  C   UNL     1      10.492 -11.612 -31.021  1.00  0.00    -0.000 C 
BRANCH  10  11
ATOM     11  C   UNL     1       9.457 -10.765 -31.777  1.00  0.00    -0.003 C 
ATOM     12  C   UNL     1       9.728  -9.265 -31.662  1.00  0.00     0.004 C 
ENDBRANCH  10  11
ENDBRANCH   9  10
ENDBRANCH   8   9
ENDBRANCH   7   8
ENDBRANCH   6   7
ENDBRANCH   5   6
ENDBRANCH   4   5
ENDBRANCH   3   4
ENDBRANCH   2   3
ENDBRANCH   1   2
BRANCH   1  13
ATOM     13  C   UNL     1       5.842  -7.385 -29.312  1.00  0.00     0.000 C 
BRANCH  13  14
ATOM     14  C   UNL     1       6.229  -8.849 -29.030  1.00  0.00     0.000 C 
BRANCH  14  15
ATOM     15  C   UNL     1       6.181  -9.735 -30.284  1.00  0.00     0.000 C 
BRANCH  15  16
ATOM     16  C   UNL     1       5.347  -9.116 -31.421  1.00  0.00     0.000 C 
BRANCH  16  17
ATOM     17  C   UNL     1       6.049  -9.050 -32.793  1.00  0.00     0.000 C 
BRANCH  17  18
ATOM     18  C   UNL     1       6.103  -7.650 -33.433  1.00  0.00     0.000 C 
BRANCH  18  19
ATOM     19  C   UNL     1       7.264  -6.797 -32.901  1.00  0.00     0.000 C 
BRANCH  19  20
ATOM     20  C   UNL     1       7.449  -5.532 -33.751  1.00  0.00     0.006 C 
BRANCH  20  21
ATOM     21  C   UNL     1       6.599  -5.561 -35.028  1.00  0.00     0.053 C 
BRANCH  21  22
ATOM     22  C   UNL     1       6.655  -4.256 -35.761  1.00  0.00     0.041 C 
ATOM     23  O   UNL     1       7.687  -3.934 -36.406  1.00  0.00    -0.550 OA
ATOM     24  O   UNL     1       5.552  -3.409 -35.760  1.00  0.00    -0.550 OA
ENDBRANCH  21  22
ENDBRANCH  20  21
ENDBRANCH  19  20
ENDBRANCH  18  19
ENDBRANCH  17  18
ENDBRANCH  16  17
ENDBRANCH  15  16
ENDBRANCH  14  15
ENDBRANCH  13  14
ENDBRANCH   1  13
TORSDOF 20
ENDMDL
MODEL 9
REMARK VINA RESULT:    -5.422     10.347     12.717
REMARK INTER + INTRA:         -13.837
REMARK INTER:                  -9.847
REMARK INTRA:                  -3.990
REMARK UNBOUND:                -2.075
REMARK SMILES CCCCCCCCCCCCCCCCCCCCCC(=O)[O-]
REMARK SMILES IDX 12 1 11 2 10 3 9 4 8 5 7 6 6 7 5 8 4 9 3 10 2 11 1 12 13 13
REMARK SMILES IDX 14 14 15 15 16 16 17 17 18 18 19 19 20 20 21 21 22 22 23 23
REMARK SMILES IDX 24 24
REMARK H PARENT
REMARK Flexibility Score: inf
ROOT
ATOM      1  C   UNL     1       8.533  -6.322 -28.249  1.00  0.00     0.000 C 
ENDROOT
BRANCH   1   2
ATOM      2  C   UNL     1       7.363  -6.525 -29.223  1.00  0.00     0.000 C 
BRANCH   2   3
ATOM      3  C   UNL     1       7.808  -6.294 -30.675  1.00  0.00     0.000 C 
BRANCH   3   4
ATOM      4  C   UNL     1       6.777  -6.792 -31.706  1.00  0.00    -0.000 C 
BRANCH   4   5
ATOM      5  C   UNL     1       5.520  -7.448 -31.106  1.00  0.00    -0.000 C 
BRANCH   5   6
ATOM      6  C   UNL     1       5.123  -8.746 -31.829  1.00  0.00    -0.000 C 
BRANCH   6   7
ATOM      7  C   UNL     1       5.857  -9.982 -31.281  1.00  0.00    -0.000 C 
BRANCH   7   8
ATOM      8  C   UNL     1       6.121  -9.967 -29.763  1.00  0.00    -0.000 C 
BRANCH   8   9
ATOM      9  C   UNL     1       7.591 -10.243 -29.381  1.00  0.00    -0.000 C 
BRANCH   9  10
ATOM     10  C   UNL     1       8.435 -10.672 -30.594  1.00  0.00    -0.000 C 
BRANCH  10  11
ATOM     11  C   UNL     1       9.654  -9.765 -30.815  1.00  0.00    -0.003 C 
ATOM     12  C   UNL     1       9.696  -9.167 -32.222  1.00  0.00     0.004 C 
ENDBRANCH  10  11
ENDBRANCH   9  10
ENDBRANCH   8   9
ENDBRANCH   7   8
ENDBRANCH   6   7
ENDBRANCH   5   6
ENDBRANCH   4   5
ENDBRANCH   3   4
ENDBRANCH   2   3
ENDBRANCH   1   2
BRANCH   1  13
ATOM     13  C   UNL     1       9.253  -7.634 -27.888  1.00  0.00     0.000 C 
BRANCH  13  14
ATOM     14  C   UNL     1      10.645  -7.465 -27.250  1.00  0.00     0.000 C 
BRANCH  14  15
ATOM     15  C   UNL     1      11.092  -8.700 -26.451  1.00  0.00     0.000 C 
BRANCH  15  16
ATOM     16  C   UNL     1      11.023 -10.000 -27.273  1.00  0.00     0.000 C 
BRANCH  16  17
ATOM     17  C   UNL     1      10.148 -11.117 -26.669  1.00  0.00     0.000 C 
BRANCH  17  18
ATOM     18  C   UNL     1       9.976 -12.365 -27.555  1.00  0.00     0.000 C 
BRANCH  18  19
ATOM     19  C   UNL     1      11.083 -12.502 -28.611  1.00  0.00     0.000 C 
BRANCH  19  20
ATOM     20  C   UNL     1      10.634 -13.412 -29.763  1.00  0.00     0.006 C 
BRANCH  20  21
ATOM     21  C   UNL     1      11.610 -13.374 -30.947  1.00  0.00     0.053 C 
BRANCH  21  22
ATOM     22  C   UNL     1      10.920 -12.996 -32.222  1.00  0.00     0.041 C 
ATOM     23  O   UNL     1       9.756 -13.412 -32.460  1.00  0.00    -0.550 OA
ATOM     24  O   UNL     1      11.551 -12.157 -33.133  1.00  0.00    -0.550 OA
ENDBRANCH  21  22
ENDBRANCH  20  21
ENDBRANCH  19  20
ENDBRANCH  18  19
ENDBRANCH  17  18
ENDBRANCH  16  17
ENDBRANCH  15  16
ENDBRANCH  14  15
ENDBRANCH  13  14
ENDBRANCH   1  13
TORSDOF 20
ENDMDL
