MODEL 1
REMARK VINA RESULT:    -7.394      0.000      0.000
REMARK INTER + INTRA:          -8.382
REMARK INTER:                  -8.690
REMARK INTRA:                   0.308
REMARK UNBOUND:                 0.308
REMARK SMILES O=c1c(O)c(-c2ccc(O)cc2)oc2cc(O)cc(O)c12
REMARK SMILES IDX 5 1 3 2 2 3 1 4 21 5 19 6 18 7 16 8 15 9 14 10 13 11 6 12
REMARK SMILES IDX 7 13 8 14 9 15 12 16 11 17 10 18 4 20 20 22 17 24
REMARK H PARENT 10 19 4 21 20 23 17 25
REMARK Flexibility Score: inf
ROOT
ATOM      1  C   UNL     1       9.656  13.220  23.156  1.00  0.00     0.180 A 
ATOM      2  C   UNL     1       9.120  13.914  24.254  1.00  0.00     0.208 A 
ATOM      3  C   UNL     1       8.763  13.195  25.406  1.00  0.00     0.238 A 
ATOM      4  O   UNL     1       8.233  13.813  26.365  1.00  0.00    -0.285 OA
ATOM      5  C   UNL     1       8.963  11.794  25.451  1.00  0.00     0.111 A 
ATOM      6  C   UNL     1       8.675  10.970  26.581  1.00  0.00     0.134 A 
ATOM      7  C   UNL     1       8.789   9.579  26.469  1.00  0.00     0.093 A 
ATOM      8  C   UNL     1       9.243   8.986  25.292  1.00  0.00     0.123 A 
ATOM      9  C   UNL     1       9.584   9.786  24.200  1.00  0.00     0.094 A 
ATOM     10  C   UNL     1       9.445  11.174  24.269  1.00  0.00     0.146 A 
ATOM     11  O   UNL     1       9.770  11.898  23.205  1.00  0.00    -0.452 OA
ENDROOT
BRANCH   1  12
ATOM     12  C   UNL     1      10.079  13.912  21.916  1.00  0.00     0.021 A 
ATOM     13  C   UNL     1      10.508  15.251  21.935  1.00  0.00     0.016 A 
ATOM     14  C   UNL     1      10.926  15.876  20.755  1.00  0.00     0.047 A 
ATOM     15  C   UNL     1      10.933  15.167  19.548  1.00  0.00     0.115 A 
ATOM     16  C   UNL     1      10.108  13.202  20.704  1.00  0.00     0.016 A 
ATOM     17  C   UNL     1      10.526  13.829  19.526  1.00  0.00     0.047 A 
BRANCH  15  18
ATOM     18  O   UNL     1      11.345  15.780  18.366  1.00  0.00    -0.508 OA
ATOM     19  H   UNL     1      11.642  16.749  18.348  1.00  0.00     0.293 HD
ENDBRANCH  15  18
ENDBRANCH   1  12
BRANCH   2  20
ATOM     20  O   UNL     1       8.910  15.294  24.179  1.00  0.00    -0.502 OA
ATOM     21  H   UNL     1       8.029  15.724  24.432  1.00  0.00     0.293 HD
ENDBRANCH   2  20
BRANCH   6  22
ATOM     22  O   UNL     1       8.304  11.467  27.834  1.00  0.00    -0.507 OA
ATOM     23  H   UNL     1       8.908  11.499  28.641  1.00  0.00     0.293 HD
ENDBRANCH   6  22
BRANCH   8  24
ATOM     24  O   UNL     1       9.358   7.600  25.221  1.00  0.00    -0.508 OA
ATOM     25  H   UNL     1      10.101   7.156  24.692  1.00  0.00     0.293 HD
ENDBRANCH   8  24
TORSDOF 5
ENDMDL
MODEL 2
REMARK VINA RESULT:    -6.670      1.074      6.426
REMARK INTER + INTRA:          -7.532
REMARK INTER:                  -7.803
REMARK INTRA:                   0.270
REMARK UNBOUND:                 0.308
REMARK SMILES O=c1c(O)c(-c2ccc(O)cc2)oc2cc(O)cc(O)c12
REMARK SMILES IDX 5 1 3 2 2 3 1 4 21 5 19 6 18 7 16 8 15 9 14 10 13 11 6 12
REMARK SMILES IDX 7 13 8 14 9 15 12 16 11 17 10 18 4 20 20 22 17 24
REMARK H PARENT 10 19 4 21 20 23 17 25
REMARK Flexibility Score: inf
ROOT
ATOM      1  C   UNL     1       9.172  12.091  24.134  1.00  0.00     0.180 A 
ATOM      2  C   UNL     1       8.961  13.310  24.801  1.00  0.00     0.208 A 
ATOM      3  C   UNL     1       9.131  14.511  24.095  1.00  0.00     0.238 A 
ATOM      4  O   UNL     1       8.994  15.600  24.711  1.00  0.00    -0.285 OA
ATOM      5  C   UNL     1       9.493  14.478  22.726  1.00  0.00     0.111 A 
ATOM      6  C   UNL     1       9.654  15.633  21.902  1.00  0.00     0.134 A 
ATOM      7  C   UNL     1      10.141  15.487  20.598  1.00  0.00     0.093 A 
ATOM      8  C   UNL     1      10.412  14.227  20.066  1.00  0.00     0.123 A 
ATOM      9  C   UNL     1      10.202  13.088  20.843  1.00  0.00     0.094 A 
ATOM     10  C   UNL     1       9.752  13.202  22.160  1.00  0.00     0.146 A 
ATOM     11  O   UNL     1       9.575  12.094  22.869  1.00  0.00    -0.452 OA
ENDROOT
BRANCH   1  12
ATOM     12  C   UNL     1       8.988  10.783  24.805  1.00  0.00     0.021 A 
ATOM     13  C   UNL     1       8.049  10.616  25.839  1.00  0.00     0.016 A 
ATOM     14  C   UNL     1       7.875   9.365  26.441  1.00  0.00     0.047 A 
ATOM     15  C   UNL     1       8.627   8.266  26.009  1.00  0.00     0.115 A 
ATOM     16  C   UNL     1       9.723   9.670  24.365  1.00  0.00     0.016 A 
ATOM     17  C   UNL     1       9.548   8.421  24.968  1.00  0.00     0.047 A 
BRANCH  15  18
ATOM     18  O   UNL     1       8.465   7.016  26.602  1.00  0.00    -0.508 OA
ATOM     19  H   UNL     1       9.252   6.397  26.757  1.00  0.00     0.293 HD
ENDBRANCH  15  18
ENDBRANCH   1  12
BRANCH   2  20
ATOM     20  O   UNL     1       8.626  13.320  26.158  1.00  0.00    -0.502 OA
ATOM     21  H   UNL     1       9.073  13.938  26.824  1.00  0.00     0.293 HD
ENDBRANCH   2  20
BRANCH   6  22
ATOM     22  O   UNL     1       9.324  16.930  22.305  1.00  0.00    -0.507 OA
ATOM     23  H   UNL     1       9.318  17.736  21.697  1.00  0.00     0.293 HD
ENDBRANCH   6  22
BRANCH   8  24
ATOM     24  O   UNL     1      10.881  14.120  18.759  1.00  0.00    -0.508 OA
ATOM     25  H   UNL     1      10.742  13.277  18.213  1.00  0.00     0.293 HD
ENDBRANCH   8  24
TORSDOF 5
ENDMDL
MODEL 3
REMARK VINA RESULT:    -6.627      1.850      7.235
REMARK INTER + INTRA:          -7.482
REMARK INTER:                  -7.493
REMARK INTRA:                   0.011
REMARK UNBOUND:                 0.308
REMARK SMILES O=c1c(O)c(-c2ccc(O)cc2)oc2cc(O)cc(O)c12
REMARK SMILES IDX 5 1 3 2 2 3 1 4 21 5 19 6 18 7 16 8 15 9 14 10 13 11 6 12
REMARK SMILES IDX 7 13 8 14 9 15 12 16 11 17 10 18 4 20 20 22 17 24
REMARK H PARENT 10 19 4 21 20 23 17 25
REMARK Flexibility Score: inf
ROOT
ATOM      1  C   UNL     1       9.589  13.644  24.072  1.00  0.00     0.180 A 
ATOM      2  C   UNL     1       9.614  13.256  22.721  1.00  0.00     0.208 A 
ATOM      3  C   UNL     1      10.038  14.182  21.755  1.00  0.00     0.238 A 
ATOM      4  O   UNL     1      10.006  13.847  20.542  1.00  0.00    -0.285 OA
ATOM      5  C   UNL     1      10.447  15.477  22.152  1.00  0.00     0.111 A 
ATOM      6  C   UNL     1      10.934  16.482  21.262  1.00  0.00     0.134 A 
ATOM      7  C   UNL     1      11.187  17.771  21.748  1.00  0.00     0.093 A 
ATOM      8  C   UNL     1      11.035  18.074  23.100  1.00  0.00     0.123 A 
ATOM      9  C   UNL     1      10.617  17.082  23.990  1.00  0.00     0.094 A 
ATOM     10  C   UNL     1      10.321  15.798  23.529  1.00  0.00     0.146 A 
ATOM     11  O   UNL     1       9.917  14.887  24.406  1.00  0.00    -0.452 OA
ENDROOT
BRANCH   1  12
ATOM     12  C   UNL     1       9.178  12.717  25.151  1.00  0.00     0.021 A 
ATOM     13  C   UNL     1       9.727  11.426  25.257  1.00  0.00     0.016 A 
ATOM     14  C   UNL     1       9.341  10.577  26.299  1.00  0.00     0.047 A 
ATOM     15  C   UNL     1       8.414  11.011  27.254  1.00  0.00     0.115 A 
ATOM     16  C   UNL     1       8.264  13.151  26.126  1.00  0.00     0.016 A 
ATOM     17  C   UNL     1       7.880  12.300  27.167  1.00  0.00     0.047 A 
BRANCH  15  18
ATOM     18  O   UNL     1       8.021  10.173  28.296  1.00  0.00    -0.508 OA
ATOM     19  H   UNL     1       8.029   9.164  28.195  1.00  0.00     0.293 HD
ENDBRANCH  15  18
ENDBRANCH   1  12
BRANCH   2  20
ATOM     20  O   UNL     1       9.183  11.980  22.349  1.00  0.00    -0.502 OA
ATOM     21  H   UNL     1       9.386  11.581  21.440  1.00  0.00     0.293 HD
ENDBRANCH   2  20
BRANCH   6  22
ATOM     22  O   UNL     1      11.209  16.260  19.910  1.00  0.00    -0.507 OA
ATOM     23  H   UNL     1      12.080  16.490  19.456  1.00  0.00     0.293 HD
ENDBRANCH   6  22
BRANCH   8  24
ATOM     24  O   UNL     1      11.311  19.363  23.551  1.00  0.00    -0.508 OA
ATOM     25  H   UNL     1      12.155  19.572  24.073  1.00  0.00     0.293 HD
ENDBRANCH   8  24
TORSDOF 5
ENDMDL
MODEL 4
REMARK VINA RESULT:    -6.353      1.991      7.100
REMARK INTER + INTRA:          -7.159
REMARK INTER:                  -7.348
REMARK INTRA:                   0.189
REMARK UNBOUND:                 0.308
REMARK SMILES O=c1c(O)c(-c2ccc(O)cc2)oc2cc(O)cc(O)c12
REMARK SMILES IDX 5 1 3 2 2 3 1 4 21 5 19 6 18 7 16 8 15 9 14 10 13 11 6 12
REMARK SMILES IDX 7 13 8 14 9 15 12 16 11 17 10 18 4 20 20 22 17 24
REMARK H PARENT 10 19 4 21 20 23 17 25
REMARK Flexibility Score: inf
ROOT
ATOM      1  C   UNL     1       9.558  13.523  24.132  1.00  0.00     0.180 A 
ATOM      2  C   UNL     1       9.657  13.310  22.746  1.00  0.00     0.208 A 
ATOM      3  C   UNL     1      10.035  14.379  21.919  1.00  0.00     0.238 A 
ATOM      4  O   UNL     1      10.069  14.197  20.674  1.00  0.00    -0.285 OA
ATOM      5  C   UNL     1      10.326  15.642  22.489  1.00  0.00     0.111 A 
ATOM      6  C   UNL     1      10.758  16.784  21.749  1.00  0.00     0.134 A 
ATOM      7  C   UNL     1      10.891  18.018  22.399  1.00  0.00     0.093 A 
ATOM      8  C   UNL     1      10.672  18.137  23.771  1.00  0.00     0.123 A 
ATOM      9  C   UNL     1      10.308  17.013  24.514  1.00  0.00     0.094 A 
ATOM     10  C   UNL     1      10.131  15.777  23.887  1.00  0.00     0.146 A 
ATOM     11  O   UNL     1       9.774  14.735  24.629  1.00  0.00    -0.452 OA
ENDROOT
BRANCH   1  12
ATOM     12  C   UNL     1       9.189  12.439  25.072  1.00  0.00     0.021 A 
ATOM     13  C   UNL     1       8.285  12.659  26.127  1.00  0.00     0.016 A 
ATOM     14  C   UNL     1       7.934  11.613  26.986  1.00  0.00     0.047 A 
ATOM     15  C   UNL     1       8.469  10.334  26.794  1.00  0.00     0.115 A 
ATOM     16  C   UNL     1       9.706  11.147  24.874  1.00  0.00     0.016 A 
ATOM     17  C   UNL     1       9.353  10.104  25.735  1.00  0.00     0.047 A 
BRANCH  15  18
ATOM     18  O   UNL     1       8.128   9.285  27.645  1.00  0.00    -0.508 OA
ATOM     19  H   UNL     1       7.368   8.651  27.425  1.00  0.00     0.293 HD
ENDBRANCH  15  18
ENDBRANCH   1  12
BRANCH   2  20
ATOM     20  O   UNL     1       9.343  12.061  22.203  1.00  0.00    -0.502 OA
ATOM     21  H   UNL     1       8.404  11.814  21.915  1.00  0.00     0.293 HD
ENDBRANCH   2  20
BRANCH   6  22
ATOM     22  O   UNL     1      11.094  16.755  20.392  1.00  0.00    -0.507 OA
ATOM     23  H   UNL     1      10.443  16.569  19.644  1.00  0.00     0.293 HD
ENDBRANCH   6  22
BRANCH   8  24
ATOM     24  O   UNL     1      10.829  19.376  24.386  1.00  0.00    -0.508 OA
ATOM     25  H   UNL     1      10.048  20.014  24.499  1.00  0.00     0.293 HD
ENDBRANCH   8  24
TORSDOF 5
ENDMDL
MODEL 5
REMARK VINA RESULT:    -6.230      2.370      3.553
REMARK INTER + INTRA:          -7.015
REMARK INTER:                  -6.784
REMARK INTRA:                  -0.231
REMARK UNBOUND:                 0.308
REMARK SMILES O=c1c(O)c(-c2ccc(O)cc2)oc2cc(O)cc(O)c12
REMARK SMILES IDX 5 1 3 2 2 3 1 4 21 5 19 6 18 7 16 8 15 9 14 10 13 11 6 12
REMARK SMILES IDX 7 13 8 14 9 15 12 16 11 17 10 18 4 20 20 22 17 24
REMARK H PARENT 10 19 4 21 20 23 17 25
REMARK Flexibility Score: inf
ROOT
ATOM      1  C   UNL     1       9.403  12.709  24.566  1.00  0.00     0.180 A 
ATOM      2  C   UNL     1       9.761  11.596  23.785  1.00  0.00     0.208 A 
ATOM      3  C   UNL     1       9.623  10.309  24.329  1.00  0.00     0.238 A 
ATOM      4  O   UNL     1       9.996   9.320  23.646  1.00  0.00    -0.285 OA
ATOM      5  C   UNL     1       9.113  10.151  25.641  1.00  0.00     0.111 A 
ATOM      6  C   UNL     1       8.893   8.892  26.278  1.00  0.00     0.134 A 
ATOM      7  C   UNL     1       8.508   8.857  27.624  1.00  0.00     0.093 A 
ATOM      8  C   UNL     1       8.272  10.032  28.336  1.00  0.00     0.123 A 
ATOM      9  C   UNL     1       8.427  11.268  27.705  1.00  0.00     0.094 A 
ATOM     10  C   UNL     1       8.845  11.335  26.374  1.00  0.00     0.146 A 
ATOM     11  O   UNL     1       8.990  12.530  25.815  1.00  0.00    -0.452 OA
ENDROOT
BRANCH   1  12
ATOM     12  C   UNL     1       9.498  14.095  24.052  1.00  0.00     0.021 A 
ATOM     13  C   UNL     1       8.350  14.819  23.683  1.00  0.00     0.016 A 
ATOM     14  C   UNL     1       8.462  16.136  23.224  1.00  0.00     0.047 A 
ATOM     15  C   UNL     1       9.719  16.747  23.141  1.00  0.00     0.115 A 
ATOM     16  C   UNL     1      10.753  14.723  23.984  1.00  0.00     0.016 A 
ATOM     17  C   UNL     1      10.862  16.039  23.525  1.00  0.00     0.047 A 
BRANCH  15  18
ATOM     18  O   UNL     1       9.843  18.057  22.683  1.00  0.00    -0.508 OA
ATOM     19  H   UNL     1       9.070  18.711  22.733  1.00  0.00     0.293 HD
ENDBRANCH  15  18
ENDBRANCH   1  12
BRANCH   2  20
ATOM     20  O   UNL     1      10.284  11.777  22.501  1.00  0.00    -0.502 OA
ATOM     21  H   UNL     1      10.947  12.510  22.283  1.00  0.00     0.293 HD
ENDBRANCH   2  20
BRANCH   6  22
ATOM     22  O   UNL     1       9.010   7.659  25.630  1.00  0.00    -0.507 OA
ATOM     23  H   UNL     1       9.185   7.542  24.643  1.00  0.00     0.293 HD
ENDBRANCH   6  22
BRANCH   8  24
ATOM     24  O   UNL     1       7.876   9.959  29.669  1.00  0.00    -0.508 OA
ATOM     25  H   UNL     1       8.459   9.519  30.372  1.00  0.00     0.293 HD
ENDBRANCH   8  24
TORSDOF 5
ENDMDL
MODEL 6
REMARK VINA RESULT:    -6.166      2.324      3.761
REMARK INTER + INTRA:          -6.939
REMARK INTER:                  -6.900
REMARK INTRA:                  -0.038
REMARK UNBOUND:                 0.308
REMARK SMILES O=c1c(O)c(-c2ccc(O)cc2)oc2cc(O)cc(O)c12
REMARK SMILES IDX 5 1 3 2 2 3 1 4 21 5 19 6 18 7 16 8 15 9 14 10 13 11 6 12
REMARK SMILES IDX 7 13 8 14 9 15 12 16 11 17 10 18 4 20 20 22 17 24
REMARK H PARENT 10 19 4 21 20 23 17 25
REMARK Flexibility Score: inf
ROOT
ATOM      1  C   UNL     1       9.991  14.855  23.558  1.00  0.00     0.180 A 
ATOM      2  C   UNL     1      10.504  13.916  22.646  1.00  0.00     0.208 A 
ATOM      3  C   UNL     1      10.376  12.548  22.933  1.00  0.00     0.238 A 
ATOM      4  O   UNL     1      10.885  11.714  22.139  1.00  0.00    -0.285 OA
ATOM      5  C   UNL     1       9.723  12.135  24.119  1.00  0.00     0.111 A 
ATOM      6  C   UNL     1       9.502  10.774  24.490  1.00  0.00     0.134 A 
ATOM      7  C   UNL     1       8.961  10.482  25.749  1.00  0.00     0.093 A 
ATOM      8  C   UNL     1       8.574  11.498  26.621  1.00  0.00     0.123 A 
ATOM      9  C   UNL     1       8.731  12.832  26.243  1.00  0.00     0.094 A 
ATOM     10  C   UNL     1       9.301  13.156  25.010  1.00  0.00     0.146 A 
ATOM     11  O   UNL     1       9.442  14.437  24.693  1.00  0.00    -0.452 OA
ENDROOT
BRANCH   1  12
ATOM     12  C   UNL     1      10.065  16.314  23.314  1.00  0.00     0.021 A 
ATOM     13  C   UNL     1      11.296  16.958  23.091  1.00  0.00     0.016 A 
ATOM     14  C   UNL     1      11.338  18.333  22.838  1.00  0.00     0.047 A 
ATOM     15  C   UNL     1      10.153  19.077  22.791  1.00  0.00     0.115 A 
ATOM     16  C   UNL     1       8.880  17.065  23.244  1.00  0.00     0.016 A 
ATOM     17  C   UNL     1       8.925  18.439  22.991  1.00  0.00     0.047 A 
BRANCH  15  18
ATOM     18  O   UNL     1      10.184  20.447  22.541  1.00  0.00    -0.508 OA
ATOM     19  H   UNL     1      10.741  20.836  21.789  1.00  0.00     0.293 HD
ENDBRANCH  15  18
ENDBRANCH   1  12
BRANCH   2  20
ATOM     20  O   UNL     1      11.165  14.347  21.492  1.00  0.00    -0.502 OA
ATOM     21  H   UNL     1      10.818  15.105  20.917  1.00  0.00     0.293 HD
ENDBRANCH   2  20
BRANCH   6  22
ATOM     22  O   UNL     1       9.767   9.685  23.656  1.00  0.00    -0.507 OA
ATOM     23  H   UNL     1       9.505   8.731  23.856  1.00  0.00     0.293 HD
ENDBRANCH   6  22
BRANCH   8  24
ATOM     24  O   UNL     1       8.025  11.169  27.858  1.00  0.00    -0.508 OA
ATOM     25  H   UNL     1       8.537  11.318  28.721  1.00  0.00     0.293 HD
ENDBRANCH   8  24
TORSDOF 5
ENDMDL
MODEL 7
REMARK VINA RESULT:    -6.092      3.201      6.638
REMARK INTER + INTRA:          -6.852
REMARK INTER:                  -6.748
REMARK INTRA:                  -0.104
REMARK UNBOUND:                 0.308
REMARK SMILES O=c1c(O)c(-c2ccc(O)cc2)oc2cc(O)cc(O)c12
REMARK SMILES IDX 5 1 3 2 2 3 1 4 21 5 19 6 18 7 16 8 15 9 14 10 13 11 6 12
REMARK SMILES IDX 7 13 8 14 9 15 12 16 11 17 10 18 4 20 20 22 17 24
REMARK H PARENT 10 19 4 21 20 23 17 25
REMARK Flexibility Score: inf
ROOT
ATOM      1  C   UNL     1       9.605  16.274  24.245  1.00  0.00     0.180 A 
ATOM      2  C   UNL     1       9.106  14.974  24.435  1.00  0.00     0.208 A 
ATOM      3  C   UNL     1       9.207  14.045  23.387  1.00  0.00     0.238 A 
ATOM      4  O   UNL     1       8.709  12.900  23.543  1.00  0.00    -0.285 OA
ATOM      5  C   UNL     1       9.822  14.423  22.169  1.00  0.00     0.111 A 
ATOM      6  C   UNL     1      10.015  13.552  21.054  1.00  0.00     0.134 A 
ATOM      7  C   UNL     1      10.517  14.069  19.853  1.00  0.00     0.093 A 
ATOM      8  C   UNL     1      10.894  15.407  19.746  1.00  0.00     0.123 A 
ATOM      9  C   UNL     1      10.765  16.253  20.848  1.00  0.00     0.094 A 
ATOM     10  C   UNL     1      10.233  15.776  22.048  1.00  0.00     0.146 A 
ATOM     11  O   UNL     1      10.117  16.617  23.069  1.00  0.00    -0.452 OA
ENDROOT
BRANCH   1  12
ATOM     12  C   UNL     1       9.557  17.300  25.312  1.00  0.00     0.021 A 
ATOM     13  C   UNL     1       8.790  18.471  25.169  1.00  0.00     0.016 A 
ATOM     14  C   UNL     1       8.741  19.414  26.201  1.00  0.00     0.047 A 
ATOM     15  C   UNL     1       9.444  19.193  27.390  1.00  0.00     0.115 A 
ATOM     16  C   UNL     1      10.244  17.078  26.517  1.00  0.00     0.016 A 
ATOM     17  C   UNL     1      10.193  18.022  27.547  1.00  0.00     0.047 A 
BRANCH  15  18
ATOM     18  O   UNL     1       9.404  20.127  28.424  1.00  0.00    -0.508 OA
ATOM     19  H   UNL     1       9.397  19.840  29.396  1.00  0.00     0.293 HD
ENDBRANCH  15  18
ENDBRANCH   1  12
BRANCH   2  20
ATOM     20  O   UNL     1       8.482  14.629  25.638  1.00  0.00    -0.502 OA
ATOM     21  H   UNL     1       7.591  15.021  25.920  1.00  0.00     0.293 HD
ENDBRANCH   2  20
BRANCH   6  22
ATOM     22  O   UNL     1       9.759  12.178  21.084  1.00  0.00    -0.507 OA
ATOM     23  H   UNL     1       9.359  11.652  20.322  1.00  0.00     0.293 HD
ENDBRANCH   6  22
BRANCH   8  24
ATOM     24  O   UNL     1      11.404  15.882  18.540  1.00  0.00    -0.508 OA
ATOM     25  H   UNL     1      11.798  15.255  17.847  1.00  0.00     0.293 HD
ENDBRANCH   8  24
TORSDOF 5
ENDMDL
MODEL 8
REMARK VINA RESULT:    -5.954      3.598      6.840
REMARK INTER + INTRA:          -6.690
REMARK INTER:                  -6.543
REMARK INTRA:                  -0.147
REMARK UNBOUND:                 0.308
REMARK SMILES O=c1c(O)c(-c2ccc(O)cc2)oc2cc(O)cc(O)c12
REMARK SMILES IDX 5 1 3 2 2 3 1 4 21 5 19 6 18 7 16 8 15 9 14 10 13 11 6 12
REMARK SMILES IDX 7 13 8 14 9 15 12 16 11 17 10 18 4 20 20 22 17 24
REMARK H PARENT 10 19 4 21 20 23 17 25
REMARK Flexibility Score: inf
ROOT
ATOM      1  C   UNL     1       9.575  16.666  25.295  1.00  0.00     0.180 A 
ATOM      2  C   UNL     1       9.244  17.578  24.277  1.00  0.00     0.208 A 
ATOM      3  C   UNL     1       9.299  17.156  22.940  1.00  0.00     0.238 A 
ATOM      4  O   UNL     1       9.055  17.992  22.031  1.00  0.00    -0.285 OA
ATOM      5  C   UNL     1       9.669  15.823  22.637  1.00  0.00     0.111 A 
ATOM      6  C   UNL     1       9.719  15.276  21.319  1.00  0.00     0.134 A 
ATOM      7  C   UNL     1      10.224  13.984  21.127  1.00  0.00     0.093 A 
ATOM      8  C   UNL     1      10.618  13.196  22.208  1.00  0.00     0.123 A 
ATOM      9  C   UNL     1      10.516  13.700  23.505  1.00  0.00     0.094 A 
ATOM     10  C   UNL     1      10.052  14.999  23.726  1.00  0.00     0.146 A 
ATOM     11  O   UNL     1       9.980  15.443  24.975  1.00  0.00    -0.452 OA
ENDROOT
BRANCH   1  12
ATOM     12  C   UNL     1       9.516  17.030  26.729  1.00  0.00     0.021 A 
ATOM     13  C   UNL     1      10.389  17.985  27.280  1.00  0.00     0.016 A 
ATOM     14  C   UNL     1      10.298  18.330  28.632  1.00  0.00     0.047 A 
ATOM     15  C   UNL     1       9.326  17.736  29.446  1.00  0.00     0.115 A 
ATOM     16  C   UNL     1       8.530  16.454  27.548  1.00  0.00     0.016 A 
ATOM     17  C   UNL     1       8.441  16.801  28.900  1.00  0.00     0.047 A 
BRANCH  15  18
ATOM     18  O   UNL     1       9.227  18.070  30.795  1.00  0.00    -0.508 OA
ATOM     19  H   UNL     1       9.876  18.717  31.229  1.00  0.00     0.293 HD
ENDBRANCH  15  18
ENDBRANCH   1  12
BRANCH   2  20
ATOM     20  O   UNL     1       8.904  18.896  24.598  1.00  0.00    -0.502 OA
ATOM     21  H   UNL     1       9.403  19.431  25.299  1.00  0.00     0.293 HD
ENDBRANCH   2  20
BRANCH   6  22
ATOM     22  O   UNL     1       9.264  15.944  20.179  1.00  0.00    -0.507 OA
ATOM     23  H   UNL     1       9.806  16.608  19.647  1.00  0.00     0.293 HD
ENDBRANCH   6  22
BRANCH   8  24
ATOM     24  O   UNL     1      11.101  11.910  21.980  1.00  0.00    -0.508 OA
ATOM     25  H   UNL     1      11.528  11.366  22.721  1.00  0.00     0.293 HD
ENDBRANCH   8  24
TORSDOF 5
ENDMDL
MODEL 9
REMARK VINA RESULT:    -5.830      4.290      6.279
REMARK INTER + INTRA:          -6.544
REMARK INTER:                  -6.634
REMARK INTRA:                   0.090
REMARK UNBOUND:                 0.308
REMARK SMILES O=c1c(O)c(-c2ccc(O)cc2)oc2cc(O)cc(O)c12
REMARK SMILES IDX 5 1 3 2 2 3 1 4 21 5 19 6 18 7 16 8 15 9 14 10 13 11 6 12
REMARK SMILES IDX 7 13 8 14 9 15 12 16 11 17 10 18 4 20 20 22 17 24
REMARK H PARENT 10 19 4 21 20 23 17 25
REMARK Flexibility Score: inf
ROOT
ATOM      1  C   UNL     1       9.878  17.037  22.822  1.00  0.00     0.180 A 
ATOM      2  C   UNL     1       9.363  18.300  22.484  1.00  0.00     0.208 A 
ATOM      3  C   UNL     1       9.114  19.231  23.505  1.00  0.00     0.238 A 
ATOM      4  O   UNL     1       8.602  20.339  23.201  1.00  0.00    -0.285 OA
ATOM      5  C   UNL     1       9.398  18.892  24.850  1.00  0.00     0.111 A 
ATOM      6  C   UNL     1       9.223  19.772  25.961  1.00  0.00     0.134 A 
ATOM      7  C   UNL     1       9.413  19.288  27.261  1.00  0.00     0.093 A 
ATOM      8  C   UNL     1       9.834  17.979  27.488  1.00  0.00     0.123 A 
ATOM      9  C   UNL     1      10.067  17.128  26.406  1.00  0.00     0.094 A 
ATOM     10  C   UNL     1       9.850  17.571  25.099  1.00  0.00     0.146 A 
ATOM     11  O   UNL     1      10.073  16.727  24.099  1.00  0.00    -0.452 OA
ENDROOT
BRANCH   1  12
ATOM     12  C   UNL     1      10.190  16.012  21.799  1.00  0.00     0.021 A 
ATOM     13  C   UNL     1       9.725  14.690  21.920  1.00  0.00     0.016 A 
ATOM     14  C   UNL     1      10.012  13.747  20.928  1.00  0.00     0.047 A 
ATOM     15  C   UNL     1      10.753  14.115  19.800  1.00  0.00     0.115 A 
ATOM     16  C   UNL     1      10.916  16.378  20.654  1.00  0.00     0.016 A 
ATOM     17  C   UNL     1      11.202  15.433  19.664  1.00  0.00     0.047 A 
BRANCH  15  18
ATOM     18  O   UNL     1      11.047  13.183  18.807  1.00  0.00    -0.508 OA
ATOM     19  H   UNL     1      10.538  12.310  18.733  1.00  0.00     0.293 HD
ENDBRANCH  15  18
ENDBRANCH   1  12
BRANCH   2  20
ATOM     20  O   UNL     1       9.068  18.604  21.151  1.00  0.00    -0.502 OA
ATOM     21  H   UNL     1       8.296  18.176  20.654  1.00  0.00     0.293 HD
ENDBRANCH   2  20
BRANCH   6  22
ATOM     22  O   UNL     1       8.893  21.125  25.840  1.00  0.00    -0.507 OA
ATOM     23  H   UNL     1       9.341  21.873  26.348  1.00  0.00     0.293 HD
ENDBRANCH   6  22
BRANCH   8  24
ATOM     24  O   UNL     1      10.028  17.536  28.795  1.00  0.00    -0.508 OA
ATOM     25  H   UNL     1       9.557  16.711  29.150  1.00  0.00     0.293 HD
ENDBRANCH   8  24
TORSDOF 5
ENDMDL
