MODEL 1
REMARK VINA RESULT:    -7.347      0.000      0.000
REMARK INTER + INTRA:         -12.146
REMARK INTER:                 -10.783
REMARK INTRA:                  -1.364
REMARK UNBOUND:                -1.364
REMARK SMILES O=c1c(O[C@@H]2O[C@@H](CO)[C@H](O)[C@H](O)[C@H]2O)c(-c2ccc(O)c(O)c2)oc2cc(O)cc(O)c12
REMARK SMILES IDX 4 1 3 2 16 3 25 4 2 5 26 6 1 7 33 8 27 9 31 10 28 11 30 12
REMARK SMILES IDX 17 13 18 14 19 15 20 16 24 17 22 18 21 19 23 21 32 23 29 25
REMARK SMILES IDX 5 27 14 28 6 29 12 30 7 31 10 32 15 33 13 35 8 37 9 38 11 40
REMARK H PARENT 21 20 23 22 32 24 29 26 15 34 13 36 9 39 11 41
REMARK Flexibility Score: inf
ROOT
ATOM      1  O   UNL     1     -45.670 -12.714   0.140  1.00  0.00    -0.454 OA
ENDROOT
BRANCH   1   2
ATOM      2  C   UNL     1     -45.519 -12.769   1.543  1.00  0.00     0.214 A 
ATOM      3  C   UNL     1     -45.334 -11.629   2.382  1.00  0.00     0.180 A 
ATOM      4  O   UNL     1     -45.230 -11.757   3.700  1.00  0.00    -0.452 OA
ATOM      5  C   UNL     1     -45.618 -14.026   2.196  1.00  0.00     0.239 A 
ATOM      6  C   UNL     1     -45.345 -12.920   4.323  1.00  0.00     0.146 A 
ATOM      7  O   UNL     1     -45.701 -15.076   1.535  1.00  0.00    -0.285 OA
ATOM      8  C   UNL     1     -45.558 -14.101   3.598  1.00  0.00     0.111 A 
ATOM      9  C   UNL     1     -45.300 -12.911   5.741  1.00  0.00     0.094 A 
ATOM     10  C   UNL     1     -45.689 -15.300   4.339  1.00  0.00     0.134 A 
ATOM     11  C   UNL     1     -45.404 -14.090   6.443  1.00  0.00     0.123 A 
ATOM     12  C   UNL     1     -45.592 -15.288   5.741  1.00  0.00     0.093 A 
BRANCH   3  13
ATOM     13  C   UNL     1     -45.138 -10.216   1.939  1.00  0.00     0.025 A 
ATOM     14  C   UNL     1     -43.884  -9.878   1.419  1.00  0.00     0.016 A 
ATOM     15  C   UNL     1     -43.557  -8.540   1.131  1.00  0.00     0.051 A 
ATOM     16  C   UNL     1     -44.476  -7.519   1.441  1.00  0.00     0.157 A 
ATOM     17  C   UNL     1     -46.042  -9.196   2.271  1.00  0.00     0.062 A 
ATOM     18  C   UNL     1     -45.693  -7.841   2.031  1.00  0.00     0.158 A 
BRANCH  16  19
ATOM     19  O   UNL     1     -44.136  -6.185   1.227  1.00  0.00    -0.504 OA
ATOM     20  H   UNL     1     -44.588  -5.590   0.544  1.00  0.00     0.293 HD
ENDBRANCH  16  19
BRANCH  18  21
ATOM     21  O   UNL     1     -46.579  -6.819   2.448  1.00  0.00    -0.504 OA
ATOM     22  H   UNL     1     -47.346  -6.533   1.869  1.00  0.00     0.293 HD
ENDBRANCH  18  21
ENDBRANCH   3  13
BRANCH  10  23
ATOM     23  O   UNL     1     -45.948 -16.512   3.685  1.00  0.00    -0.507 OA
ATOM     24  H   UNL     1     -45.253 -17.022   3.174  1.00  0.00     0.293 HD
ENDBRANCH  10  23
BRANCH  11  25
ATOM     25  O   UNL     1     -45.500 -14.038   7.823  1.00  0.00    -0.508 OA
ATOM     26  H   UNL     1     -45.704 -14.906   8.347  1.00  0.00     0.293 HD
ENDBRANCH  11  25
ENDBRANCH   1   2
BRANCH   1  27
ATOM     27  C   UNL     1     -44.600 -12.808  -0.816  1.00  0.00     0.339 C 
ATOM     28  C   UNL     1     -43.311 -13.238  -0.089  1.00  0.00     0.214 C 
ATOM     29  O   UNL     1     -45.055 -13.543  -1.910  1.00  0.00    -0.332 OA
ATOM     30  C   UNL     1     -42.734 -14.628  -0.516  1.00  0.00     0.180 C 
ATOM     31  C   UNL     1     -44.173 -14.388  -2.618  1.00  0.00     0.179 C 
ATOM     32  C   UNL     1     -42.893 -15.023  -1.989  1.00  0.00     0.177 C 
BRANCH  28  33
ATOM     33  O   UNL     1     -42.335 -12.230  -0.216  1.00  0.00    -0.384 OA
ATOM     34  H   UNL     1     -42.877 -11.424  -0.324  1.00  0.00     0.211 HD
ENDBRANCH  28  33
BRANCH  30  35
ATOM     35  O   UNL     1     -43.231 -15.590   0.339  1.00  0.00    -0.387 OA
ATOM     36  H   UNL     1     -44.195 -15.305   0.495  1.00  0.00     0.211 HD
ENDBRANCH  30  35
BRANCH  31  37
ATOM     37  C   UNL     1     -43.901 -13.838  -4.046  1.00  0.00     0.191 C 
BRANCH  37  38
ATOM     38  O   UNL     1     -43.207 -12.609  -4.117  1.00  0.00    -0.394 OA
ATOM     39  H   UNL     1     -43.195 -12.351  -5.091  1.00  0.00     0.210 HD
ENDBRANCH  37  38
ENDBRANCH  31  37
BRANCH  32  40
ATOM     40  O   UNL     1     -42.868 -16.413  -2.202  1.00  0.00    -0.387 OA
ATOM     41  H   UNL     1     -43.784 -16.787  -2.083  1.00  0.00     0.211 HD
ENDBRANCH  32  40
ENDBRANCH   1  27
TORSDOF 12
ENDMDL
MODEL 2
REMARK VINA RESULT:    -7.343      3.386      8.354
REMARK INTER + INTRA:         -12.141
REMARK INTER:                 -10.830
REMARK INTRA:                  -1.311
REMARK UNBOUND:                -1.364
REMARK SMILES O=c1c(O[C@@H]2O[C@@H](CO)[C@H](O)[C@H](O)[C@H]2O)c(-c2ccc(O)c(O)c2)oc2cc(O)cc(O)c12
REMARK SMILES IDX 4 1 3 2 16 3 25 4 2 5 26 6 1 7 33 8 27 9 31 10 28 11 30 12
REMARK SMILES IDX 17 13 18 14 19 15 20 16 24 17 22 18 21 19 23 21 32 23 29 25
REMARK SMILES IDX 5 27 14 28 6 29 12 30 7 31 10 32 15 33 13 35 8 37 9 38 11 40
REMARK H PARENT 21 20 23 22 32 24 29 26 15 34 13 36 9 39 11 41
REMARK Flexibility Score: inf
ROOT
ATOM      1  O   UNL     1     -47.488 -13.089   4.446  1.00  0.00    -0.454 OA
ENDROOT
BRANCH   1   2
ATOM      2  C   UNL     1     -46.473 -13.654   3.643  1.00  0.00     0.214 A 
ATOM      3  C   UNL     1     -45.572 -14.673   4.075  1.00  0.00     0.180 A 
ATOM      4  O   UNL     1     -44.662 -15.179   3.251  1.00  0.00    -0.452 OA
ATOM      5  C   UNL     1     -46.361 -13.244   2.287  1.00  0.00     0.239 A 
ATOM      6  C   UNL     1     -44.563 -14.823   1.979  1.00  0.00     0.146 A 
ATOM      7  O   UNL     1     -47.054 -12.308   1.852  1.00  0.00    -0.285 OA
ATOM      8  C   UNL     1     -45.418 -13.851   1.440  1.00  0.00     0.111 A 
ATOM      9  C   UNL     1     -43.604 -15.500   1.182  1.00  0.00     0.094 A 
ATOM     10  C   UNL     1     -45.261 -13.540   0.069  1.00  0.00     0.134 A 
ATOM     11  C   UNL     1     -43.449 -15.165  -0.144  1.00  0.00     0.123 A 
ATOM     12  C   UNL     1     -44.274 -14.179  -0.700  1.00  0.00     0.093 A 
BRANCH   3  13
ATOM     13  C   UNL     1     -45.446 -15.226   5.457  1.00  0.00     0.025 A 
ATOM     14  C   UNL     1     -46.145 -16.405   5.739  1.00  0.00     0.016 A 
ATOM     15  C   UNL     1     -46.218 -16.906   7.051  1.00  0.00     0.051 A 
ATOM     16  C   UNL     1     -45.644 -16.172   8.107  1.00  0.00     0.157 A 
ATOM     17  C   UNL     1     -44.897 -14.484   6.513  1.00  0.00     0.062 A 
ATOM     18  C   UNL     1     -45.016 -14.961   7.845  1.00  0.00     0.158 A 
BRANCH  16  19
ATOM     19  O   UNL     1     -45.772 -16.622   9.421  1.00  0.00    -0.504 OA
ATOM     20  H   UNL     1     -45.543 -16.062  10.233  1.00  0.00     0.293 HD
ENDBRANCH  16  19
BRANCH  18  21
ATOM     21  O   UNL     1     -44.532 -14.160   8.906  1.00  0.00    -0.504 OA
ATOM     22  H   UNL     1     -43.673 -14.386   9.373  1.00  0.00     0.293 HD
ENDBRANCH  18  21
ENDBRANCH   3  13
BRANCH  10  23
ATOM     23  O   UNL     1     -46.110 -12.611  -0.548  1.00  0.00    -0.507 OA
ATOM     24  H   UNL     1     -46.445 -11.784  -0.093  1.00  0.00     0.293 HD
ENDBRANCH  10  23
BRANCH  11  25
ATOM     25  O   UNL     1     -42.611 -15.936  -0.932  1.00  0.00    -0.508 OA
ATOM     26  H   UNL     1     -41.713 -16.266  -0.540  1.00  0.00     0.293 HD
ENDBRANCH  11  25
ENDBRANCH   1   2
BRANCH   1  27
ATOM     27  C   UNL     1     -48.886 -13.419   4.374  1.00  0.00     0.339 C 
ATOM     28  C   UNL     1     -49.173 -14.602   5.318  1.00  0.00     0.214 C 
ATOM     29  O   UNL     1     -49.619 -12.240   4.499  1.00  0.00    -0.332 OA
ATOM     30  C   UNL     1     -50.136 -14.288   6.511  1.00  0.00     0.180 C 
ATOM     31  C   UNL     1     -50.868 -12.243   5.157  1.00  0.00     0.179 C 
ATOM     32  C   UNL     1     -51.269 -13.291   6.244  1.00  0.00     0.177 C 
BRANCH  28  33
ATOM     33  O   UNL     1     -49.643 -15.701   4.572  1.00  0.00    -0.384 OA
ATOM     34  H   UNL     1     -49.390 -15.461   3.660  1.00  0.00     0.211 HD
ENDBRANCH  28  33
BRANCH  30  35
ATOM     35  O   UNL     1     -49.376 -13.933   7.605  1.00  0.00    -0.387 OA
ATOM     36  H   UNL     1     -49.899 -14.298   8.398  1.00  0.00     0.211 HD
ENDBRANCH  30  35
BRANCH  31  37
ATOM     37  C   UNL     1     -52.026 -11.980   4.155  1.00  0.00     0.191 C 
BRANCH  37  38
ATOM     38  O   UNL     1     -53.320 -12.353   4.587  1.00  0.00    -0.394 OA
ATOM     39  H   UNL     1     -53.752 -11.511   4.934  1.00  0.00     0.210 HD
ENDBRANCH  37  38
ENDBRANCH  31  37
BRANCH  32  40
ATOM     40  O   UNL     1     -51.738 -12.651   7.405  1.00  0.00    -0.387 OA
ATOM     41  H   UNL     1     -51.019 -12.637   8.095  1.00  0.00     0.211 HD
ENDBRANCH  32  40
ENDBRANCH   1  27
TORSDOF 12
ENDMDL
MODEL 3
REMARK VINA RESULT:    -7.108      1.068      1.233
REMARK INTER + INTRA:         -11.796
REMARK INTER:                 -10.348
REMARK INTRA:                  -1.449
REMARK UNBOUND:                -1.364
REMARK SMILES O=c1c(O[C@@H]2O[C@@H](CO)[C@H](O)[C@H](O)[C@H]2O)c(-c2ccc(O)c(O)c2)oc2cc(O)cc(O)c12
REMARK SMILES IDX 4 1 3 2 16 3 25 4 2 5 26 6 1 7 33 8 27 9 31 10 28 11 30 12
REMARK SMILES IDX 17 13 18 14 19 15 20 16 24 17 22 18 21 19 23 21 32 23 29 25
REMARK SMILES IDX 5 27 14 28 6 29 12 30 7 31 10 32 15 33 13 35 8 37 9 38 11 40
REMARK H PARENT 21 20 23 22 32 24 29 26 15 34 13 36 9 39 11 41
REMARK Flexibility Score: inf
ROOT
ATOM      1  O   UNL     1     -45.883 -13.521   0.759  1.00  0.00    -0.454 OA
ENDROOT
BRANCH   1   2
ATOM      2  C   UNL     1     -45.482 -13.504   2.112  1.00  0.00     0.214 A 
ATOM      3  C   UNL     1     -45.487 -12.344   2.944  1.00  0.00     0.180 A 
ATOM      4  O   UNL     1     -45.124 -12.412   4.220  1.00  0.00    -0.452 OA
ATOM      5  C   UNL     1     -45.102 -14.725   2.732  1.00  0.00     0.239 A 
ATOM      6  C   UNL     1     -44.792 -13.547   4.815  1.00  0.00     0.146 A 
ATOM      7  O   UNL     1     -44.995 -15.766   2.061  1.00  0.00    -0.285 OA
ATOM      8  C   UNL     1     -44.781 -14.753   4.100  1.00  0.00     0.111 A 
ATOM      9  C   UNL     1     -44.506 -13.499   6.204  1.00  0.00     0.094 A 
ATOM     10  C   UNL     1     -44.433 -15.925   4.813  1.00  0.00     0.134 A 
ATOM     11  C   UNL     1     -44.145 -14.646   6.875  1.00  0.00     0.123 A 
ATOM     12  C   UNL     1     -44.101 -15.860   6.177  1.00  0.00     0.093 A 
BRANCH   3  13
ATOM     13  C   UNL     1     -45.783 -10.943   2.520  1.00  0.00     0.025 A 
ATOM     14  C   UNL     1     -44.717 -10.189   2.016  1.00  0.00     0.016 A 
ATOM     15  C   UNL     1     -44.865  -8.816   1.747  1.00  0.00     0.051 A 
ATOM     16  C   UNL     1     -46.080  -8.175   2.061  1.00  0.00     0.157 A 
ATOM     17  C   UNL     1     -46.983 -10.297   2.855  1.00  0.00     0.062 A 
ATOM     18  C   UNL     1     -47.116  -8.901   2.634  1.00  0.00     0.158 A 
BRANCH  16  19
ATOM     19  O   UNL     1     -46.214  -6.801   1.866  1.00  0.00    -0.504 OA
ATOM     20  H   UNL     1     -45.431  -6.166   1.767  1.00  0.00     0.293 HD
ENDBRANCH  16  19
BRANCH  18  21
ATOM     21  O   UNL     1     -48.300  -8.250   3.055  1.00  0.00    -0.504 OA
ATOM     22  H   UNL     1     -48.815  -8.577   3.851  1.00  0.00     0.293 HD
ENDBRANCH  18  21
ENDBRANCH   3  13
BRANCH  10  23
ATOM     23  O   UNL     1     -44.444 -17.172   4.174  1.00  0.00    -0.507 OA
ATOM     24  H   UNL     1     -45.092 -17.902   4.401  1.00  0.00     0.293 HD
ENDBRANCH  10  23
BRANCH  11  25
ATOM     25  O   UNL     1     -44.011 -14.598   8.252  1.00  0.00    -0.508 OA
ATOM     26  H   UNL     1     -43.195 -15.052   8.695  1.00  0.00     0.293 HD
ENDBRANCH  11  25
ENDBRANCH   1   2
BRANCH   1  27
ATOM     27  C   UNL     1     -45.023 -13.274  -0.367  1.00  0.00     0.339 C 
ATOM     28  C   UNL     1     -43.559 -13.262   0.111  1.00  0.00     0.214 C 
ATOM     29  O   UNL     1     -45.405 -14.125  -1.403  1.00  0.00    -0.332 OA
ATOM     30  C   UNL     1     -42.653 -14.396  -0.473  1.00  0.00     0.180 C 
ATOM     31  C   UNL     1     -44.439 -14.649  -2.290  1.00  0.00     0.179 C 
ATOM     32  C   UNL     1     -42.934 -14.834  -1.916  1.00  0.00     0.177 C 
BRANCH  28  33
ATOM     33  O   UNL     1     -42.991 -11.995  -0.130  1.00  0.00    -0.384 OA
ATOM     34  H   UNL     1     -43.035 -11.925  -1.103  1.00  0.00     0.211 HD
ENDBRANCH  28  33
BRANCH  30  35
ATOM     35  O   UNL     1     -42.662 -15.459   0.405  1.00  0.00    -0.387 OA
ATOM     36  H   UNL     1     -42.253 -16.223  -0.129  1.00  0.00     0.211 HD
ENDBRANCH  30  35
BRANCH  31  37
ATOM     37  C   UNL     1     -44.609 -14.053  -3.714  1.00  0.00     0.191 C 
BRANCH  37  38
ATOM     38  O   UNL     1     -43.627 -13.121  -4.121  1.00  0.00    -0.394 OA
ATOM     39  H   UNL     1     -42.801 -13.334  -3.583  1.00  0.00     0.210 HD
ENDBRANCH  37  38
ENDBRANCH  31  37
BRANCH  32  40
ATOM     40  O   UNL     1     -42.507 -16.144  -2.197  1.00  0.00    -0.387 OA
ATOM     41  H   UNL     1     -41.513 -16.194  -2.137  1.00  0.00     0.211 HD
ENDBRANCH  32  40
ENDBRANCH   1  27
TORSDOF 12
ENDMDL
MODEL 4
REMARK VINA RESULT:    -7.081      2.757      6.742
REMARK INTER + INTRA:         -11.757
REMARK INTER:                 -10.483
REMARK INTRA:                  -1.274
REMARK UNBOUND:                -1.364
REMARK SMILES O=c1c(O[C@@H]2O[C@@H](CO)[C@H](O)[C@H](O)[C@H]2O)c(-c2ccc(O)c(O)c2)oc2cc(O)cc(O)c12
REMARK SMILES IDX 4 1 3 2 16 3 25 4 2 5 26 6 1 7 33 8 27 9 31 10 28 11 30 12
REMARK SMILES IDX 17 13 18 14 19 15 20 16 24 17 22 18 21 19 23 21 32 23 29 25
REMARK SMILES IDX 5 27 14 28 6 29 12 30 7 31 10 32 15 33 13 35 8 37 9 38 11 40
REMARK H PARENT 21 20 23 22 32 24 29 26 15 34 13 36 9 39 11 41
REMARK Flexibility Score: inf
ROOT
ATOM      1  O   UNL     1     -42.826 -10.301   0.482  1.00  0.00    -0.454 OA
ENDROOT
BRANCH   1   2
ATOM      2  C   UNL     1     -43.653 -11.287  -0.100  1.00  0.00     0.214 A 
ATOM      3  C   UNL     1     -44.988 -11.573   0.316  1.00  0.00     0.180 A 
ATOM      4  O   UNL     1     -45.717 -12.495  -0.302  1.00  0.00    -0.452 OA
ATOM      5  C   UNL     1     -43.170 -12.016  -1.220  1.00  0.00     0.239 A 
ATOM      6  C   UNL     1     -45.287 -13.164  -1.361  1.00  0.00     0.146 A 
ATOM      7  O   UNL     1     -41.993 -11.885  -1.597  1.00  0.00    -0.285 OA
ATOM      8  C   UNL     1     -44.001 -12.942  -1.873  1.00  0.00     0.111 A 
ATOM      9  C   UNL     1     -46.194 -14.062  -1.981  1.00  0.00     0.094 A 
ATOM     10  C   UNL     1     -43.624 -13.681  -3.019  1.00  0.00     0.134 A 
ATOM     11  C   UNL     1     -45.800 -14.792  -3.079  1.00  0.00     0.123 A 
ATOM     12  C   UNL     1     -44.511 -14.607  -3.595  1.00  0.00     0.093 A 
BRANCH   3  13
ATOM     13  C   UNL     1     -45.699 -10.993   1.495  1.00  0.00     0.025 A 
ATOM     14  C   UNL     1     -45.278 -11.411   2.763  1.00  0.00     0.016 A 
ATOM     15  C   UNL     1     -45.994 -11.047   3.918  1.00  0.00     0.051 A 
ATOM     16  C   UNL     1     -47.191 -10.317   3.791  1.00  0.00     0.157 A 
ATOM     17  C   UNL     1     -46.905 -10.288   1.369  1.00  0.00     0.062 A 
ATOM     18  C   UNL     1     -47.656  -9.966   2.530  1.00  0.00     0.158 A 
BRANCH  16  19
ATOM     19  O   UNL     1     -47.946 -10.012   4.923  1.00  0.00    -0.504 OA
ATOM     20  H   UNL     1     -48.931 -10.230   5.019  1.00  0.00     0.293 HD
ENDBRANCH  16  19
BRANCH  18  21
ATOM     21  O   UNL     1     -48.911  -9.330   2.381  1.00  0.00    -0.504 OA
ATOM     22  H   UNL     1     -48.995  -8.332   2.447  1.00  0.00     0.293 HD
ENDBRANCH  18  21
ENDBRANCH   3  13
BRANCH  10  23
ATOM     23  O   UNL     1     -42.371 -13.479  -3.612  1.00  0.00    -0.507 OA
ATOM     24  H   UNL     1     -42.074 -12.599  -3.988  1.00  0.00     0.293 HD
ENDBRANCH  10  23
BRANCH  11  25
ATOM     25  O   UNL     1     -46.745 -15.550  -3.749  1.00  0.00    -0.508 OA
ATOM     26  H   UNL     1     -47.515 -15.073  -4.246  1.00  0.00     0.293 HD
ENDBRANCH  11  25
ENDBRANCH   1   2
BRANCH   1  27
ATOM     27  C   UNL     1     -42.435  -9.068  -0.146  1.00  0.00     0.339 C 
ATOM     28  C   UNL     1     -43.631  -8.502  -0.934  1.00  0.00     0.214 C 
ATOM     29  O   UNL     1     -41.798  -8.276   0.808  1.00  0.00    -0.332 OA
ATOM     30  C   UNL     1     -44.181  -7.129  -0.423  1.00  0.00     0.180 C 
ATOM     31  C   UNL     1     -41.934  -6.871   0.775  1.00  0.00     0.179 C 
ATOM     32  C   UNL     1     -43.155  -6.136   0.137  1.00  0.00     0.177 C 
BRANCH  28  33
ATOM     33  O   UNL     1     -43.308  -8.432  -2.304  1.00  0.00    -0.384 OA
ATOM     34  H   UNL     1     -43.167  -9.370  -2.535  1.00  0.00     0.211 HD
ENDBRANCH  28  33
BRANCH  30  35
ATOM     35  O   UNL     1     -45.209  -7.372   0.464  1.00  0.00    -0.387 OA
ATOM     36  H   UNL     1     -44.736  -7.665   1.316  1.00  0.00     0.211 HD
ENDBRANCH  30  35
BRANCH  31  37
ATOM     37  C   UNL     1     -40.589  -6.190   0.396  1.00  0.00     0.191 C 
BRANCH  37  38
ATOM     38  O   UNL     1     -40.656  -4.813   0.081  1.00  0.00    -0.394 OA
ATOM     39  H   UNL     1     -41.440  -4.447   0.597  1.00  0.00     0.210 HD
ENDBRANCH  37  38
ENDBRANCH  31  37
BRANCH  32  40
ATOM     40  O   UNL     1     -43.707  -5.209   1.040  1.00  0.00    -0.387 OA
ATOM     41  H   UNL     1     -43.774  -4.315   0.604  1.00  0.00     0.211 HD
ENDBRANCH  32  40
ENDBRANCH   1  27
TORSDOF 12
ENDMDL
MODEL 5
REMARK VINA RESULT:    -7.070      2.283      6.589
REMARK INTER + INTRA:         -11.740
REMARK INTER:                 -10.388
REMARK INTRA:                  -1.352
REMARK UNBOUND:                -1.364
REMARK SMILES O=c1c(O[C@@H]2O[C@@H](CO)[C@H](O)[C@H](O)[C@H]2O)c(-c2ccc(O)c(O)c2)oc2cc(O)cc(O)c12
REMARK SMILES IDX 4 1 3 2 16 3 25 4 2 5 26 6 1 7 33 8 27 9 31 10 28 11 30 12
REMARK SMILES IDX 17 13 18 14 19 15 20 16 24 17 22 18 21 19 23 21 32 23 29 25
REMARK SMILES IDX 5 27 14 28 6 29 12 30 7 31 10 32 15 33 13 35 8 37 9 38 11 40
REMARK H PARENT 21 20 23 22 32 24 29 26 15 34 13 36 9 39 11 41
REMARK Flexibility Score: inf
ROOT
ATOM      1  O   UNL     1     -43.177 -10.509   0.888  1.00  0.00    -0.454 OA
ENDROOT
BRANCH   1   2
ATOM      2  C   UNL     1     -43.921 -11.491   0.197  1.00  0.00     0.214 A 
ATOM      3  C   UNL     1     -45.162 -12.034   0.649  1.00  0.00     0.180 A 
ATOM      4  O   UNL     1     -45.821 -12.933  -0.072  1.00  0.00    -0.452 OA
ATOM      5  C   UNL     1     -43.458 -11.940  -1.068  1.00  0.00     0.239 A 
ATOM      6  C   UNL     1     -45.412 -13.342  -1.264  1.00  0.00     0.146 A 
ATOM      7  O   UNL     1     -42.350 -11.577  -1.499  1.00  0.00    -0.285 OA
ATOM      8  C   UNL     1     -44.221 -12.851  -1.818  1.00  0.00     0.111 A 
ATOM      9  C   UNL     1     -46.250 -14.243  -1.970  1.00  0.00     0.094 A 
ATOM     10  C   UNL     1     -43.864 -13.322  -3.103  1.00  0.00     0.134 A 
ATOM     11  C   UNL     1     -45.872 -14.710  -3.209  1.00  0.00     0.123 A 
ATOM     12  C   UNL     1     -44.674 -14.255  -3.774  1.00  0.00     0.093 A 
BRANCH   3  13
ATOM     13  C   UNL     1     -45.825 -11.773   1.962  1.00  0.00     0.025 A 
ATOM     14  C   UNL     1     -46.920 -10.902   1.963  1.00  0.00     0.016 A 
ATOM     15  C   UNL     1     -47.501 -10.472   3.170  1.00  0.00     0.051 A 
ATOM     16  C   UNL     1     -46.925 -10.862   4.395  1.00  0.00     0.157 A 
ATOM     17  C   UNL     1     -45.238 -12.141   3.183  1.00  0.00     0.062 A 
ATOM     18  C   UNL     1     -45.790 -11.664   4.400  1.00  0.00     0.158 A 
BRANCH  16  19
ATOM     19  O   UNL     1     -47.448 -10.384   5.596  1.00  0.00    -0.504 OA
ATOM     20  H   UNL     1     -47.072  -9.589   6.097  1.00  0.00     0.293 HD
ENDBRANCH  16  19
BRANCH  18  21
ATOM     21  O   UNL     1     -45.138 -11.973   5.618  1.00  0.00    -0.504 OA
ATOM     22  H   UNL     1     -45.407 -11.528   6.475  1.00  0.00     0.293 HD
ENDBRANCH  18  21
ENDBRANCH   3  13
BRANCH  10  23
ATOM     23  O   UNL     1     -42.710 -12.842  -3.738  1.00  0.00    -0.507 OA
ATOM     24  H   UNL     1     -41.814 -12.795  -3.292  1.00  0.00     0.293 HD
ENDBRANCH  10  23
BRANCH  11  25
ATOM     25  O   UNL     1     -46.771 -15.472  -3.935  1.00  0.00    -0.508 OA
ATOM     26  H   UNL     1     -46.941 -15.241  -4.929  1.00  0.00     0.293 HD
ENDBRANCH  11  25
ENDBRANCH   1   2
BRANCH   1  27
ATOM     27  C   UNL     1     -43.406  -9.091   0.818  1.00  0.00     0.339 C 
ATOM     28  C   UNL     1     -42.563  -8.500  -0.328  1.00  0.00     0.214 C 
ATOM     29  O   UNL     1     -44.782  -8.870   0.851  1.00  0.00    -0.332 OA
ATOM     30  C   UNL     1     -43.380  -7.875  -1.506  1.00  0.00     0.180 C 
ATOM     31  C   UNL     1     -45.350  -7.797   0.128  1.00  0.00     0.179 C 
ATOM     32  C   UNL     1     -44.693  -7.170  -1.143  1.00  0.00     0.177 C 
BRANCH  28  33
ATOM     33  O   UNL     1     -41.641  -7.570   0.192  1.00  0.00    -0.384 OA
ATOM     34  H   UNL     1     -40.837  -7.757  -0.329  1.00  0.00     0.211 HD
ENDBRANCH  28  33
BRANCH  30  35
ATOM     35  O   UNL     1     -43.557  -8.838  -2.477  1.00  0.00    -0.387 OA
ATOM     36  H   UNL     1     -42.669  -9.335  -2.495  1.00  0.00     0.211 HD
ENDBRANCH  30  35
BRANCH  31  37
ATOM     37  C   UNL     1     -45.903  -6.709   1.088  1.00  0.00     0.191 C 
BRANCH  37  38
ATOM     38  O   UNL     1     -46.217  -7.136   2.399  1.00  0.00    -0.394 OA
ATOM     39  H   UNL     1     -47.164  -6.839   2.569  1.00  0.00     0.210 HD
ENDBRANCH  37  38
ENDBRANCH  31  37
BRANCH  32  40
ATOM     40  O   UNL     1     -45.613  -7.116  -2.205  1.00  0.00    -0.387 OA
ATOM     41  H   UNL     1     -45.963  -8.030  -2.392  1.00  0.00     0.211 HD
ENDBRANCH  32  40
ENDBRANCH   1  27
TORSDOF 12
ENDMDL
MODEL 6
REMARK VINA RESULT:    -7.043      1.703      6.659
REMARK INTER + INTRA:         -11.700
REMARK INTER:                 -10.346
REMARK INTRA:                  -1.354
REMARK UNBOUND:                -1.364
REMARK SMILES O=c1c(O[C@@H]2O[C@@H](CO)[C@H](O)[C@H](O)[C@H]2O)c(-c2ccc(O)c(O)c2)oc2cc(O)cc(O)c12
REMARK SMILES IDX 4 1 3 2 16 3 25 4 2 5 26 6 1 7 33 8 27 9 31 10 28 11 30 12
REMARK SMILES IDX 17 13 18 14 19 15 20 16 24 17 22 18 21 19 23 21 32 23 29 25
REMARK SMILES IDX 5 27 14 28 6 29 12 30 7 31 10 32 15 33 13 35 8 37 9 38 11 40
REMARK H PARENT 21 20 23 22 32 24 29 26 15 34 13 36 9 39 11 41
REMARK Flexibility Score: inf
ROOT
ATOM      1  O   UNL     1     -45.450 -14.099   3.304  1.00  0.00    -0.454 OA
ENDROOT
BRANCH   1   2
ATOM      2  C   UNL     1     -45.093 -13.671   2.007  1.00  0.00     0.214 A 
ATOM      3  C   UNL     1     -45.365 -12.373   1.480  1.00  0.00     0.180 A 
ATOM      4  O   UNL     1     -44.970 -12.031   0.259  1.00  0.00    -0.452 OA
ATOM      5  C   UNL     1     -44.355 -14.551   1.171  1.00  0.00     0.239 A 
ATOM      6  C   UNL     1     -44.260 -12.833  -0.520  1.00  0.00     0.146 A 
ATOM      7  O   UNL     1     -44.143 -15.724   1.522  1.00  0.00    -0.285 OA
ATOM      8  C   UNL     1     -43.911 -14.121  -0.091  1.00  0.00     0.111 A 
ATOM      9  C   UNL     1     -43.827 -12.318  -1.769  1.00  0.00     0.094 A 
ATOM     10  C   UNL     1     -43.135 -14.909  -0.974  1.00  0.00     0.134 A 
ATOM     11  C   UNL     1     -43.095 -13.109  -2.626  1.00  0.00     0.123 A 
ATOM     12  C   UNL     1     -42.754 -14.409  -2.231  1.00  0.00     0.093 A 
BRANCH   3  13
ATOM     13  C   UNL     1     -46.172 -11.296   2.129  1.00  0.00     0.025 A 
ATOM     14  C   UNL     1     -47.512 -11.584   2.410  1.00  0.00     0.016 A 
ATOM     15  C   UNL     1     -48.386 -10.581   2.868  1.00  0.00     0.051 A 
ATOM     16  C   UNL     1     -47.926  -9.254   2.972  1.00  0.00     0.157 A 
ATOM     17  C   UNL     1     -45.722  -9.969   2.210  1.00  0.00     0.062 A 
ATOM     18  C   UNL     1     -46.617  -8.947   2.620  1.00  0.00     0.158 A 
BRANCH  16  19
ATOM     19  O   UNL     1     -48.801  -8.239   3.356  1.00  0.00    -0.504 OA
ATOM     20  H   UNL     1     -49.562  -7.903   2.778  1.00  0.00     0.293 HD
ENDBRANCH  16  19
BRANCH  18  21
ATOM     21  O   UNL     1     -46.173  -7.603   2.615  1.00  0.00    -0.504 OA
ATOM     22  H   UNL     1     -46.809  -6.850   2.429  1.00  0.00     0.293 HD
ENDBRANCH  18  21
ENDBRANCH   3  13
BRANCH  10  23
ATOM     23  O   UNL     1     -42.711 -16.189  -0.594  1.00  0.00    -0.507 OA
ATOM     24  H   UNL     1     -43.340 -16.921  -0.323  1.00  0.00     0.293 HD
ENDBRANCH  10  23
BRANCH  11  25
ATOM     25  O   UNL     1     -42.564 -12.538  -3.770  1.00  0.00    -0.508 OA
ATOM     26  H   UNL     1     -42.187 -13.152  -4.511  1.00  0.00     0.293 HD
ENDBRANCH  11  25
ENDBRANCH   1   2
BRANCH   1  27
ATOM     27  C   UNL     1     -44.955 -13.536   4.531  1.00  0.00     0.339 C 
ATOM     28  C   UNL     1     -46.148 -13.122   5.413  1.00  0.00     0.214 C 
ATOM     29  O   UNL     1     -43.982 -14.394   5.042  1.00  0.00    -0.332 OA
ATOM     30  C   UNL     1     -46.283 -13.897   6.766  1.00  0.00     0.180 C 
ATOM     31  C   UNL     1     -43.829 -14.549   6.438  1.00  0.00     0.179 C 
ATOM     32  C   UNL     1     -44.980 -14.304   7.465  1.00  0.00     0.177 C 
BRANCH  28  33
ATOM     33  O   UNL     1     -46.114 -11.731   5.635  1.00  0.00    -0.384 OA
ATOM     34  H   UNL     1     -46.334 -11.371   4.755  1.00  0.00     0.211 HD
ENDBRANCH  28  33
BRANCH  30  35
ATOM     35  O   UNL     1     -47.128 -14.970   6.573  1.00  0.00    -0.387 OA
ATOM     36  H   UNL     1     -48.012 -14.542   6.306  1.00  0.00     0.211 HD
ENDBRANCH  30  35
BRANCH  31  37
ATOM     37  C   UNL     1     -42.485 -13.939   6.923  1.00  0.00     0.191 C 
BRANCH  37  38
ATOM     38  O   UNL     1     -42.097 -14.258   8.244  1.00  0.00    -0.394 OA
ATOM     39  H   UNL     1     -42.363 -13.468   8.811  1.00  0.00     0.210 HD
ENDBRANCH  37  38
ENDBRANCH  31  37
BRANCH  32  40
ATOM     40  O   UNL     1     -45.126 -15.408   8.324  1.00  0.00    -0.387 OA
ATOM     41  H   UNL     1     -46.094 -15.590   8.476  1.00  0.00     0.211 HD
ENDBRANCH  32  40
ENDBRANCH   1  27
TORSDOF 12
ENDMDL
MODEL 7
REMARK VINA RESULT:    -6.890      2.842      7.808
REMARK INTER + INTRA:         -11.475
REMARK INTER:                  -9.812
REMARK INTRA:                  -1.663
REMARK UNBOUND:                -1.364
REMARK SMILES O=c1c(O[C@@H]2O[C@@H](CO)[C@H](O)[C@H](O)[C@H]2O)c(-c2ccc(O)c(O)c2)oc2cc(O)cc(O)c12
REMARK SMILES IDX 4 1 3 2 16 3 25 4 2 5 26 6 1 7 33 8 27 9 31 10 28 11 30 12
REMARK SMILES IDX 17 13 18 14 19 15 20 16 24 17 22 18 21 19 23 21 32 23 29 25
REMARK SMILES IDX 5 27 14 28 6 29 12 30 7 31 10 32 15 33 13 35 8 37 9 38 11 40
REMARK H PARENT 21 20 23 22 32 24 29 26 15 34 13 36 9 39 11 41
REMARK Flexibility Score: inf
ROOT
ATOM      1  O   UNL     1     -46.417 -11.550   4.775  1.00  0.00    -0.454 OA
ENDROOT
BRANCH   1   2
ATOM      2  C   UNL     1     -45.838 -12.351   3.766  1.00  0.00     0.214 A 
ATOM      3  C   UNL     1     -45.346 -13.676   3.967  1.00  0.00     0.180 A 
ATOM      4  O   UNL     1     -44.843 -14.381   2.960  1.00  0.00    -0.452 OA
ATOM      5  C   UNL     1     -45.788 -11.852   2.437  1.00  0.00     0.239 A 
ATOM      6  C   UNL     1     -44.813 -13.937   1.713  1.00  0.00     0.146 A 
ATOM      7  O   UNL     1     -46.123 -10.681   2.190  1.00  0.00    -0.285 OA
ATOM      8  C   UNL     1     -45.297 -12.659   1.397  1.00  0.00     0.111 A 
ATOM      9  C   UNL     1     -44.327 -14.820   0.715  1.00  0.00     0.094 A 
ATOM     10  C   UNL     1     -45.248 -12.267   0.039  1.00  0.00     0.134 A 
ATOM     11  C   UNL     1     -44.263 -14.411  -0.598  1.00  0.00     0.123 A 
ATOM     12  C   UNL     1     -44.717 -13.130  -0.936  1.00  0.00     0.093 A 
BRANCH   3  13
ATOM     13  C   UNL     1     -45.232 -14.398   5.269  1.00  0.00     0.025 A 
ATOM     14  C   UNL     1     -46.215 -15.350   5.560  1.00  0.00     0.016 A 
ATOM     15  C   UNL     1     -46.281 -15.957   6.828  1.00  0.00     0.051 A 
ATOM     16  C   UNL     1     -45.392 -15.547   7.841  1.00  0.00     0.157 A 
ATOM     17  C   UNL     1     -44.364 -13.972   6.287  1.00  0.00     0.062 A 
ATOM     18  C   UNL     1     -44.464 -14.546   7.582  1.00  0.00     0.158 A 
BRANCH  16  19
ATOM     19  O   UNL     1     -45.495 -16.089   9.121  1.00  0.00    -0.504 OA
ATOM     20  H   UNL     1     -46.260 -16.679   9.424  1.00  0.00     0.293 HD
ENDBRANCH  16  19
BRANCH  18  21
ATOM     21  O   UNL     1     -43.640 -14.047   8.619  1.00  0.00    -0.504 OA
ATOM     22  H   UNL     1     -42.929 -13.365   8.430  1.00  0.00     0.293 HD
ENDBRANCH  18  21
ENDBRANCH   3  13
BRANCH  10  23
ATOM     23  O   UNL     1     -45.755 -11.022  -0.358  1.00  0.00    -0.507 OA
ATOM     24  H   UNL     1     -45.591 -10.623  -1.262  1.00  0.00     0.293 HD
ENDBRANCH  10  23
BRANCH  11  25
ATOM     25  O   UNL     1     -43.921 -15.337  -1.569  1.00  0.00    -0.508 OA
ATOM     26  H   UNL     1     -44.495 -16.190  -1.676  1.00  0.00     0.293 HD
ENDBRANCH  11  25
ENDBRANCH   1   2
BRANCH   1  27
ATOM     27  C   UNL     1     -47.811 -11.534   5.126  1.00  0.00     0.339 C 
ATOM     28  C   UNL     1     -48.378 -10.123   4.877  1.00  0.00     0.214 C 
ATOM     29  O   UNL     1     -48.422 -12.639   4.534  1.00  0.00    -0.332 OA
ATOM     30  C   UNL     1     -49.483 -10.029   3.774  1.00  0.00     0.180 C 
ATOM     31  C   UNL     1     -49.756 -12.556   4.076  1.00  0.00     0.179 C 
ATOM     32  C   UNL     1     -50.442 -11.220   3.650  1.00  0.00     0.177 C 
BRANCH  28  33
ATOM     33  O   UNL     1     -48.835  -9.574   6.091  1.00  0.00    -0.384 OA
ATOM     34  H   UNL     1     -48.015  -9.215   6.482  1.00  0.00     0.211 HD
ENDBRANCH  28  33
BRANCH  30  35
ATOM     35  O   UNL     1     -48.879  -9.719   2.574  1.00  0.00    -0.387 OA
ATOM     36  H   UNL     1     -48.797  -8.705   2.594  1.00  0.00     0.211 HD
ENDBRANCH  30  35
BRANCH  31  37
ATOM     37  C   UNL     1     -50.698 -13.436   4.944  1.00  0.00     0.191 C 
BRANCH  37  38
ATOM     38  O   UNL     1     -50.394 -14.816   4.990  1.00  0.00    -0.394 OA
ATOM     39  H   UNL     1     -50.350 -15.124   4.031  1.00  0.00     0.210 HD
ENDBRANCH  37  38
ENDBRANCH  31  37
BRANCH  32  40
ATOM     40  O   UNL     1     -51.022 -11.341   2.375  1.00  0.00    -0.387 OA
ATOM     41  H   UNL     1     -50.467 -10.855   1.705  1.00  0.00     0.211 HD
ENDBRANCH  32  40
ENDBRANCH   1  27
TORSDOF 12
ENDMDL
MODEL 8
REMARK VINA RESULT:    -6.809      2.107      6.217
REMARK INTER + INTRA:         -11.357
REMARK INTER:                 -10.506
REMARK INTRA:                  -0.852
REMARK UNBOUND:                -1.364
REMARK SMILES O=c1c(O[C@@H]2O[C@@H](CO)[C@H](O)[C@H](O)[C@H]2O)c(-c2ccc(O)c(O)c2)oc2cc(O)cc(O)c12
REMARK SMILES IDX 4 1 3 2 16 3 25 4 2 5 26 6 1 7 33 8 27 9 31 10 28 11 30 12
REMARK SMILES IDX 17 13 18 14 19 15 20 16 24 17 22 18 21 19 23 21 32 23 29 25
REMARK SMILES IDX 5 27 14 28 6 29 12 30 7 31 10 32 15 33 13 35 8 37 9 38 11 40
REMARK H PARENT 21 20 23 22 32 24 29 26 15 34 13 36 9 39 11 41
REMARK Flexibility Score: inf
ROOT
ATOM      1  O   UNL     1     -42.410 -11.729  -0.255  1.00  0.00    -0.454 OA
ENDROOT
BRANCH   1   2
ATOM      2  C   UNL     1     -42.867 -10.421   0.019  1.00  0.00     0.214 A 
ATOM      3  C   UNL     1     -43.983 -10.112   0.854  1.00  0.00     0.180 A 
ATOM      4  O   UNL     1     -44.335  -8.853   1.091  1.00  0.00    -0.452 OA
ATOM      5  C   UNL     1     -42.146  -9.316  -0.508  1.00  0.00     0.239 A 
ATOM      6  C   UNL     1     -43.657  -7.815   0.625  1.00  0.00     0.146 A 
ATOM      7  O   UNL     1     -41.211  -9.497  -1.306  1.00  0.00    -0.285 OA
ATOM      8  C   UNL     1     -42.526  -8.003  -0.182  1.00  0.00     0.111 A 
ATOM      9  C   UNL     1     -44.087  -6.522   1.020  1.00  0.00     0.094 A 
ATOM     10  C   UNL     1     -41.846  -6.844  -0.622  1.00  0.00     0.134 A 
ATOM     11  C   UNL     1     -43.427  -5.405   0.560  1.00  0.00     0.123 A 
ATOM     12  C   UNL     1     -42.309  -5.565  -0.268  1.00  0.00     0.093 A 
BRANCH   3  13
ATOM     13  C   UNL     1     -44.933 -11.085   1.472  1.00  0.00     0.025 A 
ATOM     14  C   UNL     1     -45.088 -11.031   2.861  1.00  0.00     0.016 A 
ATOM     15  C   UNL     1     -45.832 -12.011   3.545  1.00  0.00     0.051 A 
ATOM     16  C   UNL     1     -46.363 -13.102   2.830  1.00  0.00     0.157 A 
ATOM     17  C   UNL     1     -45.442 -12.186   0.766  1.00  0.00     0.062 A 
ATOM     18  C   UNL     1     -46.146 -13.203   1.462  1.00  0.00     0.158 A 
BRANCH  16  19
ATOM     19  O   UNL     1     -47.039 -14.117   3.506  1.00  0.00    -0.504 OA
ATOM     20  H   UNL     1     -47.702 -14.743   3.065  1.00  0.00     0.293 HD
ENDBRANCH  16  19
BRANCH  18  21
ATOM     21  O   UNL     1     -46.579 -14.347   0.750  1.00  0.00    -0.504 OA
ATOM     22  H   UNL     1     -46.432 -15.269   1.117  1.00  0.00     0.293 HD
ENDBRANCH  18  21
ENDBRANCH   3  13
BRANCH  10  23
ATOM     23  O   UNL     1     -40.682  -6.956  -1.395  1.00  0.00    -0.507 OA
ATOM     24  H   UNL     1     -40.489  -7.738  -1.991  1.00  0.00     0.293 HD
ENDBRANCH  10  23
BRANCH  11  25
ATOM     25  O   UNL     1     -43.776  -4.167   1.072  1.00  0.00    -0.508 OA
ATOM     26  H   UNL     1     -44.376  -3.539   0.510  1.00  0.00     0.293 HD
ENDBRANCH  11  25
ENDBRANCH   1   2
BRANCH   1  27
ATOM     27  C   UNL     1     -42.651 -12.455  -1.472  1.00  0.00     0.339 C 
ATOM     28  C   UNL     1     -41.319 -13.030  -1.988  1.00  0.00     0.214 C 
ATOM     29  O   UNL     1     -43.737 -13.304  -1.266  1.00  0.00    -0.332 OA
ATOM     30  C   UNL     1     -41.232 -14.592  -2.024  1.00  0.00     0.180 C 
ATOM     31  C   UNL     1     -43.788 -14.565  -1.900  1.00  0.00     0.179 C 
ATOM     32  C   UNL     1     -42.520 -15.351  -2.363  1.00  0.00     0.177 C 
BRANCH  28  33
ATOM     33  O   UNL     1     -41.024 -12.484  -3.253  1.00  0.00    -0.384 OA
ATOM     34  H   UNL     1     -41.434 -13.128  -3.862  1.00  0.00     0.211 HD
ENDBRANCH  28  33
BRANCH  30  35
ATOM     35  O   UNL     1     -40.666 -15.026  -0.843  1.00  0.00    -0.387 OA
ATOM     36  H   UNL     1     -40.669 -14.198  -0.250  1.00  0.00     0.211 HD
ENDBRANCH  30  35
BRANCH  31  37
ATOM     37  C   UNL     1     -44.913 -14.604  -2.972  1.00  0.00     0.191 C 
BRANCH  37  38
ATOM     38  O   UNL     1     -45.363 -15.888  -3.354  1.00  0.00    -0.394 OA
ATOM     39  H   UNL     1     -45.923 -16.228  -2.587  1.00  0.00     0.210 HD
ENDBRANCH  37  38
ENDBRANCH  31  37
BRANCH  32  40
ATOM     40  O   UNL     1     -42.542 -16.667  -1.869  1.00  0.00    -0.387 OA
ATOM     41  H   UNL     1     -42.127 -16.693  -0.963  1.00  0.00     0.211 HD
ENDBRANCH  32  40
ENDBRANCH   1  27
TORSDOF 12
ENDMDL
MODEL 9
REMARK VINA RESULT:    -6.773      5.415      8.734
REMARK INTER + INTRA:         -11.304
REMARK INTER:                  -9.666
REMARK INTRA:                  -1.638
REMARK UNBOUND:                -1.364
REMARK SMILES O=c1c(O[C@@H]2O[C@@H](CO)[C@H](O)[C@H](O)[C@H]2O)c(-c2ccc(O)c(O)c2)oc2cc(O)cc(O)c12
REMARK SMILES IDX 4 1 3 2 16 3 25 4 2 5 26 6 1 7 33 8 27 9 31 10 28 11 30 12
REMARK SMILES IDX 17 13 18 14 19 15 20 16 24 17 22 18 21 19 23 21 32 23 29 25
REMARK SMILES IDX 5 27 14 28 6 29 12 30 7 31 10 32 15 33 13 35 8 37 9 38 11 40
REMARK H PARENT 21 20 23 22 32 24 29 26 15 34 13 36 9 39 11 41
REMARK Flexibility Score: inf
ROOT
ATOM      1  O   UNL     1     -48.280 -17.400   5.462  1.00  0.00    -0.454 OA
ENDROOT
BRANCH   1   2
ATOM      2  C   UNL     1     -48.509 -16.008   5.511  1.00  0.00     0.214 A 
ATOM      3  C   UNL     1     -47.508 -15.015   5.283  1.00  0.00     0.180 A 
ATOM      4  O   UNL     1     -47.806 -13.721   5.315  1.00  0.00    -0.452 OA
ATOM      5  C   UNL     1     -49.829 -15.535   5.738  1.00  0.00     0.239 A 
ATOM      6  C   UNL     1     -49.036 -13.268   5.501  1.00  0.00     0.146 A 
ATOM      7  O   UNL     1     -50.742 -16.328   6.022  1.00  0.00    -0.285 OA
ATOM      8  C   UNL     1     -50.102 -14.157   5.705  1.00  0.00     0.111 A 
ATOM      9  C   UNL     1     -49.236 -11.865   5.429  1.00  0.00     0.094 A 
ATOM     10  C   UNL     1     -51.389 -13.595   5.876  1.00  0.00     0.134 A 
ATOM     11  C   UNL     1     -50.492 -11.336   5.623  1.00  0.00     0.123 A 
ATOM     12  C   UNL     1     -51.569 -12.201   5.855  1.00  0.00     0.093 A 
BRANCH   3  13
ATOM     13  C   UNL     1     -46.046 -15.249   5.087  1.00  0.00     0.025 A 
ATOM     14  C   UNL     1     -45.620 -15.571   3.794  1.00  0.00     0.016 A 
ATOM     15  C   UNL     1     -44.292 -15.968   3.548  1.00  0.00     0.051 A 
ATOM     16  C   UNL     1     -43.401 -16.116   4.628  1.00  0.00     0.157 A 
ATOM     17  C   UNL     1     -45.164 -15.422   6.164  1.00  0.00     0.062 A 
ATOM     18  C   UNL     1     -43.840 -15.874   5.924  1.00  0.00     0.158 A 
BRANCH  16  19
ATOM     19  O   UNL     1     -42.104 -16.578   4.406  1.00  0.00    -0.504 OA
ATOM     20  H   UNL     1     -41.883 -17.529   4.136  1.00  0.00     0.293 HD
ENDBRANCH  16  19
BRANCH  18  21
ATOM     21  O   UNL     1     -42.990 -16.124   7.027  1.00  0.00    -0.504 OA
ATOM     22  H   UNL     1     -42.007 -15.931   6.975  1.00  0.00     0.293 HD
ENDBRANCH  18  21
ENDBRANCH   3  13
BRANCH  10  23
ATOM     23  O   UNL     1     -52.507 -14.423   6.041  1.00  0.00    -0.507 OA
ATOM     24  H   UNL     1     -53.111 -14.690   5.287  1.00  0.00     0.293 HD
ENDBRANCH  10  23
BRANCH  11  25
ATOM     25  O   UNL     1     -50.685  -9.982   5.407  1.00  0.00    -0.508 OA
ATOM     26  H   UNL     1     -51.613  -9.569   5.595  1.00  0.00     0.293 HD
ENDBRANCH  11  25
ENDBRANCH   1   2
BRANCH   1  27
ATOM     27  C   UNL     1     -47.969 -18.231   6.594  1.00  0.00     0.339 C 
ATOM     28  C   UNL     1     -47.201 -19.476   6.109  1.00  0.00     0.214 C 
ATOM     29  O   UNL     1     -47.421 -17.424   7.589  1.00  0.00    -0.332 OA
ATOM     30  C   UNL     1     -45.733 -19.603   6.634  1.00  0.00     0.180 C 
ATOM     31  C   UNL     1     -46.417 -17.929   8.445  1.00  0.00     0.179 C 
ATOM     32  C   UNL     1     -45.457 -19.098   8.055  1.00  0.00     0.177 C 
BRANCH  28  33
ATOM     33  O   UNL     1     -47.941 -20.637   6.408  1.00  0.00    -0.384 OA
ATOM     34  H   UNL     1     -48.385 -20.395   7.243  1.00  0.00     0.211 HD
ENDBRANCH  28  33
BRANCH  30  35
ATOM     35  O   UNL     1     -44.885 -19.035   5.705  1.00  0.00    -0.387 OA
ATOM     36  H   UNL     1     -44.462 -18.255   6.203  1.00  0.00     0.211 HD
ENDBRANCH  30  35
BRANCH  31  37
ATOM     37  C   UNL     1     -46.947 -18.080   9.898  1.00  0.00     0.191 C 
BRANCH  37  38
ATOM     38  O   UNL     1     -46.985 -16.898  10.672  1.00  0.00    -0.394 OA
ATOM     39  H   UNL     1     -47.790 -16.984  11.274  1.00  0.00     0.210 HD
ENDBRANCH  37  38
ENDBRANCH  31  37
BRANCH  32  40
ATOM     40  O   UNL     1     -44.116 -18.735   8.271  1.00  0.00    -0.387 OA
ATOM     41  H   UNL     1     -43.514 -19.383   7.811  1.00  0.00     0.211 HD
ENDBRANCH  32  40
ENDBRANCH   1  27
TORSDOF 12
ENDMDL
