MODEL 1
REMARK VINA RESULT:   -10.714      0.000      0.000
REMARK INTER + INTRA:         -11.923
REMARK INTER:                 -11.654
REMARK INTRA:                  -0.270
REMARK UNBOUND:                -0.270
REMARK SMILES C[C@H]1[C@H](C)CC[C@]2(C(=O)[O-])CC[C@]3(C)C(=CC[C@H]4[C@]5(C)CC[C@H](O)C(C)(C)[C@@H]5CC[C@]43C)[C@H]12
REMARK SMILES IDX 7 1 6 2 11 3 33 4 5 5 12 6 15 7 2 8 3 9 13 10 16 11 1 12
REMARK SMILES IDX 4 13 14 14 31 15 17 16 18 17 30 18 32 19 19 20 29 21 28 22
REMARK SMILES IDX 21 23 20 24 25 25 22 26 23 27 26 28 27 29 8 30 9 31 10 32
REMARK SMILES IDX 24 33
REMARK H PARENT 24 34
REMARK Flexibility Score: inf
ROOT
ATOM      1  C   UNL     1     -37.005  36.370  46.293  1.00  0.00     0.017 C 
ATOM      2  C   UNL     1     -37.557  35.154  47.103  1.00  0.00     0.014 C 
ATOM      3  C   UNL     1     -35.706  36.930  46.964  1.00  0.00     0.014 C 
ATOM      4  C   UNL     1     -38.145  37.475  46.127  1.00  0.00     0.030 C 
ATOM      5  C   UNL     1     -39.076  34.950  46.900  1.00  0.00     0.004 C 
ATOM      6  C   UNL     1     -35.593  38.485  46.970  1.00  0.00     0.013 C 
ATOM      7  C   UNL     1     -37.675  38.788  45.600  1.00  0.00    -0.063 C 
ATOM      8  C   UNL     1     -39.051  37.534  47.380  1.00  0.00    -0.003 C 
ATOM      9  C   UNL     1     -39.830  36.164  47.569  1.00  0.00    -0.011 C 
ATOM     10  C   UNL     1     -36.264  39.313  45.817  1.00  0.00    -0.006 C 
ATOM     11  C   UNL     1     -38.434  39.426  44.675  1.00  0.00    -0.027 C 
ATOM     12  C   UNL     1     -40.007  38.739  47.459  1.00  0.00     0.008 C 
ATOM     13  C   UNL     1     -40.049  35.869  49.084  1.00  0.00     0.008 C 
ATOM     14  C   UNL     1     -36.461  40.739  46.514  1.00  0.00     0.017 C 
ATOM     15  C   UNL     1     -35.474  39.394  44.405  1.00  0.00    -0.020 C 
ATOM     16  C   UNL     1     -37.784  40.224  43.598  1.00  0.00     0.032 C 
ATOM     17  C   UNL     1     -36.463  39.498  43.146  1.00  0.00     0.006 C 
ATOM     18  C   UNL     1     -34.573  40.661  44.403  1.00  0.00     0.008 C 
ATOM     19  C   UNL     1     -34.528  38.166  44.188  1.00  0.00     0.012 C 
ATOM     20  C   UNL     1     -35.864  39.984  41.740  1.00  0.00    -0.025 C 
ATOM     21  C   UNL     1     -33.891  40.981  43.078  1.00  0.00     0.005 C 
ATOM     22  C   UNL     1     -34.900  41.210  41.900  1.00  0.00     0.003 C 
ATOM     23  C   UNL     1     -35.072  38.845  41.046  1.00  0.00     0.010 C 
ATOM     24  C   UNL     1     -37.075  40.353  40.808  1.00  0.00     0.012 C 
ATOM     25  C   UNL     1     -34.188  41.696  40.546  1.00  0.00    -0.006 C 
ATOM     26  C   UNL     1     -34.646  39.175  39.623  1.00  0.00     0.033 C 
ATOM     27  C   UNL     1     -33.856  40.523  39.506  1.00  0.00     0.120 C 
ATOM     28  C   UNL     1     -32.875  42.488  40.850  1.00  0.00     0.014 C 
ATOM     29  C   UNL     1     -35.099  42.760  39.866  1.00  0.00     0.014 C 
ENDROOT
BRANCH   1  30
ATOM     30  C   UNL     1     -36.685  35.736  44.921  1.00  0.00     0.048 C 
ATOM     31  O   UNL     1     -37.182  36.136  43.804  1.00  0.00    -0.550 OA
ATOM     32  O   UNL     1     -35.744  34.673  44.841  1.00  0.00    -0.550 OA
ENDBRANCH   1  30
BRANCH  27  33
ATOM     33  O   UNL     1     -32.465  40.237  39.492  1.00  0.00    -0.393 OA
ATOM     34  H   UNL     1     -32.163  39.939  40.400  1.00  0.00     0.210 HD
ENDBRANCH  27  33
TORSDOF 2
ENDMDL
MODEL 2
REMARK VINA RESULT:   -10.172      1.788      8.093
REMARK INTER + INTRA:         -11.334
REMARK INTER:                 -11.001
REMARK INTRA:                  -0.333
REMARK UNBOUND:                -0.270
REMARK SMILES C[C@H]1[C@H](C)CC[C@]2(C(=O)[O-])CC[C@]3(C)C(=CC[C@H]4[C@]5(C)CC[C@H](O)C(C)(C)[C@@H]5CC[C@]43C)[C@H]12
REMARK SMILES IDX 7 1 6 2 11 3 33 4 5 5 12 6 15 7 2 8 3 9 13 10 16 11 1 12
REMARK SMILES IDX 4 13 14 14 31 15 17 16 18 17 30 18 32 19 19 20 29 21 28 22
REMARK SMILES IDX 21 23 20 24 25 25 22 26 23 27 26 28 27 29 8 30 9 31 10 32
REMARK SMILES IDX 24 33
REMARK H PARENT 24 34
REMARK Flexibility Score: inf
ROOT
ATOM      1  C   UNL     1     -32.536  41.599  40.745  1.00  0.00     0.017 C 
ATOM      2  C   UNL     1     -31.413  42.271  39.892  1.00  0.00     0.014 C 
ATOM      3  C   UNL     1     -33.054  40.300  40.043  1.00  0.00     0.014 C 
ATOM      4  C   UNL     1     -33.699  42.653  41.038  1.00  0.00     0.030 C 
ATOM      5  C   UNL     1     -31.294  43.788  40.161  1.00  0.00     0.004 C 
ATOM      6  C   UNL     1     -34.595  40.083  40.125  1.00  0.00     0.013 C 
ATOM      7  C   UNL     1     -34.943  42.071  41.618  1.00  0.00    -0.063 C 
ATOM      8  C   UNL     1     -33.896  43.612  39.839  1.00  0.00    -0.003 C 
ATOM      9  C   UNL     1     -32.595  44.490  39.608  1.00  0.00    -0.011 C 
ATOM     10  C   UNL     1     -35.388  40.640  41.361  1.00  0.00    -0.006 C 
ATOM     11  C   UNL     1     -35.568  42.740  42.619  1.00  0.00    -0.027 C 
ATOM     12  C   UNL     1     -35.163  44.487  39.884  1.00  0.00     0.008 C 
ATOM     13  C   UNL     1     -32.412  44.801  38.092  1.00  0.00     0.008 C 
ATOM     14  C   UNL     1     -36.866  40.773  40.763  1.00  0.00     0.017 C 
ATOM     15  C   UNL     1     -35.328  39.779  42.732  1.00  0.00    -0.020 C 
ATOM     16  C   UNL     1     -36.251  41.987  43.707  1.00  0.00     0.032 C 
ATOM     17  C   UNL     1     -35.414  40.697  44.044  1.00  0.00     0.006 C 
ATOM     18  C   UNL     1     -36.531  38.795  42.764  1.00  0.00     0.008 C 
ATOM     19  C   UNL     1     -34.030  38.909  42.824  1.00  0.00     0.012 C 
ATOM     20  C   UNL     1     -35.770  40.000  45.445  1.00  0.00    -0.025 C 
ATOM     21  C   UNL     1     -36.721  38.031  44.069  1.00  0.00     0.005 C 
ATOM     22  C   UNL     1     -36.938  38.965  45.309  1.00  0.00     0.003 C 
ATOM     23  C   UNL     1     -34.539  39.254  46.026  1.00  0.00     0.010 C 
ATOM     24  C   UNL     1     -36.155  41.137  46.459  1.00  0.00     0.012 C 
ATOM     25  C   UNL     1     -37.289  38.157  46.652  1.00  0.00    -0.006 C 
ATOM     26  C   UNL     1     -34.749  38.739  47.441  1.00  0.00     0.033 C 
ATOM     27  C   UNL     1     -36.033  37.855  47.599  1.00  0.00     0.120 C 
ATOM     28  C   UNL     1     -38.013  36.810  46.329  1.00  0.00     0.014 C 
ATOM     29  C   UNL     1     -38.364  38.961  47.441  1.00  0.00     0.014 C 
ENDROOT
BRANCH   1  30
ATOM     30  C   UNL     1     -31.796  41.257  42.057  1.00  0.00     0.048 C 
ATOM     31  O   UNL     1     -32.079  41.769  43.203  1.00  0.00    -0.550 OA
ATOM     32  O   UNL     1     -30.764  40.279  42.047  1.00  0.00    -0.550 OA
ENDBRANCH   1  30
BRANCH  27  33
ATOM     33  O   UNL     1     -35.659  36.488  47.524  1.00  0.00    -0.393 OA
ATOM     34  H   UNL     1     -36.309  35.981  46.952  1.00  0.00     0.210 HD
ENDBRANCH  27  33
TORSDOF 2
ENDMDL
MODEL 3
REMARK VINA RESULT:    -7.930      1.549      2.080
REMARK INTER + INTRA:          -8.895
REMARK INTER:                  -8.542
REMARK INTRA:                  -0.354
REMARK UNBOUND:                -0.270
REMARK SMILES C[C@H]1[C@H](C)CC[C@]2(C(=O)[O-])CC[C@]3(C)C(=CC[C@H]4[C@]5(C)CC[C@H](O)C(C)(C)[C@@H]5CC[C@]43C)[C@H]12
REMARK SMILES IDX 7 1 6 2 11 3 33 4 5 5 12 6 15 7 2 8 3 9 13 10 16 11 1 12
REMARK SMILES IDX 4 13 14 14 31 15 17 16 18 17 30 18 32 19 19 20 29 21 28 22
REMARK SMILES IDX 21 23 20 24 25 25 22 26 23 27 26 28 27 29 8 30 9 31 10 32
REMARK SMILES IDX 24 33
REMARK H PARENT 24 34
REMARK Flexibility Score: inf
ROOT
ATOM      1  C   UNL     1     -37.299  38.539  46.831  1.00  0.00     0.017 C 
ATOM      2  C   UNL     1     -37.814  37.697  48.042  1.00  0.00     0.014 C 
ATOM      3  C   UNL     1     -36.866  39.967  47.301  1.00  0.00     0.014 C 
ATOM      4  C   UNL     1     -38.409  38.571  45.683  1.00  0.00     0.030 C 
ATOM      5  C   UNL     1     -38.791  36.579  47.613  1.00  0.00     0.004 C 
ATOM      6  C   UNL     1     -37.257  41.121  46.330  1.00  0.00     0.013 C 
ATOM      7  C   UNL     1     -38.149  39.549  44.587  1.00  0.00    -0.063 C 
ATOM      8  C   UNL     1     -39.834  38.593  46.286  1.00  0.00    -0.003 C 
ATOM      9  C   UNL     1     -40.118  37.257  47.093  1.00  0.00    -0.011 C 
ATOM     10  C   UNL     1     -37.359  40.832  44.789  1.00  0.00    -0.006 C 
ATOM     11  C   UNL     1     -38.391  39.169  43.308  1.00  0.00    -0.027 C 
ATOM     12  C   UNL     1     -40.973  38.906  45.298  1.00  0.00     0.008 C 
ATOM     13  C   UNL     1     -41.062  37.543  48.300  1.00  0.00     0.008 C 
ATOM     14  C   UNL     1     -38.342  41.997  44.306  1.00  0.00     0.017 C 
ATOM     15  C   UNL     1     -35.974  40.775  43.952  1.00  0.00    -0.020 C 
ATOM     16  C   UNL     1     -37.522  39.666  42.205  1.00  0.00     0.032 C 
ATOM     17  C   UNL     1     -36.038  39.752  42.718  1.00  0.00     0.006 C 
ATOM     18  C   UNL     1     -35.673  42.188  43.377  1.00  0.00     0.008 C 
ATOM     19  C   UNL     1     -34.756  40.384  44.853  1.00  0.00     0.012 C 
ATOM     20  C   UNL     1     -34.924  39.866  41.569  1.00  0.00    -0.025 C 
ATOM     21  C   UNL     1     -34.493  42.269  42.415  1.00  0.00     0.005 C 
ATOM     22  C   UNL     1     -34.656  41.354  41.153  1.00  0.00     0.003 C 
ATOM     23  C   UNL     1     -33.577  39.252  42.032  1.00  0.00     0.010 C 
ATOM     24  C   UNL     1     -35.425  39.031  40.335  1.00  0.00     0.012 C 
ATOM     25  C   UNL     1     -33.486  41.557  40.073  1.00  0.00    -0.006 C 
ATOM     26  C   UNL     1     -32.538  39.151  40.926  1.00  0.00     0.033 C 
ATOM     27  C   UNL     1     -32.281  40.508  40.186  1.00  0.00     0.120 C 
ATOM     28  C   UNL     1     -32.902  43.005  40.136  1.00  0.00     0.014 C 
ATOM     29  C   UNL     1     -34.115  41.486  38.650  1.00  0.00     0.014 C 
ENDROOT
BRANCH   1  30
ATOM     30  C   UNL     1     -36.077  37.722  46.356  1.00  0.00     0.048 C 
ATOM     31  O   UNL     1     -36.027  37.070  45.248  1.00  0.00    -0.550 OA
ATOM     32  O   UNL     1     -34.892  37.708  47.142  1.00  0.00    -0.550 OA
ENDBRANCH   1  30
BRANCH  27  33
ATOM     33  O   UNL     1     -31.127  41.119  40.743  1.00  0.00    -0.393 OA
ATOM     34  H   UNL     1     -31.388  41.744  41.484  1.00  0.00     0.210 HD
ENDBRANCH  27  33
TORSDOF 2
ENDMDL
MODEL 4
REMARK VINA RESULT:    -7.907      1.608      7.741
REMARK INTER + INTRA:          -8.870
REMARK INTER:                  -8.517
REMARK INTRA:                  -0.353
REMARK UNBOUND:                -0.270
REMARK SMILES C[C@H]1[C@H](C)CC[C@]2(C(=O)[O-])CC[C@]3(C)C(=CC[C@H]4[C@]5(C)CC[C@H](O)C(C)(C)[C@@H]5CC[C@]43C)[C@H]12
REMARK SMILES IDX 7 1 6 2 11 3 33 4 5 5 12 6 15 7 2 8 3 9 13 10 16 11 1 12
REMARK SMILES IDX 4 13 14 14 31 15 17 16 18 17 30 18 32 19 19 20 29 21 28 22
REMARK SMILES IDX 21 23 20 24 25 25 22 26 23 27 26 28 27 29 8 30 9 31 10 32
REMARK SMILES IDX 24 33
REMARK H PARENT 24 34
REMARK Flexibility Score: inf
ROOT
ATOM      1  C   UNL     1     -34.873  41.711  40.272  1.00  0.00     0.017 C 
ATOM      2  C   UNL     1     -34.206  42.395  39.036  1.00  0.00     0.014 C 
ATOM      3  C   UNL     1     -36.294  41.171  39.899  1.00  0.00     0.014 C 
ATOM      4  C   UNL     1     -34.895  42.723  41.506  1.00  0.00     0.030 C 
ATOM      5  C   UNL     1     -33.148  43.446  39.441  1.00  0.00     0.004 C 
ATOM      6  C   UNL     1     -37.377  41.372  41.001  1.00  0.00     0.013 C 
ATOM      7  C   UNL     1     -35.731  42.287  42.661  1.00  0.00    -0.063 C 
ATOM      8  C   UNL     1     -35.109  44.179  41.028  1.00  0.00    -0.003 C 
ATOM      9  C   UNL     1     -33.892  44.655  40.129  1.00  0.00    -0.011 C 
ATOM     10  C   UNL     1     -36.949  41.388  42.512  1.00  0.00    -0.006 C 
ATOM     11  C   UNL     1     -35.251  42.470  43.916  1.00  0.00    -0.027 C 
ATOM     12  C   UNL     1     -35.427  45.205  42.132  1.00  0.00     0.008 C 
ATOM     13  C   UNL     1     -34.382  45.653  39.036  1.00  0.00     0.008 C 
ATOM     14  C   UNL     1     -38.147  42.210  43.179  1.00  0.00     0.017 C 
ATOM     15  C   UNL     1     -36.680  39.958  43.223  1.00  0.00    -0.020 C 
ATOM     16  C   UNL     1     -35.554  41.477  44.984  1.00  0.00     0.032 C 
ATOM     17  C   UNL     1     -35.550  40.033  44.359  1.00  0.00     0.006 C 
ATOM     18  C   UNL     1     -37.995  39.474  43.897  1.00  0.00     0.008 C 
ATOM     19  C   UNL     1     -36.268  38.855  42.192  1.00  0.00     0.012 C 
ATOM     20  C   UNL     1     -35.446  38.832  45.418  1.00  0.00    -0.025 C 
ATOM     21  C   UNL     1     -37.870  38.224  44.761  1.00  0.00     0.005 C 
ATOM     22  C   UNL     1     -36.854  38.385  45.943  1.00  0.00     0.003 C 
ATOM     23  C   UNL     1     -34.758  37.591  44.790  1.00  0.00     0.010 C 
ATOM     24  C   UNL     1     -34.544  39.321  46.607  1.00  0.00     0.012 C 
ATOM     25  C   UNL     1     -36.839  37.124  46.937  1.00  0.00    -0.006 C 
ATOM     26  C   UNL     1     -34.451  36.489  45.792  1.00  0.00     0.033 C 
ATOM     27  C   UNL     1     -35.698  36.042  46.629  1.00  0.00     0.120 C 
ATOM     28  C   UNL     1     -38.226  36.404  46.957  1.00  0.00     0.014 C 
ATOM     29  C   UNL     1     -36.687  37.650  48.395  1.00  0.00     0.014 C 
ENDROOT
BRANCH   1  30
ATOM     30  C   UNL     1     -33.902  40.545  40.567  1.00  0.00     0.048 C 
ATOM     31  O   UNL     1     -33.158  40.470  41.614  1.00  0.00    -0.550 OA
ATOM     32  O   UNL     1     -33.839  39.440  39.674  1.00  0.00    -0.550 OA
ENDBRANCH   1  30
BRANCH  27  33
ATOM     33  O   UNL     1     -36.252  34.877  46.036  1.00  0.00    -0.393 OA
ATOM     34  H   UNL     1     -35.676  34.568  45.274  1.00  0.00     0.210 HD
ENDBRANCH  27  33
TORSDOF 2
ENDMDL
