MODEL 1
REMARK VINA RESULT:    -4.233      0.000      0.000
REMARK INTER + INTRA:         -12.969
REMARK INTER:                  -9.181
REMARK INTRA:                  -3.787
REMARK UNBOUND:                -3.787
REMARK SMILES CCCCCCCCCCCCCCCCCCCCCC(=O)[O-]
REMARK SMILES IDX 12 1 11 2 10 3 9 4 8 5 7 6 6 7 5 8 4 9 3 10 2 11 1 12 13 13
REMARK SMILES IDX 14 14 15 15 16 16 17 17 18 18 19 19 20 20 21 21 22 22 23 23
REMARK SMILES IDX 24 24
REMARK H PARENT
REMARK Flexibility Score: inf
ROOT
ATOM      1  C   UNL     1      85.717 125.632 128.679  1.00  0.00     0.000 C 
ENDROOT
BRANCH   1   2
ATOM      2  C   UNL     1      85.065 125.534 130.068  1.00  0.00     0.000 C 
BRANCH   2   3
ATOM      3  C   UNL     1      83.587 125.963 130.067  1.00  0.00     0.000 C 
BRANCH   3   4
ATOM      4  C   UNL     1      82.605 124.797 129.819  1.00  0.00    -0.000 C 
BRANCH   4   5
ATOM      5  C   UNL     1      82.824 123.633 130.802  1.00  0.00    -0.000 C 
BRANCH   5   6
ATOM      6  C   UNL     1      83.238 122.333 130.096  1.00  0.00    -0.000 C 
BRANCH   6   7
ATOM      7  C   UNL     1      84.558 121.759 130.641  1.00  0.00    -0.000 C 
BRANCH   7   8
ATOM      8  C   UNL     1      85.022 122.452 131.936  1.00  0.00    -0.000 C 
BRANCH   8   9
ATOM      9  C   UNL     1      86.476 122.152 132.343  1.00  0.00    -0.000 C 
BRANCH   9  10
ATOM     10  C   UNL     1      87.496 123.054 131.626  1.00  0.00    -0.000 C 
BRANCH  10  11
ATOM     11  C   UNL     1      88.632 122.252 130.971  1.00  0.00    -0.003 C 
ATOM     12  C   UNL     1      88.128 121.271 129.913  1.00  0.00     0.004 C 
ENDBRANCH  10  11
ENDBRANCH   9  10
ENDBRANCH   8   9
ENDBRANCH   7   8
ENDBRANCH   6   7
ENDBRANCH   5   6
ENDBRANCH   4   5
ENDBRANCH   3   4
ENDBRANCH   2   3
ENDBRANCH   1   2
BRANCH   1  13
ATOM     13  C   UNL     1      86.297 124.292 128.199  1.00  0.00     0.000 C 
BRANCH  13  14
ATOM     14  C   UNL     1      85.316 123.503 127.314  1.00  0.00     0.000 C 
BRANCH  14  15
ATOM     15  C   UNL     1      84.235 124.412 126.689  1.00  0.00     0.000 C 
BRANCH  15  16
ATOM     16  C   UNL     1      83.919 124.084 125.220  1.00  0.00     0.000 C 
BRANCH  16  17
ATOM     17  C   UNL     1      84.695 122.864 124.700  1.00  0.00     0.000 C 
BRANCH  17  18
ATOM     18  C   UNL     1      83.832 121.928 123.833  1.00  0.00     0.000 C 
BRANCH  18  19
ATOM     19  C   UNL     1      82.581 121.354 124.527  1.00  0.00     0.000 C 
BRANCH  19  20
ATOM     20  C   UNL     1      82.814 120.089 125.376  1.00  0.00     0.006 C 
BRANCH  20  21
ATOM     21  C   UNL     1      82.898 120.355 126.890  1.00  0.00     0.053 C 
BRANCH  21  22
ATOM     22  C   UNL     1      84.145 119.796 127.508  1.00  0.00     0.041 C 
ATOM     23  O   UNL     1      85.275 120.096 127.041  1.00  0.00    -0.550 OA
ATOM     24  O   UNL     1      84.056 118.908 128.574  1.00  0.00    -0.550 OA
ENDBRANCH  21  22
ENDBRANCH  20  21
ENDBRANCH  19  20
ENDBRANCH  18  19
ENDBRANCH  17  18
ENDBRANCH  16  17
ENDBRANCH  15  16
ENDBRANCH  14  15
ENDBRANCH  13  14
ENDBRANCH   1  13
TORSDOF 20
ENDMDL
MODEL 2
REMARK VINA RESULT:    -4.105      1.938      4.453
REMARK INTER + INTRA:         -12.691
REMARK INTER:                  -9.028
REMARK INTRA:                  -3.664
REMARK UNBOUND:                -3.787
REMARK SMILES CCCCCCCCCCCCCCCCCCCCCC(=O)[O-]
REMARK SMILES IDX 12 1 11 2 10 3 9 4 8 5 7 6 6 7 5 8 4 9 3 10 2 11 1 12 13 13
REMARK SMILES IDX 14 14 15 15 16 16 17 17 18 18 19 19 20 20 21 21 22 22 23 23
REMARK SMILES IDX 24 24
REMARK H PARENT
REMARK Flexibility Score: inf
ROOT
ATOM      1  C   UNL     1      88.123 122.718 130.048  1.00  0.00     0.000 C 
ENDROOT
BRANCH   1   2
ATOM      2  C   UNL     1      87.996 124.002 130.885  1.00  0.00     0.000 C 
BRANCH   2   3
ATOM      3  C   UNL     1      87.083 123.828 132.112  1.00  0.00     0.000 C 
BRANCH   3   4
ATOM      4  C   UNL     1      86.263 125.091 132.457  1.00  0.00    -0.000 C 
BRANCH   4   5
ATOM      5  C   UNL     1      84.809 124.755 132.835  1.00  0.00    -0.000 C 
BRANCH   5   6
ATOM      6  C   UNL     1      84.347 123.406 132.262  1.00  0.00    -0.000 C 
BRANCH   6   7
ATOM      7  C   UNL     1      82.901 123.452 131.736  1.00  0.00    -0.000 C 
BRANCH   7   8
ATOM      8  C   UNL     1      82.491 124.849 131.234  1.00  0.00    -0.000 C 
BRANCH   8   9
ATOM      9  C   UNL     1      82.777 125.109 129.744  1.00  0.00    -0.000 C 
BRANCH   9  10
ATOM     10  C   UNL     1      84.044 125.952 129.517  1.00  0.00    -0.000 C 
BRANCH  10  11
ATOM     11  C   UNL     1      85.081 125.232 128.641  1.00  0.00    -0.003 C 
ATOM     12  C   UNL     1      86.319 126.086 128.370  1.00  0.00     0.004 C 
ENDBRANCH  10  11
ENDBRANCH   9  10
ENDBRANCH   8   9
ENDBRANCH   7   8
ENDBRANCH   6   7
ENDBRANCH   5   6
ENDBRANCH   4   5
ENDBRANCH   3   4
ENDBRANCH   2   3
ENDBRANCH   1   2
BRANCH   1  13
ATOM     13  C   UNL     1      88.576 121.509 130.880  1.00  0.00     0.000 C 
BRANCH  13  14
ATOM     14  C   UNL     1      87.418 120.554 131.221  1.00  0.00     0.000 C 
BRANCH  14  15
ATOM     15  C   UNL     1      86.630 120.124 129.964  1.00  0.00     0.000 C 
BRANCH  15  16
ATOM     16  C   UNL     1      85.169 120.608 129.950  1.00  0.00     0.000 C 
BRANCH  16  17
ATOM     17  C   UNL     1      84.911 121.699 128.898  1.00  0.00     0.000 C 
BRANCH  17  18
ATOM     18  C   UNL     1      83.444 121.752 128.436  1.00  0.00     0.000 C 
BRANCH  18  19
ATOM     19  C   UNL     1      83.238 121.925 126.918  1.00  0.00     0.000 C 
BRANCH  19  20
ATOM     20  C   UNL     1      82.860 123.345 126.456  1.00  0.00     0.006 C 
BRANCH  20  21
ATOM     21  C   UNL     1      83.791 123.922 125.375  1.00  0.00     0.053 C 
BRANCH  21  22
ATOM     22  C   UNL     1      84.390 122.861 124.499  1.00  0.00     0.041 C 
ATOM     23  O   UNL     1      85.602 122.544 124.624  1.00  0.00    -0.550 OA
ATOM     24  O   UNL     1      83.619 122.254 123.515  1.00  0.00    -0.550 OA
ENDBRANCH  21  22
ENDBRANCH  20  21
ENDBRANCH  19  20
ENDBRANCH  18  19
ENDBRANCH  17  18
ENDBRANCH  16  17
ENDBRANCH  15  16
ENDBRANCH  14  15
ENDBRANCH  13  14
ENDBRANCH   1  13
TORSDOF 20
ENDMDL
MODEL 3
REMARK VINA RESULT:    -4.076      1.986      3.599
REMARK INTER + INTRA:         -12.629
REMARK INTER:                  -9.052
REMARK INTRA:                  -3.576
REMARK UNBOUND:                -3.787
REMARK SMILES CCCCCCCCCCCCCCCCCCCCCC(=O)[O-]
REMARK SMILES IDX 12 1 11 2 10 3 9 4 8 5 7 6 6 7 5 8 4 9 3 10 2 11 1 12 13 13
REMARK SMILES IDX 14 14 15 15 16 16 17 17 18 18 19 19 20 20 21 21 22 22 23 23
REMARK SMILES IDX 24 24
REMARK H PARENT
REMARK Flexibility Score: inf
ROOT
ATOM      1  C   UNL     1      84.340 123.554 127.782  1.00  0.00     0.000 C 
ENDROOT
BRANCH   1   2
ATOM      2  C   UNL     1      84.893 124.956 127.482  1.00  0.00     0.000 C 
BRANCH   2   3
ATOM      3  C   UNL     1      85.298 125.725 128.753  1.00  0.00     0.000 C 
BRANCH   3   4
ATOM      4  C   UNL     1      84.157 125.858 129.785  1.00  0.00    -0.000 C 
BRANCH   4   5
ATOM      5  C   UNL     1      84.603 125.448 131.200  1.00  0.00    -0.000 C 
BRANCH   5   6
ATOM      6  C   UNL     1      85.558 124.245 131.194  1.00  0.00    -0.000 C 
BRANCH   6   7
ATOM      7  C   UNL     1      86.863 124.523 131.961  1.00  0.00    -0.000 C 
BRANCH   7   8
ATOM      8  C   UNL     1      88.115 124.038 131.206  1.00  0.00    -0.000 C 
BRANCH   8   9
ATOM      9  C   UNL     1      87.828 123.325 129.872  1.00  0.00    -0.000 C 
BRANCH   9  10
ATOM     10  C   UNL     1      88.262 121.849 129.878  1.00  0.00    -0.000 C 
BRANCH  10  11
ATOM     11  C   UNL     1      88.355 121.270 131.299  1.00  0.00    -0.003 C 
ATOM     12  C   UNL     1      87.052 120.612 131.754  1.00  0.00     0.004 C 
ENDBRANCH  10  11
ENDBRANCH   9  10
ENDBRANCH   8   9
ENDBRANCH   7   8
ENDBRANCH   6   7
ENDBRANCH   5   6
ENDBRANCH   4   5
ENDBRANCH   3   4
ENDBRANCH   2   3
ENDBRANCH   1   2
BRANCH   1  13
ATOM     13  C   UNL     1      82.822 123.455 127.565  1.00  0.00     0.000 C 
BRANCH  13  14
ATOM     14  C   UNL     1      82.107 122.696 128.698  1.00  0.00     0.000 C 
BRANCH  14  15
ATOM     15  C   UNL     1      83.103 122.094 129.713  1.00  0.00     0.000 C 
BRANCH  15  16
ATOM     16  C   UNL     1      83.244 120.565 129.613  1.00  0.00     0.000 C 
BRANCH  16  17
ATOM     17  C   UNL     1      84.582 120.127 128.995  1.00  0.00     0.000 C 
BRANCH  17  18
ATOM     18  C   UNL     1      84.415 119.073 127.886  1.00  0.00     0.000 C 
BRANCH  18  19
ATOM     19  C   UNL     1      83.430 119.451 126.761  1.00  0.00     0.000 C 
BRANCH  19  20
ATOM     20  C   UNL     1      83.922 120.535 125.784  1.00  0.00     0.006 C 
BRANCH  20  21
ATOM     21  C   UNL     1      82.875 120.959 124.737  1.00  0.00     0.053 C 
BRANCH  21  22
ATOM     22  C   UNL     1      83.402 121.977 123.770  1.00  0.00     0.041 C 
ATOM     23  O   UNL     1      83.140 121.882 122.542  1.00  0.00    -0.550 OA
ATOM     24  O   UNL     1      84.220 123.007 124.219  1.00  0.00    -0.550 OA
ENDBRANCH  21  22
ENDBRANCH  20  21
ENDBRANCH  19  20
ENDBRANCH  18  19
ENDBRANCH  17  18
ENDBRANCH  16  17
ENDBRANCH  15  16
ENDBRANCH  14  15
ENDBRANCH  13  14
ENDBRANCH   1  13
TORSDOF 20
ENDMDL
MODEL 4
REMARK VINA RESULT:    -4.075      1.836      6.159
REMARK INTER + INTRA:         -12.626
REMARK INTER:                  -8.977
REMARK INTRA:                  -3.649
REMARK UNBOUND:                -3.787
REMARK SMILES CCCCCCCCCCCCCCCCCCCCCC(=O)[O-]
REMARK SMILES IDX 12 1 11 2 10 3 9 4 8 5 7 6 6 7 5 8 4 9 3 10 2 11 1 12 13 13
REMARK SMILES IDX 14 14 15 15 16 16 17 17 18 18 19 19 20 20 21 21 22 22 23 23
REMARK SMILES IDX 24 24
REMARK H PARENT
REMARK Flexibility Score: inf
ROOT
ATOM      1  C   UNL     1      86.271 123.932 128.397  1.00  0.00     0.000 C 
ENDROOT
BRANCH   1   2
ATOM      2  C   UNL     1      85.558 122.575 128.276  1.00  0.00     0.000 C 
BRANCH   2   3
ATOM      3  C   UNL     1      84.030 122.711 128.152  1.00  0.00     0.000 C 
BRANCH   3   4
ATOM      4  C   UNL     1      83.272 121.383 128.370  1.00  0.00    -0.000 C 
BRANCH   4   5
ATOM      5  C   UNL     1      84.183 120.156 128.188  1.00  0.00    -0.000 C 
BRANCH   5   6
ATOM      6  C   UNL     1      84.027 119.504 126.806  1.00  0.00    -0.000 C 
BRANCH   6   7
ATOM      7  C   UNL     1      82.566 119.493 126.319  1.00  0.00    -0.000 C 
BRANCH   7   8
ATOM      8  C   UNL     1      82.438 119.766 124.809  1.00  0.00    -0.000 C 
BRANCH   8   9
ATOM      9  C   UNL     1      82.225 121.245 124.436  1.00  0.00    -0.000 C 
BRANCH   9  10
ATOM     10  C   UNL     1      83.382 121.823 123.602  1.00  0.00    -0.000 C 
BRANCH  10  11
ATOM     11  C   UNL     1      84.485 122.442 124.474  1.00  0.00    -0.003 C 
ATOM     12  C   UNL     1      84.158 123.869 124.914  1.00  0.00     0.004 C 
ENDBRANCH  10  11
ENDBRANCH   9  10
ENDBRANCH   8   9
ENDBRANCH   7   8
ENDBRANCH   6   7
ENDBRANCH   5   6
ENDBRANCH   4   5
ENDBRANCH   3   4
ENDBRANCH   2   3
ENDBRANCH   1   2
BRANCH   1  13
ATOM     13  C   UNL     1      85.320 125.122 128.196  1.00  0.00     0.000 C 
BRANCH  13  14
ATOM     14  C   UNL     1      84.858 125.745 129.526  1.00  0.00     0.000 C 
BRANCH  14  15
ATOM     15  C   UNL     1      85.661 125.206 130.731  1.00  0.00     0.000 C 
BRANCH  15  16
ATOM     16  C   UNL     1      84.806 124.950 131.984  1.00  0.00     0.000 C 
BRANCH  16  17
ATOM     17  C   UNL     1      83.551 124.113 131.689  1.00  0.00     0.000 C 
BRANCH  17  18
ATOM     18  C   UNL     1      83.794 122.599 131.818  1.00  0.00     0.000 C 
BRANCH  18  19
ATOM     19  C   UNL     1      85.082 122.199 132.565  1.00  0.00     0.000 C 
BRANCH  19  20
ATOM     20  C   UNL     1      86.140 121.465 131.719  1.00  0.00     0.006 C 
BRANCH  20  21
ATOM     21  C   UNL     1      87.521 122.146 131.713  1.00  0.00     0.053 C 
BRANCH  21  22
ATOM     22  C   UNL     1      88.551 121.360 130.956  1.00  0.00     0.041 C 
ATOM     23  O   UNL     1      89.737 121.299 131.374  1.00  0.00    -0.550 OA
ATOM     24  O   UNL     1      88.210 120.731 129.765  1.00  0.00    -0.550 OA
ENDBRANCH  21  22
ENDBRANCH  20  21
ENDBRANCH  19  20
ENDBRANCH  18  19
ENDBRANCH  17  18
ENDBRANCH  16  17
ENDBRANCH  15  16
ENDBRANCH  14  15
ENDBRANCH  13  14
ENDBRANCH   1  13
TORSDOF 20
ENDMDL
MODEL 5
REMARK VINA RESULT:    -4.045      1.683      5.995
REMARK INTER + INTRA:         -12.561
REMARK INTER:                  -9.385
REMARK INTRA:                  -3.176
REMARK UNBOUND:                -3.787
REMARK SMILES CCCCCCCCCCCCCCCCCCCCCC(=O)[O-]
REMARK SMILES IDX 12 1 11 2 10 3 9 4 8 5 7 6 6 7 5 8 4 9 3 10 2 11 1 12 13 13
REMARK SMILES IDX 14 14 15 15 16 16 17 17 18 18 19 19 20 20 21 21 22 22 23 23
REMARK SMILES IDX 24 24
REMARK H PARENT
REMARK Flexibility Score: inf
ROOT
ATOM      1  C   UNL     1      85.475 125.532 128.287  1.00  0.00     0.000 C 
ENDROOT
BRANCH   1   2
ATOM      2  C   UNL     1      85.921 124.128 127.847  1.00  0.00     0.000 C 
BRANCH   2   3
ATOM      3  C   UNL     1      84.764 123.278 127.292  1.00  0.00     0.000 C 
BRANCH   3   4
ATOM      4  C   UNL     1      83.797 124.068 126.384  1.00  0.00    -0.000 C 
BRANCH   4   5
ATOM      5  C   UNL     1      84.135 123.903 124.891  1.00  0.00    -0.000 C 
BRANCH   5   6
ATOM      6  C   UNL     1      84.439 122.445 124.513  1.00  0.00    -0.000 C 
BRANCH   6   7
ATOM      7  C   UNL     1      83.369 121.840 123.586  1.00  0.00    -0.000 C 
BRANCH   7   8
ATOM      8  C   UNL     1      82.627 120.651 124.225  1.00  0.00    -0.000 C 
BRANCH   8   9
ATOM      9  C   UNL     1      82.170 120.882 125.678  1.00  0.00    -0.000 C 
BRANCH   9  10
ATOM     10  C   UNL     1      82.519 119.706 126.607  1.00  0.00    -0.000 C 
BRANCH  10  11
ATOM     11  C   UNL     1      84.035 119.532 126.791  1.00  0.00    -0.003 C 
ATOM     12  C   UNL     1      84.493 119.826 128.219  1.00  0.00     0.004 C 
ENDBRANCH  10  11
ENDBRANCH   9  10
ENDBRANCH   8   9
ENDBRANCH   7   8
ENDBRANCH   6   7
ENDBRANCH   5   6
ENDBRANCH   4   5
ENDBRANCH   3   4
ENDBRANCH   2   3
ENDBRANCH   1   2
BRANCH   1  13
ATOM     13  C   UNL     1      85.239 125.633 129.802  1.00  0.00     0.000 C 
BRANCH  13  14
ATOM     14  C   UNL     1      83.774 125.949 130.155  1.00  0.00     0.000 C 
BRANCH  14  15
ATOM     15  C   UNL     1      82.841 124.745 129.902  1.00  0.00     0.000 C 
BRANCH  15  16
ATOM     16  C   UNL     1      82.489 123.953 131.173  1.00  0.00     0.000 C 
BRANCH  16  17
ATOM     17  C   UNL     1      83.727 123.390 131.888  1.00  0.00     0.000 C 
BRANCH  17  18
ATOM     18  C   UNL     1      84.418 122.265 131.097  1.00  0.00     0.000 C 
BRANCH  18  19
ATOM     19  C   UNL     1      85.732 121.739 131.709  1.00  0.00     0.000 C 
BRANCH  19  20
ATOM     20  C   UNL     1      86.835 122.795 131.920  1.00  0.00     0.006 C 
BRANCH  20  21
ATOM     21  C   UNL     1      87.831 122.903 130.751  1.00  0.00     0.053 C 
BRANCH  21  22
ATOM     22  C   UNL     1      88.618 121.643 130.542  1.00  0.00     0.041 C 
ATOM     23  O   UNL     1      88.335 120.868 129.590  1.00  0.00    -0.550 OA
ATOM     24  O   UNL     1      89.635 121.302 131.424  1.00  0.00    -0.550 OA
ENDBRANCH  21  22
ENDBRANCH  20  21
ENDBRANCH  19  20
ENDBRANCH  18  19
ENDBRANCH  17  18
ENDBRANCH  16  17
ENDBRANCH  15  16
ENDBRANCH  14  15
ENDBRANCH  13  14
ENDBRANCH   1  13
TORSDOF 20
ENDMDL
MODEL 6
REMARK VINA RESULT:    -4.035      1.969      3.654
REMARK INTER + INTRA:         -12.540
REMARK INTER:                  -8.446
REMARK INTRA:                  -4.094
REMARK UNBOUND:                -3.787
REMARK SMILES CCCCCCCCCCCCCCCCCCCCCC(=O)[O-]
REMARK SMILES IDX 12 1 11 2 10 3 9 4 8 5 7 6 6 7 5 8 4 9 3 10 2 11 1 12 13 13
REMARK SMILES IDX 14 14 15 15 16 16 17 17 18 18 19 19 20 20 21 21 22 22 23 23
REMARK SMILES IDX 24 24
REMARK H PARENT
REMARK Flexibility Score: inf
ROOT
ATOM      1  C   UNL     1      84.812 124.521 127.110  1.00  0.00     0.000 C 
ENDROOT
BRANCH   1   2
ATOM      2  C   UNL     1      84.270 124.031 128.463  1.00  0.00     0.000 C 
BRANCH   2   3
ATOM      3  C   UNL     1      82.894 124.629 128.808  1.00  0.00     0.000 C 
BRANCH   3   4
ATOM      4  C   UNL     1      81.983 123.666 129.601  1.00  0.00    -0.000 C 
BRANCH   4   5
ATOM      5  C   UNL     1      82.775 122.513 130.243  1.00  0.00    -0.000 C 
BRANCH   5   6
ATOM      6  C   UNL     1      82.499 122.373 131.748  1.00  0.00    -0.000 C 
BRANCH   6   7
ATOM      7  C   UNL     1      83.776 122.089 132.560  1.00  0.00    -0.000 C 
BRANCH   7   8
ATOM      8  C   UNL     1      85.065 122.347 131.757  1.00  0.00    -0.000 C 
BRANCH   8   9
ATOM      9  C   UNL     1      86.205 123.000 132.558  1.00  0.00    -0.000 C 
BRANCH   9  10
ATOM     10  C   UNL     1      86.524 124.430 132.088  1.00  0.00    -0.000 C 
BRANCH  10  11
ATOM     11  C   UNL     1      85.261 125.224 131.721  1.00  0.00    -0.003 C 
ATOM     12  C   UNL     1      84.665 125.968 132.916  1.00  0.00     0.004 C 
ENDBRANCH  10  11
ENDBRANCH   9  10
ENDBRANCH   8   9
ENDBRANCH   7   8
ENDBRANCH   6   7
ENDBRANCH   5   6
ENDBRANCH   4   5
ENDBRANCH   3   4
ENDBRANCH   2   3
ENDBRANCH   1   2
BRANCH   1  13
ATOM     13  C   UNL     1      83.886 124.168 125.936  1.00  0.00     0.000 C 
BRANCH  13  14
ATOM     14  C   UNL     1      84.539 123.200 124.934  1.00  0.00     0.000 C 
BRANCH  14  15
ATOM     15  C   UNL     1      83.928 121.783 125.010  1.00  0.00     0.000 C 
BRANCH  15  16
ATOM     16  C   UNL     1      82.699 121.685 125.931  1.00  0.00     0.000 C 
BRANCH  16  17
ATOM     17  C   UNL     1      82.867 120.635 127.041  1.00  0.00     0.000 C 
BRANCH  17  18
ATOM     18  C   UNL     1      84.309 120.110 127.158  1.00  0.00     0.000 C 
BRANCH  18  19
ATOM     19  C   UNL     1      84.985 120.340 128.524  1.00  0.00     0.000 C 
BRANCH  19  20
ATOM     20  C   UNL     1      86.401 120.945 128.471  1.00  0.00     0.006 C 
BRANCH  20  21
ATOM     21  C   UNL     1      87.334 120.458 129.595  1.00  0.00     0.053 C 
BRANCH  21  22
ATOM     22  C   UNL     1      88.340 121.494 130.002  1.00  0.00     0.041 C 
ATOM     23  O   UNL     1      89.228 121.218 130.851  1.00  0.00    -0.550 OA
ATOM     24  O   UNL     1      88.269 122.779 129.477  1.00  0.00    -0.550 OA
ENDBRANCH  21  22
ENDBRANCH  20  21
ENDBRANCH  19  20
ENDBRANCH  18  19
ENDBRANCH  17  18
ENDBRANCH  16  17
ENDBRANCH  15  16
ENDBRANCH  14  15
ENDBRANCH  13  14
ENDBRANCH   1  13
TORSDOF 20
ENDMDL
MODEL 7
REMARK VINA RESULT:    -4.024      2.343      3.613
REMARK INTER + INTRA:         -12.516
REMARK INTER:                  -9.402
REMARK INTRA:                  -3.114
REMARK UNBOUND:                -3.787
REMARK SMILES CCCCCCCCCCCCCCCCCCCCCC(=O)[O-]
REMARK SMILES IDX 12 1 11 2 10 3 9 4 8 5 7 6 6 7 5 8 4 9 3 10 2 11 1 12 13 13
REMARK SMILES IDX 14 14 15 15 16 16 17 17 18 18 19 19 20 20 21 21 22 22 23 23
REMARK SMILES IDX 24 24
REMARK H PARENT
REMARK Flexibility Score: inf
ROOT
ATOM      1  C   UNL     1      85.265 125.426 128.194  1.00  0.00     0.000 C 
ENDROOT
BRANCH   1   2
ATOM      2  C   UNL     1      84.352 125.369 129.430  1.00  0.00     0.000 C 
BRANCH   2   3
ATOM      3  C   UNL     1      85.137 125.259 130.749  1.00  0.00     0.000 C 
BRANCH   3   4
ATOM      4  C   UNL     1      84.798 123.994 131.566  1.00  0.00    -0.000 C 
BRANCH   4   5
ATOM      5  C   UNL     1      86.047 123.364 132.210  1.00  0.00    -0.000 C 
BRANCH   5   6
ATOM      6  C   UNL     1      87.334 124.132 131.873  1.00  0.00    -0.000 C 
BRANCH   6   7
ATOM      7  C   UNL     1      88.368 123.259 131.138  1.00  0.00    -0.000 C 
BRANCH   7   8
ATOM      8  C   UNL     1      87.953 121.778 131.061  1.00  0.00    -0.000 C 
BRANCH   8   9
ATOM      9  C   UNL     1      87.382 121.338 129.700  1.00  0.00    -0.000 C 
BRANCH   9  10
ATOM     10  C   UNL     1      86.992 119.851 129.668  1.00  0.00    -0.000 C 
BRANCH  10  11
ATOM     11  C   UNL     1      85.543 119.633 129.205  1.00  0.00    -0.003 C 
ATOM     12  C   UNL     1      84.631 120.811 129.545  1.00  0.00     0.004 C 
ENDBRANCH  10  11
ENDBRANCH   9  10
ENDBRANCH   8   9
ENDBRANCH   7   8
ENDBRANCH   6   7
ENDBRANCH   5   6
ENDBRANCH   4   5
ENDBRANCH   3   4
ENDBRANCH   2   3
ENDBRANCH   1   2
BRANCH   1  13
ATOM     13  C   UNL     1      85.880 124.061 127.847  1.00  0.00     0.000 C 
BRANCH  13  14
ATOM     14  C   UNL     1      85.120 123.335 126.722  1.00  0.00     0.000 C 
BRANCH  14  15
ATOM     15  C   UNL     1      84.106 124.260 126.014  1.00  0.00     0.000 C 
BRANCH  15  16
ATOM     16  C   UNL     1      82.640 123.828 126.191  1.00  0.00     0.000 C 
BRANCH  16  17
ATOM     17  C   UNL     1      82.459 122.769 127.291  1.00  0.00     0.000 C 
BRANCH  17  18
ATOM     18  C   UNL     1      81.875 121.447 126.761  1.00  0.00     0.000 C 
BRANCH  18  19
ATOM     19  C   UNL     1      82.686 120.773 125.636  1.00  0.00     0.000 C 
BRANCH  19  20
ATOM     20  C   UNL     1      82.042 120.817 124.236  1.00  0.00     0.006 C 
BRANCH  20  21
ATOM     21  C   UNL     1      82.884 121.557 123.181  1.00  0.00     0.053 C 
BRANCH  21  22
ATOM     22  C   UNL     1      82.710 120.994 121.802  1.00  0.00     0.041 C 
ATOM     23  O   UNL     1      83.147 121.621 120.800  1.00  0.00    -0.550 OA
ATOM     24  O   UNL     1      82.027 119.799 121.618  1.00  0.00    -0.550 OA
ENDBRANCH  21  22
ENDBRANCH  20  21
ENDBRANCH  19  20
ENDBRANCH  18  19
ENDBRANCH  17  18
ENDBRANCH  16  17
ENDBRANCH  15  16
ENDBRANCH  14  15
ENDBRANCH  13  14
ENDBRANCH   1  13
TORSDOF 20
ENDMDL
MODEL 8
REMARK VINA RESULT:    -3.996      1.525      5.476
REMARK INTER + INTRA:         -12.456
REMARK INTER:                  -9.049
REMARK INTRA:                  -3.407
REMARK UNBOUND:                -3.787
REMARK SMILES CCCCCCCCCCCCCCCCCCCCCC(=O)[O-]
REMARK SMILES IDX 12 1 11 2 10 3 9 4 8 5 7 6 6 7 5 8 4 9 3 10 2 11 1 12 13 13
REMARK SMILES IDX 14 14 15 15 16 16 17 17 18 18 19 19 20 20 21 21 22 22 23 23
REMARK SMILES IDX 24 24
REMARK H PARENT
REMARK Flexibility Score: inf
ROOT
ATOM      1  C   UNL     1      83.453 122.082 123.736  1.00  0.00     0.000 C 
ENDROOT
BRANCH   1   2
ATOM      2  C   UNL     1      82.359 121.258 124.436  1.00  0.00     0.000 C 
BRANCH   2   3
ATOM      3  C   UNL     1      82.923 120.069 125.234  1.00  0.00     0.000 C 
BRANCH   3   4
ATOM      4  C   UNL     1      82.451 120.031 126.704  1.00  0.00    -0.000 C 
BRANCH   4   5
ATOM      5  C   UNL     1      83.591 120.344 127.690  1.00  0.00    -0.000 C 
BRANCH   5   6
ATOM      6  C   UNL     1      83.107 121.121 128.924  1.00  0.00    -0.000 C 
BRANCH   6   7
ATOM      7  C   UNL     1      84.259 121.498 129.874  1.00  0.00    -0.000 C 
BRANCH   7   8
ATOM      8  C   UNL     1      83.859 122.575 130.900  1.00  0.00    -0.000 C 
BRANCH   8   9
ATOM      9  C   UNL     1      82.737 123.523 130.437  1.00  0.00    -0.000 C 
BRANCH   9  10
ATOM     10  C   UNL     1      82.276 124.488 131.543  1.00  0.00    -0.000 C 
BRANCH  10  11
ATOM     11  C   UNL     1      83.067 125.805 131.542  1.00  0.00    -0.003 C 
ATOM     12  C   UNL     1      82.525 126.818 130.533  1.00  0.00     0.004 C 
ENDBRANCH  10  11
ENDBRANCH   9  10
ENDBRANCH   8   9
ENDBRANCH   7   8
ENDBRANCH   6   7
ENDBRANCH   5   6
ENDBRANCH   4   5
ENDBRANCH   3   4
ENDBRANCH   2   3
ENDBRANCH   1   2
BRANCH   1  13
ATOM     13  C   UNL     1      84.501 122.631 124.716  1.00  0.00     0.000 C 
BRANCH  13  14
ATOM     14  C   UNL     1      84.133 124.022 125.263  1.00  0.00     0.000 C 
BRANCH  14  15
ATOM     15  C   UNL     1      83.961 124.018 126.798  1.00  0.00     0.000 C 
BRANCH  15  16
ATOM     16  C   UNL     1      85.285 124.139 127.572  1.00  0.00     0.000 C 
BRANCH  16  17
ATOM     17  C   UNL     1      85.367 125.419 128.419  1.00  0.00     0.000 C 
BRANCH  17  18
ATOM     18  C   UNL     1      86.152 125.223 129.729  1.00  0.00     0.000 C 
BRANCH  18  19
ATOM     19  C   UNL     1      87.092 124.002 129.757  1.00  0.00     0.000 C 
BRANCH  19  20
ATOM     20  C   UNL     1      87.716 123.676 131.128  1.00  0.00     0.006 C 
BRANCH  20  21
ATOM     21  C   UNL     1      88.658 122.458 131.115  1.00  0.00     0.053 C 
BRANCH  21  22
ATOM     22  C   UNL     1      87.955 121.185 130.744  1.00  0.00     0.041 C 
ATOM     23  O   UNL     1      88.090 120.698 129.591  1.00  0.00    -0.550 OA
ATOM     24  O   UNL     1      87.115 120.562 131.659  1.00  0.00    -0.550 OA
ENDBRANCH  21  22
ENDBRANCH  20  21
ENDBRANCH  19  20
ENDBRANCH  18  19
ENDBRANCH  17  18
ENDBRANCH  16  17
ENDBRANCH  15  16
ENDBRANCH  14  15
ENDBRANCH  13  14
ENDBRANCH   1  13
TORSDOF 20
ENDMDL
MODEL 9
REMARK VINA RESULT:    -3.984      1.752      6.026
REMARK INTER + INTRA:         -12.428
REMARK INTER:                  -9.128
REMARK INTRA:                  -3.300
REMARK UNBOUND:                -3.787
REMARK SMILES CCCCCCCCCCCCCCCCCCCCCC(=O)[O-]
REMARK SMILES IDX 12 1 11 2 10 3 9 4 8 5 7 6 6 7 5 8 4 9 3 10 2 11 1 12 13 13
REMARK SMILES IDX 14 14 15 15 16 16 17 17 18 18 19 19 20 20 21 21 22 22 23 23
REMARK SMILES IDX 24 24
REMARK H PARENT
REMARK Flexibility Score: inf
ROOT
ATOM      1  C   UNL     1      85.308 125.364 127.881  1.00  0.00     0.000 C 
ENDROOT
BRANCH   1   2
ATOM      2  C   UNL     1      84.906 123.977 127.354  1.00  0.00     0.000 C 
BRANCH   2   3
ATOM      3  C   UNL     1      84.079 124.046 126.057  1.00  0.00     0.000 C 
BRANCH   3   4
ATOM      4  C   UNL     1      84.733 123.312 124.866  1.00  0.00    -0.000 C 
BRANCH   4   5
ATOM      5  C   UNL     1      83.769 122.316 124.197  1.00  0.00    -0.000 C 
BRANCH   5   6
ATOM      6  C   UNL     1      82.488 122.093 125.015  1.00  0.00    -0.000 C 
BRANCH   6   7
ATOM      7  C   UNL     1      82.458 120.717 125.703  1.00  0.00    -0.000 C 
BRANCH   7   8
ATOM      8  C   UNL     1      83.830 120.298 126.264  1.00  0.00    -0.000 C 
BRANCH   8   9
ATOM      9  C   UNL     1      83.934 120.324 127.800  1.00  0.00    -0.000 C 
BRANCH   9  10
ATOM     10  C   UNL     1      82.735 121.017 128.469  1.00  0.00    -0.000 C 
BRANCH  10  11
ATOM     11  C   UNL     1      83.143 121.839 129.702  1.00  0.00    -0.003 C 
ATOM     12  C   UNL     1      84.563 121.529 130.173  1.00  0.00     0.004 C 
ENDBRANCH  10  11
ENDBRANCH   9  10
ENDBRANCH   8   9
ENDBRANCH   7   8
ENDBRANCH   6   7
ENDBRANCH   5   6
ENDBRANCH   4   5
ENDBRANCH   3   4
ENDBRANCH   2   3
ENDBRANCH   1   2
BRANCH   1  13
ATOM     13  C   UNL     1      84.926 125.573 129.355  1.00  0.00     0.000 C 
BRANCH  13  14
ATOM     14  C   UNL     1      83.416 125.410 129.606  1.00  0.00     0.000 C 
BRANCH  14  15
ATOM     15  C   UNL     1      83.020 125.801 131.047  1.00  0.00     0.000 C 
BRANCH  15  16
ATOM     16  C   UNL     1      84.193 125.778 132.042  1.00  0.00     0.000 C 
BRANCH  16  17
ATOM     17  C   UNL     1      84.257 124.478 132.860  1.00  0.00     0.000 C 
BRANCH  17  18
ATOM     18  C   UNL     1      85.633 123.792 132.791  1.00  0.00     0.000 C 
BRANCH  18  19
ATOM     19  C   UNL     1      86.827 124.733 132.531  1.00  0.00     0.000 C 
BRANCH  19  20
ATOM     20  C   UNL     1      87.942 124.159 131.637  1.00  0.00     0.006 C 
BRANCH  20  21
ATOM     21  C   UNL     1      87.819 122.648 131.371  1.00  0.00     0.053 C 
BRANCH  21  22
ATOM     22  C   UNL     1      88.283 122.261 129.998  1.00  0.00     0.041 C 
ATOM     23  O   UNL     1      88.754 121.112 129.787  1.00  0.00    -0.550 OA
ATOM     24  O   UNL     1      88.234 123.184 128.961  1.00  0.00    -0.550 OA
ENDBRANCH  21  22
ENDBRANCH  20  21
ENDBRANCH  19  20
ENDBRANCH  18  19
ENDBRANCH  17  18
ENDBRANCH  16  17
ENDBRANCH  15  16
ENDBRANCH  14  15
ENDBRANCH  13  14
ENDBRANCH   1  13
TORSDOF 20
ENDMDL
