MODEL 1
REMARK VINA RESULT:    -7.313      0.000      0.000
REMARK INTER + INTRA:          -8.210
REMARK INTER:                  -7.954
REMARK INTRA:                  -0.256
REMARK UNBOUND:                -0.256
REMARK SMILES CC1(C)CC[C@@]2(C(=O)[O-])CC[C@@]3(C)C(=CC[C@@H]4[C@@]5(C)CC[C@@H](O)C(C)(C)[C@@H]5CC[C@]43C)[C@H]2C1
REMARK SMILES IDX 6 1 5 2 10 3 32 4 4 5 11 6 14 7 33 8 2 9 12 10 15 11 1 12
REMARK SMILES IDX 3 13 13 14 30 15 16 16 17 17 29 18 31 19 18 20 28 21 27 22
REMARK SMILES IDX 20 23 19 24 24 25 21 26 22 27 25 28 26 29 7 30 8 31 9 32
REMARK SMILES IDX 23 33
REMARK H PARENT 23 34
REMARK Flexibility Score: inf
ROOT
ATOM      1  C   UNL     1       1.990   5.421  37.868  1.00  0.00     0.017 C 
ATOM      2  C   UNL     1       0.704   4.515  37.884  1.00  0.00     0.014 C 
ATOM      3  C   UNL     1       3.194   4.558  38.360  1.00  0.00     0.014 C 
ATOM      4  C   UNL     1       2.247   5.973  36.430  1.00  0.00     0.028 C 
ATOM      5  C   UNL     1      -0.309   4.880  36.783  1.00  0.00     0.007 C 
ATOM      6  C   UNL     1       4.601   5.171  38.141  1.00  0.00     0.013 C 
ATOM      7  C   UNL     1       3.669   6.535  36.281  1.00  0.00    -0.064 C 
ATOM      8  C   UNL     1       1.829   4.969  35.334  1.00  0.00     0.015 C 
ATOM      9  C   UNL     1       0.286   4.714  35.345  1.00  0.00    -0.035 C 
ATOM     10  C   UNL     1       4.898   5.677  36.687  1.00  0.00    -0.006 C 
ATOM     11  C   UNL     1       3.752   7.876  36.092  1.00  0.00    -0.027 C 
ATOM     12  C   UNL     1       0.004   3.284  34.832  1.00  0.00     0.011 C 
ATOM     13  C   UNL     1      -0.413   5.709  34.393  1.00  0.00     0.011 C 
ATOM     14  C   UNL     1       5.001   4.418  35.768  1.00  0.00     0.017 C 
ATOM     15  C   UNL     1       6.289   6.520  36.588  1.00  0.00    -0.020 C 
ATOM     16  C   UNL     1       4.995   8.692  36.232  1.00  0.00     0.032 C 
ATOM     17  C   UNL     1       6.047   7.990  37.117  1.00  0.00     0.006 C 
ATOM     18  C   UNL     1       7.424   5.836  37.426  1.00  0.00     0.008 C 
ATOM     19  C   UNL     1       6.771   6.558  35.097  1.00  0.00     0.012 C 
ATOM     20  C   UNL     1       7.333   8.886  37.450  1.00  0.00    -0.025 C 
ATOM     21  C   UNL     1       8.673   6.698  37.622  1.00  0.00     0.005 C 
ATOM     22  C   UNL     1       8.293   8.014  38.342  1.00  0.00     0.003 C 
ATOM     23  C   UNL     1       6.876  10.113  38.308  1.00  0.00     0.010 C 
ATOM     24  C   UNL     1       8.034   9.435  36.158  1.00  0.00     0.012 C 
ATOM     25  C   UNL     1       9.491   8.771  39.041  1.00  0.00    -0.006 C 
ATOM     26  C   UNL     1       8.030  10.896  38.963  1.00  0.00     0.033 C 
ATOM     27  C   UNL     1       8.930  10.000  39.827  1.00  0.00     0.120 C 
ATOM     28  C   UNL     1      10.187   7.836  40.072  1.00  0.00     0.014 C 
ATOM     29  C   UNL     1      10.593   9.224  38.051  1.00  0.00     0.014 C 
ENDROOT
BRANCH   1  30
ATOM     30  C   UNL     1       1.756   6.606  38.805  1.00  0.00     0.048 C 
ATOM     31  O   UNL     1       1.249   7.681  38.391  1.00  0.00    -0.550 OA
ATOM     32  O   UNL     1       2.047   6.490  40.161  1.00  0.00    -0.550 OA
ENDBRANCH   1  30
BRANCH  27  33
ATOM     33  O   UNL     1       8.199   9.568  40.950  1.00  0.00    -0.393 OA
ATOM     34  H   UNL     1       7.371   9.136  40.611  1.00  0.00     0.210 HD
ENDBRANCH  27  33
TORSDOF 2
ENDMDL
MODEL 2
REMARK VINA RESULT:    -7.002      4.968      7.940
REMARK INTER + INTRA:          -7.872
REMARK INTER:                  -7.614
REMARK INTRA:                  -0.259
REMARK UNBOUND:                -0.256
REMARK SMILES CC1(C)CC[C@@]2(C(=O)[O-])CC[C@@]3(C)C(=CC[C@@H]4[C@@]5(C)CC[C@@H](O)C(C)(C)[C@@H]5CC[C@]43C)[C@H]2C1
REMARK SMILES IDX 6 1 5 2 10 3 32 4 4 5 11 6 14 7 33 8 2 9 12 10 15 11 1 12
REMARK SMILES IDX 3 13 13 14 30 15 16 16 17 17 29 18 31 19 18 20 28 21 27 22
REMARK SMILES IDX 20 23 19 24 24 25 21 26 22 27 25 28 26 29 7 30 8 31 9 32
REMARK SMILES IDX 23 33
REMARK H PARENT 23 34
REMARK Flexibility Score: inf
ROOT
ATOM      1  C   UNL     1       8.650   9.119  38.880  1.00  0.00     0.017 C 
ATOM      2  C   UNL     1       9.615   8.015  39.449  1.00  0.00     0.014 C 
ATOM      3  C   UNL     1       9.131  10.504  39.420  1.00  0.00     0.014 C 
ATOM      4  C   UNL     1       8.656   9.094  37.319  1.00  0.00     0.028 C 
ATOM      5  C   UNL     1       9.802   6.822  38.492  1.00  0.00     0.007 C 
ATOM      6  C   UNL     1       8.500  11.749  38.747  1.00  0.00     0.013 C 
ATOM      7  C   UNL     1       8.044  10.372  36.727  1.00  0.00    -0.064 C 
ATOM      8  C   UNL     1      10.037   8.711  36.745  1.00  0.00     0.015 C 
ATOM      9  C   UNL     1      10.432   7.246  37.125  1.00  0.00    -0.035 C 
ATOM     10  C   UNL     1       8.549  11.768  37.181  1.00  0.00    -0.006 C 
ATOM     11  C   UNL     1       6.872  10.207  36.063  1.00  0.00    -0.027 C 
ATOM     12  C   UNL     1      11.971   7.142  37.211  1.00  0.00     0.011 C 
ATOM     13  C   UNL     1       9.949   6.275  36.025  1.00  0.00     0.011 C 
ATOM     14  C   UNL     1      10.043  11.959  36.765  1.00  0.00     0.017 C 
ATOM     15  C   UNL     1       7.662  12.975  36.540  1.00  0.00    -0.020 C 
ATOM     16  C   UNL     1       5.935  11.305  35.678  1.00  0.00     0.032 C 
ATOM     17  C   UNL     1       6.136  12.564  36.548  1.00  0.00     0.006 C 
ATOM     18  C   UNL     1       7.856  14.307  37.346  1.00  0.00     0.008 C 
ATOM     19  C   UNL     1       8.137  13.249  35.071  1.00  0.00     0.012 C 
ATOM     20  C   UNL     1       5.049  13.716  36.303  1.00  0.00    -0.025 C 
ATOM     21  C   UNL     1       6.856  15.410  36.994  1.00  0.00     0.005 C 
ATOM     22  C   UNL     1       5.414  14.913  37.257  1.00  0.00     0.003 C 
ATOM     23  C   UNL     1       3.645  13.176  36.739  1.00  0.00     0.010 C 
ATOM     24  C   UNL     1       4.956  14.143  34.797  1.00  0.00     0.012 C 
ATOM     25  C   UNL     1       4.326  16.049  37.414  1.00  0.00    -0.006 C 
ATOM     26  C   UNL     1       2.556  14.258  36.854  1.00  0.00     0.033 C 
ATOM     27  C   UNL     1       2.959  15.398  37.801  1.00  0.00     0.120 C 
ATOM     28  C   UNL     1       4.725  17.017  38.565  1.00  0.00     0.014 C 
ATOM     29  C   UNL     1       4.165  16.924  36.146  1.00  0.00     0.014 C 
ENDROOT
BRANCH   1  30
ATOM     30  C   UNL     1       7.232   8.815  39.363  1.00  0.00     0.048 C 
ATOM     31  O   UNL     1       6.455   8.083  38.697  1.00  0.00    -0.550 OA
ATOM     32  O   UNL     1       6.796   9.299  40.593  1.00  0.00    -0.550 OA
ENDBRANCH   1  30
BRANCH  27  33
ATOM     33  O   UNL     1       3.013  14.899  39.117  1.00  0.00    -0.393 OA
ATOM     34  H   UNL     1       3.693  14.176  39.128  1.00  0.00     0.210 HD
ENDBRANCH  27  33
TORSDOF 2
ENDMDL
MODEL 3
REMARK VINA RESULT:    -6.999      7.760      9.915
REMARK INTER + INTRA:          -7.868
REMARK INTER:                  -7.603
REMARK INTRA:                  -0.266
REMARK UNBOUND:                -0.256
REMARK SMILES CC1(C)CC[C@@]2(C(=O)[O-])CC[C@@]3(C)C(=CC[C@@H]4[C@@]5(C)CC[C@@H](O)C(C)(C)[C@@H]5CC[C@]43C)[C@H]2C1
REMARK SMILES IDX 6 1 5 2 10 3 32 4 4 5 11 6 14 7 33 8 2 9 12 10 15 11 1 12
REMARK SMILES IDX 3 13 13 14 30 15 16 16 17 17 29 18 31 19 18 20 28 21 27 22
REMARK SMILES IDX 20 23 19 24 24 25 21 26 22 27 25 28 26 29 7 30 8 31 9 32
REMARK SMILES IDX 23 33
REMARK H PARENT 23 34
REMARK Flexibility Score: inf
ROOT
ATOM      1  C   UNL     1       1.016  14.135  37.223  1.00  0.00     0.017 C 
ATOM      2  C   UNL     1      -0.410  13.525  37.481  1.00  0.00     0.014 C 
ATOM      3  C   UNL     1       1.164  14.383  35.687  1.00  0.00     0.014 C 
ATOM      4  C   UNL     1       1.193  15.463  38.024  1.00  0.00     0.028 C 
ATOM      5  C   UNL     1      -1.005  13.930  38.843  1.00  0.00     0.007 C 
ATOM      6  C   UNL     1       2.375  15.248  35.255  1.00  0.00     0.013 C 
ATOM      7  C   UNL     1       2.392  16.278  37.518  1.00  0.00    -0.064 C 
ATOM      8  C   UNL     1      -0.127  16.256  38.140  1.00  0.00     0.015 C 
ATOM      9  C   UNL     1      -1.196  15.477  38.976  1.00  0.00    -0.035 C 
ATOM     10  C   UNL     1       2.534  16.613  36.009  1.00  0.00    -0.006 C 
ATOM     11  C   UNL     1       3.428  16.396  38.387  1.00  0.00    -0.027 C 
ATOM     12  C   UNL     1      -2.607  15.867  38.484  1.00  0.00     0.011 C 
ATOM     13  C   UNL     1      -1.082  15.872  40.464  1.00  0.00     0.011 C 
ATOM     14  C   UNL     1       1.360  17.536  35.551  1.00  0.00     0.017 C 
ATOM     15  C   UNL     1       3.948  17.351  35.679  1.00  0.00    -0.020 C 
ATOM     16  C   UNL     1       4.804  16.855  38.032  1.00  0.00     0.032 C 
ATOM     17  C   UNL     1       5.100  16.679  36.527  1.00  0.00     0.006 C 
ATOM     18  C   UNL     1       4.291  17.256  34.151  1.00  0.00     0.008 C 
ATOM     19  C   UNL     1       3.838  18.874  36.035  1.00  0.00     0.012 C 
ATOM     20  C   UNL     1       6.616  16.990  36.111  1.00  0.00    -0.025 C 
ATOM     21  C   UNL     1       5.721  17.668  33.797  1.00  0.00     0.005 C 
ATOM     22  C   UNL     1       6.728  16.770  34.557  1.00  0.00     0.003 C 
ATOM     23  C   UNL     1       7.547  15.940  36.805  1.00  0.00     0.010 C 
ATOM     24  C   UNL     1       7.080  18.419  36.560  1.00  0.00     0.012 C 
ATOM     25  C   UNL     1       8.188  16.732  33.951  1.00  0.00    -0.006 C 
ATOM     26  C   UNL     1       8.989  15.915  36.264  1.00  0.00     0.033 C 
ATOM     27  C   UNL     1       9.042  15.691  34.745  1.00  0.00     0.120 C 
ATOM     28  C   UNL     1       8.141  16.263  32.468  1.00  0.00     0.014 C 
ATOM     29  C   UNL     1       8.888  18.113  33.949  1.00  0.00     0.014 C 
ENDROOT
BRANCH   1  30
ATOM     30  C   UNL     1       2.064  13.134  37.710  1.00  0.00     0.048 C 
ATOM     31  O   UNL     1       2.343  13.018  38.932  1.00  0.00    -0.550 OA
ATOM     32  O   UNL     1       2.688  12.281  36.805  1.00  0.00    -0.550 OA
ENDBRANCH   1  30
BRANCH  27  33
ATOM     33  O   UNL     1       8.603  14.383  34.462  1.00  0.00    -0.393 OA
ATOM     34  H   UNL     1       7.643  14.337  34.710  1.00  0.00     0.210 HD
ENDBRANCH  27  33
TORSDOF 2
ENDMDL
MODEL 4
REMARK VINA RESULT:    -6.930     12.507     15.516
REMARK INTER + INTRA:          -7.793
REMARK INTER:                  -7.543
REMARK INTRA:                  -0.251
REMARK UNBOUND:                -0.256
REMARK SMILES CC1(C)CC[C@@]2(C(=O)[O-])CC[C@@]3(C)C(=CC[C@@H]4[C@@]5(C)CC[C@@H](O)C(C)(C)[C@@H]5CC[C@]43C)[C@H]2C1
REMARK SMILES IDX 6 1 5 2 10 3 32 4 4 5 11 6 14 7 33 8 2 9 12 10 15 11 1 12
REMARK SMILES IDX 3 13 13 14 30 15 16 16 17 17 29 18 31 19 18 20 28 21 27 22
REMARK SMILES IDX 20 23 19 24 24 25 21 26 22 27 25 28 26 29 7 30 8 31 9 32
REMARK SMILES IDX 23 33
REMARK H PARENT 23 34
REMARK Flexibility Score: inf
ROOT
ATOM      1  C   UNL     1      13.740   9.489  28.275  1.00  0.00     0.017 C 
ATOM      2  C   UNL     1      14.117   8.321  29.259  1.00  0.00     0.014 C 
ATOM      3  C   UNL     1      14.235   9.094  26.847  1.00  0.00     0.014 C 
ATOM      4  C   UNL     1      12.198   9.733  28.286  1.00  0.00     0.028 C 
ATOM      5  C   UNL     1      13.110   8.153  30.412  1.00  0.00     0.007 C 
ATOM      6  C   UNL     1      13.706   9.968  25.681  1.00  0.00     0.013 C 
ATOM      7  C   UNL     1      11.747  10.579  27.086  1.00  0.00    -0.064 C 
ATOM      8  C   UNL     1      11.401   8.428  28.494  1.00  0.00     0.015 C 
ATOM      9  C   UNL     1      11.672   7.806  29.904  1.00  0.00    -0.035 C 
ATOM     10  C   UNL     1      12.153  10.176  25.643  1.00  0.00    -0.006 C 
ATOM     11  C   UNL     1      11.274  11.815  27.387  1.00  0.00    -0.027 C 
ATOM     12  C   UNL     1      11.509   6.272  29.822  1.00  0.00     0.011 C 
ATOM     13  C   UNL     1      10.637   8.343  30.917  1.00  0.00     0.011 C 
ATOM     14  C   UNL     1      11.510   8.802  25.269  1.00  0.00     0.017 C 
ATOM     15  C   UNL     1      11.696  11.291  24.547  1.00  0.00    -0.020 C 
ATOM     16  C   UNL     1      11.074  12.925  26.407  1.00  0.00     0.032 C 
ATOM     17  C   UNL     1      11.935  12.736  25.140  1.00  0.00     0.006 C 
ATOM     18  C   UNL     1      12.497  11.128  23.208  1.00  0.00     0.008 C 
ATOM     19  C   UNL     1      10.178  11.095  24.206  1.00  0.00     0.012 C 
ATOM     20  C   UNL     1      11.900  13.977  24.126  1.00  0.00    -0.025 C 
ATOM     21  C   UNL     1      12.340  12.295  22.231  1.00  0.00     0.005 C 
ATOM     22  C   UNL     1      12.816  13.606  22.902  1.00  0.00     0.003 C 
ATOM     23  C   UNL     1      12.539  15.218  24.836  1.00  0.00     0.010 C 
ATOM     24  C   UNL     1      10.440  14.362  23.700  1.00  0.00     0.012 C 
ATOM     25  C   UNL     1      13.176  14.781  21.907  1.00  0.00    -0.006 C 
ATOM     26  C   UNL     1      12.856  16.395  23.894  1.00  0.00     0.033 C 
ATOM     27  C   UNL     1      13.757  15.981  22.722  1.00  0.00     0.120 C 
ATOM     28  C   UNL     1      14.275  14.318  20.907  1.00  0.00     0.014 C 
ATOM     29  C   UNL     1      11.974  15.247  21.047  1.00  0.00     0.014 C 
ENDROOT
BRANCH   1  30
ATOM     30  C   UNL     1      14.435  10.765  28.752  1.00  0.00     0.048 C 
ATOM     31  O   UNL     1      15.463  11.207  28.177  1.00  0.00    -0.550 OA
ATOM     32  O   UNL     1      13.896  11.499  29.804  1.00  0.00    -0.550 OA
ENDBRANCH   1  30
BRANCH  27  33
ATOM     33  O   UNL     1      15.034  15.656  23.221  1.00  0.00    -0.393 OA
ATOM     34  H   UNL     1      15.682  16.272  22.789  1.00  0.00     0.210 HD
ENDBRANCH  27  33
TORSDOF 2
ENDMDL
MODEL 5
REMARK VINA RESULT:    -6.721     13.349     16.380
REMARK INTER + INTRA:          -7.566
REMARK INTER:                  -7.286
REMARK INTRA:                  -0.280
REMARK UNBOUND:                -0.256
REMARK SMILES CC1(C)CC[C@@]2(C(=O)[O-])CC[C@@]3(C)C(=CC[C@@H]4[C@@]5(C)CC[C@@H](O)C(C)(C)[C@@H]5CC[C@]43C)[C@H]2C1
REMARK SMILES IDX 6 1 5 2 10 3 32 4 4 5 11 6 14 7 33 8 2 9 12 10 15 11 1 12
REMARK SMILES IDX 3 13 13 14 30 15 16 16 17 17 29 18 31 19 18 20 28 21 27 22
REMARK SMILES IDX 20 23 19 24 24 25 21 26 22 27 25 28 26 29 7 30 8 31 9 32
REMARK SMILES IDX 23 33
REMARK H PARENT 23 34
REMARK Flexibility Score: inf
ROOT
ATOM      1  C   UNL     1      11.892   9.700  27.146  1.00  0.00     0.017 C 
ATOM      2  C   UNL     1      11.910   8.566  28.236  1.00  0.00     0.014 C 
ATOM      3  C   UNL     1      11.848  11.076  27.884  1.00  0.00     0.014 C 
ATOM      4  C   UNL     1      13.154   9.595  26.232  1.00  0.00     0.028 C 
ATOM      5  C   UNL     1      12.696   7.316  27.797  1.00  0.00     0.007 C 
ATOM      6  C   UNL     1      12.121  12.324  27.006  1.00  0.00     0.013 C 
ATOM      7  C   UNL     1      13.375  10.878  25.418  1.00  0.00    -0.064 C 
ATOM      8  C   UNL     1      14.394   9.094  27.002  1.00  0.00     0.015 C 
ATOM      9  C   UNL     1      14.202   7.627  27.511  1.00  0.00    -0.035 C 
ATOM     10  C   UNL     1      13.416  12.260  26.125  1.00  0.00    -0.006 C 
ATOM     11  C   UNL     1      13.212  10.756  24.076  1.00  0.00    -0.027 C 
ATOM     12  C   UNL     1      15.025   7.428  28.804  1.00  0.00     0.011 C 
ATOM     13  C   UNL     1      14.730   6.635  26.452  1.00  0.00     0.011 C 
ATOM     14  C   UNL     1      14.640  12.332  27.092  1.00  0.00     0.017 C 
ATOM     15  C   UNL     1      13.511  13.488  25.059  1.00  0.00    -0.020 C 
ATOM     16  C   UNL     1      13.063  11.892  23.117  1.00  0.00     0.032 C 
ATOM     17  C   UNL     1      12.579  13.178  23.820  1.00  0.00     0.006 C 
ATOM     18  C   UNL     1      13.080  14.844  25.720  1.00  0.00     0.008 C 
ATOM     19  C   UNL     1      14.996  13.654  24.585  1.00  0.00     0.012 C 
ATOM     20  C   UNL     1      12.232  14.384  22.824  1.00  0.00    -0.025 C 
ATOM     21  C   UNL     1      12.867  15.991  24.729  1.00  0.00     0.005 C 
ATOM     22  C   UNL     1      11.771  15.602  23.707  1.00  0.00     0.003 C 
ATOM     23  C   UNL     1      11.016  13.960  21.933  1.00  0.00     0.010 C 
ATOM     24  C   UNL     1      13.427  14.739  21.872  1.00  0.00     0.012 C 
ATOM     25  C   UNL     1      11.099  16.814  22.946  1.00  0.00    -0.006 C 
ATOM     26  C   UNL     1      10.372  15.115  21.144  1.00  0.00     0.033 C 
ATOM     27  C   UNL     1       9.935  16.274  22.053  1.00  0.00     0.120 C 
ATOM     28  C   UNL     1      10.480  17.812  23.967  1.00  0.00     0.014 C 
ATOM     29  C   UNL     1      12.098  17.631  22.089  1.00  0.00     0.014 C 
ENDROOT
BRANCH   1  30
ATOM     30  C   UNL     1      10.649   9.515  26.277  1.00  0.00     0.048 C 
ATOM     31  O   UNL     1      10.643   8.720  25.301  1.00  0.00    -0.550 OA
ATOM     32  O   UNL     1       9.471  10.184  26.594  1.00  0.00    -0.550 OA
ENDBRANCH   1  30
BRANCH  27  33
ATOM     33  O   UNL     1       8.864  15.841  22.860  1.00  0.00    -0.393 OA
ATOM     34  H   UNL     1       8.028  16.167  22.435  1.00  0.00     0.210 HD
ENDBRANCH  27  33
TORSDOF 2
ENDMDL
MODEL 6
REMARK VINA RESULT:    -6.684      2.235      3.707
REMARK INTER + INTRA:          -7.526
REMARK INTER:                  -7.250
REMARK INTRA:                  -0.276
REMARK UNBOUND:                -0.256
REMARK SMILES CC1(C)CC[C@@]2(C(=O)[O-])CC[C@@]3(C)C(=CC[C@@H]4[C@@]5(C)CC[C@@H](O)C(C)(C)[C@@H]5CC[C@]43C)[C@H]2C1
REMARK SMILES IDX 6 1 5 2 10 3 32 4 4 5 11 6 14 7 33 8 2 9 12 10 15 11 1 12
REMARK SMILES IDX 3 13 13 14 30 15 16 16 17 17 29 18 31 19 18 20 28 21 27 22
REMARK SMILES IDX 20 23 19 24 24 25 21 26 22 27 25 28 26 29 7 30 8 31 9 32
REMARK SMILES IDX 23 33
REMARK H PARENT 23 34
REMARK Flexibility Score: inf
ROOT
ATOM      1  C   UNL     1       3.306   5.096  35.373  1.00  0.00     0.017 C 
ATOM      2  C   UNL     1       2.235   4.291  34.549  1.00  0.00     0.014 C 
ATOM      3  C   UNL     1       3.402   6.531  34.766  1.00  0.00     0.014 C 
ATOM      4  C   UNL     1       2.902   5.151  36.881  1.00  0.00     0.028 C 
ATOM      5  C   UNL     1       1.474   3.253  35.395  1.00  0.00     0.007 C 
ATOM      6  C   UNL     1       4.180   7.573  35.610  1.00  0.00     0.013 C 
ATOM      7  C   UNL     1       3.692   6.226  37.642  1.00  0.00    -0.064 C 
ATOM      8  C   UNL     1       1.372   5.214  37.074  1.00  0.00     0.015 C 
ATOM      9  C   UNL     1       0.674   3.908  36.568  1.00  0.00    -0.035 C 
ATOM     10  C   UNL     1       3.748   7.684  37.112  1.00  0.00    -0.006 C 
ATOM     11  C   UNL     1       4.559   5.762  38.578  1.00  0.00    -0.027 C 
ATOM     12  C   UNL     1      -0.755   4.250  36.090  1.00  0.00     0.011 C 
ATOM     13  C   UNL     1       0.560   2.895  37.728  1.00  0.00     0.011 C 
ATOM     14  C   UNL     1       2.321   8.319  37.139  1.00  0.00     0.017 C 
ATOM     15  C   UNL     1       4.759   8.613  37.989  1.00  0.00    -0.020 C 
ATOM     16  C   UNL     1       5.648   6.559  39.217  1.00  0.00     0.032 C 
ATOM     17  C   UNL     1       6.049   7.778  38.359  1.00  0.00     0.006 C 
ATOM     18  C   UNL     1       5.172   9.902  37.196  1.00  0.00     0.008 C 
ATOM     19  C   UNL     1       4.032   9.085  39.296  1.00  0.00     0.012 C 
ATOM     20  C   UNL     1       7.327   8.576  38.902  1.00  0.00    -0.025 C 
ATOM     21  C   UNL     1       6.329  10.685  37.820  1.00  0.00     0.005 C 
ATOM     22  C   UNL     1       7.580   9.779  37.919  1.00  0.00     0.003 C 
ATOM     23  C   UNL     1       8.574   7.632  38.823  1.00  0.00     0.010 C 
ATOM     24  C   UNL     1       7.161   9.033  40.393  1.00  0.00     0.012 C 
ATOM     25  C   UNL     1       8.956  10.542  38.074  1.00  0.00    -0.006 C 
ATOM     26  C   UNL     1       9.925   8.346  39.018  1.00  0.00     0.033 C 
ATOM     27  C   UNL     1      10.123   9.505  38.030  1.00  0.00     0.120 C 
ATOM     28  C   UNL     1       9.159  11.526  36.885  1.00  0.00     0.014 C 
ATOM     29  C   UNL     1       9.042  11.395  39.364  1.00  0.00     0.014 C 
ENDROOT
BRANCH   1  30
ATOM     30  C   UNL     1       4.647   4.371  35.259  1.00  0.00     0.048 C 
ATOM     31  O   UNL     1       4.915   3.369  35.973  1.00  0.00    -0.550 OA
ATOM     32  O   UNL     1       5.579   4.774  34.308  1.00  0.00    -0.550 OA
ENDBRANCH   1  30
BRANCH  27  33
ATOM     33  O   UNL     1      10.258   8.978  36.731  1.00  0.00    -0.393 OA
ATOM     34  H   UNL     1       9.355   8.986  36.317  1.00  0.00     0.210 HD
ENDBRANCH  27  33
TORSDOF 2
ENDMDL
MODEL 7
REMARK VINA RESULT:    -6.663      2.478      3.722
REMARK INTER + INTRA:          -7.503
REMARK INTER:                  -7.223
REMARK INTRA:                  -0.280
REMARK UNBOUND:                -0.256
REMARK SMILES CC1(C)CC[C@@]2(C(=O)[O-])CC[C@@]3(C)C(=CC[C@@H]4[C@@]5(C)CC[C@@H](O)C(C)(C)[C@@H]5CC[C@]43C)[C@H]2C1
REMARK SMILES IDX 6 1 5 2 10 3 32 4 4 5 11 6 14 7 33 8 2 9 12 10 15 11 1 12
REMARK SMILES IDX 3 13 13 14 30 15 16 16 17 17 29 18 31 19 18 20 28 21 27 22
REMARK SMILES IDX 20 23 19 24 24 25 21 26 22 27 25 28 26 29 7 30 8 31 9 32
REMARK SMILES IDX 23 33
REMARK H PARENT 23 34
REMARK Flexibility Score: inf
ROOT
ATOM      1  C   UNL     1       2.741   8.131  38.030  1.00  0.00     0.017 C 
ATOM      2  C   UNL     1       1.563   7.171  38.437  1.00  0.00     0.014 C 
ATOM      3  C   UNL     1       3.582   8.432  39.311  1.00  0.00     0.014 C 
ATOM      4  C   UNL     1       3.622   7.471  36.923  1.00  0.00     0.028 C 
ATOM      5  C   UNL     1       1.154   6.202  37.311  1.00  0.00     0.007 C 
ATOM      6  C   UNL     1       4.952   9.118  39.075  1.00  0.00     0.013 C 
ATOM      7  C   UNL     1       4.973   8.185  36.769  1.00  0.00    -0.064 C 
ATOM      8  C   UNL     1       3.715   5.938  37.085  1.00  0.00     0.015 C 
ATOM      9  C   UNL     1       2.323   5.253  36.885  1.00  0.00    -0.035 C 
ATOM     10  C   UNL     1       5.875   8.435  38.008  1.00  0.00    -0.006 C 
ATOM     11  C   UNL     1       5.160   8.838  35.594  1.00  0.00    -0.027 C 
ATOM     12  C   UNL     1       2.269   3.958  37.727  1.00  0.00     0.011 C 
ATOM     13  C   UNL     1       2.141   4.866  35.402  1.00  0.00     0.011 C 
ATOM     14  C   UNL     1       6.350   7.073  38.609  1.00  0.00     0.017 C 
ATOM     15  C   UNL     1       7.182   9.335  37.640  1.00  0.00    -0.020 C 
ATOM     16  C   UNL     1       6.227   9.849  35.328  1.00  0.00     0.032 C 
ATOM     17  C   UNL     1       6.761  10.478  36.632  1.00  0.00     0.006 C 
ATOM     18  C   UNL     1       7.811   9.970  38.929  1.00  0.00     0.008 C 
ATOM     19  C   UNL     1       8.278   8.423  36.989  1.00  0.00     0.012 C 
ATOM     20  C   UNL     1       7.783  11.692  36.409  1.00  0.00    -0.025 C 
ATOM     21  C   UNL     1       8.861  11.049  38.654  1.00  0.00     0.005 C 
ATOM     22  C   UNL     1       8.227  12.198  37.832  1.00  0.00     0.003 C 
ATOM     23  C   UNL     1       7.018  12.865  35.709  1.00  0.00     0.010 C 
ATOM     24  C   UNL     1       8.997  11.296  35.497  1.00  0.00     0.012 C 
ATOM     25  C   UNL     1       9.005  13.573  37.883  1.00  0.00    -0.006 C 
ATOM     26  C   UNL     1       7.775  14.206  35.705  1.00  0.00     0.033 C 
ATOM     27  C   UNL     1       8.179  14.656  37.117  1.00  0.00     0.120 C 
ATOM     28  C   UNL     1       9.150  14.052  39.357  1.00  0.00     0.014 C 
ATOM     29  C   UNL     1      10.441  13.488  37.310  1.00  0.00     0.014 C 
ENDROOT
BRANCH   1  30
ATOM     30  C   UNL     1       2.139   9.418  37.464  1.00  0.00     0.048 C 
ATOM     31  O   UNL     1       1.777   9.500  36.262  1.00  0.00    -0.550 OA
ATOM     32  O   UNL     1       1.923  10.511  38.298  1.00  0.00    -0.550 OA
ENDBRANCH   1  30
BRANCH  27  33
ATOM     33  O   UNL     1       7.015  14.982  37.841  1.00  0.00    -0.393 OA
ATOM     34  H   UNL     1       7.176  14.724  38.786  1.00  0.00     0.210 HD
ENDBRANCH  27  33
TORSDOF 2
ENDMDL
MODEL 8
REMARK VINA RESULT:    -6.612      2.308      7.960
REMARK INTER + INTRA:          -7.448
REMARK INTER:                  -7.167
REMARK INTRA:                  -0.281
REMARK UNBOUND:                -0.256
REMARK SMILES CC1(C)CC[C@@]2(C(=O)[O-])CC[C@@]3(C)C(=CC[C@@H]4[C@@]5(C)CC[C@@H](O)C(C)(C)[C@@H]5CC[C@]43C)[C@H]2C1
REMARK SMILES IDX 6 1 5 2 10 3 32 4 4 5 11 6 14 7 33 8 2 9 12 10 15 11 1 12
REMARK SMILES IDX 3 13 13 14 30 15 16 16 17 17 29 18 31 19 18 20 28 21 27 22
REMARK SMILES IDX 20 23 19 24 24 25 21 26 22 27 25 28 26 29 7 30 8 31 9 32
REMARK SMILES IDX 23 33
REMARK H PARENT 23 34
REMARK Flexibility Score: inf
ROOT
ATOM      1  C   UNL     1       8.043   8.256  38.081  1.00  0.00     0.017 C 
ATOM      2  C   UNL     1       9.445   8.701  38.640  1.00  0.00     0.014 C 
ATOM      3  C   UNL     1       7.494   7.122  39.004  1.00  0.00     0.014 C 
ATOM      4  C   UNL     1       7.063   9.472  38.043  1.00  0.00     0.028 C 
ATOM      5  C   UNL     1       9.747  10.192  38.401  1.00  0.00     0.007 C 
ATOM      6  C   UNL     1       6.003   6.749  38.805  1.00  0.00     0.013 C 
ATOM      7  C   UNL     1       5.605   9.022  37.874  1.00  0.00    -0.064 C 
ATOM      8  C   UNL     1       7.307  10.456  39.207  1.00  0.00     0.015 C 
ATOM      9  C   UNL     1       8.714  11.132  39.105  1.00  0.00    -0.035 C 
ATOM     10  C   UNL     1       4.998   7.952  38.822  1.00  0.00    -0.006 C 
ATOM     11  C   UNL     1       5.019   9.364  36.699  1.00  0.00    -0.027 C 
ATOM     12  C   UNL     1       9.215  11.478  40.525  1.00  0.00     0.011 C 
ATOM     13  C   UNL     1       8.602  12.447  38.304  1.00  0.00     0.011 C 
ATOM     14  C   UNL     1       4.951   8.497  40.286  1.00  0.00     0.017 C 
ATOM     15  C   UNL     1       3.493   7.520  38.370  1.00  0.00    -0.020 C 
ATOM     16  C   UNL     1       3.746   8.788  36.169  1.00  0.00     0.032 C 
ATOM     17  C   UNL     1       3.432   7.412  36.794  1.00  0.00     0.006 C 
ATOM     18  C   UNL     1       3.084   6.147  39.010  1.00  0.00     0.008 C 
ATOM     19  C   UNL     1       2.468   8.592  38.875  1.00  0.00     0.012 C 
ATOM     20  C   UNL     1       2.175   6.663  36.143  1.00  0.00    -0.025 C 
ATOM     21  C   UNL     1       1.814   5.529  38.423  1.00  0.00     0.005 C 
ATOM     22  C   UNL     1       1.999   5.297  36.903  1.00  0.00     0.003 C 
ATOM     23  C   UNL     1       2.511   6.332  34.649  1.00  0.00     0.010 C 
ATOM     24  C   UNL     1       0.876   7.542  36.162  1.00  0.00     0.012 C 
ATOM     25  C   UNL     1       1.009   4.248  36.255  1.00  0.00    -0.006 C 
ATOM     26  C   UNL     1       1.533   5.348  33.981  1.00  0.00     0.033 C 
ATOM     27  C   UNL     1       1.404   4.030  34.759  1.00  0.00     0.120 C 
ATOM     28  C   UNL     1       1.136   2.875  36.977  1.00  0.00     0.014 C 
ATOM     29  C   UNL     1      -0.480   4.661  36.364  1.00  0.00     0.014 C 
ENDROOT
BRANCH   1  30
ATOM     30  C   UNL     1       8.233   7.745  36.653  1.00  0.00     0.048 C 
ATOM     31  O   UNL     1       8.268   8.533  35.673  1.00  0.00    -0.550 OA
ATOM     32  O   UNL     1       8.436   6.388  36.420  1.00  0.00    -0.550 OA
ENDBRANCH   1  30
BRANCH  27  33
ATOM     33  O   UNL     1       2.623   3.330  34.675  1.00  0.00    -0.393 OA
ATOM     34  H   UNL     1       3.017   3.535  33.786  1.00  0.00     0.210 HD
ENDBRANCH  27  33
TORSDOF 2
ENDMDL
MODEL 9
REMARK VINA RESULT:    -6.534     13.465     16.923
REMARK INTER + INTRA:          -7.363
REMARK INTER:                  -7.102
REMARK INTRA:                  -0.261
REMARK UNBOUND:                -0.256
REMARK SMILES CC1(C)CC[C@@]2(C(=O)[O-])CC[C@@]3(C)C(=CC[C@@H]4[C@@]5(C)CC[C@@H](O)C(C)(C)[C@@H]5CC[C@]43C)[C@H]2C1
REMARK SMILES IDX 6 1 5 2 10 3 32 4 4 5 11 6 14 7 33 8 2 9 12 10 15 11 1 12
REMARK SMILES IDX 3 13 13 14 30 15 16 16 17 17 29 18 31 19 18 20 28 21 27 22
REMARK SMILES IDX 20 23 19 24 24 25 21 26 22 27 25 28 26 29 7 30 8 31 9 32
REMARK SMILES IDX 23 33
REMARK H PARENT 23 34
REMARK Flexibility Score: inf
ROOT
ATOM      1  C   UNL     1      11.972  14.907  22.855  1.00  0.00     0.017 C 
ATOM      2  C   UNL     1      12.138  16.227  22.017  1.00  0.00     0.014 C 
ATOM      3  C   UNL     1      12.925  13.828  22.249  1.00  0.00     0.014 C 
ATOM      4  C   UNL     1      12.308  15.171  24.357  1.00  0.00     0.028 C 
ATOM      5  C   UNL     1      11.936  17.505  22.853  1.00  0.00     0.007 C 
ATOM      6  C   UNL     1      13.132  12.551  23.103  1.00  0.00     0.013 C 
ATOM      7  C   UNL     1      12.530  13.862  25.129  1.00  0.00    -0.064 C 
ATOM      8  C   UNL     1      13.424  16.222  24.531  1.00  0.00     0.015 C 
ATOM      9  C   UNL     1      12.976  17.630  24.015  1.00  0.00    -0.035 C 
ATOM     10  C   UNL     1      13.527  12.797  24.600  1.00  0.00    -0.006 C 
ATOM     11  C   UNL     1      11.601  13.576  26.076  1.00  0.00    -0.027 C 
ATOM     12  C   UNL     1      14.215  18.407  23.519  1.00  0.00     0.011 C 
ATOM     13  C   UNL     1      12.342  18.430  25.174  1.00  0.00     0.011 C 
ATOM     14  C   UNL     1      14.980  13.372  24.608  1.00  0.00     0.017 C 
ATOM     15  C   UNL     1      13.493  11.433  25.490  1.00  0.00    -0.020 C 
ATOM     16  C   UNL     1      11.415  12.246  26.730  1.00  0.00     0.032 C 
ATOM     17  C   UNL     1      11.997  11.099  25.876  1.00  0.00     0.006 C 
ATOM     18  C   UNL     1      14.118  10.229  24.702  1.00  0.00     0.008 C 
ATOM     19  C   UNL     1      14.350  11.634  26.787  1.00  0.00     0.012 C 
ATOM     20  C   UNL     1      11.678   9.632  26.436  1.00  0.00    -0.025 C 
ATOM     21  C   UNL     1      13.873   8.860  25.341  1.00  0.00     0.005 C 
ATOM     22  C   UNL     1      12.351   8.601  25.457  1.00  0.00     0.003 C 
ATOM     23  C   UNL     1      10.131   9.401  26.374  1.00  0.00     0.010 C 
ATOM     24  C   UNL     1      12.135   9.445  27.925  1.00  0.00     0.012 C 
ATOM     25  C   UNL     1      11.936   7.085  25.630  1.00  0.00    -0.006 C 
ATOM     26  C   UNL     1       9.697   7.939  26.587  1.00  0.00     0.033 C 
ATOM     27  C   UNL     1      10.378   6.976  25.601  1.00  0.00     0.120 C 
ATOM     28  C   UNL     1      12.485   6.241  24.443  1.00  0.00     0.014 C 
ATOM     29  C   UNL     1      12.497   6.439  26.921  1.00  0.00     0.014 C 
ENDROOT
BRANCH   1  30
ATOM     30  C   UNL     1      10.514  14.455  22.759  1.00  0.00     0.048 C 
ATOM     31  O   UNL     1      10.158  13.555  21.955  1.00  0.00    -0.550 OA
ATOM     32  O   UNL     1       9.559  14.996  23.614  1.00  0.00    -0.550 OA
ENDBRANCH   1  30
BRANCH  27  33
ATOM     33  O   UNL     1       9.895   7.236  24.304  1.00  0.00    -0.393 OA
ATOM     34  H   UNL     1      10.082   6.430  23.755  1.00  0.00     0.210 HD
ENDBRANCH  27  33
TORSDOF 2
ENDMDL
