MODEL 1
REMARK VINA RESULT:    33.323      0.000      0.000
REMARK INTER + INTRA:          36.024
REMARK INTER:                  36.245
REMARK INTRA:                  -0.221
REMARK UNBOUND:                -0.221
REMARK SMILES C[C@H]1[C@H](C)CC[C@]2(C(=O)[O-])CC[C@@]3(C)C(=CC[C@H]4[C@@]5(C)CC[C@@H](O)C(C)(C)[C@@H]5CC[C@@]43C)[C@H]12
REMARK SMILES IDX 7 1 6 2 11 3 33 4 5 5 12 6 15 7 2 8 3 9 13 10 16 11 1 12
REMARK SMILES IDX 4 13 14 14 31 15 17 16 18 17 30 18 32 19 19 20 29 21 28 22
REMARK SMILES IDX 21 23 20 24 25 25 22 26 23 27 26 28 27 29 8 30 9 31 10 32
REMARK SMILES IDX 24 33
REMARK H PARENT 24 34
REMARK Flexibility Score: inf
ROOT
ATOM      1  C   UNL     1      37.271 113.015 -16.014  1.00  0.00     0.017 C 
ATOM      2  C   UNL     1      36.403 113.792 -17.060  1.00  0.00     0.014 C 
ATOM      3  C   UNL     1      38.132 114.064 -15.212  1.00  0.00     0.014 C 
ATOM      4  C   UNL     1      38.131 111.831 -16.711  1.00  0.00     0.030 C 
ATOM      5  C   UNL     1      37.179 114.125 -18.324  1.00  0.00     0.004 C 
ATOM      6  C   UNL     1      39.613 114.125 -15.562  1.00  0.00     0.013 C 
ATOM      7  C   UNL     1      39.675 111.866 -16.543  1.00  0.00    -0.063 C 
ATOM      8  C   UNL     1      37.687 111.567 -18.207  1.00  0.00    -0.003 C 
ATOM      9  C   UNL     1      37.578 112.854 -19.094  1.00  0.00    -0.011 C 
ATOM     10  C   UNL     1      40.320 112.747 -15.461  1.00  0.00    -0.006 C 
ATOM     11  C   UNL     1      40.417 110.875 -17.120  1.00  0.00    -0.027 C 
ATOM     12  C   UNL     1      36.400 110.705 -18.239  1.00  0.00     0.008 C 
ATOM     13  C   UNL     1      38.881 113.111 -19.879  1.00  0.00     0.008 C 
ATOM     14  C   UNL     1      39.971 112.118 -14.069  1.00  0.00     0.017 C 
ATOM     15  C   UNL     1      41.918 112.886 -15.677  1.00  0.00    -0.020 C 
ATOM     16  C   UNL     1      41.925 110.841 -17.167  1.00  0.00     0.032 C 
ATOM     17  C   UNL     1      42.539 111.461 -15.906  1.00  0.00     0.006 C 
ATOM     18  C   UNL     1      42.600 113.472 -14.400  1.00  0.00     0.008 C 
ATOM     19  C   UNL     1      42.181 113.813 -16.912  1.00  0.00     0.012 C 
ATOM     20  C   UNL     1      44.136 111.298 -15.694  1.00  0.00    -0.025 C 
ATOM     21  C   UNL     1      44.134 113.619 -14.464  1.00  0.00     0.005 C 
ATOM     22  C   UNL     1      44.854 112.686 -15.469  1.00  0.00     0.003 C 
ATOM     23  C   UNL     1      44.822 110.628 -16.925  1.00  0.00     0.010 C 
ATOM     24  C   UNL     1      44.320 110.359 -14.460  1.00  0.00     0.012 C 
ATOM     25  C   UNL     1      46.435 112.665 -15.343  1.00  0.00    -0.006 C 
ATOM     26  C   UNL     1      46.359 110.541 -16.823  1.00  0.00     0.033 C 
ATOM     27  C   UNL     1      47.032 111.905 -16.575  1.00  0.00     0.120 C 
ATOM     28  C   UNL     1      46.978 114.124 -15.372  1.00  0.00     0.014 C 
ATOM     29  C   UNL     1      46.963 112.026 -14.022  1.00  0.00     0.014 C 
ENDROOT
BRANCH   1  30
ATOM     30  C   UNL     1      36.247 112.443 -15.024  1.00  0.00     0.048 C 
ATOM     31  O   UNL     1      35.191 113.087 -14.785  1.00  0.00    -0.550 OA
ATOM     32  O   UNL     1      36.415 111.208 -14.403  1.00  0.00    -0.550 OA
ENDBRANCH   1  30
BRANCH  27  33
ATOM     33  O   UNL     1      46.895 112.690 -17.737  1.00  0.00    -0.393 OA
ATOM     34  H   UNL     1      45.936 112.946 -17.812  1.00  0.00     0.210 HD
ENDBRANCH  27  33
TORSDOF 2
ENDMDL
