MODEL 1
REMARK VINA RESULT:    -4.389      0.000      0.000
REMARK INTER + INTRA:         -10.526
REMARK INTER:                  -8.495
REMARK INTRA:                  -2.031
REMARK UNBOUND:                -2.031
REMARK SMILES CCCCCCCCCCCCCCCCCC(=O)[O-]
REMARK SMILES IDX 10 1 11 2 12 3 13 4 14 5 15 6 16 7 17 8 18 9 19 10 20 11
REMARK SMILES IDX 9 12 8 13 7 14 6 15 5 16 4 17 3 18 2 19 1 20
REMARK H PARENT
REMARK Flexibility Score: inf
ROOT
ATOM      1  C   UNL     1      20.732  32.234  43.907  1.00  0.00     0.000 C 
ENDROOT
BRANCH   1   2
ATOM      2  C   UNL     1      21.150  33.426  44.788  1.00  0.00     0.000 C 
BRANCH   2   3
ATOM      3  C   UNL     1      20.130  34.574  44.747  1.00  0.00     0.000 C 
BRANCH   3   4
ATOM      4  C   UNL     1      19.620  34.963  46.145  1.00  0.00     0.000 C 
BRANCH   4   5
ATOM      5  C   UNL     1      20.402  34.252  47.271  1.00  0.00     0.000 C 
BRANCH   5   6
ATOM      6  C   UNL     1      20.091  34.794  48.680  1.00  0.00     0.000 C 
BRANCH   6   7
ATOM      7  C   UNL     1      21.112  34.404  49.762  1.00  0.00     0.006 C 
BRANCH   7   8
ATOM      8  C   UNL     1      20.469  34.192  51.138  1.00  0.00     0.053 C 
BRANCH   8   9
ATOM      9  C   UNL     1      19.909  32.809  51.243  1.00  0.00     0.041 C 
ATOM     10  O   UNL     1      18.663  32.625  51.221  1.00  0.00    -0.550 OA
ATOM     11  O   UNL     1      20.763  31.726  51.419  1.00  0.00    -0.550 OA
ENDBRANCH   8   9
ENDBRANCH   7   8
ENDBRANCH   6   7
ENDBRANCH   5   6
ENDBRANCH   4   5
ENDBRANCH   3   4
ENDBRANCH   2   3
ENDBRANCH   1   2
BRANCH   1  12
ATOM     12  C   UNL     1      19.222  31.952  43.971  1.00  0.00     0.000 C 
BRANCH  12  13
ATOM     13  C   UNL     1      18.901  30.448  43.924  1.00  0.00    -0.000 C 
BRANCH  13  14
ATOM     14  C   UNL     1      18.631  29.859  45.318  1.00  0.00    -0.000 C 
BRANCH  14  15
ATOM     15  C   UNL     1      18.485  30.942  46.403  1.00  0.00    -0.000 C 
BRANCH  15  16
ATOM     16  C   UNL     1      19.548  30.820  47.508  1.00  0.00    -0.000 C 
BRANCH  16  17
ATOM     17  C   UNL     1      19.002  30.140  48.775  1.00  0.00    -0.000 C 
BRANCH  17  18
ATOM     18  C   UNL     1      19.789  28.874  49.160  1.00  0.00    -0.000 C 
BRANCH  18  19
ATOM     19  C   UNL     1      21.194  28.767  48.536  1.00  0.00    -0.003 C 
ATOM     20  C   UNL     1      22.302  29.244  49.474  1.00  0.00     0.004 C 
ENDBRANCH  18  19
ENDBRANCH  17  18
ENDBRANCH  16  17
ENDBRANCH  15  16
ENDBRANCH  14  15
ENDBRANCH  13  14
ENDBRANCH  12  13
ENDBRANCH   1  12
TORSDOF 16
ENDMDL
MODEL 2
REMARK VINA RESULT:    -4.368      1.787      4.235
REMARK INTER + INTRA:         -10.485
REMARK INTER:                  -7.827
REMARK INTRA:                  -2.658
REMARK UNBOUND:                -2.031
REMARK SMILES CCCCCCCCCCCCCCCCCC(=O)[O-]
REMARK SMILES IDX 10 1 11 2 12 3 13 4 14 5 15 6 16 7 17 8 18 9 19 10 20 11
REMARK SMILES IDX 9 12 8 13 7 14 6 15 5 16 4 17 3 18 2 19 1 20
REMARK H PARENT
REMARK Flexibility Score: inf
ROOT
ATOM      1  C   UNL     1      20.916  33.691  45.416  1.00  0.00     0.000 C 
ENDROOT
BRANCH   1   2
ATOM      2  C   UNL     1      20.916  32.475  44.470  1.00  0.00     0.000 C 
BRANCH   2   3
ATOM      3  C   UNL     1      19.499  32.053  44.054  1.00  0.00     0.000 C 
BRANCH   3   4
ATOM      4  C   UNL     1      19.045  30.751  44.736  1.00  0.00     0.000 C 
BRANCH   4   5
ATOM      5  C   UNL     1      18.351  31.011  46.089  1.00  0.00     0.000 C 
BRANCH   5   6
ATOM      6  C   UNL     1      19.291  30.888  47.304  1.00  0.00     0.000 C 
BRANCH   6   7
ATOM      7  C   UNL     1      19.803  29.465  47.585  1.00  0.00     0.006 C 
BRANCH   7   8
ATOM      8  C   UNL     1      19.615  29.043  49.047  1.00  0.00     0.053 C 
BRANCH   8   9
ATOM      9  C   UNL     1      20.882  29.245  49.815  1.00  0.00     0.041 C 
ATOM     10  O   UNL     1      21.974  28.807  49.365  1.00  0.00    -0.550 OA
ATOM     11  O   UNL     1      20.850  29.873  51.055  1.00  0.00    -0.550 OA
ENDBRANCH   8   9
ENDBRANCH   7   8
ENDBRANCH   6   7
ENDBRANCH   5   6
ENDBRANCH   4   5
ENDBRANCH   3   4
ENDBRANCH   2   3
ENDBRANCH   1   2
BRANCH   1  12
ATOM     12  C   UNL     1      19.769  34.670  45.120  1.00  0.00     0.000 C 
BRANCH  12  13
ATOM     13  C   UNL     1      19.158  35.267  46.400  1.00  0.00    -0.000 C 
BRANCH  13  14
ATOM     14  C   UNL     1      19.388  34.378  47.633  1.00  0.00    -0.000 C 
BRANCH  14  15
ATOM     15  C   UNL     1      20.133  35.110  48.764  1.00  0.00    -0.000 C 
BRANCH  15  16
ATOM     16  C   UNL     1      21.507  34.489  49.068  1.00  0.00    -0.000 C 
BRANCH  16  17
ATOM     17  C   UNL     1      21.448  32.955  49.169  1.00  0.00    -0.000 C 
BRANCH  17  18
ATOM     18  C   UNL     1      22.822  32.290  48.965  1.00  0.00    -0.000 C 
BRANCH  18  19
ATOM     19  C   UNL     1      23.542  32.674  47.660  1.00  0.00    -0.003 C 
ATOM     20  C   UNL     1      23.826  31.474  46.758  1.00  0.00     0.004 C 
ENDBRANCH  18  19
ENDBRANCH  17  18
ENDBRANCH  16  17
ENDBRANCH  15  16
ENDBRANCH  14  15
ENDBRANCH  13  14
ENDBRANCH  12  13
ENDBRANCH   1  12
TORSDOF 16
ENDMDL
MODEL 3
REMARK VINA RESULT:    -4.343      1.110      2.174
REMARK INTER + INTRA:         -10.437
REMARK INTER:                  -7.997
REMARK INTRA:                  -2.440
REMARK UNBOUND:                -2.031
REMARK SMILES CCCCCCCCCCCCCCCCCC(=O)[O-]
REMARK SMILES IDX 10 1 11 2 12 3 13 4 14 5 15 6 16 7 17 8 18 9 19 10 20 11
REMARK SMILES IDX 9 12 8 13 7 14 6 15 5 16 4 17 3 18 2 19 1 20
REMARK H PARENT
REMARK Flexibility Score: inf
ROOT
ATOM      1  C   UNL     1      19.619  34.390  44.640  1.00  0.00     0.000 C 
ENDROOT
BRANCH   1   2
ATOM      2  C   UNL     1      19.178  35.077  45.946  1.00  0.00     0.000 C 
BRANCH   2   3
ATOM      3  C   UNL     1      19.221  34.128  47.153  1.00  0.00     0.000 C 
BRANCH   3   4
ATOM      4  C   UNL     1      19.910  34.758  48.376  1.00  0.00     0.000 C 
BRANCH   4   5
ATOM      5  C   UNL     1      21.373  34.288  48.528  1.00  0.00     0.000 C 
BRANCH   5   6
ATOM      6  C   UNL     1      21.517  32.772  48.766  1.00  0.00     0.000 C 
BRANCH   6   7
ATOM      7  C   UNL     1      22.183  32.387  50.098  1.00  0.00     0.006 C 
BRANCH   7   8
ATOM      8  C   UNL     1      21.188  31.826  51.120  1.00  0.00     0.053 C 
BRANCH   8   9
ATOM      9  C   UNL     1      20.213  32.882  51.532  1.00  0.00     0.041 C 
ATOM     10  O   UNL     1      20.588  33.849  52.245  1.00  0.00    -0.550 OA
ATOM     11  O   UNL     1      18.875  32.770  51.170  1.00  0.00    -0.550 OA
ENDBRANCH   8   9
ENDBRANCH   7   8
ENDBRANCH   6   7
ENDBRANCH   5   6
ENDBRANCH   4   5
ENDBRANCH   3   4
ENDBRANCH   2   3
ENDBRANCH   1   2
BRANCH   1  12
ATOM     12  C   UNL     1      20.951  33.637  44.788  1.00  0.00     0.000 C 
BRANCH  12  13
ATOM     13  C   UNL     1      20.867  32.185  44.286  1.00  0.00    -0.000 C 
BRANCH  13  14
ATOM     14  C   UNL     1      19.441  31.785  43.875  1.00  0.00    -0.000 C 
BRANCH  14  15
ATOM     15  C   UNL     1      18.968  30.487  44.553  1.00  0.00    -0.000 C 
BRANCH  15  16
ATOM     16  C   UNL     1      18.578  30.695  46.026  1.00  0.00    -0.000 C 
BRANCH  16  17
ATOM     17  C   UNL     1      19.098  29.569  46.936  1.00  0.00    -0.000 C 
BRANCH  17  18
ATOM     18  C   UNL     1      19.183  29.988  48.415  1.00  0.00    -0.000 C 
BRANCH  18  19
ATOM     19  C   UNL     1      19.769  28.921  49.360  1.00  0.00    -0.003 C 
ATOM     20  C   UNL     1      21.274  28.725  49.179  1.00  0.00     0.004 C 
ENDBRANCH  18  19
ENDBRANCH  17  18
ENDBRANCH  16  17
ENDBRANCH  15  16
ENDBRANCH  14  15
ENDBRANCH  13  14
ENDBRANCH  12  13
ENDBRANCH   1  12
TORSDOF 16
ENDMDL
MODEL 4
REMARK VINA RESULT:    -4.336     11.400     13.302
REMARK INTER + INTRA:         -10.423
REMARK INTER:                  -7.703
REMARK INTRA:                  -2.720
REMARK UNBOUND:                -2.031
REMARK SMILES CCCCCCCCCCCCCCCCCC(=O)[O-]
REMARK SMILES IDX 10 1 11 2 12 3 13 4 14 5 15 6 16 7 17 8 18 9 19 10 20 11
REMARK SMILES IDX 9 12 8 13 7 14 6 15 5 16 4 17 3 18 2 19 1 20
REMARK H PARENT
REMARK Flexibility Score: inf
ROOT
ATOM      1  C   UNL     1      27.984  42.092  45.606  1.00  0.00     0.000 C 
ENDROOT
BRANCH   1   2
ATOM      2  C   UNL     1      27.282  43.363  45.092  1.00  0.00     0.000 C 
BRANCH   2   3
ATOM      3  C   UNL     1      26.310  43.956  46.123  1.00  0.00     0.000 C 
BRANCH   3   4
ATOM      4  C   UNL     1      25.953  42.961  47.241  1.00  0.00     0.000 C 
BRANCH   4   5
ATOM      5  C   UNL     1      26.551  43.375  48.603  1.00  0.00     0.000 C 
BRANCH   5   6
ATOM      6  C   UNL     1      27.546  42.349  49.182  1.00  0.00     0.000 C 
BRANCH   6   7
ATOM      7  C   UNL     1      28.938  42.913  49.512  1.00  0.00     0.006 C 
BRANCH   7   8
ATOM      8  C   UNL     1      29.631  43.536  48.294  1.00  0.00     0.053 C 
BRANCH   8   9
ATOM      9  C   UNL     1      31.093  43.705  48.557  1.00  0.00     0.041 C 
ATOM     10  O   UNL     1      31.684  42.944  49.368  1.00  0.00    -0.550 OA
ATOM     11  O   UNL     1      31.794  44.738  47.945  1.00  0.00    -0.550 OA
ENDBRANCH   8   9
ENDBRANCH   7   8
ENDBRANCH   6   7
ENDBRANCH   5   6
ENDBRANCH   4   5
ENDBRANCH   3   4
ENDBRANCH   2   3
ENDBRANCH   1   2
BRANCH   1  12
ATOM     12  C   UNL     1      27.883  40.920  44.616  1.00  0.00     0.000 C 
BRANCH  12  13
ATOM     13  C   UNL     1      29.257  40.484  44.076  1.00  0.00    -0.000 C 
BRANCH  13  14
ATOM     14  C   UNL     1      29.943  39.448  44.982  1.00  0.00    -0.000 C 
BRANCH  14  15
ATOM     15  C   UNL     1      30.892  40.092  46.009  1.00  0.00    -0.000 C 
BRANCH  15  16
ATOM     16  C   UNL     1      30.334  40.044  47.442  1.00  0.00    -0.000 C 
BRANCH  16  17
ATOM     17  C   UNL     1      29.750  38.666  47.799  1.00  0.00    -0.000 C 
BRANCH  17  18
ATOM     18  C   UNL     1      28.321  38.752  48.366  1.00  0.00    -0.000 C 
BRANCH  18  19
ATOM     19  C   UNL     1      27.201  38.434  47.357  1.00  0.00    -0.003 C 
ATOM     20  C   UNL     1      25.990  39.355  47.498  1.00  0.00     0.004 C 
ENDBRANCH  18  19
ENDBRANCH  17  18
ENDBRANCH  16  17
ENDBRANCH  15  16
ENDBRANCH  14  15
ENDBRANCH  13  14
ENDBRANCH  12  13
ENDBRANCH   1  12
TORSDOF 16
ENDMDL
MODEL 5
REMARK VINA RESULT:    -4.328      1.831      2.505
REMARK INTER + INTRA:         -10.408
REMARK INTER:                  -7.631
REMARK INTRA:                  -2.777
REMARK UNBOUND:                -2.031
REMARK SMILES CCCCCCCCCCCCCCCCCC(=O)[O-]
REMARK SMILES IDX 10 1 11 2 12 3 13 4 14 5 15 6 16 7 17 8 18 9 19 10 20 11
REMARK SMILES IDX 9 12 8 13 7 14 6 15 5 16 4 17 3 18 2 19 1 20
REMARK H PARENT
REMARK Flexibility Score: inf
ROOT
ATOM      1  C   UNL     1      21.153  33.251  45.387  1.00  0.00     0.000 C 
ENDROOT
BRANCH   1   2
ATOM      2  C   UNL     1      20.069  34.331  45.566  1.00  0.00     0.000 C 
BRANCH   2   3
ATOM      3  C   UNL     1      19.872  34.728  47.036  1.00  0.00     0.000 C 
BRANCH   3   4
ATOM      4  C   UNL     1      21.040  34.283  47.932  1.00  0.00     0.000 C 
BRANCH   4   5
ATOM      5  C   UNL     1      20.765  34.553  49.427  1.00  0.00     0.000 C 
BRANCH   5   6
ATOM      6  C   UNL     1      21.927  34.146  50.355  1.00  0.00     0.000 C 
BRANCH   6   7
ATOM      7  C   UNL     1      21.517  33.821  51.801  1.00  0.00     0.006 C 
BRANCH   7   8
ATOM      8  C   UNL     1      20.092  34.281  52.133  1.00  0.00     0.053 C 
BRANCH   8   9
ATOM      9  C   UNL     1      20.127  35.493  53.008  1.00  0.00     0.041 C 
ATOM     10  O   UNL     1      19.092  35.857  53.628  1.00  0.00    -0.550 OA
ATOM     11  O   UNL     1      21.287  36.253  53.097  1.00  0.00    -0.550 OA
ENDBRANCH   8   9
ENDBRANCH   7   8
ENDBRANCH   6   7
ENDBRANCH   5   6
ENDBRANCH   4   5
ENDBRANCH   3   4
ENDBRANCH   2   3
ENDBRANCH   1   2
BRANCH   1  12
ATOM     12  C   UNL     1      20.893  32.350  44.169  1.00  0.00     0.000 C 
BRANCH  12  13
ATOM     13  C   UNL     1      19.393  32.144  43.897  1.00  0.00    -0.000 C 
BRANCH  13  14
ATOM     14  C   UNL     1      18.971  30.670  44.008  1.00  0.00    -0.000 C 
BRANCH  14  15
ATOM     15  C   UNL     1      18.637  30.254  45.452  1.00  0.00    -0.000 C 
BRANCH  15  16
ATOM     16  C   UNL     1      17.942  31.372  46.246  1.00  0.00    -0.000 C 
BRANCH  16  17
ATOM     17  C   UNL     1      18.463  31.479  47.689  1.00  0.00    -0.000 C 
BRANCH  17  18
ATOM     18  C   UNL     1      19.776  30.706  47.909  1.00  0.00    -0.000 C 
BRANCH  18  19
ATOM     19  C   UNL     1      20.386  30.848  49.316  1.00  0.00    -0.003 C 
ATOM     20  C   UNL     1      19.331  30.958  50.416  1.00  0.00     0.004 C 
ENDBRANCH  18  19
ENDBRANCH  17  18
ENDBRANCH  16  17
ENDBRANCH  15  16
ENDBRANCH  14  15
ENDBRANCH  13  14
ENDBRANCH  12  13
ENDBRANCH   1  12
TORSDOF 16
ENDMDL
MODEL 6
REMARK VINA RESULT:    -4.314      1.794      4.185
REMARK INTER + INTRA:         -10.380
REMARK INTER:                  -8.184
REMARK INTRA:                  -2.196
REMARK UNBOUND:                -2.031
REMARK SMILES CCCCCCCCCCCCCCCCCC(=O)[O-]
REMARK SMILES IDX 10 1 11 2 12 3 13 4 14 5 15 6 16 7 17 8 18 9 19 10 20 11
REMARK SMILES IDX 9 12 8 13 7 14 6 15 5 16 4 17 3 18 2 19 1 20
REMARK H PARENT
REMARK Flexibility Score: inf
ROOT
ATOM      1  C   UNL     1      20.864  32.314  44.550  1.00  0.00     0.000 C 
ENDROOT
BRANCH   1   2
ATOM      2  C   UNL     1      19.484  32.209  43.875  1.00  0.00     0.000 C 
BRANCH   2   3
ATOM      3  C   UNL     1      18.894  30.793  43.958  1.00  0.00     0.000 C 
BRANCH   3   4
ATOM      4  C   UNL     1      18.787  30.280  45.404  1.00  0.00     0.000 C 
BRANCH   4   5
ATOM      5  C   UNL     1      18.001  31.250  46.311  1.00  0.00     0.000 C 
BRANCH   5   6
ATOM      6  C   UNL     1      18.092  30.908  47.812  1.00  0.00     0.000 C 
BRANCH   6   7
ATOM      7  C   UNL     1      19.211  29.922  48.184  1.00  0.00     0.006 C 
BRANCH   7   8
ATOM      8  C   UNL     1      19.371  29.748  49.699  1.00  0.00     0.053 C 
BRANCH   8   9
ATOM      9  C   UNL     1      20.306  28.620  49.998  1.00  0.00     0.041 C 
ATOM     10  O   UNL     1      20.112  27.884  51.002  1.00  0.00    -0.550 OA
ATOM     11  O   UNL     1      21.423  28.413  49.197  1.00  0.00    -0.550 OA
ENDBRANCH   8   9
ENDBRANCH   7   8
ENDBRANCH   6   7
ENDBRANCH   5   6
ENDBRANCH   4   5
ENDBRANCH   3   4
ENDBRANCH   2   3
ENDBRANCH   1   2
BRANCH   1  12
ATOM     12  C   UNL     1      20.942  33.469  45.561  1.00  0.00     0.000 C 
BRANCH  12  13
ATOM     13  C   UNL     1      19.914  34.578  45.269  1.00  0.00    -0.000 C 
BRANCH  13  14
ATOM     14  C   UNL     1      19.455  35.304  46.543  1.00  0.00    -0.000 C 
BRANCH  14  15
ATOM     15  C   UNL     1      19.266  34.351  47.737  1.00  0.00    -0.000 C 
BRANCH  15  16
ATOM     16  C   UNL     1      20.156  34.720  48.937  1.00  0.00    -0.000 C 
BRANCH  16  17
ATOM     17  C   UNL     1      21.563  34.107  48.834  1.00  0.00    -0.000 C 
BRANCH  17  18
ATOM     18  C   UNL     1      21.637  32.680  49.408  1.00  0.00    -0.000 C 
BRANCH  18  19
ATOM     19  C   UNL     1      21.888  32.603  50.926  1.00  0.00    -0.003 C 
ATOM     20  C   UNL     1      22.543  31.291  51.357  1.00  0.00     0.004 C 
ENDBRANCH  18  19
ENDBRANCH  17  18
ENDBRANCH  16  17
ENDBRANCH  15  16
ENDBRANCH  14  15
ENDBRANCH  13  14
ENDBRANCH  12  13
ENDBRANCH   1  12
TORSDOF 16
ENDMDL
MODEL 7
REMARK VINA RESULT:    -4.251      2.168      2.812
REMARK INTER + INTRA:         -10.258
REMARK INTER:                  -7.300
REMARK INTRA:                  -2.958
REMARK UNBOUND:                -2.031
REMARK SMILES CCCCCCCCCCCCCCCCCC(=O)[O-]
REMARK SMILES IDX 10 1 11 2 12 3 13 4 14 5 15 6 16 7 17 8 18 9 19 10 20 11
REMARK SMILES IDX 9 12 8 13 7 14 6 15 5 16 4 17 3 18 2 19 1 20
REMARK H PARENT
REMARK Flexibility Score: inf
ROOT
ATOM      1  C   UNL     1      20.696  32.371  44.449  1.00  0.00     0.000 C 
ENDROOT
BRANCH   1   2
ATOM      2  C   UNL     1      20.706  33.886  44.724  1.00  0.00     0.000 C 
BRANCH   2   3
ATOM      3  C   UNL     1      19.334  34.413  45.169  1.00  0.00     0.000 C 
BRANCH   3   4
ATOM      4  C   UNL     1      19.397  35.172  46.506  1.00  0.00     0.000 C 
BRANCH   4   5
ATOM      5  C   UNL     1      19.622  34.227  47.705  1.00  0.00     0.000 C 
BRANCH   5   6
ATOM      6  C   UNL     1      20.671  34.739  48.711  1.00  0.00     0.000 C 
BRANCH   6   7
ATOM      7  C   UNL     1      22.013  33.988  48.687  1.00  0.00     0.006 C 
BRANCH   7   8
ATOM      8  C   UNL     1      21.950  32.684  47.884  1.00  0.00     0.053 C 
BRANCH   8   9
ATOM      9  C   UNL     1      23.327  32.148  47.652  1.00  0.00     0.041 C 
ATOM     10  O   UNL     1      24.292  32.936  47.469  1.00  0.00    -0.550 OA
ATOM     11  O   UNL     1      23.536  30.775  47.586  1.00  0.00    -0.550 OA
ENDBRANCH   8   9
ENDBRANCH   7   8
ENDBRANCH   6   7
ENDBRANCH   5   6
ENDBRANCH   4   5
ENDBRANCH   3   4
ENDBRANCH   2   3
ENDBRANCH   1   2
BRANCH   1  12
ATOM     12  C   UNL     1      19.274  31.811  44.274  1.00  0.00     0.000 C 
BRANCH  12  13
ATOM     13  C   UNL     1      18.983  30.633  45.220  1.00  0.00    -0.000 C 
BRANCH  13  14
ATOM     14  C   UNL     1      18.216  31.065  46.480  1.00  0.00    -0.000 C 
BRANCH  14  15
ATOM     15  C   UNL     1      18.916  30.632  47.781  1.00  0.00    -0.000 C 
BRANCH  15  16
ATOM     16  C   UNL     1      18.259  31.231  49.036  1.00  0.00    -0.000 C 
BRANCH  16  17
ATOM     17  C   UNL     1      18.951  30.779  50.334  1.00  0.00    -0.000 C 
BRANCH  17  18
ATOM     18  C   UNL     1      19.830  31.880  50.957  1.00  0.00    -0.000 C 
BRANCH  18  19
ATOM     19  C   UNL     1      21.249  31.431  51.354  1.00  0.00    -0.003 C 
ATOM     20  C   UNL     1      21.690  30.151  50.647  1.00  0.00     0.004 C 
ENDBRANCH  18  19
ENDBRANCH  17  18
ENDBRANCH  16  17
ENDBRANCH  15  16
ENDBRANCH  14  15
ENDBRANCH  13  14
ENDBRANCH  12  13
ENDBRANCH   1  12
TORSDOF 16
ENDMDL
MODEL 8
REMARK VINA RESULT:    -3.865      2.055      2.953
REMARK INTER + INTRA:          -9.511
REMARK INTER:                  -6.661
REMARK INTRA:                  -2.850
REMARK UNBOUND:                -2.031
REMARK SMILES CCCCCCCCCCCCCCCCCC(=O)[O-]
REMARK SMILES IDX 10 1 11 2 12 3 13 4 14 5 15 6 16 7 17 8 18 9 19 10 20 11
REMARK SMILES IDX 9 12 8 13 7 14 6 15 5 16 4 17 3 18 2 19 1 20
REMARK H PARENT
REMARK Flexibility Score: inf
ROOT
ATOM      1  C   UNL     1      20.714  33.781  45.158  1.00  0.00     0.000 C 
ENDROOT
BRANCH   1   2
ATOM      2  C   UNL     1      19.384  34.540  45.319  1.00  0.00     0.000 C 
BRANCH   2   3
ATOM      3  C   UNL     1      19.331  35.367  46.611  1.00  0.00     0.000 C 
BRANCH   3   4
ATOM      4  C   UNL     1      19.387  34.494  47.876  1.00  0.00     0.000 C 
BRANCH   4   5
ATOM      5  C   UNL     1      20.642  34.780  48.729  1.00  0.00     0.000 C 
BRANCH   5   6
ATOM      6  C   UNL     1      21.319  33.511  49.284  1.00  0.00     0.000 C 
BRANCH   6   7
ATOM      7  C   UNL     1      22.830  33.414  49.017  1.00  0.00     0.006 C 
BRANCH   7   8
ATOM      8  C   UNL     1      23.154  32.800  47.650  1.00  0.00     0.053 C 
BRANCH   8   9
ATOM      9  C   UNL     1      23.895  31.512  47.820  1.00  0.00     0.041 C 
ATOM     10  O   UNL     1      24.278  30.862  46.811  1.00  0.00    -0.550 OA
ATOM     11  O   UNL     1      24.118  31.002  49.094  1.00  0.00    -0.550 OA
ENDBRANCH   8   9
ENDBRANCH   7   8
ENDBRANCH   6   7
ENDBRANCH   5   6
ENDBRANCH   4   5
ENDBRANCH   3   4
ENDBRANCH   2   3
ENDBRANCH   1   2
BRANCH   1  12
ATOM     12  C   UNL     1      20.612  32.613  44.163  1.00  0.00     0.000 C 
BRANCH  12  13
ATOM     13  C   UNL     1      19.158  32.174  43.917  1.00  0.00    -0.000 C 
BRANCH  13  14
ATOM     14  C   UNL     1      19.004  30.645  43.875  1.00  0.00    -0.000 C 
BRANCH  14  15
ATOM     15  C   UNL     1      18.640  30.046  45.245  1.00  0.00    -0.000 C 
BRANCH  15  16
ATOM     16  C   UNL     1      18.050  31.088  46.211  1.00  0.00    -0.000 C 
BRANCH  16  17
ATOM     17  C   UNL     1      18.760  31.092  47.576  1.00  0.00    -0.000 C 
BRANCH  17  18
ATOM     18  C   UNL     1      20.150  30.432  47.528  1.00  0.00    -0.000 C 
BRANCH  18  19
ATOM     19  C   UNL     1      20.695  29.966  48.891  1.00  0.00    -0.003 C 
ATOM     20  C   UNL     1      21.435  28.631  48.815  1.00  0.00     0.004 C 
ENDBRANCH  18  19
ENDBRANCH  17  18
ENDBRANCH  16  17
ENDBRANCH  15  16
ENDBRANCH  14  15
ENDBRANCH  13  14
ENDBRANCH  12  13
ENDBRANCH   1  12
TORSDOF 16
ENDMDL
