MODEL 1
REMARK VINA RESULT:    -5.926      0.000      0.000
REMARK INTER + INTRA:         -14.203
REMARK INTER:                 -12.855
REMARK INTRA:                  -1.348
REMARK UNBOUND:                -1.348
REMARK SMILES CCCCCCCCCCCCCCCCCCCCCC(=O)[O-]
REMARK SMILES IDX 12 1 11 2 10 3 9 4 8 5 7 6 6 7 5 8 4 9 3 10 2 11 1 12 13 13
REMARK SMILES IDX 14 14 15 15 16 16 17 17 18 18 19 19 20 20 21 21 22 22 23 23
REMARK SMILES IDX 24 24
REMARK H PARENT
REMARK Flexibility Score: inf
ROOT
ATOM      1  C   UNL     1      -9.078  62.336  46.945  1.00  0.00     0.000 C 
ENDROOT
BRANCH   1   2
ATOM      2  C   UNL     1      -9.221  62.690  45.454  1.00  0.00     0.000 C 
BRANCH   2   3
ATOM      3  C   UNL     1      -9.652  61.483  44.598  1.00  0.00     0.000 C 
BRANCH   3   4
ATOM      4  C   UNL     1     -10.040  61.846  43.150  1.00  0.00    -0.000 C 
BRANCH   4   5
ATOM      5  C   UNL     1      -9.925  63.336  42.790  1.00  0.00    -0.000 C 
BRANCH   5   6
ATOM      6  C   UNL     1      -9.438  63.566  41.349  1.00  0.00    -0.000 C 
BRANCH   6   7
ATOM      7  C   UNL     1      -9.838  62.427  40.396  1.00  0.00    -0.000 C 
BRANCH   7   8
ATOM      8  C   UNL     1     -10.919  62.833  39.371  1.00  0.00    -0.000 C 
BRANCH   8   9
ATOM      9  C   UNL     1     -11.971  61.728  39.171  1.00  0.00    -0.000 C 
BRANCH   9  10
ATOM     10  C   UNL     1     -11.842  60.604  40.213  1.00  0.00    -0.000 C 
BRANCH  10  11
ATOM     11  C   UNL     1     -13.195  59.963  40.547  1.00  0.00    -0.003 C 
ATOM     12  C   UNL     1     -14.345  60.742  39.913  1.00  0.00     0.004 C 
ENDBRANCH  10  11
ENDBRANCH   9  10
ENDBRANCH   8   9
ENDBRANCH   7   8
ENDBRANCH   6   7
ENDBRANCH   5   6
ENDBRANCH   4   5
ENDBRANCH   3   4
ENDBRANCH   2   3
ENDBRANCH   1   2
BRANCH   1  13
ATOM     13  C   UNL     1      -9.110  63.572  47.862  1.00  0.00     0.000 C 
BRANCH  13  14
ATOM     14  C   UNL     1      -8.202  63.443  49.106  1.00  0.00     0.000 C 
BRANCH  14  15
ATOM     15  C   UNL     1      -7.976  64.800  49.798  1.00  0.00     0.000 C 
BRANCH  15  16
ATOM     16  C   UNL     1      -6.494  65.206  49.844  1.00  0.00     0.000 C 
BRANCH  16  17
ATOM     17  C   UNL     1      -6.109  65.890  51.167  1.00  0.00     0.000 C 
BRANCH  17  18
ATOM     18  C   UNL     1      -7.037  65.505  52.334  1.00  0.00     0.000 C 
BRANCH  18  19
ATOM     19  C   UNL     1      -6.543  64.340  53.210  1.00  0.00     0.000 C 
BRANCH  19  20
ATOM     20  C   UNL     1      -7.281  63.024  52.930  1.00  0.00     0.006 C 
BRANCH  20  21
ATOM     21  C   UNL     1      -7.678  62.327  54.234  1.00  0.00     0.053 C 
BRANCH  21  22
ATOM     22  C   UNL     1      -6.560  61.467  54.733  1.00  0.00     0.041 C 
ATOM     23  O   UNL     1      -5.544  61.267  54.014  1.00  0.00    -0.550 OA
ATOM     24  O   UNL     1      -6.610  60.934  56.015  1.00  0.00    -0.550 OA
ENDBRANCH  21  22
ENDBRANCH  20  21
ENDBRANCH  19  20
ENDBRANCH  18  19
ENDBRANCH  17  18
ENDBRANCH  16  17
ENDBRANCH  15  16
ENDBRANCH  14  15
ENDBRANCH  13  14
ENDBRANCH   1  13
TORSDOF 20
ENDMDL
MODEL 2
REMARK VINA RESULT:    -5.875      1.272      3.202
REMARK INTER + INTRA:         -14.092
REMARK INTER:                 -12.671
REMARK INTRA:                  -1.421
REMARK UNBOUND:                -1.348
REMARK SMILES CCCCCCCCCCCCCCCCCCCCCC(=O)[O-]
REMARK SMILES IDX 12 1 11 2 10 3 9 4 8 5 7 6 6 7 5 8 4 9 3 10 2 11 1 12 13 13
REMARK SMILES IDX 14 14 15 15 16 16 17 17 18 18 19 19 20 20 21 21 22 22 23 23
REMARK SMILES IDX 24 24
REMARK H PARENT
REMARK Flexibility Score: inf
ROOT
ATOM      1  C   UNL     1     -10.116  61.971  43.510  1.00  0.00     0.000 C 
ENDROOT
BRANCH   1   2
ATOM      2  C   UNL     1      -9.644  63.353  43.021  1.00  0.00     0.000 C 
BRANCH   2   3
ATOM      3  C   UNL     1     -10.070  63.644  41.568  1.00  0.00     0.000 C 
BRANCH   3   4
ATOM      4  C   UNL     1      -9.198  62.945  40.506  1.00  0.00    -0.000 C 
BRANCH   4   5
ATOM      5  C   UNL     1      -9.876  61.788  39.753  1.00  0.00    -0.000 C 
BRANCH   5   6
ATOM      6  C   UNL     1     -11.411  61.866  39.801  1.00  0.00    -0.000 C 
BRANCH   6   7
ATOM      7  C   UNL     1     -12.043  60.711  40.596  1.00  0.00    -0.000 C 
BRANCH   7   8
ATOM      8  C   UNL     1     -12.616  59.589  39.703  1.00  0.00    -0.000 C 
BRANCH   8   9
ATOM      9  C   UNL     1     -13.513  60.143  38.583  1.00  0.00    -0.000 C 
BRANCH   9  10
ATOM     10  C   UNL     1     -14.922  60.497  39.084  1.00  0.00    -0.000 C 
BRANCH  10  11
ATOM     11  C   UNL     1     -15.607  61.550  38.203  1.00  0.00    -0.003 C 
ATOM     12  C   UNL     1     -14.953  62.919  38.374  1.00  0.00     0.004 C 
ENDBRANCH  10  11
ENDBRANCH   9  10
ENDBRANCH   8   9
ENDBRANCH   7   8
ENDBRANCH   6   7
ENDBRANCH   5   6
ENDBRANCH   4   5
ENDBRANCH   3   4
ENDBRANCH   2   3
ENDBRANCH   1   2
BRANCH   1  13
ATOM     13  C   UNL     1      -9.524  61.582  44.876  1.00  0.00     0.000 C 
BRANCH  13  14
ATOM     14  C   UNL     1      -9.212  62.794  45.782  1.00  0.00     0.000 C 
BRANCH  14  15
ATOM     15  C   UNL     1      -8.910  62.368  47.231  1.00  0.00     0.000 C 
BRANCH  15  16
ATOM     16  C   UNL     1      -9.482  63.346  48.271  1.00  0.00     0.000 C 
BRANCH  16  17
ATOM     17  C   UNL     1      -8.614  64.605  48.439  1.00  0.00     0.000 C 
BRANCH  17  18
ATOM     18  C   UNL     1      -7.468  64.414  49.448  1.00  0.00     0.000 C 
BRANCH  18  19
ATOM     19  C   UNL     1      -7.742  64.954  50.864  1.00  0.00     0.000 C 
BRANCH  19  20
ATOM     20  C   UNL     1      -6.463  65.355  51.611  1.00  0.00     0.006 C 
BRANCH  20  21
ATOM     21  C   UNL     1      -6.536  64.948  53.085  1.00  0.00     0.053 C 
BRANCH  21  22
ATOM     22  C   UNL     1      -6.785  63.478  53.212  1.00  0.00     0.041 C 
ATOM     23  O   UNL     1      -5.960  62.651  52.741  1.00  0.00    -0.550 OA
ATOM     24  O   UNL     1      -7.899  63.019  53.904  1.00  0.00    -0.550 OA
ENDBRANCH  21  22
ENDBRANCH  20  21
ENDBRANCH  19  20
ENDBRANCH  18  19
ENDBRANCH  17  18
ENDBRANCH  16  17
ENDBRANCH  15  16
ENDBRANCH  14  15
ENDBRANCH  13  14
ENDBRANCH   1  13
TORSDOF 20
ENDMDL
MODEL 3
REMARK VINA RESULT:    -5.867      4.475     11.904
REMARK INTER + INTRA:         -14.076
REMARK INTER:                 -12.378
REMARK INTRA:                  -1.697
REMARK UNBOUND:                -1.348
REMARK SMILES CCCCCCCCCCCCCCCCCCCCCC(=O)[O-]
REMARK SMILES IDX 12 1 11 2 10 3 9 4 8 5 7 6 6 7 5 8 4 9 3 10 2 11 1 12 13 13
REMARK SMILES IDX 14 14 15 15 16 16 17 17 18 18 19 19 20 20 21 21 22 22 23 23
REMARK SMILES IDX 24 24
REMARK H PARENT
REMARK Flexibility Score: inf
ROOT
ATOM      1  C   UNL     1      -9.509  61.557  45.039  1.00  0.00     0.000 C 
ENDROOT
BRANCH   1   2
ATOM      2  C   UNL     1      -9.007  62.808  45.783  1.00  0.00     0.000 C 
BRANCH   2   3
ATOM      3  C   UNL     1      -8.951  62.606  47.310  1.00  0.00     0.000 C 
BRANCH   3   4
ATOM      4  C   UNL     1      -9.523  63.786  48.121  1.00  0.00    -0.000 C 
BRANCH   4   5
ATOM      5  C   UNL     1      -8.520  64.501  49.042  1.00  0.00    -0.000 C 
BRANCH   5   6
ATOM      6  C   UNL     1      -7.442  63.556  49.597  1.00  0.00    -0.000 C 
BRANCH   6   7
ATOM      7  C   UNL     1      -6.267  64.306  50.246  1.00  0.00    -0.000 C 
BRANCH   7   8
ATOM      8  C   UNL     1      -6.709  65.453  51.180  1.00  0.00    -0.000 C 
BRANCH   8   9
ATOM      9  C   UNL     1      -6.640  65.050  52.663  1.00  0.00    -0.000 C 
BRANCH   9  10
ATOM     10  C   UNL     1      -7.993  64.555  53.198  1.00  0.00    -0.000 C 
BRANCH  10  11
ATOM     11  C   UNL     1      -7.860  63.262  54.013  1.00  0.00    -0.003 C 
ATOM     12  C   UNL     1      -7.157  62.173  53.205  1.00  0.00     0.004 C 
ENDBRANCH  10  11
ENDBRANCH   9  10
ENDBRANCH   8   9
ENDBRANCH   7   8
ENDBRANCH   6   7
ENDBRANCH   5   6
ENDBRANCH   4   5
ENDBRANCH   3   4
ENDBRANCH   2   3
ENDBRANCH   1   2
BRANCH   1  13
ATOM     13  C   UNL     1     -10.073  61.873  43.642  1.00  0.00     0.000 C 
BRANCH  13  14
ATOM     14  C   UNL     1      -9.750  63.303  43.155  1.00  0.00     0.000 C 
BRANCH  14  15
ATOM     15  C   UNL     1      -9.747  63.402  41.618  1.00  0.00     0.000 C 
BRANCH  15  16
ATOM     16  C   UNL     1     -10.233  62.111  40.938  1.00  0.00     0.000 C 
BRANCH  16  17
ATOM     17  C   UNL     1     -10.011  62.125  39.416  1.00  0.00     0.000 C 
BRANCH  17  18
ATOM     18  C   UNL     1     -11.179  62.766  38.645  1.00  0.00     0.000 C 
BRANCH  18  19
ATOM     19  C   UNL     1     -12.513  62.835  39.410  1.00  0.00     0.000 C 
BRANCH  19  20
ATOM     20  C   UNL     1     -13.609  61.962  38.786  1.00  0.00     0.006 C 
BRANCH  20  21
ATOM     21  C   UNL     1     -14.289  61.090  39.845  1.00  0.00     0.053 C 
BRANCH  21  22
ATOM     22  C   UNL     1     -13.287  60.207  40.521  1.00  0.00     0.041 C 
ATOM     23  O   UNL     1     -13.182  60.212  41.777  1.00  0.00    -0.550 OA
ATOM     24  O   UNL     1     -12.510  59.334  39.770  1.00  0.00    -0.550 OA
ENDBRANCH  21  22
ENDBRANCH  20  21
ENDBRANCH  19  20
ENDBRANCH  18  19
ENDBRANCH  17  18
ENDBRANCH  16  17
ENDBRANCH  15  16
ENDBRANCH  14  15
ENDBRANCH  13  14
ENDBRANCH   1  13
TORSDOF 20
ENDMDL
MODEL 4
REMARK VINA RESULT:    -5.768      1.079      1.887
REMARK INTER + INTRA:         -13.861
REMARK INTER:                 -12.787
REMARK INTRA:                  -1.074
REMARK UNBOUND:                -1.348
REMARK SMILES CCCCCCCCCCCCCCCCCCCCCC(=O)[O-]
REMARK SMILES IDX 12 1 11 2 10 3 9 4 8 5 7 6 6 7 5 8 4 9 3 10 2 11 1 12 13 13
REMARK SMILES IDX 14 14 15 15 16 16 17 17 18 18 19 19 20 20 21 21 22 22 23 23
REMARK SMILES IDX 24 24
REMARK H PARENT
REMARK Flexibility Score: inf
ROOT
ATOM      1  C   UNL     1      -9.241  62.641  45.541  1.00  0.00     0.000 C 
ENDROOT
BRANCH   1   2
ATOM      2  C   UNL     1      -9.507  61.437  44.619  1.00  0.00     0.000 C 
BRANCH   2   3
ATOM      3  C   UNL     1     -10.349  61.813  43.383  1.00  0.00     0.000 C 
BRANCH   3   4
ATOM      4  C   UNL     1      -9.929  63.138  42.716  1.00  0.00    -0.000 C 
BRANCH   4   5
ATOM      5  C   UNL     1      -9.441  63.019  41.263  1.00  0.00    -0.000 C 
BRANCH   5   6
ATOM      6  C   UNL     1     -10.169  61.915  40.478  1.00  0.00    -0.000 C 
BRANCH   6   7
ATOM      7  C   UNL     1     -10.796  62.426  39.170  1.00  0.00    -0.000 C 
BRANCH   7   8
ATOM      8  C   UNL     1     -12.308  62.137  39.058  1.00  0.00    -0.000 C 
BRANCH   8   9
ATOM      9  C   UNL     1     -12.660  60.711  39.516  1.00  0.00    -0.000 C 
BRANCH   9  10
ATOM     10  C   UNL     1     -13.749  60.068  38.641  1.00  0.00    -0.000 C 
BRANCH  10  11
ATOM     11  C   UNL     1     -15.162  60.484  39.070  1.00  0.00    -0.003 C 
ATOM     12  C   UNL     1     -15.798  61.414  38.040  1.00  0.00     0.004 C 
ENDBRANCH  10  11
ENDBRANCH   9  10
ENDBRANCH   8   9
ENDBRANCH   7   8
ENDBRANCH   6   7
ENDBRANCH   5   6
ENDBRANCH   4   5
ENDBRANCH   3   4
ENDBRANCH   2   3
ENDBRANCH   1   2
BRANCH   1  13
ATOM     13  C   UNL     1      -9.124  62.248  47.024  1.00  0.00     0.000 C 
BRANCH  13  14
ATOM     14  C   UNL     1      -9.265  63.443  47.993  1.00  0.00     0.000 C 
BRANCH  14  15
ATOM     15  C   UNL     1      -8.178  63.431  49.084  1.00  0.00     0.000 C 
BRANCH  15  16
ATOM     16  C   UNL     1      -8.086  64.763  49.847  1.00  0.00     0.000 C 
BRANCH  16  17
ATOM     17  C   UNL     1      -6.657  65.330  49.878  1.00  0.00     0.000 C 
BRANCH  17  18
ATOM     18  C   UNL     1      -5.959  65.128  51.235  1.00  0.00     0.000 C 
BRANCH  18  19
ATOM     19  C   UNL     1      -6.650  65.800  52.435  1.00  0.00     0.000 C 
BRANCH  19  20
ATOM     20  C   UNL     1      -7.458  64.815  53.291  1.00  0.00     0.006 C 
BRANCH  20  21
ATOM     21  C   UNL     1      -6.934  63.385  53.128  1.00  0.00     0.053 C 
BRANCH  21  22
ATOM     22  C   UNL     1      -7.710  62.439  53.990  1.00  0.00     0.041 C 
ATOM     23  O   UNL     1      -8.232  62.841  55.064  1.00  0.00    -0.550 OA
ATOM     24  O   UNL     1      -7.910  61.127  53.578  1.00  0.00    -0.550 OA
ENDBRANCH  21  22
ENDBRANCH  20  21
ENDBRANCH  19  20
ENDBRANCH  18  19
ENDBRANCH  17  18
ENDBRANCH  16  17
ENDBRANCH  15  16
ENDBRANCH  14  15
ENDBRANCH  13  14
ENDBRANCH   1  13
TORSDOF 20
ENDMDL
MODEL 5
REMARK VINA RESULT:    -5.764      4.691     12.288
REMARK INTER + INTRA:         -13.850
REMARK INTER:                 -12.514
REMARK INTRA:                  -1.336
REMARK UNBOUND:                -1.348
REMARK SMILES CCCCCCCCCCCCCCCCCCCCCC(=O)[O-]
REMARK SMILES IDX 12 1 11 2 10 3 9 4 8 5 7 6 6 7 5 8 4 9 3 10 2 11 1 12 13 13
REMARK SMILES IDX 14 14 15 15 16 16 17 17 18 18 19 19 20 20 21 21 22 22 23 23
REMARK SMILES IDX 24 24
REMARK H PARENT
REMARK Flexibility Score: inf
ROOT
ATOM      1  C   UNL     1      -8.097  63.405  49.145  1.00  0.00     0.000 C 
ENDROOT
BRANCH   1   2
ATOM      2  C   UNL     1      -7.584  64.806  49.527  1.00  0.00     0.000 C 
BRANCH   2   3
ATOM      3  C   UNL     1      -6.340  64.753  50.436  1.00  0.00     0.000 C 
BRANCH   3   4
ATOM      4  C   UNL     1      -6.402  65.712  51.643  1.00  0.00    -0.000 C 
BRANCH   4   5
ATOM      5  C   UNL     1      -6.487  65.034  53.020  1.00  0.00    -0.000 C 
BRANCH   5   6
ATOM      6  C   UNL     1      -7.865  64.408  53.292  1.00  0.00    -0.000 C 
BRANCH   6   7
ATOM      7  C   UNL     1      -7.772  62.956  53.792  1.00  0.00    -0.000 C 
BRANCH   7   8
ATOM      8  C   UNL     1      -6.497  62.224  53.322  1.00  0.00    -0.000 C 
BRANCH   8   9
ATOM      9  C   UNL     1      -6.275  60.905  54.083  1.00  0.00    -0.000 C 
BRANCH   9  10
ATOM     10  C   UNL     1      -6.259  61.105  55.607  1.00  0.00    -0.000 C 
BRANCH  10  11
ATOM     11  C   UNL     1      -5.818  59.841  56.356  1.00  0.00    -0.003 C 
ATOM     12  C   UNL     1      -5.910  58.609  55.458  1.00  0.00     0.004 C 
ENDBRANCH  10  11
ENDBRANCH   9  10
ENDBRANCH   8   9
ENDBRANCH   7   8
ENDBRANCH   6   7
ENDBRANCH   5   6
ENDBRANCH   4   5
ENDBRANCH   3   4
ENDBRANCH   2   3
ENDBRANCH   1   2
BRANCH   1  13
ATOM     13  C   UNL     1      -9.121  63.433  47.996  1.00  0.00     0.000 C 
BRANCH  13  14
ATOM     14  C   UNL     1      -8.949  62.276  46.987  1.00  0.00     0.000 C 
BRANCH  14  15
ATOM     15  C   UNL     1      -9.200  62.732  45.538  1.00  0.00     0.000 C 
BRANCH  15  16
ATOM     16  C   UNL     1      -9.462  61.558  44.581  1.00  0.00     0.000 C 
BRANCH  16  17
ATOM     17  C   UNL     1     -10.264  61.976  43.337  1.00  0.00     0.000 C 
BRANCH  17  18
ATOM     18  C   UNL     1      -9.854  63.357  42.794  1.00  0.00     0.000 C 
BRANCH  18  19
ATOM     19  C   UNL     1      -9.611  63.421  41.276  1.00  0.00     0.000 C 
BRANCH  19  20
ATOM     20  C   UNL     1      -9.647  62.041  40.604  1.00  0.00     0.006 C 
BRANCH  20  21
ATOM     21  C   UNL     1     -10.538  62.058  39.358  1.00  0.00     0.053 C 
BRANCH  21  22
ATOM     22  C   UNL     1     -11.907  61.549  39.683  1.00  0.00     0.041 C 
ATOM     23  O   UNL     1     -12.078  60.763  40.653  1.00  0.00    -0.550 OA
ATOM     24  O   UNL     1     -13.004  61.990  38.954  1.00  0.00    -0.550 OA
ENDBRANCH  21  22
ENDBRANCH  20  21
ENDBRANCH  19  20
ENDBRANCH  18  19
ENDBRANCH  17  18
ENDBRANCH  16  17
ENDBRANCH  15  16
ENDBRANCH  14  15
ENDBRANCH  13  14
ENDBRANCH   1  13
TORSDOF 20
ENDMDL
MODEL 6
REMARK VINA RESULT:    -5.747      4.790     12.291
REMARK INTER + INTRA:         -13.815
REMARK INTER:                 -12.557
REMARK INTRA:                  -1.258
REMARK UNBOUND:                -1.348
REMARK SMILES CCCCCCCCCCCCCCCCCCCCCC(=O)[O-]
REMARK SMILES IDX 12 1 11 2 10 3 9 4 8 5 7 6 6 7 5 8 4 9 3 10 2 11 1 12 13 13
REMARK SMILES IDX 14 14 15 15 16 16 17 17 18 18 19 19 20 20 21 21 22 22 23 23
REMARK SMILES IDX 24 24
REMARK H PARENT
REMARK Flexibility Score: inf
ROOT
ATOM      1  C   UNL     1      -8.895  62.259  46.885  1.00  0.00     0.000 C 
ENDROOT
BRANCH   1   2
ATOM      2  C   UNL     1      -9.138  63.327  47.968  1.00  0.00     0.000 C 
BRANCH   2   3
ATOM      3  C   UNL     1      -8.110  63.251  49.115  1.00  0.00     0.000 C 
BRANCH   3   4
ATOM      4  C   UNL     1      -8.036  64.528  49.977  1.00  0.00    -0.000 C 
BRANCH   4   5
ATOM      5  C   UNL     1      -6.703  64.751  50.711  1.00  0.00    -0.000 C 
BRANCH   5   6
ATOM      6  C   UNL     1      -6.478  63.748  51.855  1.00  0.00    -0.000 C 
BRANCH   6   7
ATOM      7  C   UNL     1      -7.107  64.204  53.182  1.00  0.00    -0.000 C 
BRANCH   7   8
ATOM      8  C   UNL     1      -7.670  63.043  54.028  1.00  0.00    -0.000 C 
BRANCH   8   9
ATOM      9  C   UNL     1      -7.548  61.689  53.307  1.00  0.00    -0.000 C 
BRANCH   9  10
ATOM     10  C   UNL     1      -6.527  60.758  53.981  1.00  0.00    -0.000 C 
BRANCH  10  11
ATOM     11  C   UNL     1      -6.521  60.907  55.508  1.00  0.00    -0.003 C 
ATOM     12  C   UNL     1      -5.949  59.661  56.180  1.00  0.00     0.004 C 
ENDBRANCH  10  11
ENDBRANCH   9  10
ENDBRANCH   8   9
ENDBRANCH   7   8
ENDBRANCH   6   7
ENDBRANCH   5   6
ENDBRANCH   4   5
ENDBRANCH   3   4
ENDBRANCH   2   3
ENDBRANCH   1   2
BRANCH   1  13
ATOM     13  C   UNL     1      -9.258  62.745  45.470  1.00  0.00     0.000 C 
BRANCH  13  14
ATOM     14  C   UNL     1      -9.683  61.607  44.516  1.00  0.00     0.000 C 
BRANCH  14  15
ATOM     15  C   UNL     1     -10.073  62.138  43.124  1.00  0.00     0.000 C 
BRANCH  15  16
ATOM     16  C   UNL     1      -9.655  63.601  42.906  1.00  0.00     0.000 C 
BRANCH  16  17
ATOM     17  C   UNL     1      -9.799  64.046  41.441  1.00  0.00     0.000 C 
BRANCH  17  18
ATOM     18  C   UNL     1      -9.338  62.972  40.439  1.00  0.00     0.000 C 
BRANCH  18  19
ATOM     19  C   UNL     1      -9.990  63.048  39.047  1.00  0.00     0.000 C 
BRANCH  19  20
ATOM     20  C   UNL     1     -11.451  62.579  39.043  1.00  0.00     0.006 C 
BRANCH  20  21
ATOM     21  C   UNL     1     -11.619  61.295  39.861  1.00  0.00     0.053 C 
BRANCH  21  22
ATOM     22  C   UNL     1     -13.058  60.884  39.904  1.00  0.00     0.041 C 
ATOM     23  O   UNL     1     -13.937  61.594  39.347  1.00  0.00    -0.550 OA
ATOM     24  O   UNL     1     -13.421  59.687  40.508  1.00  0.00    -0.550 OA
ENDBRANCH  21  22
ENDBRANCH  20  21
ENDBRANCH  19  20
ENDBRANCH  18  19
ENDBRANCH  17  18
ENDBRANCH  16  17
ENDBRANCH  15  16
ENDBRANCH  14  15
ENDBRANCH  13  14
ENDBRANCH   1  13
TORSDOF 20
ENDMDL
MODEL 7
REMARK VINA RESULT:    -5.669      1.461      3.316
REMARK INTER + INTRA:         -13.644
REMARK INTER:                 -12.187
REMARK INTRA:                  -1.458
REMARK UNBOUND:                -1.348
REMARK SMILES CCCCCCCCCCCCCCCCCCCCCC(=O)[O-]
REMARK SMILES IDX 12 1 11 2 10 3 9 4 8 5 7 6 6 7 5 8 4 9 3 10 2 11 1 12 13 13
REMARK SMILES IDX 14 14 15 15 16 16 17 17 18 18 19 19 20 20 21 21 22 22 23 23
REMARK SMILES IDX 24 24
REMARK H PARENT
REMARK Flexibility Score: inf
ROOT
ATOM      1  C   UNL     1      -7.649  63.341  49.505  1.00  0.00     0.000 C 
ENDROOT
BRANCH   1   2
ATOM      2  C   UNL     1      -8.718  64.425  49.272  1.00  0.00     0.000 C 
BRANCH   2   3
ATOM      3  C   UNL     1      -9.210  64.466  47.811  1.00  0.00     0.000 C 
BRANCH   3   4
ATOM      4  C   UNL     1      -9.205  63.093  47.108  1.00  0.00    -0.000 C 
BRANCH   4   5
ATOM      5  C   UNL     1      -9.168  63.139  45.572  1.00  0.00    -0.000 C 
BRANCH   5   6
ATOM      6  C   UNL     1      -9.297  61.747  44.931  1.00  0.00    -0.000 C 
BRANCH   6   7
ATOM      7  C   UNL     1     -10.219  61.740  43.700  1.00  0.00    -0.000 C 
BRANCH   7   8
ATOM      8  C   UNL     1      -9.947  62.902  42.720  1.00  0.00    -0.000 C 
BRANCH   8   9
ATOM      9  C   UNL     1      -9.570  62.398  41.316  1.00  0.00    -0.000 C 
BRANCH   9  10
ATOM     10  C   UNL     1     -10.583  61.379  40.770  1.00  0.00    -0.000 C 
BRANCH  10  11
ATOM     11  C   UNL     1     -11.314  61.894  39.524  1.00  0.00    -0.003 C 
ATOM     12  C   UNL     1     -10.338  62.529  38.536  1.00  0.00     0.004 C 
ENDBRANCH  10  11
ENDBRANCH   9  10
ENDBRANCH   8   9
ENDBRANCH   7   8
ENDBRANCH   6   7
ENDBRANCH   5   6
ENDBRANCH   4   5
ENDBRANCH   3   4
ENDBRANCH   2   3
ENDBRANCH   1   2
BRANCH   1  13
ATOM     13  C   UNL     1      -6.375  63.888  50.174  1.00  0.00     0.000 C 
BRANCH  13  14
ATOM     14  C   UNL     1      -6.460  65.389  50.530  1.00  0.00     0.000 C 
BRANCH  14  15
ATOM     15  C   UNL     1      -7.037  65.615  51.939  1.00  0.00     0.000 C 
BRANCH  15  16
ATOM     16  C   UNL     1      -6.583  64.546  52.947  1.00  0.00     0.000 C 
BRANCH  16  17
ATOM     17  C   UNL     1      -7.761  63.907  53.702  1.00  0.00     0.000 C 
BRANCH  17  18
ATOM     18  C   UNL     1      -7.674  62.371  53.761  1.00  0.00     0.000 C 
BRANCH  18  19
ATOM     19  C   UNL     1      -6.356  61.767  53.245  1.00  0.00     0.000 C 
BRANCH  19  20
ATOM     20  C   UNL     1      -5.457  61.238  54.372  1.00  0.00     0.006 C 
BRANCH  20  21
ATOM     21  C   UNL     1      -6.271  60.951  55.636  1.00  0.00     0.053 C 
BRANCH  21  22
ATOM     22  C   UNL     1      -5.902  59.617  56.207  1.00  0.00     0.041 C 
ATOM     23  O   UNL     1      -4.856  59.490  56.898  1.00  0.00    -0.550 OA
ATOM     24  O   UNL     1      -6.744  58.527  56.027  1.00  0.00    -0.550 OA
ENDBRANCH  21  22
ENDBRANCH  20  21
ENDBRANCH  19  20
ENDBRANCH  18  19
ENDBRANCH  17  18
ENDBRANCH  16  17
ENDBRANCH  15  16
ENDBRANCH  14  15
ENDBRANCH  13  14
ENDBRANCH   1  13
TORSDOF 20
ENDMDL
MODEL 8
REMARK VINA RESULT:    -5.256     15.128     18.705
REMARK INTER + INTRA:         -12.749
REMARK INTER:                 -11.036
REMARK INTRA:                  -1.713
REMARK UNBOUND:                -1.348
REMARK SMILES CCCCCCCCCCCCCCCCCCCCCC(=O)[O-]
REMARK SMILES IDX 12 1 11 2 10 3 9 4 8 5 7 6 6 7 5 8 4 9 3 10 2 11 1 12 13 13
REMARK SMILES IDX 14 14 15 15 16 16 17 17 18 18 19 19 20 20 21 21 22 22 23 23
REMARK SMILES IDX 24 24
REMARK H PARENT
REMARK Flexibility Score: inf
ROOT
ATOM      1  C   UNL     1     -10.000  50.712  54.093  1.00  0.00     0.000 C 
ENDROOT
BRANCH   1   2
ATOM      2  C   UNL     1      -9.291  49.506  54.736  1.00  0.00     0.000 C 
BRANCH   2   3
ATOM      3  C   UNL     1     -10.269  48.569  55.473  1.00  0.00     0.000 C 
BRANCH   3   4
ATOM      4  C   UNL     1      -9.599  47.668  56.530  1.00  0.00    -0.000 C 
BRANCH   4   5
ATOM      5  C   UNL     1      -9.279  48.348  57.871  1.00  0.00    -0.000 C 
BRANCH   5   6
ATOM      6  C   UNL     1      -7.769  48.486  58.124  1.00  0.00    -0.000 C 
BRANCH   6   7
ATOM      7  C   UNL     1      -7.193  49.810  57.595  1.00  0.00    -0.000 C 
BRANCH   7   8
ATOM      8  C   UNL     1      -5.796  49.661  56.954  1.00  0.00    -0.000 C 
BRANCH   8   9
ATOM      9  C   UNL     1      -5.767  48.559  55.881  1.00  0.00    -0.000 C 
BRANCH   9  10
ATOM     10  C   UNL     1      -5.851  49.129  54.455  1.00  0.00    -0.000 C 
BRANCH  10  11
ATOM     11  C   UNL     1      -4.567  49.858  54.042  1.00  0.00    -0.003 C 
ATOM     12  C   UNL     1      -4.281  49.668  52.554  1.00  0.00     0.004 C 
ENDBRANCH  10  11
ENDBRANCH   9  10
ENDBRANCH   8   9
ENDBRANCH   7   8
ENDBRANCH   6   7
ENDBRANCH   5   6
ENDBRANCH   4   5
ENDBRANCH   3   4
ENDBRANCH   2   3
ENDBRANCH   1   2
BRANCH   1  13
ATOM     13  C   UNL     1     -11.534  50.628  54.186  1.00  0.00     0.000 C 
BRANCH  13  14
ATOM     14  C   UNL     1     -12.256  51.038  52.883  1.00  0.00     0.000 C 
BRANCH  14  15
ATOM     15  C   UNL     1     -13.306  49.996  52.454  1.00  0.00     0.000 C 
BRANCH  15  16
ATOM     16  C   UNL     1     -13.694  49.037  53.592  1.00  0.00     0.000 C 
BRANCH  16  17
ATOM     17  C   UNL     1     -14.861  48.110  53.213  1.00  0.00     0.000 C 
BRANCH  17  18
ATOM     18  C   UNL     1     -16.093  48.876  52.698  1.00  0.00     0.000 C 
BRANCH  18  19
ATOM     19  C   UNL     1     -17.440  48.155  52.885  1.00  0.00     0.000 C 
BRANCH  19  20
ATOM     20  C   UNL     1     -17.624  47.586  54.299  1.00  0.00     0.006 C 
BRANCH  20  21
ATOM     21  C   UNL     1     -19.074  47.739  54.769  1.00  0.00     0.053 C 
BRANCH  21  22
ATOM     22  C   UNL     1     -19.260  49.041  55.483  1.00  0.00     0.041 C 
ATOM     23  O   UNL     1     -20.337  49.283  56.090  1.00  0.00    -0.550 OA
ATOM     24  O   UNL     1     -18.222  49.963  55.529  1.00  0.00    -0.550 OA
ENDBRANCH  21  22
ENDBRANCH  20  21
ENDBRANCH  19  20
ENDBRANCH  18  19
ENDBRANCH  17  18
ENDBRANCH  16  17
ENDBRANCH  15  16
ENDBRANCH  14  15
ENDBRANCH  13  14
ENDBRANCH   1  13
TORSDOF 20
ENDMDL
MODEL 9
REMARK VINA RESULT:    -5.224     14.468     17.045
REMARK INTER + INTRA:         -12.679
REMARK INTER:                 -11.255
REMARK INTRA:                  -1.424
REMARK UNBOUND:                -1.348
REMARK SMILES CCCCCCCCCCCCCCCCCCCCCC(=O)[O-]
REMARK SMILES IDX 12 1 11 2 10 3 9 4 8 5 7 6 6 7 5 8 4 9 3 10 2 11 1 12 13 13
REMARK SMILES IDX 14 14 15 15 16 16 17 17 18 18 19 19 20 20 21 21 22 22 23 23
REMARK SMILES IDX 24 24
REMARK H PARENT
REMARK Flexibility Score: inf
ROOT
ATOM      1  C   UNL     1     -11.898  50.869  53.831  1.00  0.00     0.000 C 
ENDROOT
BRANCH   1   2
ATOM      2  C   UNL     1     -12.642  50.903  52.483  1.00  0.00     0.000 C 
BRANCH   2   3
ATOM      3  C   UNL     1     -13.417  49.601  52.202  1.00  0.00     0.000 C 
BRANCH   3   4
ATOM      4  C   UNL     1     -14.286  49.120  53.382  1.00  0.00    -0.000 C 
BRANCH   4   5
ATOM      5  C   UNL     1     -14.790  47.671  53.281  1.00  0.00    -0.000 C 
BRANCH   5   6
ATOM      6  C   UNL     1     -16.205  47.572  52.686  1.00  0.00    -0.000 C 
BRANCH   6   7
ATOM      7  C   UNL     1     -17.095  48.770  53.060  1.00  0.00    -0.000 C 
BRANCH   7   8
ATOM      8  C   UNL     1     -18.595  48.417  53.151  1.00  0.00    -0.000 C 
BRANCH   8   9
ATOM      9  C   UNL     1     -19.390  49.472  53.939  1.00  0.00    -0.000 C 
BRANCH   9  10
ATOM     10  C   UNL     1     -18.739  49.803  55.293  1.00  0.00    -0.000 C 
BRANCH  10  11
ATOM     11  C   UNL     1     -19.636  49.426  56.479  1.00  0.00    -0.003 C 
ATOM     12  C   UNL     1     -19.128  48.163  57.173  1.00  0.00     0.004 C 
ENDBRANCH  10  11
ENDBRANCH   9  10
ENDBRANCH   8   9
ENDBRANCH   7   8
ENDBRANCH   6   7
ENDBRANCH   5   6
ENDBRANCH   4   5
ENDBRANCH   3   4
ENDBRANCH   2   3
ENDBRANCH   1   2
BRANCH   1  13
ATOM     13  C   UNL     1     -10.394  51.171  53.696  1.00  0.00     0.000 C 
BRANCH  13  14
ATOM     14  C   UNL     1      -9.492  50.169  54.449  1.00  0.00     0.000 C 
BRANCH  14  15
ATOM     15  C   UNL     1     -10.306  49.027  55.086  1.00  0.00     0.000 C 
BRANCH  15  16
ATOM     16  C   UNL     1      -9.418  47.907  55.653  1.00  0.00     0.000 C 
BRANCH  16  17
ATOM     17  C   UNL     1      -8.704  48.319  56.951  1.00  0.00     0.000 C 
BRANCH  17  18
ATOM     18  C   UNL     1      -7.170  48.332  56.814  1.00  0.00     0.000 C 
BRANCH  18  19
ATOM     19  C   UNL     1      -6.630  47.919  55.433  1.00  0.00     0.000 C 
BRANCH  19  20
ATOM     20  C   UNL     1      -6.234  49.118  54.561  1.00  0.00     0.006 C 
BRANCH  20  21
ATOM     21  C   UNL     1      -4.769  49.502  54.787  1.00  0.00     0.053 C 
BRANCH  21  22
ATOM     22  C   UNL     1      -4.182  50.091  53.543  1.00  0.00     0.041 C 
ATOM     23  O   UNL     1      -3.331  51.018  53.619  1.00  0.00    -0.550 OA
ATOM     24  O   UNL     1      -4.529  49.577  52.299  1.00  0.00    -0.550 OA
ENDBRANCH  21  22
ENDBRANCH  20  21
ENDBRANCH  19  20
ENDBRANCH  18  19
ENDBRANCH  17  18
ENDBRANCH  16  17
ENDBRANCH  15  16
ENDBRANCH  14  15
ENDBRANCH  13  14
ENDBRANCH   1  13
TORSDOF 20
ENDMDL
