MODEL 1
REMARK VINA RESULT:    -4.330      0.000      0.000
REMARK INTER + INTRA:         -13.795
REMARK INTER:                 -10.911
REMARK INTRA:                  -2.884
REMARK UNBOUND:                -2.884
REMARK SMILES CCCCCCCCCCCCCCCCCCCCCCCCCCCC(=O)[O-]
REMARK SMILES IDX 15 1 16 2 17 3 18 4 19 5 20 6 21 7 22 8 23 9 24 10 25 11
REMARK SMILES IDX 26 12 27 13 28 14 29 15 30 16 14 17 13 18 12 19 11 20 10 21
REMARK SMILES IDX 9 22 8 23 7 24 6 25 5 26 4 27 3 28 2 29 1 30
REMARK H PARENT
REMARK Flexibility Score: inf
ROOT
ATOM      1  C   UNL     1     -17.485 -15.135   1.562  1.00  0.00     0.000 C 
ENDROOT
BRANCH   1   2
ATOM      2  C   UNL     1     -16.765 -14.676   0.276  1.00  0.00     0.000 C 
BRANCH   2   3
ATOM      3  C   UNL     1     -17.531 -14.987  -1.027  1.00  0.00     0.000 C 
BRANCH   3   4
ATOM      4  C   UNL     1     -16.955 -14.351  -2.306  1.00  0.00     0.000 C 
BRANCH   4   5
ATOM      5  C   UNL     1     -17.515 -12.958  -2.652  1.00  0.00     0.000 C 
BRANCH   5   6
ATOM      6  C   UNL     1     -16.593 -11.816  -2.192  1.00  0.00     0.000 C 
BRANCH   6   7
ATOM      7  C   UNL     1     -17.120 -11.097  -0.940  1.00  0.00     0.000 C 
BRANCH   7   8
ATOM      8  C   UNL     1     -16.111 -10.992   0.219  1.00  0.00     0.000 C 
BRANCH   8   9
ATOM      9  C   UNL     1     -14.677 -11.413  -0.167  1.00  0.00     0.000 C 
BRANCH   9  10
ATOM     10  C   UNL     1     -13.961 -12.151   0.977  1.00  0.00     0.000 C 
BRANCH  10  11
ATOM     11  C   UNL     1     -12.539 -12.598   0.603  1.00  0.00     0.000 C 
BRANCH  11  12
ATOM     12  C   UNL     1     -12.133 -13.915   1.280  1.00  0.00     0.006 C 
BRANCH  12  13
ATOM     13  C   UNL     1     -12.603 -13.953   2.736  1.00  0.00     0.053 C 
BRANCH  13  14
ATOM     14  C   UNL     1     -11.460 -13.693   3.665  1.00  0.00     0.041 C 
ATOM     15  O   UNL     1     -10.773 -14.652   4.109  1.00  0.00    -0.550 OA
ATOM     16  O   UNL     1     -11.182 -12.396   4.083  1.00  0.00    -0.550 OA
ENDBRANCH  13  14
ENDBRANCH  12  13
ENDBRANCH  11  12
ENDBRANCH  10  11
ENDBRANCH   9  10
ENDBRANCH   8   9
ENDBRANCH   7   8
ENDBRANCH   6   7
ENDBRANCH   5   6
ENDBRANCH   4   5
ENDBRANCH   3   4
ENDBRANCH   2   3
ENDBRANCH   1   2
BRANCH   1  17
ATOM     17  C   UNL     1     -18.186 -16.493   1.400  1.00  0.00     0.000 C 
BRANCH  17  18
ATOM     18  C   UNL     1     -17.677 -17.510   2.429  1.00  0.00     0.000 C 
BRANCH  18  19
ATOM     19  C   UNL     1     -17.406 -18.867   1.761  1.00  0.00     0.000 C 
BRANCH  19  20
ATOM     20  C   UNL     1     -16.439 -19.743   2.573  1.00  0.00     0.000 C 
BRANCH  20  21
ATOM     21  C   UNL     1     -17.136 -20.456   3.746  1.00  0.00     0.000 C 
BRANCH  21  22
ATOM     22  C   UNL     1     -18.235 -21.431   3.287  1.00  0.00    -0.000 C 
BRANCH  22  23
ATOM     23  C   UNL     1     -19.580 -21.249   4.021  1.00  0.00    -0.000 C 
BRANCH  23  24
ATOM     24  C   UNL     1     -20.704 -22.104   3.407  1.00  0.00    -0.000 C 
BRANCH  24  25
ATOM     25  C   UNL     1     -21.327 -21.453   2.157  1.00  0.00    -0.000 C 
BRANCH  25  26
ATOM     26  C   UNL     1     -21.225 -19.915   2.119  1.00  0.00    -0.000 C 
BRANCH  26  27
ATOM     27  C   UNL     1     -20.845 -19.376   0.729  1.00  0.00    -0.000 C 
BRANCH  27  28
ATOM     28  C   UNL     1     -22.067 -18.769   0.024  1.00  0.00    -0.000 C 
BRANCH  28  29
ATOM     29  C   UNL     1     -22.413 -19.492  -1.288  1.00  0.00    -0.003 C 
ATOM     30  C   UNL     1     -21.604 -20.773  -1.488  1.00  0.00     0.004 C 
ENDBRANCH  28  29
ENDBRANCH  27  28
ENDBRANCH  26  27
ENDBRANCH  25  26
ENDBRANCH  24  25
ENDBRANCH  23  24
ENDBRANCH  22  23
ENDBRANCH  21  22
ENDBRANCH  20  21
ENDBRANCH  19  20
ENDBRANCH  18  19
ENDBRANCH  17  18
ENDBRANCH   1  17
TORSDOF 26
ENDMDL
MODEL 2
REMARK VINA RESULT:    -4.262      2.897      4.487
REMARK INTER + INTRA:         -13.623
REMARK INTER:                  -9.767
REMARK INTRA:                  -3.856
REMARK UNBOUND:                -2.884
REMARK SMILES CCCCCCCCCCCCCCCCCCCCCCCCCCCC(=O)[O-]
REMARK SMILES IDX 15 1 16 2 17 3 18 4 19 5 20 6 21 7 22 8 23 9 24 10 25 11
REMARK SMILES IDX 26 12 27 13 28 14 29 15 30 16 14 17 13 18 12 19 11 20 10 21
REMARK SMILES IDX 9 22 8 23 7 24 6 25 5 26 4 27 3 28 2 29 1 30
REMARK H PARENT
REMARK Flexibility Score: inf
ROOT
ATOM      1  C   UNL     1     -17.336 -15.245   0.611  1.00  0.00     0.000 C 
ENDROOT
BRANCH   1   2
ATOM      2  C   UNL     1     -16.982 -13.814   1.069  1.00  0.00     0.000 C 
BRANCH   2   3
ATOM      3  C   UNL     1     -15.580 -13.675   1.696  1.00  0.00     0.000 C 
BRANCH   3   4
ATOM      4  C   UNL     1     -14.412 -13.557   0.699  1.00  0.00     0.000 C 
BRANCH   4   5
ATOM      5  C   UNL     1     -13.007 -13.611   1.329  1.00  0.00     0.000 C 
BRANCH   5   6
ATOM      6  C   UNL     1     -12.285 -12.254   1.286  1.00  0.00     0.000 C 
BRANCH   6   7
ATOM      7  C   UNL     1     -12.962 -11.252   0.337  1.00  0.00     0.000 C 
BRANCH   7   8
ATOM      8  C   UNL     1     -13.682 -10.083   1.037  1.00  0.00     0.000 C 
BRANCH   8   9
ATOM      9  C   UNL     1     -14.945  -9.598   0.293  1.00  0.00     0.000 C 
BRANCH   9  10
ATOM     10  C   UNL     1     -15.144 -10.327  -1.047  1.00  0.00     0.000 C 
BRANCH  10  11
ATOM     11  C   UNL     1     -16.520 -11.000  -1.164  1.00  0.00     0.000 C 
BRANCH  11  12
ATOM     12  C   UNL     1     -16.585 -12.028  -2.302  1.00  0.00     0.006 C 
BRANCH  12  13
ATOM     13  C   UNL     1     -17.948 -12.724  -2.338  1.00  0.00     0.053 C 
BRANCH  13  14
ATOM     14  C   UNL     1     -17.847 -14.042  -3.039  1.00  0.00     0.041 C 
ATOM     15  O   UNL     1     -16.921 -14.846  -2.747  1.00  0.00    -0.550 OA
ATOM     16  O   UNL     1     -18.743 -14.363  -4.053  1.00  0.00    -0.550 OA
ENDBRANCH  13  14
ENDBRANCH  12  13
ENDBRANCH  11  12
ENDBRANCH  10  11
ENDBRANCH   9  10
ENDBRANCH   8   9
ENDBRANCH   7   8
ENDBRANCH   6   7
ENDBRANCH   5   6
ENDBRANCH   4   5
ENDBRANCH   3   4
ENDBRANCH   2   3
ENDBRANCH   1   2
BRANCH   1  17
ATOM     17  C   UNL     1     -18.852 -15.497   0.565  1.00  0.00     0.000 C 
BRANCH  17  18
ATOM     18  C   UNL     1     -19.269 -16.569   1.580  1.00  0.00     0.000 C 
BRANCH  18  19
ATOM     19  C   UNL     1     -18.060 -17.424   1.991  1.00  0.00     0.000 C 
BRANCH  19  20
ATOM     20  C   UNL     1     -17.823 -17.422   3.510  1.00  0.00     0.000 C 
BRANCH  20  21
ATOM     21  C   UNL     1     -16.946 -18.600   3.970  1.00  0.00     0.000 C 
BRANCH  21  22
ATOM     22  C   UNL     1     -16.540 -19.532   2.814  1.00  0.00    -0.000 C 
BRANCH  22  23
ATOM     23  C   UNL     1     -17.080 -20.972   2.951  1.00  0.00    -0.000 C 
BRANCH  23  24
ATOM     24  C   UNL     1     -18.400 -21.030   3.742  1.00  0.00    -0.000 C 
BRANCH  24  25
ATOM     25  C   UNL     1     -19.640 -21.004   2.827  1.00  0.00    -0.000 C 
BRANCH  25  26
ATOM     26  C   UNL     1     -20.671 -19.914   3.181  1.00  0.00    -0.000 C 
BRANCH  26  27
ATOM     27  C   UNL     1     -21.533 -19.496   1.978  1.00  0.00    -0.000 C 
BRANCH  27  28
ATOM     28  C   UNL     1     -20.838 -19.854   0.655  1.00  0.00    -0.000 C 
BRANCH  28  29
ATOM     29  C   UNL     1     -21.729 -20.700  -0.271  1.00  0.00    -0.003 C 
ATOM     30  C   UNL     1     -21.904 -20.076  -1.655  1.00  0.00     0.004 C 
ENDBRANCH  28  29
ENDBRANCH  27  28
ENDBRANCH  26  27
ENDBRANCH  25  26
ENDBRANCH  24  25
ENDBRANCH  23  24
ENDBRANCH  22  23
ENDBRANCH  21  22
ENDBRANCH  20  21
ENDBRANCH  19  20
ENDBRANCH  18  19
ENDBRANCH  17  18
ENDBRANCH   1  17
TORSDOF 26
ENDMDL
MODEL 3
REMARK VINA RESULT:    -4.212      4.210      5.797
REMARK INTER + INTRA:         -13.498
REMARK INTER:                  -9.580
REMARK INTRA:                  -3.918
REMARK UNBOUND:                -2.884
REMARK SMILES CCCCCCCCCCCCCCCCCCCCCCCCCCCC(=O)[O-]
REMARK SMILES IDX 15 1 16 2 17 3 18 4 19 5 20 6 21 7 22 8 23 9 24 10 25 11
REMARK SMILES IDX 26 12 27 13 28 14 29 15 30 16 14 17 13 18 12 19 11 20 10 21
REMARK SMILES IDX 9 22 8 23 7 24 6 25 5 26 4 27 3 28 2 29 1 30
REMARK H PARENT
REMARK Flexibility Score: inf
ROOT
ATOM      1  C   UNL     1     -19.347 -17.659   3.606  1.00  0.00     0.000 C 
ENDROOT
BRANCH   1   2
ATOM      2  C   UNL     1     -19.822 -16.307   4.180  1.00  0.00     0.000 C 
BRANCH   2   3
ATOM      3  C   UNL     1     -20.715 -15.489   3.225  1.00  0.00     0.000 C 
BRANCH   3   4
ATOM      4  C   UNL     1     -21.241 -16.246   1.991  1.00  0.00     0.000 C 
BRANCH   4   5
ATOM      5  C   UNL     1     -20.695 -15.750   0.639  1.00  0.00     0.000 C 
BRANCH   5   6
ATOM      6  C   UNL     1     -19.450 -14.861   0.790  1.00  0.00     0.000 C 
BRANCH   6   7
ATOM      7  C   UNL     1     -18.200 -15.479   0.142  1.00  0.00     0.000 C 
BRANCH   7   8
ATOM      8  C   UNL     1     -17.229 -14.462  -0.490  1.00  0.00     0.000 C 
BRANCH   8   9
ATOM      9  C   UNL     1     -16.980 -14.697  -1.996  1.00  0.00     0.000 C 
BRANCH   9  10
ATOM     10  C   UNL     1     -17.630 -13.609  -2.868  1.00  0.00     0.000 C 
BRANCH  10  11
ATOM     11  C   UNL     1     -18.899 -13.016  -2.237  1.00  0.00     0.000 C 
BRANCH  11  12
ATOM     12  C   UNL     1     -20.152 -13.247  -3.092  1.00  0.00     0.006 C 
BRANCH  12  13
ATOM     13  C   UNL     1     -20.726 -11.920  -3.597  1.00  0.00     0.053 C 
BRANCH  13  14
ATOM     14  C   UNL     1     -19.935 -11.416  -4.763  1.00  0.00     0.041 C 
ATOM     15  O   UNL     1     -19.321 -10.318  -4.685  1.00  0.00    -0.550 OA
ATOM     16  O   UNL     1     -19.919 -12.131  -5.956  1.00  0.00    -0.550 OA
ENDBRANCH  13  14
ENDBRANCH  12  13
ENDBRANCH  11  12
ENDBRANCH  10  11
ENDBRANCH   9  10
ENDBRANCH   8   9
ENDBRANCH   7   8
ENDBRANCH   6   7
ENDBRANCH   5   6
ENDBRANCH   4   5
ENDBRANCH   3   4
ENDBRANCH   2   3
ENDBRANCH   1   2
BRANCH   1  17
ATOM     17  C   UNL     1     -17.852 -17.659   3.245  1.00  0.00     0.000 C 
BRANCH  17  18
ATOM     18  C   UNL     1     -17.613 -18.289   1.868  1.00  0.00     0.000 C 
BRANCH  18  19
ATOM     19  C   UNL     1     -17.089 -19.727   2.013  1.00  0.00     0.000 C 
BRANCH  19  20
ATOM     20  C   UNL     1     -16.522 -20.011   3.413  1.00  0.00     0.000 C 
BRANCH  20  21
ATOM     21  C   UNL     1     -17.423 -20.951   4.233  1.00  0.00     0.000 C 
BRANCH  21  22
ATOM     22  C   UNL     1     -18.482 -21.667   3.374  1.00  0.00    -0.000 C 
BRANCH  22  23
ATOM     23  C   UNL     1     -19.934 -21.265   3.707  1.00  0.00    -0.000 C 
BRANCH  23  24
ATOM     24  C   UNL     1     -20.967 -22.194   3.042  1.00  0.00    -0.000 C 
BRANCH  24  25
ATOM     25  C   UNL     1     -21.613 -21.564   1.792  1.00  0.00    -0.000 C 
BRANCH  25  26
ATOM     26  C   UNL     1     -21.451 -20.034   1.693  1.00  0.00    -0.000 C 
BRANCH  26  27
ATOM     27  C   UNL     1     -20.774 -19.590   0.385  1.00  0.00    -0.000 C 
BRANCH  27  28
ATOM     28  C   UNL     1     -21.319 -20.385  -0.811  1.00  0.00    -0.000 C 
BRANCH  28  29
ATOM     29  C   UNL     1     -22.753 -19.978  -1.189  1.00  0.00    -0.003 C 
ATOM     30  C   UNL     1     -22.914 -18.468  -1.363  1.00  0.00     0.004 C 
ENDBRANCH  28  29
ENDBRANCH  27  28
ENDBRANCH  26  27
ENDBRANCH  25  26
ENDBRANCH  24  25
ENDBRANCH  23  24
ENDBRANCH  22  23
ENDBRANCH  21  22
ENDBRANCH  20  21
ENDBRANCH  19  20
ENDBRANCH  18  19
ENDBRANCH  17  18
ENDBRANCH   1  17
TORSDOF 26
ENDMDL
MODEL 4
REMARK VINA RESULT:    -4.189      3.686      6.716
REMARK INTER + INTRA:         -13.440
REMARK INTER:                  -8.529
REMARK INTRA:                  -4.911
REMARK UNBOUND:                -2.884
REMARK SMILES CCCCCCCCCCCCCCCCCCCCCCCCCCCC(=O)[O-]
REMARK SMILES IDX 15 1 16 2 17 3 18 4 19 5 20 6 21 7 22 8 23 9 24 10 25 11
REMARK SMILES IDX 26 12 27 13 28 14 29 15 30 16 14 17 13 18 12 19 11 20 10 21
REMARK SMILES IDX 9 22 8 23 7 24 6 25 5 26 4 27 3 28 2 29 1 30
REMARK H PARENT
REMARK Flexibility Score: inf
ROOT
ATOM      1  C   UNL     1     -22.165 -21.676  -0.237  1.00  0.00     0.000 C 
ENDROOT
BRANCH   1   2
ATOM      2  C   UNL     1     -21.401 -20.524  -0.924  1.00  0.00     0.000 C 
BRANCH   2   3
ATOM      3  C   UNL     1     -22.302 -19.524  -1.678  1.00  0.00     0.000 C 
BRANCH   3   4
ATOM      4  C   UNL     1     -23.654 -19.211  -1.010  1.00  0.00     0.000 C 
BRANCH   4   5
ATOM      5  C   UNL     1     -23.703 -17.886  -0.224  1.00  0.00     0.000 C 
BRANCH   5   6
ATOM      6  C   UNL     1     -23.467 -18.081   1.282  1.00  0.00     0.000 C 
BRANCH   6   7
ATOM      7  C   UNL     1     -22.281 -17.255   1.807  1.00  0.00     0.000 C 
BRANCH   7   8
ATOM      8  C   UNL     1     -21.544 -16.427   0.736  1.00  0.00     0.000 C 
BRANCH   8   9
ATOM      9  C   UNL     1     -20.006 -16.487   0.856  1.00  0.00     0.000 C 
BRANCH   9  10
ATOM     10  C   UNL     1     -19.387 -15.095   1.071  1.00  0.00     0.000 C 
BRANCH  10  11
ATOM     11  C   UNL     1     -18.878 -14.459  -0.232  1.00  0.00     0.000 C 
BRANCH  11  12
ATOM     12  C   UNL     1     -17.366 -14.634  -0.428  1.00  0.00     0.006 C 
BRANCH  12  13
ATOM     13  C   UNL     1     -17.029 -14.906  -1.897  1.00  0.00     0.053 C 
BRANCH  13  14
ATOM     14  C   UNL     1     -17.510 -13.783  -2.762  1.00  0.00     0.041 C 
ATOM     15  O   UNL     1     -17.035 -12.625  -2.619  1.00  0.00    -0.550 OA
ATOM     16  O   UNL     1     -18.521 -14.003  -3.691  1.00  0.00    -0.550 OA
ENDBRANCH  13  14
ENDBRANCH  12  13
ENDBRANCH  11  12
ENDBRANCH  10  11
ENDBRANCH   9  10
ENDBRANCH   8   9
ENDBRANCH   7   8
ENDBRANCH   6   7
ENDBRANCH   5   6
ENDBRANCH   4   5
ENDBRANCH   3   4
ENDBRANCH   2   3
ENDBRANCH   1   2
BRANCH   1  17
ATOM     17  C   UNL     1     -21.976 -21.689   1.288  1.00  0.00     0.000 C 
BRANCH  17  18
ATOM     18  C   UNL     1     -20.897 -20.691   1.724  1.00  0.00     0.000 C 
BRANCH  18  19
ATOM     19  C   UNL     1     -21.062 -20.328   3.208  1.00  0.00     0.000 C 
BRANCH  19  20
ATOM     20  C   UNL     1     -20.590 -21.448   4.148  1.00  0.00     0.000 C 
BRANCH  20  21
ATOM     21  C   UNL     1     -19.180 -21.955   3.796  1.00  0.00     0.000 C 
BRANCH  21  22
ATOM     22  C   UNL     1     -18.347 -22.322   5.037  1.00  0.00    -0.000 C 
BRANCH  22  23
ATOM     23  C   UNL     1     -18.226 -21.181   6.069  1.00  0.00    -0.000 C 
BRANCH  23  24
ATOM     24  C   UNL     1     -16.945 -20.347   5.874  1.00  0.00    -0.000 C 
BRANCH  24  25
ATOM     25  C   UNL     1     -17.232 -18.837   5.766  1.00  0.00    -0.000 C 
BRANCH  25  26
ATOM     26  C   UNL     1     -18.646 -18.490   5.259  1.00  0.00    -0.000 C 
BRANCH  26  27
ATOM     27  C   UNL     1     -18.628 -17.607   4.000  1.00  0.00    -0.000 C 
BRANCH  27  28
ATOM     28  C   UNL     1     -17.395 -17.911   3.135  1.00  0.00    -0.000 C 
BRANCH  28  29
ATOM     29  C   UNL     1     -17.654 -19.025   2.108  1.00  0.00    -0.003 C 
ATOM     30  C   UNL     1     -16.514 -20.042   2.038  1.00  0.00     0.004 C 
ENDBRANCH  28  29
ENDBRANCH  27  28
ENDBRANCH  26  27
ENDBRANCH  25  26
ENDBRANCH  24  25
ENDBRANCH  23  24
ENDBRANCH  22  23
ENDBRANCH  21  22
ENDBRANCH  20  21
ENDBRANCH  19  20
ENDBRANCH  18  19
ENDBRANCH  17  18
ENDBRANCH   1  17
TORSDOF 26
ENDMDL
MODEL 5
REMARK VINA RESULT:    -4.152      2.384      5.370
REMARK INTER + INTRA:         -13.348
REMARK INTER:                  -8.672
REMARK INTRA:                  -4.675
REMARK UNBOUND:                -2.884
REMARK SMILES CCCCCCCCCCCCCCCCCCCCCCCCCCCC(=O)[O-]
REMARK SMILES IDX 15 1 16 2 17 3 18 4 19 5 20 6 21 7 22 8 23 9 24 10 25 11
REMARK SMILES IDX 26 12 27 13 28 14 29 15 30 16 14 17 13 18 12 19 11 20 10 21
REMARK SMILES IDX 9 22 8 23 7 24 6 25 5 26 4 27 3 28 2 29 1 30
REMARK H PARENT
REMARK Flexibility Score: inf
ROOT
ATOM      1  C   UNL     1     -16.308 -14.327  -0.381  1.00  0.00     0.000 C 
ENDROOT
BRANCH   1   2
ATOM      2  C   UNL     1     -16.104 -12.816  -0.140  1.00  0.00     0.000 C 
BRANCH   2   3
ATOM      3  C   UNL     1     -16.397 -12.356   1.303  1.00  0.00     0.000 C 
BRANCH   3   4
ATOM      4  C   UNL     1     -16.003 -13.349   2.412  1.00  0.00     0.000 C 
BRANCH   4   5
ATOM      5  C   UNL     1     -15.465 -12.707   3.705  1.00  0.00     0.000 C 
BRANCH   5   6
ATOM      6  C   UNL     1     -15.259 -11.189   3.573  1.00  0.00     0.000 C 
BRANCH   6   7
ATOM      7  C   UNL     1     -13.775 -10.800   3.468  1.00  0.00     0.000 C 
BRANCH   7   8
ATOM      8  C   UNL     1     -13.277 -10.527   2.036  1.00  0.00     0.000 C 
BRANCH   8   9
ATOM      9  C   UNL     1     -12.087 -11.416   1.614  1.00  0.00     0.000 C 
BRANCH   9  10
ATOM     10  C   UNL     1     -12.527 -12.587   0.720  1.00  0.00     0.000 C 
BRANCH  10  11
ATOM     11  C   UNL     1     -12.292 -13.959   1.372  1.00  0.00     0.000 C 
BRANCH  11  12
ATOM     12  C   UNL     1     -11.654 -13.854   2.765  1.00  0.00     0.006 C 
BRANCH  12  13
ATOM     13  C   UNL     1     -12.397 -14.730   3.777  1.00  0.00     0.053 C 
BRANCH  13  14
ATOM     14  C   UNL     1     -11.505 -15.821   4.281  1.00  0.00     0.041 C 
ATOM     15  O   UNL     1     -11.965 -16.980   4.467  1.00  0.00    -0.550 OA
ATOM     16  O   UNL     1     -10.178 -15.548   4.595  1.00  0.00    -0.550 OA
ENDBRANCH  13  14
ENDBRANCH  12  13
ENDBRANCH  11  12
ENDBRANCH  10  11
ENDBRANCH   9  10
ENDBRANCH   8   9
ENDBRANCH   7   8
ENDBRANCH   6   7
ENDBRANCH   5   6
ENDBRANCH   4   5
ENDBRANCH   3   4
ENDBRANCH   2   3
ENDBRANCH   1   2
BRANCH   1  17
ATOM     17  C   UNL     1     -17.217 -14.620  -1.585  1.00  0.00     0.000 C 
BRANCH  17  18
ATOM     18  C   UNL     1     -17.243 -13.440  -2.564  1.00  0.00     0.000 C 
BRANCH  18  19
ATOM     19  C   UNL     1     -18.663 -12.865  -2.681  1.00  0.00     0.000 C 
BRANCH  19  20
ATOM     20  C   UNL     1     -19.643 -13.501  -1.683  1.00  0.00     0.000 C 
BRANCH  20  21
ATOM     21  C   UNL     1     -20.041 -12.536  -0.552  1.00  0.00     0.000 C 
BRANCH  21  22
ATOM     22  C   UNL     1     -19.894 -13.158   0.848  1.00  0.00    -0.000 C 
BRANCH  22  23
ATOM     23  C   UNL     1     -20.044 -14.694   0.869  1.00  0.00    -0.000 C 
BRANCH  23  24
ATOM     24  C   UNL     1     -19.129 -15.358   1.915  1.00  0.00    -0.000 C 
BRANCH  24  25
ATOM     25  C   UNL     1     -18.377 -16.580   1.353  1.00  0.00    -0.000 C 
BRANCH  25  26
ATOM     26  C   UNL     1     -19.023 -17.939   1.690  1.00  0.00    -0.000 C 
BRANCH  26  27
ATOM     27  C   UNL     1     -18.117 -18.833   2.552  1.00  0.00    -0.000 C 
BRANCH  27  28
ATOM     28  C   UNL     1     -17.004 -19.466   1.703  1.00  0.00    -0.000 C 
BRANCH  28  29
ATOM     29  C   UNL     1     -16.005 -20.276   2.546  1.00  0.00    -0.003 C 
ATOM     30  C   UNL     1     -15.743 -19.650   3.916  1.00  0.00     0.004 C 
ENDBRANCH  28  29
ENDBRANCH  27  28
ENDBRANCH  26  27
ENDBRANCH  25  26
ENDBRANCH  24  25
ENDBRANCH  23  24
ENDBRANCH  22  23
ENDBRANCH  21  22
ENDBRANCH  20  21
ENDBRANCH  19  20
ENDBRANCH  18  19
ENDBRANCH  17  18
ENDBRANCH   1  17
TORSDOF 26
ENDMDL
MODEL 6
REMARK VINA RESULT:    -4.149      2.000      3.373
REMARK INTER + INTRA:         -13.339
REMARK INTER:                  -8.668
REMARK INTRA:                  -4.671
REMARK UNBOUND:                -2.884
REMARK SMILES CCCCCCCCCCCCCCCCCCCCCCCCCCCC(=O)[O-]
REMARK SMILES IDX 15 1 16 2 17 3 18 4 19 5 20 6 21 7 22 8 23 9 24 10 25 11
REMARK SMILES IDX 26 12 27 13 28 14 29 15 30 16 14 17 13 18 12 19 11 20 10 21
REMARK SMILES IDX 9 22 8 23 7 24 6 25 5 26 4 27 3 28 2 29 1 30
REMARK H PARENT
REMARK Flexibility Score: inf
ROOT
ATOM      1  C   UNL     1     -18.221 -14.937   3.924  1.00  0.00     0.000 C 
ENDROOT
BRANCH   1   2
ATOM      2  C   UNL     1     -18.760 -14.938   2.477  1.00  0.00     0.000 C 
BRANCH   2   3
ATOM      3  C   UNL     1     -17.671 -15.077   1.393  1.00  0.00     0.000 C 
BRANCH   3   4
ATOM      4  C   UNL     1     -18.148 -14.882  -0.058  1.00  0.00     0.000 C 
BRANCH   4   5
ATOM      5  C   UNL     1     -17.058 -15.054  -1.133  1.00  0.00     0.000 C 
BRANCH   5   6
ATOM      6  C   UNL     1     -17.354 -14.255  -2.413  1.00  0.00     0.000 C 
BRANCH   6   7
ATOM      7  C   UNL     1     -17.694 -12.783  -2.127  1.00  0.00     0.000 C 
BRANCH   7   8
ATOM      8  C   UNL     1     -16.568 -11.783  -2.452  1.00  0.00     0.000 C 
BRANCH   8   9
ATOM      9  C   UNL     1     -15.782 -11.309  -1.211  1.00  0.00     0.000 C 
BRANCH   9  10
ATOM     10  C   UNL     1     -16.673 -11.218   0.039  1.00  0.00     0.000 C 
BRANCH  10  11
ATOM     11  C   UNL     1     -15.998 -11.786   1.298  1.00  0.00     0.000 C 
BRANCH  11  12
ATOM     12  C   UNL     1     -15.019 -12.927   0.984  1.00  0.00     0.006 C 
BRANCH  12  13
ATOM     13  C   UNL     1     -13.799 -12.874   1.908  1.00  0.00     0.053 C 
BRANCH  13  14
ATOM     14  C   UNL     1     -12.535 -12.885   1.109  1.00  0.00     0.041 C 
ATOM     15  O   UNL     1     -12.092 -11.816   0.609  1.00  0.00    -0.550 OA
ATOM     16  O   UNL     1     -11.871 -14.083   0.870  1.00  0.00    -0.550 OA
ENDBRANCH  13  14
ENDBRANCH  12  13
ENDBRANCH  11  12
ENDBRANCH  10  11
ENDBRANCH   9  10
ENDBRANCH   8   9
ENDBRANCH   7   8
ENDBRANCH   6   7
ENDBRANCH   5   6
ENDBRANCH   4   5
ENDBRANCH   3   4
ENDBRANCH   2   3
ENDBRANCH   1   2
BRANCH   1  17
ATOM     17  C   UNL     1     -16.716 -15.240   3.999  1.00  0.00     0.000 C 
BRANCH  17  18
ATOM     18  C   UNL     1     -16.455 -16.605   4.648  1.00  0.00     0.000 C 
BRANCH  18  19
ATOM     19  C   UNL     1     -17.700 -17.092   5.406  1.00  0.00     0.000 C 
BRANCH  19  20
ATOM     20  C   UNL     1     -17.524 -18.502   5.989  1.00  0.00     0.000 C 
BRANCH  20  21
ATOM     21  C   UNL     1     -16.194 -19.151   5.567  1.00  0.00     0.000 C 
BRANCH  21  22
ATOM     22  C   UNL     1     -16.376 -20.264   4.519  1.00  0.00    -0.000 C 
BRANCH  22  23
ATOM     23  C   UNL     1     -15.579 -20.036   3.217  1.00  0.00    -0.000 C 
BRANCH  23  24
ATOM     24  C   UNL     1     -16.490 -19.964   1.977  1.00  0.00    -0.000 C 
BRANCH  24  25
ATOM     25  C   UNL     1     -17.403 -18.722   1.984  1.00  0.00    -0.000 C 
BRANCH  25  26
ATOM     26  C   UNL     1     -18.895 -19.024   1.743  1.00  0.00    -0.000 C 
BRANCH  26  27
ATOM     27  C   UNL     1     -19.728 -18.987   3.035  1.00  0.00    -0.000 C 
BRANCH  27  28
ATOM     28  C   UNL     1     -19.913 -20.400   3.609  1.00  0.00    -0.000 C 
BRANCH  28  29
ATOM     29  C   UNL     1     -20.459 -21.393   2.569  1.00  0.00    -0.003 C 
ATOM     30  C   UNL     1     -21.427 -22.410   3.174  1.00  0.00     0.004 C 
ENDBRANCH  28  29
ENDBRANCH  27  28
ENDBRANCH  26  27
ENDBRANCH  25  26
ENDBRANCH  24  25
ENDBRANCH  23  24
ENDBRANCH  22  23
ENDBRANCH  21  22
ENDBRANCH  20  21
ENDBRANCH  19  20
ENDBRANCH  18  19
ENDBRANCH  17  18
ENDBRANCH   1  17
TORSDOF 26
ENDMDL
MODEL 7
REMARK VINA RESULT:    -4.147      4.142     10.058
REMARK INTER + INTRA:         -13.334
REMARK INTER:                  -9.655
REMARK INTRA:                  -3.679
REMARK UNBOUND:                -2.884
REMARK SMILES CCCCCCCCCCCCCCCCCCCCCCCCCCCC(=O)[O-]
REMARK SMILES IDX 15 1 16 2 17 3 18 4 19 5 20 6 21 7 22 8 23 9 24 10 25 11
REMARK SMILES IDX 26 12 27 13 28 14 29 15 30 16 14 17 13 18 12 19 11 20 10 21
REMARK SMILES IDX 9 22 8 23 7 24 6 25 5 26 4 27 3 28 2 29 1 30
REMARK H PARENT
REMARK Flexibility Score: inf
ROOT
ATOM      1  C   UNL     1     -17.843 -14.583  -0.469  1.00  0.00     0.000 C 
ENDROOT
BRANCH   1   2
ATOM      2  C   UNL     1     -17.589 -15.450   0.782  1.00  0.00     0.000 C 
BRANCH   2   3
ATOM      3  C   UNL     1     -18.855 -15.770   1.603  1.00  0.00     0.000 C 
BRANCH   3   4
ATOM      4  C   UNL     1     -19.111 -17.264   1.877  1.00  0.00     0.000 C 
BRANCH   4   5
ATOM      5  C   UNL     1     -17.875 -18.174   1.743  1.00  0.00     0.000 C 
BRANCH   5   6
ATOM      6  C   UNL     1     -17.506 -18.871   3.063  1.00  0.00     0.000 C 
BRANCH   6   7
ATOM      7  C   UNL     1     -17.086 -20.337   2.861  1.00  0.00     0.000 C 
BRANCH   7   8
ATOM      8  C   UNL     1     -18.140 -21.377   3.288  1.00  0.00     0.000 C 
BRANCH   8   9
ATOM      9  C   UNL     1     -19.555 -20.786   3.470  1.00  0.00     0.000 C 
BRANCH   9  10
ATOM     10  C   UNL     1     -20.539 -21.301   2.405  1.00  0.00     0.000 C 
BRANCH  10  11
ATOM     11  C   UNL     1     -21.283 -20.168   1.682  1.00  0.00     0.000 C 
BRANCH  11  12
ATOM     12  C   UNL     1     -20.903 -20.058   0.198  1.00  0.00     0.006 C 
BRANCH  12  13
ATOM     13  C   UNL     1     -22.147 -20.100  -0.693  1.00  0.00     0.053 C 
BRANCH  13  14
ATOM     14  C   UNL     1     -22.973 -21.309  -0.385  1.00  0.00     0.041 C 
ATOM     15  O   UNL     1     -24.141 -21.178   0.071  1.00  0.00    -0.550 OA
ATOM     16  O   UNL     1     -22.437 -22.581  -0.551  1.00  0.00    -0.550 OA
ENDBRANCH  13  14
ENDBRANCH  12  13
ENDBRANCH  11  12
ENDBRANCH  10  11
ENDBRANCH   9  10
ENDBRANCH   8   9
ENDBRANCH   7   8
ENDBRANCH   6   7
ENDBRANCH   5   6
ENDBRANCH   4   5
ENDBRANCH   3   4
ENDBRANCH   2   3
ENDBRANCH   1   2
BRANCH   1  17
ATOM     17  C   UNL     1     -16.934 -14.961  -1.650  1.00  0.00     0.000 C 
BRANCH  17  18
ATOM     18  C   UNL     1     -17.205 -14.070  -2.869  1.00  0.00     0.000 C 
BRANCH  18  19
ATOM     19  C   UNL     1     -18.333 -13.071  -2.569  1.00  0.00     0.000 C 
BRANCH  19  20
ATOM     20  C   UNL     1     -17.885 -11.609  -2.723  1.00  0.00     0.000 C 
BRANCH  20  21
ATOM     21  C   UNL     1     -16.424 -11.394  -2.291  1.00  0.00     0.000 C 
BRANCH  21  22
ATOM     22  C   UNL     1     -16.275 -11.147  -0.779  1.00  0.00    -0.000 C 
BRANCH  22  23
ATOM     23  C   UNL     1     -14.915 -11.592  -0.203  1.00  0.00    -0.000 C 
BRANCH  23  24
ATOM     24  C   UNL     1     -15.061 -12.695   0.863  1.00  0.00    -0.000 C 
BRANCH  24  25
ATOM     25  C   UNL     1     -13.725 -13.394   1.179  1.00  0.00    -0.000 C 
BRANCH  25  26
ATOM     26  C   UNL     1     -13.425 -13.548   2.683  1.00  0.00    -0.000 C 
BRANCH  26  27
ATOM     27  C   UNL     1     -14.437 -12.807   3.572  1.00  0.00    -0.000 C 
BRANCH  27  28
ATOM     28  C   UNL     1     -15.083 -13.766   4.584  1.00  0.00    -0.000 C 
BRANCH  28  29
ATOM     29  C   UNL     1     -16.084 -14.731   3.928  1.00  0.00    -0.003 C 
ATOM     30  C   UNL     1     -17.006 -15.407   4.943  1.00  0.00     0.004 C 
ENDBRANCH  28  29
ENDBRANCH  27  28
ENDBRANCH  26  27
ENDBRANCH  25  26
ENDBRANCH  24  25
ENDBRANCH  23  24
ENDBRANCH  22  23
ENDBRANCH  21  22
ENDBRANCH  20  21
ENDBRANCH  19  20
ENDBRANCH  18  19
ENDBRANCH  17  18
ENDBRANCH   1  17
TORSDOF 26
ENDMDL
MODEL 8
REMARK VINA RESULT:    -4.134      3.754     10.138
REMARK INTER + INTRA:         -13.301
REMARK INTER:                  -9.689
REMARK INTRA:                  -3.612
REMARK UNBOUND:                -2.884
REMARK SMILES CCCCCCCCCCCCCCCCCCCCCCCCCCCC(=O)[O-]
REMARK SMILES IDX 15 1 16 2 17 3 18 4 19 5 20 6 21 7 22 8 23 9 24 10 25 11
REMARK SMILES IDX 26 12 27 13 28 14 29 15 30 16 14 17 13 18 12 19 11 20 10 21
REMARK SMILES IDX 9 22 8 23 7 24 6 25 5 26 4 27 3 28 2 29 1 30
REMARK H PARENT
REMARK Flexibility Score: inf
ROOT
ATOM      1  C   UNL     1     -18.516 -14.738   0.987  1.00  0.00     0.000 C 
ENDROOT
BRANCH   1   2
ATOM      2  C   UNL     1     -18.164 -16.218   1.247  1.00  0.00     0.000 C 
BRANCH   2   3
ATOM      3  C   UNL     1     -17.995 -16.580   2.737  1.00  0.00     0.000 C 
BRANCH   3   4
ATOM      4  C   UNL     1     -17.366 -17.957   3.021  1.00  0.00     0.000 C 
BRANCH   4   5
ATOM      5  C   UNL     1     -17.609 -19.023   1.935  1.00  0.00     0.000 C 
BRANCH   5   6
ATOM      6  C   UNL     1     -16.901 -20.353   2.240  1.00  0.00     0.000 C 
BRANCH   6   7
ATOM      7  C   UNL     1     -17.718 -21.258   3.177  1.00  0.00     0.000 C 
BRANCH   7   8
ATOM      8  C   UNL     1     -19.145 -20.758   3.476  1.00  0.00     0.000 C 
BRANCH   8   9
ATOM      9  C   UNL     1     -20.252 -21.714   2.981  1.00  0.00     0.000 C 
BRANCH   9  10
ATOM     10  C   UNL     1     -21.443 -20.955   2.372  1.00  0.00     0.000 C 
BRANCH  10  11
ATOM     11  C   UNL     1     -21.245 -19.431   2.373  1.00  0.00     0.000 C 
BRANCH  11  12
ATOM     12  C   UNL     1     -21.306 -18.822   0.965  1.00  0.00     0.006 C 
BRANCH  12  13
ATOM     13  C   UNL     1     -20.721 -19.781  -0.075  1.00  0.00     0.053 C 
BRANCH  13  14
ATOM     14  C   UNL     1     -21.753 -20.141  -1.097  1.00  0.00     0.041 C 
ATOM     15  O   UNL     1     -21.852 -21.329  -1.506  1.00  0.00    -0.550 OA
ATOM     16  O   UNL     1     -22.572 -19.156  -1.639  1.00  0.00    -0.550 OA
ENDBRANCH  13  14
ENDBRANCH  12  13
ENDBRANCH  11  12
ENDBRANCH  10  11
ENDBRANCH   9  10
ENDBRANCH   8   9
ENDBRANCH   7   8
ENDBRANCH   6   7
ENDBRANCH   5   6
ENDBRANCH   4   5
ENDBRANCH   3   4
ENDBRANCH   2   3
ENDBRANCH   1   2
BRANCH   1  17
ATOM     17  C   UNL     1     -18.516 -14.380  -0.508  1.00  0.00     0.000 C 
BRANCH  17  18
ATOM     18  C   UNL     1     -17.223 -14.842  -1.191  1.00  0.00     0.000 C 
BRANCH  18  19
ATOM     19  C   UNL     1     -17.050 -14.146  -2.550  1.00  0.00     0.000 C 
BRANCH  19  20
ATOM     20  C   UNL     1     -18.349 -13.497  -3.052  1.00  0.00     0.000 C 
BRANCH  20  21
ATOM     21  C   UNL     1     -18.243 -11.965  -3.149  1.00  0.00     0.000 C 
BRANCH  21  22
ATOM     22  C   UNL     1     -16.970 -11.409  -2.485  1.00  0.00    -0.000 C 
BRANCH  22  23
ATOM     23  C   UNL     1     -17.243 -10.344  -1.402  1.00  0.00    -0.000 C 
BRANCH  23  24
ATOM     24  C   UNL     1     -16.828 -10.816   0.003  1.00  0.00    -0.000 C 
BRANCH  24  25
ATOM     25  C   UNL     1     -15.593 -11.738  -0.023  1.00  0.00    -0.000 C 
BRANCH  25  26
ATOM     26  C   UNL     1     -15.413 -12.601   1.242  1.00  0.00    -0.000 C 
BRANCH  26  27
ATOM     27  C   UNL     1     -14.391 -13.734   1.051  1.00  0.00    -0.000 C 
BRANCH  27  28
ATOM     28  C   UNL     1     -12.963 -13.175   0.964  1.00  0.00    -0.000 C 
BRANCH  28  29
ATOM     29  C   UNL     1     -12.053 -13.699   2.087  1.00  0.00    -0.003 C 
ATOM     30  C   UNL     1     -12.572 -13.347   3.482  1.00  0.00     0.004 C 
ENDBRANCH  28  29
ENDBRANCH  27  28
ENDBRANCH  26  27
ENDBRANCH  25  26
ENDBRANCH  24  25
ENDBRANCH  23  24
ENDBRANCH  22  23
ENDBRANCH  21  22
ENDBRANCH  20  21
ENDBRANCH  19  20
ENDBRANCH  18  19
ENDBRANCH  17  18
ENDBRANCH   1  17
TORSDOF 26
ENDMDL
MODEL 9
REMARK VINA RESULT:    -4.118      2.949      8.527
REMARK INTER + INTRA:         -13.262
REMARK INTER:                  -8.441
REMARK INTRA:                  -4.821
REMARK UNBOUND:                -2.884
REMARK SMILES CCCCCCCCCCCCCCCCCCCCCCCCCCCC(=O)[O-]
REMARK SMILES IDX 15 1 16 2 17 3 18 4 19 5 20 6 21 7 22 8 23 9 24 10 25 11
REMARK SMILES IDX 26 12 27 13 28 14 29 15 30 16 14 17 13 18 12 19 11 20 10 21
REMARK SMILES IDX 9 22 8 23 7 24 6 25 5 26 4 27 3 28 2 29 1 30
REMARK H PARENT
REMARK Flexibility Score: inf
ROOT
ATOM      1  C   UNL     1     -17.707 -14.232  -2.742  1.00  0.00     0.000 C 
ENDROOT
BRANCH   1   2
ATOM      2  C   UNL     1     -17.782 -12.691  -2.693  1.00  0.00     0.000 C 
BRANCH   2   3
ATOM      3  C   UNL     1     -19.140 -12.134  -2.220  1.00  0.00     0.000 C 
BRANCH   3   4
ATOM      4  C   UNL     1     -19.237 -11.798  -0.720  1.00  0.00     0.000 C 
BRANCH   4   5
ATOM      5  C   UNL     1     -20.356 -12.532   0.044  1.00  0.00     0.000 C 
BRANCH   5   6
ATOM      6  C   UNL     1     -20.869 -13.774  -0.703  1.00  0.00     0.000 C 
BRANCH   6   7
ATOM      7  C   UNL     1     -21.521 -14.803   0.236  1.00  0.00     0.000 C 
BRANCH   7   8
ATOM      8  C   UNL     1     -20.823 -14.966   1.600  1.00  0.00     0.000 C 
BRANCH   8   9
ATOM      9  C   UNL     1     -20.823 -16.418   2.126  1.00  0.00     0.000 C 
BRANCH   9  10
ATOM     10  C   UNL     1     -19.987 -17.356   1.240  1.00  0.00     0.000 C 
BRANCH  10  11
ATOM     11  C   UNL     1     -19.195 -18.395   2.048  1.00  0.00     0.000 C 
BRANCH  11  12
ATOM     12  C   UNL     1     -17.675 -18.203   1.936  1.00  0.00     0.006 C 
BRANCH  12  13
ATOM     13  C   UNL     1     -16.972 -19.535   1.661  1.00  0.00     0.053 C 
BRANCH  13  14
ATOM     14  C   UNL     1     -16.752 -20.286   2.937  1.00  0.00     0.041 C 
ATOM     15  O   UNL     1     -15.737 -20.048   3.645  1.00  0.00    -0.550 OA
ATOM     16  O   UNL     1     -17.639 -21.287   3.319  1.00  0.00    -0.550 OA
ENDBRANCH  13  14
ENDBRANCH  12  13
ENDBRANCH  11  12
ENDBRANCH  10  11
ENDBRANCH   9  10
ENDBRANCH   8   9
ENDBRANCH   7   8
ENDBRANCH   6   7
ENDBRANCH   5   6
ENDBRANCH   4   5
ENDBRANCH   3   4
ENDBRANCH   2   3
ENDBRANCH   1   2
BRANCH   1  17
ATOM     17  C   UNL     1     -16.822 -14.820  -1.631  1.00  0.00     0.000 C 
BRANCH  17  18
ATOM     18  C   UNL     1     -17.649 -15.177  -0.390  1.00  0.00     0.000 C 
BRANCH  18  19
ATOM     19  C   UNL     1     -17.122 -14.431   0.845  1.00  0.00     0.000 C 
BRANCH  19  20
ATOM     20  C   UNL     1     -15.759 -13.766   0.598  1.00  0.00     0.000 C 
BRANCH  20  21
ATOM     21  C   UNL     1     -15.821 -12.234   0.720  1.00  0.00     0.000 C 
BRANCH  21  22
ATOM     22  C   UNL     1     -15.060 -11.511  -0.406  1.00  0.00    -0.000 C 
BRANCH  22  23
ATOM     23  C   UNL     1     -14.136 -10.378   0.090  1.00  0.00    -0.000 C 
BRANCH  23  24
ATOM     24  C   UNL     1     -13.104 -10.871   1.121  1.00  0.00    -0.000 C 
BRANCH  24  25
ATOM     25  C   UNL     1     -12.065 -11.829   0.506  1.00  0.00    -0.000 C 
BRANCH  25  26
ATOM     26  C   UNL     1     -12.140 -13.276   1.032  1.00  0.00    -0.000 C 
BRANCH  26  27
ATOM     27  C   UNL     1     -11.981 -13.364   2.559  1.00  0.00    -0.000 C 
BRANCH  27  28
ATOM     28  C   UNL     1     -13.229 -13.985   3.205  1.00  0.00    -0.000 C 
BRANCH  28  29
ATOM     29  C   UNL     1     -14.079 -12.951   3.963  1.00  0.00    -0.003 C 
ATOM     30  C   UNL     1     -15.323 -13.565   4.604  1.00  0.00     0.004 C 
ENDBRANCH  28  29
ENDBRANCH  27  28
ENDBRANCH  26  27
ENDBRANCH  25  26
ENDBRANCH  24  25
ENDBRANCH  23  24
ENDBRANCH  22  23
ENDBRANCH  21  22
ENDBRANCH  20  21
ENDBRANCH  19  20
ENDBRANCH  18  19
ENDBRANCH  17  18
ENDBRANCH   1  17
TORSDOF 26
ENDMDL
