MODEL 1
REMARK VINA RESULT:    -5.380      0.000      0.000
REMARK INTER + INTRA:         -11.483
REMARK INTER:                 -10.413
REMARK INTRA:                  -1.070
REMARK UNBOUND:                -1.070
REMARK SMILES CCCCCCCCCCCCCCCCCC(=O)[O-]
REMARK SMILES IDX 10 1 11 2 12 3 13 4 14 5 15 6 16 7 17 8 18 9 19 10 20 11
REMARK SMILES IDX 9 12 8 13 7 14 6 15 5 16 4 17 3 18 2 19 1 20
REMARK H PARENT
REMARK Flexibility Score: inf
ROOT
ATOM      1  C   UNL     1      -4.102  30.891  58.042  1.00  0.00     0.000 C 
ENDROOT
BRANCH   1   2
ATOM      2  C   UNL     1      -4.356  31.133  59.541  1.00  0.00     0.000 C 
BRANCH   2   3
ATOM      3  C   UNL     1      -3.270  32.010  60.186  1.00  0.00     0.000 C 
BRANCH   3   4
ATOM      4  C   UNL     1      -3.617  32.412  61.631  1.00  0.00     0.000 C 
BRANCH   4   5
ATOM      5  C   UNL     1      -2.428  33.042  62.378  1.00  0.00     0.000 C 
BRANCH   5   6
ATOM      6  C   UNL     1      -1.795  32.149  63.462  1.00  0.00     0.000 C 
BRANCH   6   7
ATOM      7  C   UNL     1      -0.375  31.677  63.098  1.00  0.00     0.006 C 
BRANCH   7   8
ATOM      8  C   UNL     1       0.056  32.161  61.707  1.00  0.00     0.053 C 
BRANCH   8   9
ATOM      9  C   UNL     1       1.021  31.212  61.062  1.00  0.00     0.041 C 
ATOM     10  O   UNL     1       1.688  31.571  60.057  1.00  0.00    -0.550 OA
ATOM     11  O   UNL     1       1.168  29.924  61.562  1.00  0.00    -0.550 OA
ENDBRANCH   8   9
ENDBRANCH   7   8
ENDBRANCH   6   7
ENDBRANCH   5   6
ENDBRANCH   4   5
ENDBRANCH   3   4
ENDBRANCH   2   3
ENDBRANCH   1   2
BRANCH   1  12
ATOM     12  C   UNL     1      -2.816  30.090  57.786  1.00  0.00     0.000 C 
BRANCH  12  13
ATOM     13  C   UNL     1      -2.996  29.003  56.710  1.00  0.00    -0.000 C 
BRANCH  13  14
ATOM     14  C   UNL     1      -4.484  28.760  56.377  1.00  0.00    -0.000 C 
BRANCH  14  15
ATOM     15  C   UNL     1      -4.719  27.568  55.433  1.00  0.00    -0.000 C 
BRANCH  15  16
ATOM     16  C   UNL     1      -3.471  26.684  55.270  1.00  0.00    -0.000 C 
BRANCH  16  17
ATOM     17  C   UNL     1      -3.091  26.465  53.795  1.00  0.00    -0.000 C 
BRANCH  17  18
ATOM     18  C   UNL     1      -1.583  26.236  53.600  1.00  0.00    -0.000 C 
BRANCH  18  19
ATOM     19  C   UNL     1      -0.882  26.029  54.948  1.00  0.00    -0.003 C 
ATOM     20  C   UNL     1       0.583  25.646  54.754  1.00  0.00     0.004 C 
ENDBRANCH  18  19
ENDBRANCH  17  18
ENDBRANCH  16  17
ENDBRANCH  15  16
ENDBRANCH  14  15
ENDBRANCH  13  14
ENDBRANCH  12  13
ENDBRANCH   1  12
TORSDOF 16
ENDMDL
MODEL 2
REMARK VINA RESULT:    -5.322      1.944      8.092
REMARK INTER + INTRA:         -11.370
REMARK INTER:                 -10.282
REMARK INTRA:                  -1.088
REMARK UNBOUND:                -1.070
REMARK SMILES CCCCCCCCCCCCCCCCCC(=O)[O-]
REMARK SMILES IDX 10 1 11 2 12 3 13 4 14 5 15 6 16 7 17 8 18 9 19 10 20 11
REMARK SMILES IDX 9 12 8 13 7 14 6 15 5 16 4 17 3 18 2 19 1 20
REMARK H PARENT
REMARK Flexibility Score: inf
ROOT
ATOM      1  C   UNL     1      -3.013  28.924  56.427  1.00  0.00     0.000 C 
ENDROOT
BRANCH   1   2
ATOM      2  C   UNL     1      -4.456  28.404  56.297  1.00  0.00     0.000 C 
BRANCH   2   3
ATOM      3  C   UNL     1      -4.615  27.398  55.145  1.00  0.00     0.000 C 
BRANCH   3   4
ATOM      4  C   UNL     1      -3.453  26.389  55.079  1.00  0.00     0.000 C 
BRANCH   4   5
ATOM      5  C   UNL     1      -2.745  26.382  53.712  1.00  0.00     0.000 C 
BRANCH   5   6
ATOM      6  C   UNL     1      -1.233  26.092  53.767  1.00  0.00     0.000 C 
BRANCH   6   7
ATOM      7  C   UNL     1      -0.680  26.057  55.203  1.00  0.00     0.006 C 
BRANCH   7   8
ATOM      8  C   UNL     1       0.855  26.059  55.233  1.00  0.00     0.053 C 
BRANCH   8   9
ATOM      9  C   UNL     1       1.387  26.773  56.438  1.00  0.00     0.041 C 
ATOM     10  O   UNL     1       2.608  26.694  56.735  1.00  0.00    -0.550 OA
ATOM     11  O   UNL     1       0.530  27.510  57.245  1.00  0.00    -0.550 OA
ENDBRANCH   8   9
ENDBRANCH   7   8
ENDBRANCH   6   7
ENDBRANCH   5   6
ENDBRANCH   4   5
ENDBRANCH   3   4
ENDBRANCH   2   3
ENDBRANCH   1   2
BRANCH   1  12
ATOM     12  C   UNL     1      -2.826  29.839  57.647  1.00  0.00     0.000 C 
BRANCH  12  13
ATOM     13  C   UNL     1      -4.150  30.450  58.141  1.00  0.00    -0.000 C 
BRANCH  13  14
ATOM     14  C   UNL     1      -3.922  31.739  58.960  1.00  0.00    -0.000 C 
BRANCH  14  15
ATOM     15  C   UNL     1      -3.950  31.517  60.483  1.00  0.00    -0.000 C 
BRANCH  15  16
ATOM     16  C   UNL     1      -3.324  32.683  61.266  1.00  0.00    -0.000 C 
BRANCH  16  17
ATOM     17  C   UNL     1      -1.788  32.701  61.172  1.00  0.00    -0.000 C 
BRANCH  17  18
ATOM     18  C   UNL     1      -1.109  32.480  62.533  1.00  0.00    -0.000 C 
BRANCH  18  19
ATOM     19  C   UNL     1      -2.152  32.249  63.634  1.00  0.00    -0.003 C 
ATOM     20  C   UNL     1      -2.132  33.381  64.657  1.00  0.00     0.004 C 
ENDBRANCH  18  19
ENDBRANCH  17  18
ENDBRANCH  16  17
ENDBRANCH  15  16
ENDBRANCH  14  15
ENDBRANCH  13  14
ENDBRANCH  12  13
ENDBRANCH   1  12
TORSDOF 16
ENDMDL
MODEL 3
REMARK VINA RESULT:    -5.154      3.301      8.131
REMARK INTER + INTRA:         -11.046
REMARK INTER:                  -9.612
REMARK INTRA:                  -1.434
REMARK UNBOUND:                -1.070
REMARK SMILES CCCCCCCCCCCCCCCCCC(=O)[O-]
REMARK SMILES IDX 10 1 11 2 12 3 13 4 14 5 15 6 16 7 17 8 18 9 19 10 20 11
REMARK SMILES IDX 9 12 8 13 7 14 6 15 5 16 4 17 3 18 2 19 1 20
REMARK H PARENT
REMARK Flexibility Score: inf
ROOT
ATOM      1  C   UNL     1      -0.784  25.828  54.551  1.00  0.00     0.000 C 
ENDROOT
BRANCH   1   2
ATOM      2  C   UNL     1       0.162  24.614  54.522  1.00  0.00     0.000 C 
BRANCH   2   3
ATOM      3  C   UNL     1       0.990  24.546  53.229  1.00  0.00     0.000 C 
BRANCH   3   4
ATOM      4  C   UNL     1       2.087  23.467  53.286  1.00  0.00     0.000 C 
BRANCH   4   5
ATOM      5  C   UNL     1       3.479  24.045  53.597  1.00  0.00     0.000 C 
BRANCH   5   6
ATOM      6  C   UNL     1       3.764  24.280  55.093  1.00  0.00     0.000 C 
BRANCH   6   7
ATOM      7  C   UNL     1       4.237  25.714  55.396  1.00  0.00     0.006 C 
BRANCH   7   8
ATOM      8  C   UNL     1       3.062  26.690  55.543  1.00  0.00     0.053 C 
BRANCH   8   9
ATOM      9  C   UNL     1       2.484  26.662  56.925  1.00  0.00     0.041 C 
ATOM     10  O   UNL     1       1.292  27.017  57.122  1.00  0.00    -0.550 OA
ATOM     11  O   UNL     1       3.269  26.261  57.999  1.00  0.00    -0.550 OA
ENDBRANCH   8   9
ENDBRANCH   7   8
ENDBRANCH   6   7
ENDBRANCH   5   6
ENDBRANCH   4   5
ENDBRANCH   3   4
ENDBRANCH   2   3
ENDBRANCH   1   2
BRANCH   1  12
ATOM     12  C   UNL     1      -1.501  26.046  53.210  1.00  0.00     0.000 C 
BRANCH  12  13
ATOM     13  C   UNL     1      -2.983  26.426  53.381  1.00  0.00    -0.000 C 
BRANCH  13  14
ATOM     14  C   UNL     1      -3.397  26.483  54.868  1.00  0.00    -0.000 C 
BRANCH  14  15
ATOM     15  C   UNL     1      -4.520  27.495  55.158  1.00  0.00    -0.000 C 
BRANCH  15  16
ATOM     16  C   UNL     1      -4.298  28.269  56.468  1.00  0.00    -0.000 C 
BRANCH  16  17
ATOM     17  C   UNL     1      -3.103  29.234  56.390  1.00  0.00    -0.000 C 
BRANCH  17  18
ATOM     18  C   UNL     1      -2.839  29.959  57.719  1.00  0.00    -0.000 C 
BRANCH  18  19
ATOM     19  C   UNL     1      -4.001  30.895  58.073  1.00  0.00    -0.003 C 
ATOM     20  C   UNL     1      -4.718  30.429  59.337  1.00  0.00     0.004 C 
ENDBRANCH  18  19
ENDBRANCH  17  18
ENDBRANCH  16  17
ENDBRANCH  15  16
ENDBRANCH  14  15
ENDBRANCH  13  14
ENDBRANCH  12  13
ENDBRANCH   1  12
TORSDOF 16
ENDMDL
MODEL 4
REMARK VINA RESULT:    -5.114      1.930      2.637
REMARK INTER + INTRA:         -10.967
REMARK INTER:                 -10.117
REMARK INTRA:                  -0.851
REMARK UNBOUND:                -1.070
REMARK SMILES CCCCCCCCCCCCCCCCCC(=O)[O-]
REMARK SMILES IDX 10 1 11 2 12 3 13 4 14 5 15 6 16 7 17 8 18 9 19 10 20 11
REMARK SMILES IDX 9 12 8 13 7 14 6 15 5 16 4 17 3 18 2 19 1 20
REMARK H PARENT
REMARK Flexibility Score: inf
ROOT
ATOM      1  C   UNL     1      -4.287  30.144  57.820  1.00  0.00     0.000 C 
ENDROOT
BRANCH   1   2
ATOM      2  C   UNL     1      -4.311  30.683  59.262  1.00  0.00     0.000 C 
BRANCH   2   3
ATOM      3  C   UNL     1      -3.681  32.081  59.376  1.00  0.00     0.000 C 
BRANCH   3   4
ATOM      4  C   UNL     1      -2.707  32.195  60.563  1.00  0.00     0.000 C 
BRANCH   4   5
ATOM      5  C   UNL     1      -3.375  32.753  61.833  1.00  0.00     0.000 C 
BRANCH   5   6
ATOM      6  C   UNL     1      -2.736  32.294  63.157  1.00  0.00     0.000 C 
BRANCH   6   7
ATOM      7  C   UNL     1      -1.223  32.571  63.221  1.00  0.00     0.006 C 
BRANCH   7   8
ATOM      8  C   UNL     1      -0.467  31.476  63.986  1.00  0.00     0.053 C 
BRANCH   8   9
ATOM      9  C   UNL     1       0.535  32.054  64.939  1.00  0.00     0.041 C 
ATOM     10  O   UNL     1       0.377  31.925  66.181  1.00  0.00    -0.550 OA
ATOM     11  O   UNL     1       1.634  32.752  64.454  1.00  0.00    -0.550 OA
ENDBRANCH   8   9
ENDBRANCH   7   8
ENDBRANCH   6   7
ENDBRANCH   5   6
ENDBRANCH   4   5
ENDBRANCH   3   4
ENDBRANCH   2   3
ENDBRANCH   1   2
BRANCH   1  12
ATOM     12  C   UNL     1      -2.921  29.558  57.434  1.00  0.00     0.000 C 
BRANCH  12  13
ATOM     13  C   UNL     1      -2.911  28.955  56.017  1.00  0.00    -0.000 C 
BRANCH  13  14
ATOM     14  C   UNL     1      -4.138  28.053  55.764  1.00  0.00    -0.000 C 
BRANCH  14  15
ATOM     15  C   UNL     1      -3.800  26.738  55.040  1.00  0.00    -0.000 C 
BRANCH  15  16
ATOM     16  C   UNL     1      -2.309  26.375  55.132  1.00  0.00    -0.000 C 
BRANCH  16  17
ATOM     17  C   UNL     1      -1.658  26.196  53.750  1.00  0.00    -0.000 C 
BRANCH  17  18
ATOM     18  C   UNL     1      -2.660  26.365  52.597  1.00  0.00    -0.000 C 
BRANCH  18  19
ATOM     19  C   UNL     1      -2.017  25.995  51.254  1.00  0.00    -0.003 C 
ATOM     20  C   UNL     1      -2.062  27.170  50.280  1.00  0.00     0.004 C 
ENDBRANCH  18  19
ENDBRANCH  17  18
ENDBRANCH  16  17
ENDBRANCH  15  16
ENDBRANCH  14  15
ENDBRANCH  13  14
ENDBRANCH  12  13
ENDBRANCH   1  12
TORSDOF 16
ENDMDL
MODEL 5
REMARK VINA RESULT:    -5.100      3.739      9.057
REMARK INTER + INTRA:         -10.942
REMARK INTER:                 -10.061
REMARK INTRA:                  -0.880
REMARK UNBOUND:                -1.070
REMARK SMILES CCCCCCCCCCCCCCCCCC(=O)[O-]
REMARK SMILES IDX 10 1 11 2 12 3 13 4 14 5 15 6 16 7 17 8 18 9 19 10 20 11
REMARK SMILES IDX 9 12 8 13 7 14 6 15 5 16 4 17 3 18 2 19 1 20
REMARK H PARENT
REMARK Flexibility Score: inf
ROOT
ATOM      1  C   UNL     1      -3.797  30.848  58.034  1.00  0.00     0.000 C 
ENDROOT
BRANCH   1   2
ATOM      2  C   UNL     1      -3.713  29.653  57.067  1.00  0.00     0.000 C 
BRANCH   2   3
ATOM      3  C   UNL     1      -2.302  29.047  57.005  1.00  0.00     0.000 C 
BRANCH   3   4
ATOM      4  C   UNL     1      -2.218  27.842  56.050  1.00  0.00     0.000 C 
BRANCH   4   5
ATOM      5  C   UNL     1      -3.555  27.092  55.915  1.00  0.00     0.000 C 
BRANCH   5   6
ATOM      6  C   UNL     1      -3.943  26.712  54.473  1.00  0.00     0.000 C 
BRANCH   6   7
ATOM      7  C   UNL     1      -2.726  26.366  53.596  1.00  0.00     0.006 C 
BRANCH   7   8
ATOM      8  C   UNL     1      -3.076  26.355  52.101  1.00  0.00     0.053 C 
BRANCH   8   9
ATOM      9  C   UNL     1      -1.849  26.433  51.243  1.00  0.00     0.041 C 
ATOM     10  O   UNL     1      -0.838  25.735  51.517  1.00  0.00    -0.550 OA
ATOM     11  O   UNL     1      -1.818  27.291  50.151  1.00  0.00    -0.550 OA
ENDBRANCH   8   9
ENDBRANCH   7   8
ENDBRANCH   6   7
ENDBRANCH   5   6
ENDBRANCH   4   5
ENDBRANCH   3   4
ENDBRANCH   2   3
ENDBRANCH   1   2
BRANCH   1  12
ATOM     12  C   UNL     1      -4.653  30.542  59.273  1.00  0.00     0.000 C 
BRANCH  12  13
ATOM     13  C   UNL     1      -4.182  31.304  60.525  1.00  0.00    -0.000 C 
BRANCH  13  14
ATOM     14  C   UNL     1      -3.074  32.327  60.197  1.00  0.00    -0.000 C 
BRANCH  14  15
ATOM     15  C   UNL     1      -2.512  33.049  61.435  1.00  0.00    -0.000 C 
BRANCH  15  16
ATOM     16  C   UNL     1      -0.975  33.084  61.456  1.00  0.00    -0.000 C 
BRANCH  16  17
ATOM     17  C   UNL     1      -0.414  33.579  62.800  1.00  0.00    -0.000 C 
BRANCH  17  18
ATOM     18  C   UNL     1       0.497  32.544  63.480  1.00  0.00    -0.000 C 
BRANCH  18  19
ATOM     19  C   UNL     1      -0.322  31.588  64.356  1.00  0.00    -0.003 C 
ATOM     20  C   UNL     1      -0.112  30.137  63.932  1.00  0.00     0.004 C 
ENDBRANCH  18  19
ENDBRANCH  17  18
ENDBRANCH  16  17
ENDBRANCH  15  16
ENDBRANCH  14  15
ENDBRANCH  13  14
ENDBRANCH  12  13
ENDBRANCH   1  12
TORSDOF 16
ENDMDL
MODEL 6
REMARK VINA RESULT:    -4.988      2.882      8.691
REMARK INTER + INTRA:         -10.724
REMARK INTER:                  -9.874
REMARK INTRA:                  -0.850
REMARK UNBOUND:                -1.070
REMARK SMILES CCCCCCCCCCCCCCCCCC(=O)[O-]
REMARK SMILES IDX 10 1 11 2 12 3 13 4 14 5 15 6 16 7 17 8 18 9 19 10 20 11
REMARK SMILES IDX 9 12 8 13 7 14 6 15 5 16 4 17 3 18 2 19 1 20
REMARK H PARENT
REMARK Flexibility Score: inf
ROOT
ATOM      1  C   UNL     1      -3.983  30.162  58.412  1.00  0.00     0.000 C 
ENDROOT
BRANCH   1   2
ATOM      2  C   UNL     1      -2.559  30.065  57.836  1.00  0.00     0.000 C 
BRANCH   2   3
ATOM      3  C   UNL     1      -2.497  29.198  56.568  1.00  0.00     0.000 C 
BRANCH   3   4
ATOM      4  C   UNL     1      -3.863  28.590  56.201  1.00  0.00     0.000 C 
BRANCH   4   5
ATOM      5  C   UNL     1      -3.777  27.093  55.852  1.00  0.00     0.000 C 
BRANCH   5   6
ATOM      6  C   UNL     1      -3.687  26.782  54.346  1.00  0.00     0.000 C 
BRANCH   6   7
ATOM      7  C   UNL     1      -2.267  26.393  53.896  1.00  0.00     0.006 C 
BRANCH   7   8
ATOM      8  C   UNL     1      -1.359  26.047  55.084  1.00  0.00     0.053 C 
BRANCH   8   9
ATOM      9  C   UNL     1       0.024  25.678  54.637  1.00  0.00     0.041 C 
ATOM     10  O   UNL     1       0.192  24.981  53.602  1.00  0.00    -0.550 OA
ATOM     11  O   UNL     1       1.126  26.090  55.376  1.00  0.00    -0.550 OA
ENDBRANCH   8   9
ENDBRANCH   7   8
ENDBRANCH   6   7
ENDBRANCH   5   6
ENDBRANCH   4   5
ENDBRANCH   3   4
ENDBRANCH   2   3
ENDBRANCH   1   2
BRANCH   1  12
ATOM     12  C   UNL     1      -4.274  31.537  59.031  1.00  0.00     0.000 C 
BRANCH  12  13
ATOM     13  C   UNL     1      -3.878  31.618  60.517  1.00  0.00    -0.000 C 
BRANCH  13  14
ATOM     14  C   UNL     1      -2.745  32.638  60.759  1.00  0.00    -0.000 C 
BRANCH  14  15
ATOM     15  C   UNL     1      -2.851  33.372  62.108  1.00  0.00    -0.000 C 
BRANCH  15  16
ATOM     16  C   UNL     1      -2.806  32.414  63.310  1.00  0.00    -0.000 C 
BRANCH  16  17
ATOM     17  C   UNL     1      -1.419  31.780  63.509  1.00  0.00    -0.000 C 
BRANCH  17  18
ATOM     18  C   UNL     1      -0.574  32.520  64.557  1.00  0.00    -0.000 C 
BRANCH  18  19
ATOM     19  C   UNL     1       0.775  31.821  64.767  1.00  0.00    -0.003 C 
ATOM     20  C   UNL     1       0.986  31.459  66.235  1.00  0.00     0.004 C 
ENDBRANCH  18  19
ENDBRANCH  17  18
ENDBRANCH  16  17
ENDBRANCH  15  16
ENDBRANCH  14  15
ENDBRANCH  13  14
ENDBRANCH  12  13
ENDBRANCH   1  12
TORSDOF 16
ENDMDL
MODEL 7
REMARK VINA RESULT:    -4.918      4.009      9.727
REMARK INTER + INTRA:         -10.589
REMARK INTER:                  -9.834
REMARK INTRA:                  -0.755
REMARK UNBOUND:                -1.070
REMARK SMILES CCCCCCCCCCCCCCCCCC(=O)[O-]
REMARK SMILES IDX 10 1 11 2 12 3 13 4 14 5 15 6 16 7 17 8 18 9 19 10 20 11
REMARK SMILES IDX 9 12 8 13 7 14 6 15 5 16 4 17 3 18 2 19 1 20
REMARK H PARENT
REMARK Flexibility Score: inf
ROOT
ATOM      1  C   UNL     1      -3.402  30.113  58.074  1.00  0.00     0.000 C 
ENDROOT
BRANCH   1   2
ATOM      2  C   UNL     1      -4.351  29.382  57.107  1.00  0.00     0.000 C 
BRANCH   2   3
ATOM      3  C   UNL     1      -3.607  28.758  55.915  1.00  0.00     0.000 C 
BRANCH   3   4
ATOM      4  C   UNL     1      -3.442  27.234  56.053  1.00  0.00     0.000 C 
BRANCH   4   5
ATOM      5  C   UNL     1      -1.969  26.799  56.162  1.00  0.00     0.000 C 
BRANCH   5   6
ATOM      6  C   UNL     1      -1.304  26.419  54.826  1.00  0.00     0.000 C 
BRANCH   6   7
ATOM      7  C   UNL     1      -2.321  26.191  53.692  1.00  0.00     0.006 C 
BRANCH   7   8
ATOM      8  C   UNL     1      -1.648  26.138  52.314  1.00  0.00     0.053 C 
BRANCH   8   9
ATOM      9  C   UNL     1      -2.585  26.558  51.222  1.00  0.00     0.041 C 
ATOM     10  O   UNL     1      -2.166  27.251  50.258  1.00  0.00    -0.550 OA
ATOM     11  O   UNL     1      -3.925  26.198  51.279  1.00  0.00    -0.550 OA
ENDBRANCH   8   9
ENDBRANCH   7   8
ENDBRANCH   6   7
ENDBRANCH   5   6
ENDBRANCH   4   5
ENDBRANCH   3   4
ENDBRANCH   2   3
ENDBRANCH   1   2
BRANCH   1  12
ATOM     12  C   UNL     1      -4.052  31.349  58.714  1.00  0.00     0.000 C 
BRANCH  12  13
ATOM     13  C   UNL     1      -3.188  31.968  59.827  1.00  0.00    -0.000 C 
BRANCH  13  14
ATOM     14  C   UNL     1      -3.948  32.055  61.168  1.00  0.00    -0.000 C 
BRANCH  14  15
ATOM     15  C   UNL     1      -3.247  32.934  62.220  1.00  0.00    -0.000 C 
BRANCH  15  16
ATOM     16  C   UNL     1      -2.501  32.109  63.282  1.00  0.00    -0.000 C 
BRANCH  16  17
ATOM     17  C   UNL     1      -1.674  32.987  64.238  1.00  0.00    -0.000 C 
BRANCH  17  18
ATOM     18  C   UNL     1      -1.468  34.413  63.703  1.00  0.00    -0.000 C 
BRANCH  18  19
ATOM     19  C   UNL     1      -1.858  35.455  64.759  1.00  0.00    -0.003 C 
ATOM     20  C   UNL     1      -3.370  35.662  64.796  1.00  0.00     0.004 C 
ENDBRANCH  18  19
ENDBRANCH  17  18
ENDBRANCH  16  17
ENDBRANCH  15  16
ENDBRANCH  14  15
ENDBRANCH  13  14
ENDBRANCH  12  13
ENDBRANCH   1  12
TORSDOF 16
ENDMDL
MODEL 8
REMARK VINA RESULT:    -4.865      4.017      9.333
REMARK INTER + INTRA:         -10.487
REMARK INTER:                 -10.513
REMARK INTRA:                   0.026
REMARK UNBOUND:                -1.070
REMARK SMILES CCCCCCCCCCCCCCCCCC(=O)[O-]
REMARK SMILES IDX 10 1 11 2 12 3 13 4 14 5 15 6 16 7 17 8 18 9 19 10 20 11
REMARK SMILES IDX 9 12 8 13 7 14 6 15 5 16 4 17 3 18 2 19 1 20
REMARK H PARENT
REMARK Flexibility Score: inf
ROOT
ATOM      1  C   UNL     1      -3.905  29.016  56.741  1.00  0.00     0.000 C 
ENDROOT
BRANCH   1   2
ATOM      2  C   UNL     1      -4.981  28.269  55.932  1.00  0.00     0.000 C 
BRANCH   2   3
ATOM      3  C   UNL     1      -4.429  27.011  55.243  1.00  0.00     0.000 C 
BRANCH   3   4
ATOM      4  C   UNL     1      -3.028  27.232  54.645  1.00  0.00     0.000 C 
BRANCH   4   5
ATOM      5  C   UNL     1      -2.170  25.953  54.644  1.00  0.00     0.000 C 
BRANCH   5   6
ATOM      6  C   UNL     1      -0.951  25.991  53.702  1.00  0.00     0.000 C 
BRANCH   6   7
ATOM      7  C   UNL     1      -1.342  25.967  52.213  1.00  0.00     0.006 C 
BRANCH   7   8
ATOM      8  C   UNL     1      -2.812  26.351  51.994  1.00  0.00     0.053 C 
BRANCH   8   9
ATOM      9  C   UNL     1      -3.077  26.749  50.574  1.00  0.00     0.041 C 
ATOM     10  O   UNL     1      -4.140  26.391  50.003  1.00  0.00    -0.550 OA
ATOM     11  O   UNL     1      -2.140  27.500  49.875  1.00  0.00    -0.550 OA
ENDBRANCH   8   9
ENDBRANCH   7   8
ENDBRANCH   6   7
ENDBRANCH   5   6
ENDBRANCH   4   5
ENDBRANCH   3   4
ENDBRANCH   2   3
ENDBRANCH   1   2
BRANCH   1  12
ATOM     12  C   UNL     1      -4.509  29.977  57.776  1.00  0.00     0.000 C 
BRANCH  12  13
ATOM     13  C   UNL     1      -3.444  30.831  58.487  1.00  0.00    -0.000 C 
BRANCH  13  14
ATOM     14  C   UNL     1      -4.012  31.544  59.733  1.00  0.00    -0.000 C 
BRANCH  14  15
ATOM     15  C   UNL     1      -2.963  32.358  60.511  1.00  0.00    -0.000 C 
BRANCH  15  16
ATOM     16  C   UNL     1      -3.435  32.741  61.924  1.00  0.00    -0.000 C 
BRANCH  16  17
ATOM     17  C   UNL     1      -2.445  32.304  63.017  1.00  0.00    -0.000 C 
BRANCH  17  18
ATOM     18  C   UNL     1      -1.076  32.988  62.884  1.00  0.00    -0.000 C 
BRANCH  18  19
ATOM     19  C   UNL     1       0.057  31.954  62.902  1.00  0.00    -0.003 C 
ATOM     20  C   UNL     1       0.553  31.655  61.490  1.00  0.00     0.004 C 
ENDBRANCH  18  19
ENDBRANCH  17  18
ENDBRANCH  16  17
ENDBRANCH  15  16
ENDBRANCH  14  15
ENDBRANCH  13  14
ENDBRANCH  12  13
ENDBRANCH   1  12
TORSDOF 16
ENDMDL
MODEL 9
REMARK VINA RESULT:    -4.834      1.474      2.006
REMARK INTER + INTRA:         -10.425
REMARK INTER:                  -9.547
REMARK INTRA:                  -0.878
REMARK UNBOUND:                -1.070
REMARK SMILES CCCCCCCCCCCCCCCCCC(=O)[O-]
REMARK SMILES IDX 10 1 11 2 12 3 13 4 14 5 15 6 16 7 17 8 18 9 19 10 20 11
REMARK SMILES IDX 9 12 8 13 7 14 6 15 5 16 4 17 3 18 2 19 1 20
REMARK H PARENT
REMARK Flexibility Score: inf
ROOT
ATOM      1  C   UNL     1      -4.597  30.810  59.622  1.00  0.00     0.000 C 
ENDROOT
BRANCH   1   2
ATOM      2  C   UNL     1      -3.380  31.658  59.208  1.00  0.00     0.000 C 
BRANCH   2   3
ATOM      3  C   UNL     1      -2.788  32.447  60.387  1.00  0.00     0.000 C 
BRANCH   3   4
ATOM      4  C   UNL     1      -3.619  32.300  61.674  1.00  0.00     0.000 C 
BRANCH   4   5
ATOM      5  C   UNL     1      -2.875  32.796  62.927  1.00  0.00     0.000 C 
BRANCH   5   6
ATOM      6  C   UNL     1      -1.361  33.011  62.740  1.00  0.00     0.000 C 
BRANCH   6   7
ATOM      7  C   UNL     1      -0.525  31.783  63.143  1.00  0.00     0.006 C 
BRANCH   7   8
ATOM      8  C   UNL     1       0.447  31.356  62.036  1.00  0.00     0.053 C 
BRANCH   8   9
ATOM      9  C   UNL     1       1.374  32.469  61.649  1.00  0.00     0.041 C 
ATOM     10  O   UNL     1       1.346  32.941  60.483  1.00  0.00    -0.550 OA
ATOM     11  O   UNL     1       2.281  32.970  62.574  1.00  0.00    -0.550 OA
ENDBRANCH   8   9
ENDBRANCH   7   8
ENDBRANCH   6   7
ENDBRANCH   5   6
ENDBRANCH   4   5
ENDBRANCH   3   4
ENDBRANCH   2   3
ENDBRANCH   1   2
BRANCH   1  12
ATOM     12  C   UNL     1      -4.971  29.763  58.562  1.00  0.00     0.000 C 
BRANCH  12  13
ATOM     13  C   UNL     1      -3.961  29.703  57.402  1.00  0.00    -0.000 C 
BRANCH  13  14
ATOM     14  C   UNL     1      -4.459  28.807  56.247  1.00  0.00    -0.000 C 
BRANCH  14  15
ATOM     15  C   UNL     1      -3.526  27.623  55.937  1.00  0.00    -0.000 C 
BRANCH  15  16
ATOM     16  C   UNL     1      -3.902  26.894  54.636  1.00  0.00    -0.000 C 
BRANCH  16  17
ATOM     17  C   UNL     1      -2.671  26.494  53.806  1.00  0.00    -0.000 C 
BRANCH  17  18
ATOM     18  C   UNL     1      -3.027  26.126  52.357  1.00  0.00    -0.000 C 
BRANCH  18  19
ATOM     19  C   UNL     1      -1.821  26.321  51.430  1.00  0.00    -0.003 C 
ATOM     20  C   UNL     1      -2.179  27.208  50.240  1.00  0.00     0.004 C 
ENDBRANCH  18  19
ENDBRANCH  17  18
ENDBRANCH  16  17
ENDBRANCH  15  16
ENDBRANCH  14  15
ENDBRANCH  13  14
ENDBRANCH  12  13
ENDBRANCH   1  12
TORSDOF 16
ENDMDL
