MODEL 1
REMARK VINA RESULT:    -7.155      0.000      0.000
REMARK INTER + INTRA:          -8.917
REMARK INTER:                  -8.619
REMARK INTRA:                  -0.298
REMARK UNBOUND:                -0.298
REMARK SMILES O=c1c(O)c(-c2ccc(O)c(O)c2)oc2cc(O)cc(O)c12
REMARK SMILES IDX 5 1 3 2 2 3 1 4 22 5 20 6 19 7 17 8 16 9 15 10 14 11 6 12
REMARK SMILES IDX 7 13 8 14 9 15 13 16 11 17 10 18 12 20 4 22 21 24 18 26
REMARK H PARENT 10 19 12 21 4 23 21 25 18 27
REMARK Flexibility Score: inf
ROOT
ATOM      1  C   UNL     1      42.917  -8.795  11.620  1.00  0.00     0.180 A 
ATOM      2  C   UNL     1      42.339 -10.075  11.646  1.00  0.00     0.208 A 
ATOM      3  C   UNL     1      42.262 -10.763  12.867  1.00  0.00     0.238 A 
ATOM      4  O   UNL     1      41.812 -11.938  12.870  1.00  0.00    -0.285 OA
ATOM      5  C   UNL     1      42.712 -10.142  14.057  1.00  0.00     0.111 A 
ATOM      6  C   UNL     1      42.642 -10.727  15.357  1.00  0.00     0.134 A 
ATOM      7  C   UNL     1      43.216 -10.061  16.447  1.00  0.00     0.093 A 
ATOM      8  C   UNL     1      43.800  -8.801  16.295  1.00  0.00     0.123 A 
ATOM      9  C   UNL     1      43.825  -8.197  15.041  1.00  0.00     0.094 A 
ATOM     10  C   UNL     1      43.295  -8.854  13.927  1.00  0.00     0.146 A 
ATOM     11  O   UNL     1      43.359  -8.250  12.747  1.00  0.00    -0.452 OA
ENDROOT
BRANCH   1  12
ATOM     12  C   UNL     1      43.046  -8.014  10.369  1.00  0.00     0.025 A 
ATOM     13  C   UNL     1      44.263  -8.030   9.668  1.00  0.00     0.016 A 
ATOM     14  C   UNL     1      44.401  -7.317   8.474  1.00  0.00     0.051 A 
ATOM     15  C   UNL     1      43.321  -6.592   7.955  1.00  0.00     0.157 A 
ATOM     16  C   UNL     1      41.959  -7.301   9.834  1.00  0.00     0.062 A 
ATOM     17  C   UNL     1      42.096  -6.586   8.634  1.00  0.00     0.158 A 
BRANCH  15  18
ATOM     18  O   UNL     1      43.456  -5.878   6.766  1.00  0.00    -0.504 OA
ATOM     19  H   UNL     1      43.797  -4.924   6.756  1.00  0.00     0.293 HD
ENDBRANCH  15  18
BRANCH  17  20
ATOM     20  O   UNL     1      41.020  -5.875   8.109  1.00  0.00    -0.504 OA
ATOM     21  H   UNL     1      40.529  -5.176   8.655  1.00  0.00     0.293 HD
ENDBRANCH  17  20
ENDBRANCH   1  12
BRANCH   2  22
ATOM     22  O   UNL     1      41.830 -10.642  10.473  1.00  0.00    -0.502 OA
ATOM     23  H   UNL     1      40.953 -11.147  10.449  1.00  0.00     0.293 HD
ENDBRANCH   2  22
BRANCH   6  24
ATOM     24  O   UNL     1      42.002 -11.939  15.636  1.00  0.00    -0.507 OA
ATOM     25  H   UNL     1      42.434 -12.848  15.575  1.00  0.00     0.293 HD
ENDBRANCH   6  24
BRANCH   8  26
ATOM     26  O   UNL     1      44.353  -8.138  17.388  1.00  0.00    -0.508 OA
ATOM     27  H   UNL     1      44.806  -8.643  18.142  1.00  0.00     0.293 HD
ENDBRANCH   8  26
TORSDOF 6
ENDMDL
MODEL 2
REMARK VINA RESULT:    -6.892      3.846      6.314
REMARK INTER + INTRA:          -8.600
REMARK INTER:                  -8.279
REMARK INTRA:                  -0.321
REMARK UNBOUND:                -0.298
REMARK SMILES O=c1c(O)c(-c2ccc(O)c(O)c2)oc2cc(O)cc(O)c12
REMARK SMILES IDX 5 1 3 2 2 3 1 4 22 5 20 6 19 7 17 8 16 9 15 10 14 11 6 12
REMARK SMILES IDX 7 13 8 14 9 15 13 16 11 17 10 18 12 20 4 22 21 24 18 26
REMARK H PARENT 10 19 12 21 4 23 21 25 18 27
REMARK Flexibility Score: inf
ROOT
ATOM      1  C   UNL     1      45.031  -9.218  13.425  1.00  0.00     0.180 A 
ATOM      2  C   UNL     1      45.641 -10.280  14.112  1.00  0.00     0.208 A 
ATOM      3  C   UNL     1      46.810 -10.851  13.584  1.00  0.00     0.238 A 
ATOM      4  O   UNL     1      47.308 -11.849  14.164  1.00  0.00    -0.285 OA
ATOM      5  C   UNL     1      47.385 -10.318  12.405  1.00  0.00     0.111 A 
ATOM      6  C   UNL     1      48.592 -10.789  11.804  1.00  0.00     0.134 A 
ATOM      7  C   UNL     1      49.008 -10.252  10.580  1.00  0.00     0.093 A 
ATOM      8  C   UNL     1      48.298  -9.218   9.966  1.00  0.00     0.123 A 
ATOM      9  C   UNL     1      47.150  -8.715  10.571  1.00  0.00     0.094 A 
ATOM     10  C   UNL     1      46.686  -9.255  11.773  1.00  0.00     0.146 A 
ATOM     11  O   UNL     1      45.576  -8.759  12.304  1.00  0.00    -0.452 OA
ENDROOT
BRANCH   1  12
ATOM     12  C   UNL     1      43.789  -8.573  13.912  1.00  0.00     0.025 A 
ATOM     13  C   UNL     1      42.544  -9.064  13.485  1.00  0.00     0.016 A 
ATOM     14  C   UNL     1      41.360  -8.485  13.948  1.00  0.00     0.051 A 
ATOM     15  C   UNL     1      41.402  -7.420  14.856  1.00  0.00     0.157 A 
ATOM     16  C   UNL     1      43.827  -7.517  14.839  1.00  0.00     0.062 A 
ATOM     17  C   UNL     1      42.638  -6.937  15.306  1.00  0.00     0.158 A 
BRANCH  15  18
ATOM     18  O   UNL     1      40.222  -6.839  15.318  1.00  0.00    -0.504 OA
ATOM     19  H   UNL     1      39.972  -5.887  15.080  1.00  0.00     0.293 HD
ENDBRANCH  15  18
BRANCH  17  20
ATOM     20  O   UNL     1      42.677  -5.886  16.219  1.00  0.00    -0.504 OA
ATOM     21  H   UNL     1      43.554  -5.489  16.535  1.00  0.00     0.293 HD
ENDBRANCH  17  20
ENDBRANCH   1  12
BRANCH   2  22
ATOM     22  O   UNL     1      45.101 -10.743  15.316  1.00  0.00    -0.502 OA
ATOM     23  H   UNL     1      44.526 -10.161  15.913  1.00  0.00     0.293 HD
ENDBRANCH   2  22
BRANCH   6  24
ATOM     24  O   UNL     1      49.426 -11.754  12.376  1.00  0.00    -0.507 OA
ATOM     25  H   UNL     1      49.652 -11.815  13.357  1.00  0.00     0.293 HD
ENDBRANCH   6  24
BRANCH   8  26
ATOM     26  O   UNL     1      48.729  -8.680   8.756  1.00  0.00    -0.508 OA
ATOM     27  H   UNL     1      48.465  -7.744   8.467  1.00  0.00     0.293 HD
ENDBRANCH   8  26
TORSDOF 6
ENDMDL
MODEL 3
REMARK VINA RESULT:    -6.875      1.426      3.153
REMARK INTER + INTRA:          -8.580
REMARK INTER:                  -8.340
REMARK INTRA:                  -0.240
REMARK UNBOUND:                -0.298
REMARK SMILES O=c1c(O)c(-c2ccc(O)c(O)c2)oc2cc(O)cc(O)c12
REMARK SMILES IDX 5 1 3 2 2 3 1 4 22 5 20 6 19 7 17 8 16 9 15 10 14 11 6 12
REMARK SMILES IDX 7 13 8 14 9 15 13 16 11 17 10 18 12 20 4 22 21 24 18 26
REMARK H PARENT 10 19 12 21 4 23 21 25 18 27
REMARK Flexibility Score: inf
ROOT
ATOM      1  C   UNL     1      42.642  -8.119  12.184  1.00  0.00     0.180 A 
ATOM      2  C   UNL     1      43.384  -7.295  13.046  1.00  0.00     0.208 A 
ATOM      3  C   UNL     1      43.628  -7.727  14.359  1.00  0.00     0.238 A 
ATOM      4  O   UNL     1      44.229  -6.951  15.147  1.00  0.00    -0.285 OA
ATOM      5  C   UNL     1      43.174  -9.001  14.779  1.00  0.00     0.111 A 
ATOM      6  C   UNL     1      43.402  -9.560  16.073  1.00  0.00     0.134 A 
ATOM      7  C   UNL     1      42.814 -10.785  16.409  1.00  0.00     0.093 A 
ATOM      8  C   UNL     1      42.059 -11.502  15.478  1.00  0.00     0.123 A 
ATOM      9  C   UNL     1      41.877 -10.992  14.196  1.00  0.00     0.094 A 
ATOM     10  C   UNL     1      42.418  -9.753  13.842  1.00  0.00     0.146 A 
ATOM     11  O   UNL     1      42.201  -9.295  12.615  1.00  0.00    -0.452 OA
ENDROOT
BRANCH   1  12
ATOM     12  C   UNL     1      42.332  -7.726  10.790  1.00  0.00     0.025 A 
ATOM     13  C   UNL     1      41.392  -6.710  10.552  1.00  0.00     0.016 A 
ATOM     14  C   UNL     1      41.100  -6.308   9.246  1.00  0.00     0.051 A 
ATOM     15  C   UNL     1      41.754  -6.904   8.160  1.00  0.00     0.157 A 
ATOM     16  C   UNL     1      43.001  -8.307   9.699  1.00  0.00     0.062 A 
ATOM     17  C   UNL     1      42.710  -7.904   8.387  1.00  0.00     0.158 A 
BRANCH  15  18
ATOM     18  O   UNL     1      41.464  -6.508   6.856  1.00  0.00    -0.504 OA
ATOM     19  H   UNL     1      42.033  -5.825   6.371  1.00  0.00     0.293 HD
ENDBRANCH  15  18
BRANCH  17  20
ATOM     20  O   UNL     1      43.369  -8.485   7.307  1.00  0.00    -0.504 OA
ATOM     21  H   UNL     1      43.367  -8.055   6.390  1.00  0.00     0.293 HD
ENDBRANCH  17  20
ENDBRANCH   1  12
BRANCH   2  22
ATOM     22  O   UNL     1      43.890  -6.073  12.590  1.00  0.00    -0.502 OA
ATOM     23  H   UNL     1      44.874  -5.928  12.403  1.00  0.00     0.293 HD
ENDBRANCH   2  22
BRANCH   6  24
ATOM     24  O   UNL     1      44.213  -8.971  17.048  1.00  0.00    -0.507 OA
ATOM     25  H   UNL     1      44.897  -9.460  17.603  1.00  0.00     0.293 HD
ENDBRANCH   6  24
BRANCH   8  26
ATOM     26  O   UNL     1      41.492 -12.729  15.816  1.00  0.00    -0.508 OA
ATOM     27  H   UNL     1      40.488 -12.847  15.891  1.00  0.00     0.293 HD
ENDBRANCH   8  26
TORSDOF 6
ENDMDL
MODEL 4
REMARK VINA RESULT:    -6.823     18.637     19.414
REMARK INTER + INTRA:          -8.518
REMARK INTER:                  -8.315
REMARK INTRA:                  -0.203
REMARK UNBOUND:                -0.298
REMARK SMILES O=c1c(O)c(-c2ccc(O)c(O)c2)oc2cc(O)cc(O)c12
REMARK SMILES IDX 5 1 3 2 2 3 1 4 22 5 20 6 19 7 17 8 16 9 15 10 14 11 6 12
REMARK SMILES IDX 7 13 8 14 9 15 13 16 11 17 10 18 12 20 4 22 21 24 18 26
REMARK H PARENT 10 19 12 21 4 23 21 25 18 27
REMARK Flexibility Score: inf
ROOT
ATOM      1  C   UNL     1      57.249 -21.201  10.832  1.00  0.00     0.180 A 
ATOM      2  C   UNL     1      58.271 -21.960  10.238  1.00  0.00     0.208 A 
ATOM      3  C   UNL     1      58.742 -23.104  10.901  1.00  0.00     0.238 A 
ATOM      4  O   UNL     1      59.708 -23.736  10.400  1.00  0.00    -0.285 OA
ATOM      5  C   UNL     1      58.149 -23.508  12.121  1.00  0.00     0.111 A 
ATOM      6  C   UNL     1      58.516 -24.675  12.858  1.00  0.00     0.134 A 
ATOM      7  C   UNL     1      57.931 -24.916  14.107  1.00  0.00     0.093 A 
ATOM      8  C   UNL     1      56.946 -24.067  14.617  1.00  0.00     0.123 A 
ATOM      9  C   UNL     1      56.542 -22.957  13.882  1.00  0.00     0.094 A 
ATOM     10  C   UNL     1      57.134 -22.667  12.650  1.00  0.00     0.146 A 
ATOM     11  O   UNL     1      56.733 -21.586  11.993  1.00  0.00    -0.452 OA
ENDROOT
BRANCH   1  12
ATOM     12  C   UNL     1      56.710 -19.974  10.202  1.00  0.00     0.025 A 
ATOM     13  C   UNL     1      55.363 -19.937   9.805  1.00  0.00     0.016 A 
ATOM     14  C   UNL     1      54.828 -18.783   9.227  1.00  0.00     0.051 A 
ATOM     15  C   UNL     1      55.625 -17.645   9.053  1.00  0.00     0.157 A 
ATOM     16  C   UNL     1      57.501 -18.823  10.043  1.00  0.00     0.062 A 
ATOM     17  C   UNL     1      56.964 -17.663   9.465  1.00  0.00     0.158 A 
BRANCH  15  18
ATOM     18  O   UNL     1      55.095 -16.493   8.475  1.00  0.00    -0.504 OA
ATOM     19  H   UNL     1      55.506 -15.582   8.637  1.00  0.00     0.293 HD
ENDBRANCH  15  18
BRANCH  17  20
ATOM     20  O   UNL     1      57.751 -16.526   9.303  1.00  0.00    -0.504 OA
ATOM     21  H   UNL     1      58.646 -16.429   9.768  1.00  0.00     0.293 HD
ENDBRANCH  17  20
ENDBRANCH   1  12
BRANCH   2  22
ATOM     22  O   UNL     1      58.792 -21.588   8.995  1.00  0.00    -0.502 OA
ATOM     23  H   UNL     1      59.643 -21.047   8.902  1.00  0.00     0.293 HD
ENDBRANCH   2  22
BRANCH   6  24
ATOM     24  O   UNL     1      59.422 -25.636  12.400  1.00  0.00    -0.507 OA
ATOM     25  H   UNL     1      59.170 -26.541  12.035  1.00  0.00     0.293 HD
ENDBRANCH   6  24
BRANCH   8  26
ATOM     26  O   UNL     1      56.357 -24.325  15.854  1.00  0.00    -0.508 OA
ATOM     27  H   UNL     1      56.147 -25.269  16.155  1.00  0.00     0.293 HD
ENDBRANCH   8  26
TORSDOF 6
ENDMDL
MODEL 5
REMARK VINA RESULT:    -6.753      2.875      4.506
REMARK INTER + INTRA:          -8.433
REMARK INTER:                  -8.192
REMARK INTRA:                  -0.241
REMARK UNBOUND:                -0.298
REMARK SMILES O=c1c(O)c(-c2ccc(O)c(O)c2)oc2cc(O)cc(O)c12
REMARK SMILES IDX 5 1 3 2 2 3 1 4 22 5 20 6 19 7 17 8 16 9 15 10 14 11 6 12
REMARK SMILES IDX 7 13 8 14 9 15 13 16 11 17 10 18 12 20 4 22 21 24 18 26
REMARK H PARENT 10 19 12 21 4 23 21 25 18 27
REMARK Flexibility Score: inf
ROOT
ATOM      1  C   UNL     1      43.447 -10.567  11.732  1.00  0.00     0.180 A 
ATOM      2  C   UNL     1      42.469  -9.637  11.340  1.00  0.00     0.208 A 
ATOM      3  C   UNL     1      42.024  -8.684  12.270  1.00  0.00     0.238 A 
ATOM      4  O   UNL     1      41.096  -7.904  11.936  1.00  0.00    -0.285 OA
ATOM      5  C   UNL     1      42.601  -8.636  13.562  1.00  0.00     0.111 A 
ATOM      6  C   UNL     1      42.259  -7.685  14.571  1.00  0.00     0.134 A 
ATOM      7  C   UNL     1      42.820  -7.801  15.848  1.00  0.00     0.093 A 
ATOM      8  C   UNL     1      43.759  -8.794  16.136  1.00  0.00     0.123 A 
ATOM      9  C   UNL     1      44.141  -9.692  15.144  1.00  0.00     0.094 A 
ATOM     10  C   UNL     1      43.570  -9.627  13.870  1.00  0.00     0.146 A 
ATOM     11  O   UNL     1      43.947 -10.518  12.961  1.00  0.00    -0.452 OA
ENDROOT
BRANCH   1  12
ATOM     12  C   UNL     1      43.956 -11.610  10.813  1.00  0.00     0.025 A 
ATOM     13  C   UNL     1      45.288 -11.550  10.370  1.00  0.00     0.016 A 
ATOM     14  C   UNL     1      45.796 -12.535   9.520  1.00  0.00     0.051 A 
ATOM     15  C   UNL     1      44.986 -13.603   9.112  1.00  0.00     0.157 A 
ATOM     16  C   UNL     1      43.153 -12.695  10.418  1.00  0.00     0.062 A 
ATOM     17  C   UNL     1      43.663 -13.685   9.566  1.00  0.00     0.158 A 
BRANCH  15  18
ATOM     18  O   UNL     1      45.489 -14.586   8.262  1.00  0.00    -0.504 OA
ATOM     19  H   UNL     1      46.151 -15.280   8.587  1.00  0.00     0.293 HD
ENDBRANCH  15  18
BRANCH  17  20
ATOM     20  O   UNL     1      42.864 -14.756   9.170  1.00  0.00    -0.504 OA
ATOM     21  H   UNL     1      42.022 -14.616   8.624  1.00  0.00     0.293 HD
ENDBRANCH  17  20
ENDBRANCH   1  12
BRANCH   2  22
ATOM     22  O   UNL     1      41.967  -9.652  10.036  1.00  0.00    -0.502 OA
ATOM     23  H   UNL     1      42.565  -9.590   9.221  1.00  0.00     0.293 HD
ENDBRANCH   2  22
BRANCH   6  24
ATOM     24  O   UNL     1      41.401  -6.600  14.365  1.00  0.00    -0.507 OA
ATOM     25  H   UNL     1      40.903  -6.111  15.092  1.00  0.00     0.293 HD
ENDBRANCH   6  24
BRANCH   8  26
ATOM     26  O   UNL     1      44.325  -8.891  17.406  1.00  0.00    -0.508 OA
ATOM     27  H   UNL     1      45.108  -8.310  17.683  1.00  0.00     0.293 HD
ENDBRANCH   8  26
TORSDOF 6
ENDMDL
MODEL 6
REMARK VINA RESULT:    -6.558     20.825     21.508
REMARK INTER + INTRA:          -8.197
REMARK INTER:                  -8.286
REMARK INTRA:                   0.089
REMARK UNBOUND:                -0.298
REMARK SMILES O=c1c(O)c(-c2ccc(O)c(O)c2)oc2cc(O)cc(O)c12
REMARK SMILES IDX 5 1 3 2 2 3 1 4 22 5 20 6 19 7 17 8 16 9 15 10 14 11 6 12
REMARK SMILES IDX 7 13 8 14 9 15 13 16 11 17 10 18 12 20 4 22 21 24 18 26
REMARK H PARENT 10 19 12 21 4 23 21 25 18 27
REMARK Flexibility Score: inf
ROOT
ATOM      1  C   UNL     1      58.817 -22.387   7.203  1.00  0.00     0.180 A 
ATOM      2  C   UNL     1      58.997 -23.767   7.391  1.00  0.00     0.208 A 
ATOM      3  C   UNL     1      59.147 -24.263   8.695  1.00  0.00     0.238 A 
ATOM      4  O   UNL     1      59.382 -25.490   8.850  1.00  0.00    -0.285 OA
ATOM      5  C   UNL     1      59.062 -23.382   9.800  1.00  0.00     0.111 A 
ATOM      6  C   UNL     1      59.156 -23.780  11.168  1.00  0.00     0.134 A 
ATOM      7  C   UNL     1      59.162 -22.805  12.172  1.00  0.00     0.093 A 
ATOM      8  C   UNL     1      59.014 -21.451  11.864  1.00  0.00     0.123 A 
ATOM      9  C   UNL     1      58.867 -21.057  10.537  1.00  0.00     0.094 A 
ATOM     10  C   UNL     1      58.895 -22.002   9.508  1.00  0.00     0.146 A 
ATOM     11  O   UNL     1      58.773 -21.579   8.256  1.00  0.00    -0.452 OA
ENDROOT
BRANCH   1  12
ATOM     12  C   UNL     1      58.665 -21.787   5.858  1.00  0.00     0.025 A 
ATOM     13  C   UNL     1      57.742 -20.746   5.666  1.00  0.00     0.016 A 
ATOM     14  C   UNL     1      57.597 -20.151   4.411  1.00  0.00     0.051 A 
ATOM     15  C   UNL     1      58.383 -20.576   3.332  1.00  0.00     0.157 A 
ATOM     16  C   UNL     1      59.467 -22.197   4.778  1.00  0.00     0.062 A 
ATOM     17  C   UNL     1      59.323 -21.598   3.517  1.00  0.00     0.158 A 
BRANCH  15  18
ATOM     18  O   UNL     1      58.240 -19.986   2.078  1.00  0.00    -0.504 OA
ATOM     19  H   UNL     1      57.904 -19.037   1.974  1.00  0.00     0.293 HD
ENDBRANCH  15  18
BRANCH  17  20
ATOM     20  O   UNL     1      60.114 -22.010   2.446  1.00  0.00    -0.504 OA
ATOM     21  H   UNL     1      61.094 -22.236   2.567  1.00  0.00     0.293 HD
ENDBRANCH  17  20
ENDBRANCH   1  12
BRANCH   2  22
ATOM     22  O   UNL     1      59.002 -24.632   6.292  1.00  0.00    -0.502 OA
ATOM     23  H   UNL     1      58.376 -25.424   6.221  1.00  0.00     0.293 HD
ENDBRANCH   2  22
BRANCH   6  24
ATOM     24  O   UNL     1      59.217 -25.111  11.593  1.00  0.00    -0.507 OA
ATOM     25  H   UNL     1      58.562 -25.548  12.222  1.00  0.00     0.293 HD
ENDBRANCH   6  24
BRANCH   8  26
ATOM     26  O   UNL     1      59.005 -20.489  12.872  1.00  0.00    -0.508 OA
ATOM     27  H   UNL     1      58.145 -20.043  13.172  1.00  0.00     0.293 HD
ENDBRANCH   8  26
TORSDOF 6
ENDMDL
MODEL 7
REMARK VINA RESULT:    -6.480     20.268     21.074
REMARK INTER + INTRA:          -8.104
REMARK INTER:                  -7.781
REMARK INTRA:                  -0.323
REMARK UNBOUND:                -0.298
REMARK SMILES O=c1c(O)c(-c2ccc(O)c(O)c2)oc2cc(O)cc(O)c12
REMARK SMILES IDX 5 1 3 2 2 3 1 4 22 5 20 6 19 7 17 8 16 9 15 10 14 11 6 12
REMARK SMILES IDX 7 13 8 14 9 15 13 16 11 17 10 18 12 20 4 22 21 24 18 26
REMARK H PARENT 10 19 12 21 4 23 21 25 18 27
REMARK Flexibility Score: inf
ROOT
ATOM      1  C   UNL     1      58.023 -22.312   8.724  1.00  0.00     0.180 A 
ATOM      2  C   UNL     1      57.920 -21.065   9.362  1.00  0.00     0.208 A 
ATOM      3  C   UNL     1      58.216 -20.975  10.732  1.00  0.00     0.238 A 
ATOM      4  O   UNL     1      58.050 -19.872  11.313  1.00  0.00    -0.285 OA
ATOM      5  C   UNL     1      58.664 -22.120  11.434  1.00  0.00     0.111 A 
ATOM      6  C   UNL     1      59.034 -22.136  12.813  1.00  0.00     0.134 A 
ATOM      7  C   UNL     1      59.360 -23.351  13.426  1.00  0.00     0.093 A 
ATOM      8  C   UNL     1      59.393 -24.541  12.696  1.00  0.00     0.123 A 
ATOM      9  C   UNL     1      59.087 -24.528  11.339  1.00  0.00     0.094 A 
ATOM     10  C   UNL     1      58.719 -23.338  10.706  1.00  0.00     0.146 A 
ATOM     11  O   UNL     1      58.415 -23.376   9.414  1.00  0.00    -0.452 OA
ENDROOT
BRANCH   1  12
ATOM     12  C   UNL     1      57.715 -22.489   7.286  1.00  0.00     0.025 A 
ATOM     13  C   UNL     1      56.394 -22.759   6.891  1.00  0.00     0.016 A 
ATOM     14  C   UNL     1      56.076 -22.908   5.539  1.00  0.00     0.051 A 
ATOM     15  C   UNL     1      57.070 -22.774   4.561  1.00  0.00     0.157 A 
ATOM     16  C   UNL     1      58.705 -22.335   6.299  1.00  0.00     0.062 A 
ATOM     17  C   UNL     1      58.386 -22.483   4.941  1.00  0.00     0.158 A 
BRANCH  15  18
ATOM     18  O   UNL     1      56.757 -22.925   3.211  1.00  0.00    -0.504 OA
ATOM     19  H   UNL     1      57.454 -23.211   2.534  1.00  0.00     0.293 HD
ENDBRANCH  15  18
BRANCH  17  20
ATOM     20  O   UNL     1      59.370 -22.337   3.966  1.00  0.00    -0.504 OA
ATOM     21  H   UNL     1      59.602 -23.090   3.329  1.00  0.00     0.293 HD
ENDBRANCH  17  20
ENDBRANCH   1  12
BRANCH   2  22
ATOM     22  O   UNL     1      57.550 -19.929   8.635  1.00  0.00    -0.502 OA
ATOM     23  H   UNL     1      56.714 -19.897   8.065  1.00  0.00     0.293 HD
ENDBRANCH   2  22
BRANCH   6  24
ATOM     24  O   UNL     1      59.121 -20.992  13.612  1.00  0.00    -0.507 OA
ATOM     25  H   UNL     1      59.341 -20.067  13.276  1.00  0.00     0.293 HD
ENDBRANCH   6  24
BRANCH   8  26
ATOM     26  O   UNL     1      59.736 -25.744  13.312  1.00  0.00    -0.508 OA
ATOM     27  H   UNL     1      60.550 -26.274  13.023  1.00  0.00     0.293 HD
ENDBRANCH   8  26
TORSDOF 6
ENDMDL
MODEL 8
REMARK VINA RESULT:    -6.459      2.054      7.112
REMARK INTER + INTRA:          -8.078
REMARK INTER:                  -7.916
REMARK INTRA:                  -0.162
REMARK UNBOUND:                -0.298
REMARK SMILES O=c1c(O)c(-c2ccc(O)c(O)c2)oc2cc(O)cc(O)c12
REMARK SMILES IDX 5 1 3 2 2 3 1 4 22 5 20 6 19 7 17 8 16 9 15 10 14 11 6 12
REMARK SMILES IDX 7 13 8 14 9 15 13 16 11 17 10 18 12 20 4 22 21 24 18 26
REMARK H PARENT 10 19 12 21 4 23 21 25 18 27
REMARK Flexibility Score: inf
ROOT
ATOM      1  C   UNL     1      43.410  -7.396  12.025  1.00  0.00     0.180 A 
ATOM      2  C   UNL     1      42.113  -7.206  11.521  1.00  0.00     0.208 A 
ATOM      3  C   UNL     1      41.954  -6.823  10.180  1.00  0.00     0.238 A 
ATOM      4  O   UNL     1      40.794  -6.583   9.755  1.00  0.00    -0.285 OA
ATOM      5  C   UNL     1      43.089  -6.688   9.344  1.00  0.00     0.111 A 
ATOM      6  C   UNL     1      43.043  -6.348   7.958  1.00  0.00     0.134 A 
ATOM      7  C   UNL     1      44.238  -6.140   7.259  1.00  0.00     0.093 A 
ATOM      8  C   UNL     1      45.477  -6.322   7.877  1.00  0.00     0.123 A 
ATOM      9  C   UNL     1      45.533  -6.707   9.214  1.00  0.00     0.094 A 
ATOM     10  C   UNL     1      44.358  -6.885   9.950  1.00  0.00     0.146 A 
ATOM     11  O   UNL     1      44.459  -7.232  11.227  1.00  0.00    -0.452 OA
ENDROOT
BRANCH   1  12
ATOM     12  C   UNL     1      43.659  -7.786  13.432  1.00  0.00     0.025 A 
ATOM     13  C   UNL     1      43.299  -6.907  14.467  1.00  0.00     0.016 A 
ATOM     14  C   UNL     1      43.505  -7.263  15.802  1.00  0.00     0.051 A 
ATOM     15  C   UNL     1      44.059  -8.509  16.123  1.00  0.00     0.157 A 
ATOM     16  C   UNL     1      44.196  -9.044  13.760  1.00  0.00     0.062 A 
ATOM     17  C   UNL     1      44.402  -9.403  15.101  1.00  0.00     0.158 A 
BRANCH  15  18
ATOM     18  O   UNL     1      44.268  -8.866  17.454  1.00  0.00    -0.504 OA
ATOM     19  H   UNL     1      44.421  -9.830  17.726  1.00  0.00     0.293 HD
ENDBRANCH  15  18
BRANCH  17  20
ATOM     20  O   UNL     1      44.940 -10.647  15.423  1.00  0.00    -0.504 OA
ATOM     21  H   UNL     1      44.588 -11.191  16.203  1.00  0.00     0.293 HD
ENDBRANCH  17  20
ENDBRANCH   1  12
BRANCH   2  22
ATOM     22  O   UNL     1      41.001  -7.419  12.341  1.00  0.00    -0.502 OA
ATOM     23  H   UNL     1      40.810  -8.311  12.779  1.00  0.00     0.293 HD
ENDBRANCH   2  22
BRANCH   6  24
ATOM     24  O   UNL     1      41.862  -6.229   7.220  1.00  0.00    -0.507 OA
ATOM     25  H   UNL     1      41.514  -5.372   6.819  1.00  0.00     0.293 HD
ENDBRANCH   6  24
BRANCH   8  26
ATOM     26  O   UNL     1      46.661  -6.129   7.168  1.00  0.00    -0.508 OA
ATOM     27  H   UNL     1      47.533  -6.549   7.468  1.00  0.00     0.293 HD
ENDBRANCH   8  26
TORSDOF 6
ENDMDL
MODEL 9
REMARK VINA RESULT:    -6.377      2.975      4.068
REMARK INTER + INTRA:          -7.979
REMARK INTER:                  -7.728
REMARK INTRA:                  -0.251
REMARK UNBOUND:                -0.298
REMARK SMILES O=c1c(O)c(-c2ccc(O)c(O)c2)oc2cc(O)cc(O)c12
REMARK SMILES IDX 5 1 3 2 2 3 1 4 22 5 20 6 19 7 17 8 16 9 15 10 14 11 6 12
REMARK SMILES IDX 7 13 8 14 9 15 13 16 11 17 10 18 12 20 4 22 21 24 18 26
REMARK H PARENT 10 19 12 21 4 23 21 25 18 27
REMARK Flexibility Score: inf
ROOT
ATOM      1  C   UNL     1      43.937 -10.373  11.888  1.00  0.00     0.180 A 
ATOM      2  C   UNL     1      44.924 -10.728  12.821  1.00  0.00     0.208 A 
ATOM      3  C   UNL     1      44.869 -10.179  14.112  1.00  0.00     0.238 A 
ATOM      4  O   UNL     1      45.798 -10.443  14.919  1.00  0.00    -0.285 OA
ATOM      5  C   UNL     1      43.798  -9.326  14.471  1.00  0.00     0.111 A 
ATOM      6  C   UNL     1      43.617  -8.747  15.764  1.00  0.00     0.134 A 
ATOM      7  C   UNL     1      42.577  -7.833  15.972  1.00  0.00     0.093 A 
ATOM      8  C   UNL     1      41.673  -7.525  14.953  1.00  0.00     0.123 A 
ATOM      9  C   UNL     1      41.808  -8.126  13.705  1.00  0.00     0.094 A 
ATOM     10  C   UNL     1      42.859  -9.012  13.454  1.00  0.00     0.146 A 
ATOM     11  O   UNL     1      42.961  -9.545  12.243  1.00  0.00    -0.452 OA
ENDROOT
BRANCH   1  12
ATOM     12  C   UNL     1      43.935 -10.900  10.503  1.00  0.00     0.025 A 
ATOM     13  C   UNL     1      44.358 -10.073   9.450  1.00  0.00     0.016 A 
ATOM     14  C   UNL     1      44.385 -10.555   8.139  1.00  0.00     0.051 A 
ATOM     15  C   UNL     1      44.006 -11.875   7.864  1.00  0.00     0.157 A 
ATOM     16  C   UNL     1      43.575 -12.230  10.225  1.00  0.00     0.062 A 
ATOM     17  C   UNL     1      43.604 -12.716   8.910  1.00  0.00     0.158 A 
BRANCH  15  18
ATOM     18  O   UNL     1      44.030 -12.359   6.557  1.00  0.00    -0.504 OA
ATOM     19  H   UNL     1      43.655 -13.270   6.323  1.00  0.00     0.293 HD
ENDBRANCH  15  18
BRANCH  17  20
ATOM     20  O   UNL     1      43.241 -14.033   8.635  1.00  0.00    -0.504 OA
ATOM     21  H   UNL     1      43.272 -14.751   9.349  1.00  0.00     0.293 HD
ENDBRANCH  17  20
ENDBRANCH   1  12
BRANCH   2  22
ATOM     22  O   UNL     1      45.931 -11.633  12.472  1.00  0.00    -0.502 OA
ATOM     23  H   UNL     1      45.742 -12.608  12.276  1.00  0.00     0.293 HD
ENDBRANCH   2  22
BRANCH   6  24
ATOM     24  O   UNL     1      44.408  -9.053  16.876  1.00  0.00    -0.507 OA
ATOM     25  H   UNL     1      44.625  -8.414  17.624  1.00  0.00     0.293 HD
ENDBRANCH   6  24
BRANCH   8  26
ATOM     26  O   UNL     1      40.631  -6.627  15.174  1.00  0.00    -0.508 OA
ATOM     27  H   UNL     1      40.237  -6.489  16.098  1.00  0.00     0.293 HD
ENDBRANCH   8  26
TORSDOF 6
ENDMDL
