MODEL 1
REMARK VINA RESULT:    -2.969      0.000      0.000
REMARK INTER + INTRA:          -8.395
REMARK INTER:                  -6.787
REMARK INTRA:                  -1.608
REMARK UNBOUND:                -1.608
REMARK SMILES CCCCCCCCCCCCCCCCCCCCCCCC(=O)[O-]
REMARK SMILES IDX 13 1 14 2 15 3 16 4 17 5 18 6 19 7 20 8 21 9 22 10 23 11
REMARK SMILES IDX 24 12 25 13 26 14 12 15 11 16 10 17 9 18 8 19 7 20 6 21 5 22
REMARK SMILES IDX 4 23 3 24 2 25 1 26
REMARK H PARENT
REMARK Flexibility Score: inf
ROOT
ATOM      1  C   UNL     1      -3.818   4.872  -3.934  1.00  0.00     0.000 C 
ENDROOT
BRANCH   1   2
ATOM      2  C   UNL     1      -5.198   5.434  -3.539  1.00  0.00     0.000 C 
BRANCH   2   3
ATOM      3  C   UNL     1      -5.776   6.476  -4.517  1.00  0.00     0.000 C 
BRANCH   3   4
ATOM      4  C   UNL     1      -6.046   5.955  -5.942  1.00  0.00     0.000 C 
BRANCH   4   5
ATOM      5  C   UNL     1      -7.473   6.199  -6.468  1.00  0.00     0.000 C 
BRANCH   5   6
ATOM      6  C   UNL     1      -7.509   6.501  -7.976  1.00  0.00     0.000 C 
BRANCH   6   7
ATOM      7  C   UNL     1      -8.930   6.785  -8.490  1.00  0.00     0.000 C 
BRANCH   7   8
ATOM      8  C   UNL     1      -8.958   7.868  -9.582  1.00  0.00     0.000 C 
BRANCH   8   9
ATOM      9  C   UNL     1      -9.521   9.205  -9.073  1.00  0.00     0.000 C 
BRANCH   9  10
ATOM     10  C   UNL     1      -8.437  10.104  -8.451  1.00  0.00     0.006 C 
BRANCH  10  11
ATOM     11  C   UNL     1      -7.122  10.058  -9.239  1.00  0.00     0.053 C 
BRANCH  11  12
ATOM     12  C   UNL     1      -5.944   9.831  -8.343  1.00  0.00     0.041 C 
ATOM     13  O   UNL     1      -6.114   9.588  -7.119  1.00  0.00    -0.550 OA
ATOM     14  O   UNL     1      -4.654   9.916  -8.854  1.00  0.00    -0.550 OA
ENDBRANCH  11  12
ENDBRANCH  10  11
ENDBRANCH   9  10
ENDBRANCH   8   9
ENDBRANCH   7   8
ENDBRANCH   6   7
ENDBRANCH   5   6
ENDBRANCH   4   5
ENDBRANCH   3   4
ENDBRANCH   2   3
ENDBRANCH   1   2
BRANCH   1  15
ATOM     15  C   UNL     1      -3.005   4.256  -2.776  1.00  0.00     0.000 C 
BRANCH  15  16
ATOM     16  C   UNL     1      -2.616   5.235  -1.653  1.00  0.00     0.000 C 
BRANCH  16  17
ATOM     17  C   UNL     1      -3.374   4.973  -0.341  1.00  0.00     0.000 C 
BRANCH  17  18
ATOM     18  C   UNL     1      -3.018   3.618   0.298  1.00  0.00    -0.000 C 
BRANCH  18  19
ATOM     19  C   UNL     1      -4.220   2.728   0.665  1.00  0.00    -0.000 C 
BRANCH  19  20
ATOM     20  C   UNL     1      -3.908   1.226   0.554  1.00  0.00    -0.000 C 
BRANCH  20  21
ATOM     21  C   UNL     1      -3.340   0.835  -0.821  1.00  0.00    -0.000 C 
BRANCH  21  22
ATOM     22  C   UNL     1      -3.181  -0.681  -1.057  1.00  0.00    -0.000 C 
BRANCH  22  23
ATOM     23  C   UNL     1      -3.936  -1.202  -2.298  1.00  0.00    -0.000 C 
BRANCH  23  24
ATOM     24  C   UNL     1      -4.174  -2.722  -2.238  1.00  0.00    -0.000 C 
BRANCH  24  25
ATOM     25  C   UNL     1      -3.427  -3.389  -1.073  1.00  0.00    -0.003 C 
ATOM     26  C   UNL     1      -4.342  -4.249  -0.200  1.00  0.00     0.004 C 
ENDBRANCH  24  25
ENDBRANCH  23  24
ENDBRANCH  22  23
ENDBRANCH  21  22
ENDBRANCH  20  21
ENDBRANCH  19  20
ENDBRANCH  18  19
ENDBRANCH  17  18
ENDBRANCH  16  17
ENDBRANCH  15  16
ENDBRANCH   1  15
TORSDOF 22
ENDMDL
MODEL 2
REMARK VINA RESULT:    -2.841      4.636     11.952
REMARK INTER + INTRA:          -8.103
REMARK INTER:                  -6.676
REMARK INTRA:                  -1.427
REMARK UNBOUND:                -1.608
REMARK SMILES CCCCCCCCCCCCCCCCCCCCCCCC(=O)[O-]
REMARK SMILES IDX 13 1 14 2 15 3 16 4 17 5 18 6 19 7 20 8 21 9 22 10 23 11
REMARK SMILES IDX 24 12 25 13 26 14 12 15 11 16 10 17 9 18 8 19 7 20 6 21 5 22
REMARK SMILES IDX 4 23 3 24 2 25 1 26
REMARK H PARENT
REMARK Flexibility Score: inf
ROOT
ATOM      1  C   UNL     1      -3.375   4.721  -2.539  1.00  0.00     0.000 C 
ENDROOT
BRANCH   1   2
ATOM      2  C   UNL     1      -2.980   4.867  -1.057  1.00  0.00     0.000 C 
BRANCH   2   3
ATOM      3  C   UNL     1      -2.670   3.539  -0.337  1.00  0.00     0.000 C 
BRANCH   3   4
ATOM      4  C   UNL     1      -3.777   3.035   0.610  1.00  0.00     0.000 C 
BRANCH   4   5
ATOM      5  C   UNL     1      -4.019   1.514   0.581  1.00  0.00     0.000 C 
BRANCH   5   6
ATOM      6  C   UNL     1      -3.475   0.849  -0.696  1.00  0.00     0.000 C 
BRANCH   6   7
ATOM      7  C   UNL     1      -4.169  -0.488  -1.008  1.00  0.00     0.000 C 
BRANCH   7   8
ATOM      8  C   UNL     1      -3.399  -1.324  -2.045  1.00  0.00     0.000 C 
BRANCH   8   9
ATOM      9  C   UNL     1      -4.226  -2.502  -2.585  1.00  0.00     0.000 C 
BRANCH   9  10
ATOM     10  C   UNL     1      -3.801  -3.851  -1.977  1.00  0.00     0.006 C 
BRANCH  10  11
ATOM     11  C   UNL     1      -3.549  -3.752  -0.467  1.00  0.00     0.053 C 
BRANCH  11  12
ATOM     12  C   UNL     1      -4.609  -4.458   0.321  1.00  0.00     0.041 C 
ATOM     13  O   UNL     1      -4.943  -5.635   0.025  1.00  0.00    -0.550 OA
ATOM     14  O   UNL     1      -5.250  -3.803   1.366  1.00  0.00    -0.550 OA
ENDBRANCH  11  12
ENDBRANCH  10  11
ENDBRANCH   9  10
ENDBRANCH   8   9
ENDBRANCH   7   8
ENDBRANCH   6   7
ENDBRANCH   5   6
ENDBRANCH   4   5
ENDBRANCH   3   4
ENDBRANCH   2   3
ENDBRANCH   1   2
BRANCH   1  15
ATOM     15  C   UNL     1      -4.550   5.613  -2.996  1.00  0.00     0.000 C 
BRANCH  15  16
ATOM     16  C   UNL     1      -4.916   5.502  -4.488  1.00  0.00     0.000 C 
BRANCH  16  17
ATOM     17  C   UNL     1      -6.167   6.316  -4.860  1.00  0.00     0.000 C 
BRANCH  17  18
ATOM     18  C   UNL     1      -6.410   6.383  -6.379  1.00  0.00    -0.000 C 
BRANCH  18  19
ATOM     19  C   UNL     1      -7.888   6.392  -6.809  1.00  0.00    -0.000 C 
BRANCH  19  20
ATOM     20  C   UNL     1      -8.070   6.220  -8.326  1.00  0.00    -0.000 C 
BRANCH  20  21
ATOM     21  C   UNL     1      -9.218   7.077  -8.889  1.00  0.00    -0.000 C 
BRANCH  21  22
ATOM     22  C   UNL     1      -8.792   8.160  -9.900  1.00  0.00    -0.000 C 
BRANCH  22  23
ATOM     23  C   UNL     1      -8.148   9.402  -9.250  1.00  0.00    -0.000 C 
BRANCH  23  24
ATOM     24  C   UNL     1      -6.657   9.541  -9.611  1.00  0.00    -0.000 C 
BRANCH  24  25
ATOM     25  C   UNL     1      -5.764   9.701  -8.372  1.00  0.00    -0.003 C 
ATOM     26  C   UNL     1      -6.566   9.963  -7.097  1.00  0.00     0.004 C 
ENDBRANCH  24  25
ENDBRANCH  23  24
ENDBRANCH  22  23
ENDBRANCH  21  22
ENDBRANCH  20  21
ENDBRANCH  19  20
ENDBRANCH  18  19
ENDBRANCH  17  18
ENDBRANCH  16  17
ENDBRANCH  15  16
ENDBRANCH   1  15
TORSDOF 22
ENDMDL
MODEL 3
REMARK VINA RESULT:    -2.640      4.286     11.000
REMARK INTER + INTRA:          -7.644
REMARK INTER:                  -6.092
REMARK INTRA:                  -1.553
REMARK UNBOUND:                -1.608
REMARK SMILES CCCCCCCCCCCCCCCCCCCCCCCC(=O)[O-]
REMARK SMILES IDX 13 1 14 2 15 3 16 4 17 5 18 6 19 7 20 8 21 9 22 10 23 11
REMARK SMILES IDX 24 12 25 13 26 14 12 15 11 16 10 17 9 18 8 19 7 20 6 21 5 22
REMARK SMILES IDX 4 23 3 24 2 25 1 26
REMARK H PARENT
REMARK Flexibility Score: inf
ROOT
ATOM      1  C   UNL     1      -5.102   5.541  -3.369  1.00  0.00     0.000 C 
ENDROOT
BRANCH   1   2
ATOM      2  C   UNL     1      -3.797   4.799  -3.716  1.00  0.00     0.000 C 
BRANCH   2   3
ATOM      3  C   UNL     1      -2.771   4.721  -2.568  1.00  0.00     0.000 C 
BRANCH   3   4
ATOM      4  C   UNL     1      -3.090   5.608  -1.347  1.00  0.00     0.000 C 
BRANCH   4   5
ATOM      5  C   UNL     1      -3.032   4.890   0.014  1.00  0.00     0.000 C 
BRANCH   5   6
ATOM      6  C   UNL     1      -3.055   3.357  -0.119  1.00  0.00     0.000 C 
BRANCH   6   7
ATOM      7  C   UNL     1      -4.120   2.701   0.776  1.00  0.00     0.000 C 
BRANCH   7   8
ATOM      8  C   UNL     1      -4.200   1.178   0.579  1.00  0.00     0.000 C 
BRANCH   8   9
ATOM      9  C   UNL     1      -3.366   0.692  -0.619  1.00  0.00     0.000 C 
BRANCH   9  10
ATOM     10  C   UNL     1      -3.322  -0.843  -0.724  1.00  0.00     0.006 C 
BRANCH  10  11
ATOM     11  C   UNL     1      -3.880  -1.349  -2.060  1.00  0.00     0.053 C 
BRANCH  11  12
ATOM     12  C   UNL     1      -3.883  -2.846  -2.131  1.00  0.00     0.041 C 
ATOM     13  O   UNL     1      -3.463  -3.529  -1.159  1.00  0.00    -0.550 OA
ATOM     14  O   UNL     1      -4.324  -3.487  -3.282  1.00  0.00    -0.550 OA
ENDBRANCH  11  12
ENDBRANCH  10  11
ENDBRANCH   9  10
ENDBRANCH   8   9
ENDBRANCH   7   8
ENDBRANCH   6   7
ENDBRANCH   5   6
ENDBRANCH   4   5
ENDBRANCH   3   4
ENDBRANCH   2   3
ENDBRANCH   1   2
BRANCH   1  15
ATOM     15  C   UNL     1      -5.634   6.484  -4.469  1.00  0.00     0.000 C 
BRANCH  15  16
ATOM     16  C   UNL     1      -5.956   5.808  -5.814  1.00  0.00     0.000 C 
BRANCH  16  17
ATOM     17  C   UNL     1      -7.388   6.088  -6.298  1.00  0.00     0.000 C 
BRANCH  17  18
ATOM     18  C   UNL     1      -7.500   6.163  -7.832  1.00  0.00    -0.000 C 
BRANCH  18  19
ATOM     19  C   UNL     1      -8.020   7.500  -8.390  1.00  0.00    -0.000 C 
BRANCH  19  20
ATOM     20  C   UNL     1      -7.116   8.691  -8.030  1.00  0.00    -0.000 C 
BRANCH  20  21
ATOM     21  C   UNL     1      -6.408   9.294  -9.256  1.00  0.00    -0.000 C 
BRANCH  21  22
ATOM     22  C   UNL     1      -4.930   9.673  -9.037  1.00  0.00    -0.000 C 
BRANCH  22  23
ATOM     23  C   UNL     1      -3.934   8.772  -9.798  1.00  0.00    -0.000 C 
BRANCH  23  24
ATOM     24  C   UNL     1      -4.095   7.286  -9.428  1.00  0.00    -0.000 C 
BRANCH  24  25
ATOM     25  C   UNL     1      -3.058   6.392 -10.125  1.00  0.00    -0.003 C 
ATOM     26  C   UNL     1      -3.186   4.921  -9.727  1.00  0.00     0.004 C 
ENDBRANCH  24  25
ENDBRANCH  23  24
ENDBRANCH  22  23
ENDBRANCH  21  22
ENDBRANCH  20  21
ENDBRANCH  19  20
ENDBRANCH  18  19
ENDBRANCH  17  18
ENDBRANCH  16  17
ENDBRANCH  15  16
ENDBRANCH   1  15
TORSDOF 22
ENDMDL
MODEL 4
REMARK VINA RESULT:    -2.482      0.969      2.513
REMARK INTER + INTRA:          -7.282
REMARK INTER:                  -6.124
REMARK INTRA:                  -1.158
REMARK UNBOUND:                -1.608
REMARK SMILES CCCCCCCCCCCCCCCCCCCCCCCC(=O)[O-]
REMARK SMILES IDX 13 1 14 2 15 3 16 4 17 5 18 6 19 7 20 8 21 9 22 10 23 11
REMARK SMILES IDX 24 12 25 13 26 14 12 15 11 16 10 17 9 18 8 19 7 20 6 21 5 22
REMARK SMILES IDX 4 23 3 24 2 25 1 26
REMARK H PARENT
REMARK Flexibility Score: inf
ROOT
ATOM      1  C   UNL     1      -3.576   5.056  -0.987  1.00  0.00     0.000 C 
ENDROOT
BRANCH   1   2
ATOM      2  C   UNL     1      -2.804   5.244  -2.308  1.00  0.00     0.000 C 
BRANCH   2   3
ATOM      3  C   UNL     1      -3.589   4.855  -3.577  1.00  0.00     0.000 C 
BRANCH   3   4
ATOM      4  C   UNL     1      -4.901   5.634  -3.797  1.00  0.00     0.000 C 
BRANCH   4   5
ATOM      5  C   UNL     1      -5.383   5.702  -5.259  1.00  0.00     0.000 C 
BRANCH   5   6
ATOM      6  C   UNL     1      -6.746   6.401  -5.405  1.00  0.00     0.000 C 
BRANCH   6   7
ATOM      7  C   UNL     1      -7.658   5.712  -6.433  1.00  0.00     0.000 C 
BRANCH   7   8
ATOM      8  C   UNL     1      -7.443   6.241  -7.862  1.00  0.00     0.000 C 
BRANCH   8   9
ATOM      9  C   UNL     1      -8.740   6.770  -8.497  1.00  0.00     0.000 C 
BRANCH   9  10
ATOM     10  C   UNL     1      -8.544   8.125  -9.199  1.00  0.00     0.006 C 
BRANCH  10  11
ATOM     11  C   UNL     1      -7.172   8.741  -8.899  1.00  0.00     0.053 C 
BRANCH  11  12
ATOM     12  C   UNL     1      -7.166   9.479  -7.595  1.00  0.00     0.041 C 
ATOM     13  O   UNL     1      -8.251   9.804  -7.044  1.00  0.00    -0.550 OA
ATOM     14  O   UNL     1      -5.961   9.833  -7.001  1.00  0.00    -0.550 OA
ENDBRANCH  11  12
ENDBRANCH  10  11
ENDBRANCH   9  10
ENDBRANCH   8   9
ENDBRANCH   7   8
ENDBRANCH   6   7
ENDBRANCH   5   6
ENDBRANCH   4   5
ENDBRANCH   3   4
ENDBRANCH   2   3
ENDBRANCH   1   2
BRANCH   1  15
ATOM     15  C   UNL     1      -3.027   3.952  -0.058  1.00  0.00     0.000 C 
BRANCH  15  16
ATOM     16  C   UNL     1      -4.091   3.182   0.747  1.00  0.00     0.000 C 
BRANCH  16  17
ATOM     17  C   UNL     1      -3.909   1.657   0.677  1.00  0.00     0.000 C 
BRANCH  17  18
ATOM     18  C   UNL     1      -2.542   1.241   0.101  1.00  0.00    -0.000 C 
BRANCH  18  19
ATOM     19  C   UNL     1      -2.553  -0.032  -0.765  1.00  0.00    -0.000 C 
BRANCH  19  20
ATOM     20  C   UNL     1      -3.971  -0.476  -1.157  1.00  0.00    -0.000 C 
BRANCH  20  21
ATOM     21  C   UNL     1      -4.083  -0.873  -2.640  1.00  0.00    -0.000 C 
BRANCH  21  22
ATOM     22  C   UNL     1      -3.342  -2.169  -3.028  1.00  0.00    -0.000 C 
BRANCH  22  23
ATOM     23  C   UNL     1      -4.104  -3.459  -2.655  1.00  0.00    -0.000 C 
BRANCH  23  24
ATOM     24  C   UNL     1      -3.527  -4.132  -1.396  1.00  0.00    -0.000 C 
BRANCH  24  25
ATOM     25  C   UNL     1      -4.246  -3.691  -0.112  1.00  0.00    -0.003 C 
ATOM     26  C   UNL     1      -4.766  -4.872   0.709  1.00  0.00     0.004 C 
ENDBRANCH  24  25
ENDBRANCH  23  24
ENDBRANCH  22  23
ENDBRANCH  21  22
ENDBRANCH  20  21
ENDBRANCH  19  20
ENDBRANCH  18  19
ENDBRANCH  17  18
ENDBRANCH  16  17
ENDBRANCH  15  16
ENDBRANCH   1  15
TORSDOF 22
ENDMDL
MODEL 5
REMARK VINA RESULT:    -2.462      4.715     11.642
REMARK INTER + INTRA:          -7.237
REMARK INTER:                  -6.008
REMARK INTRA:                  -1.229
REMARK UNBOUND:                -1.608
REMARK SMILES CCCCCCCCCCCCCCCCCCCCCCCC(=O)[O-]
REMARK SMILES IDX 13 1 14 2 15 3 16 4 17 5 18 6 19 7 20 8 21 9 22 10 23 11
REMARK SMILES IDX 24 12 25 13 26 14 12 15 11 16 10 17 9 18 8 19 7 20 6 21 5 22
REMARK SMILES IDX 4 23 3 24 2 25 1 26
REMARK H PARENT
REMARK Flexibility Score: inf
ROOT
ATOM      1  C   UNL     1      -3.465   5.625  -1.260  1.00  0.00     0.000 C 
ENDROOT
BRANCH   1   2
ATOM      2  C   UNL     1      -2.907   5.180   0.106  1.00  0.00     0.000 C 
BRANCH   2   3
ATOM      3  C   UNL     1      -3.068   3.677   0.412  1.00  0.00     0.000 C 
BRANCH   3   4
ATOM      4  C   UNL     1      -1.882   2.792  -0.020  1.00  0.00     0.000 C 
BRANCH   4   5
ATOM      5  C   UNL     1      -2.161   1.278  -0.014  1.00  0.00     0.000 C 
BRANCH   5   6
ATOM      6  C   UNL     1      -3.663   0.948  -0.082  1.00  0.00     0.000 C 
BRANCH   6   7
ATOM      7  C   UNL     1      -4.032   0.120  -1.324  1.00  0.00     0.000 C 
BRANCH   7   8
ATOM      8  C   UNL     1      -3.852  -1.391  -1.100  1.00  0.00     0.000 C 
BRANCH   8   9
ATOM      9  C   UNL     1      -4.215  -2.220  -2.344  1.00  0.00     0.000 C 
BRANCH   9  10
ATOM     10  C   UNL     1      -3.963  -3.725  -2.145  1.00  0.00     0.006 C 
BRANCH  10  11
ATOM     11  C   UNL     1      -3.493  -4.052  -0.722  1.00  0.00     0.053 C 
BRANCH  11  12
ATOM     12  C   UNL     1      -4.580  -4.687   0.091  1.00  0.00     0.041 C 
ATOM     13  O   UNL     1      -4.924  -4.184   1.194  1.00  0.00    -0.550 OA
ATOM     14  O   UNL     1      -5.194  -5.850  -0.356  1.00  0.00    -0.550 OA
ENDBRANCH  11  12
ENDBRANCH  10  11
ENDBRANCH   9  10
ENDBRANCH   8   9
ENDBRANCH   7   8
ENDBRANCH   6   7
ENDBRANCH   5   6
ENDBRANCH   4   5
ENDBRANCH   3   4
ENDBRANCH   2   3
ENDBRANCH   1   2
BRANCH   1  15
ATOM     15  C   UNL     1      -3.008   4.775  -2.464  1.00  0.00     0.000 C 
BRANCH  15  16
ATOM     16  C   UNL     1      -3.862   4.927  -3.737  1.00  0.00     0.000 C 
BRANCH  16  17
ATOM     17  C   UNL     1      -5.223   5.591  -3.470  1.00  0.00     0.000 C 
BRANCH  17  18
ATOM     18  C   UNL     1      -5.671   6.522  -4.612  1.00  0.00    -0.000 C 
BRANCH  18  19
ATOM     19  C   UNL     1      -6.338   5.821  -5.810  1.00  0.00    -0.000 C 
BRANCH  19  20
ATOM     20  C   UNL     1      -7.446   6.668  -6.457  1.00  0.00    -0.000 C 
BRANCH  20  21
ATOM     21  C   UNL     1      -7.699   6.295  -7.928  1.00  0.00    -0.000 C 
BRANCH  21  22
ATOM     22  C   UNL     1      -8.732   7.177  -8.659  1.00  0.00    -0.000 C 
BRANCH  22  23
ATOM     23  C   UNL     1      -8.187   8.558  -9.079  1.00  0.00    -0.000 C 
BRANCH  23  24
ATOM     24  C   UNL     1      -6.655   8.558  -9.232  1.00  0.00    -0.000 C 
BRANCH  24  25
ATOM     25  C   UNL     1      -5.976   9.620  -8.354  1.00  0.00    -0.003 C 
ATOM     26  C   UNL     1      -6.836  10.036  -7.160  1.00  0.00     0.004 C 
ENDBRANCH  24  25
ENDBRANCH  23  24
ENDBRANCH  22  23
ENDBRANCH  21  22
ENDBRANCH  20  21
ENDBRANCH  19  20
ENDBRANCH  18  19
ENDBRANCH  17  18
ENDBRANCH  16  17
ENDBRANCH  15  16
ENDBRANCH   1  15
TORSDOF 22
ENDMDL
MODEL 6
REMARK VINA RESULT:    -2.367      4.040     11.490
REMARK INTER + INTRA:          -7.019
REMARK INTER:                  -5.708
REMARK INTRA:                  -1.311
REMARK UNBOUND:                -1.608
REMARK SMILES CCCCCCCCCCCCCCCCCCCCCCCC(=O)[O-]
REMARK SMILES IDX 13 1 14 2 15 3 16 4 17 5 18 6 19 7 20 8 21 9 22 10 23 11
REMARK SMILES IDX 24 12 25 13 26 14 12 15 11 16 10 17 9 18 8 19 7 20 6 21 5 22
REMARK SMILES IDX 4 23 3 24 2 25 1 26
REMARK H PARENT
REMARK Flexibility Score: inf
ROOT
ATOM      1  C   UNL     1      -4.331   5.089  -4.461  1.00  0.00     0.000 C 
ENDROOT
BRANCH   1   2
ATOM      2  C   UNL     1      -3.248   4.770  -3.412  1.00  0.00     0.000 C 
BRANCH   2   3
ATOM      3  C   UNL     1      -3.747   4.743  -1.954  1.00  0.00     0.000 C 
BRANCH   3   4
ATOM      4  C   UNL     1      -2.767   5.327  -0.917  1.00  0.00     0.000 C 
BRANCH   4   5
ATOM      5  C   UNL     1      -2.648   4.526   0.393  1.00  0.00     0.000 C 
BRANCH   5   6
ATOM      6  C   UNL     1      -2.925   3.025   0.201  1.00  0.00     0.000 C 
BRANCH   6   7
ATOM      7  C   UNL     1      -4.109   2.527   1.047  1.00  0.00     0.000 C 
BRANCH   7   8
ATOM      8  C   UNL     1      -4.638   1.161   0.577  1.00  0.00     0.000 C 
BRANCH   8   9
ATOM      9  C   UNL     1      -3.693   0.473  -0.421  1.00  0.00     0.000 C 
BRANCH   9  10
ATOM     10  C   UNL     1      -4.078  -0.994  -0.684  1.00  0.00     0.006 C 
BRANCH  10  11
ATOM     11  C   UNL     1      -3.605  -1.480  -2.060  1.00  0.00     0.053 C 
BRANCH  11  12
ATOM     12  C   UNL     1      -3.722  -2.968  -2.194  1.00  0.00     0.041 C 
ATOM     13  O   UNL     1      -3.726  -3.700  -1.169  1.00  0.00    -0.550 OA
ATOM     14  O   UNL     1      -3.797  -3.549  -3.455  1.00  0.00    -0.550 OA
ENDBRANCH  11  12
ENDBRANCH  10  11
ENDBRANCH   9  10
ENDBRANCH   8   9
ENDBRANCH   7   8
ENDBRANCH   6   7
ENDBRANCH   5   6
ENDBRANCH   4   5
ENDBRANCH   3   4
ENDBRANCH   2   3
ENDBRANCH   1   2
BRANCH   1  15
ATOM     15  C   UNL     1      -5.583   5.809  -3.914  1.00  0.00     0.000 C 
BRANCH  15  16
ATOM     16  C   UNL     1      -6.363   6.644  -4.946  1.00  0.00     0.000 C 
BRANCH  16  17
ATOM     17  C   UNL     1      -6.441   5.972  -6.326  1.00  0.00     0.000 C 
BRANCH  17  18
ATOM     18  C   UNL     1      -7.844   6.054  -6.955  1.00  0.00    -0.000 C 
BRANCH  18  19
ATOM     19  C   UNL     1      -7.911   6.755  -8.325  1.00  0.00    -0.000 C 
BRANCH  19  20
ATOM     20  C   UNL     1      -9.346   6.874  -8.866  1.00  0.00    -0.000 C 
BRANCH  20  21
ATOM     21  C   UNL     1      -9.664   8.281  -9.403  1.00  0.00    -0.000 C 
BRANCH  21  22
ATOM     22  C   UNL     1      -9.139   9.446  -8.541  1.00  0.00    -0.000 C 
BRANCH  22  23
ATOM     23  C   UNL     1      -7.741   9.950  -8.957  1.00  0.00    -0.000 C 
BRANCH  23  24
ATOM     24  C   UNL     1      -6.756   9.976  -7.774  1.00  0.00    -0.000 C 
BRANCH  24  25
ATOM     25  C   UNL     1      -5.295  10.116  -8.227  1.00  0.00    -0.003 C 
ATOM     26  C   UNL     1      -5.037   9.479  -9.594  1.00  0.00     0.004 C 
ENDBRANCH  24  25
ENDBRANCH  23  24
ENDBRANCH  22  23
ENDBRANCH  21  22
ENDBRANCH  20  21
ENDBRANCH  19  20
ENDBRANCH  18  19
ENDBRANCH  17  18
ENDBRANCH  16  17
ENDBRANCH  15  16
ENDBRANCH   1  15
TORSDOF 22
ENDMDL
MODEL 7
REMARK VINA RESULT:    -2.106      3.945     11.650
REMARK INTER + INTRA:          -6.423
REMARK INTER:                  -4.702
REMARK INTRA:                  -1.720
REMARK UNBOUND:                -1.608
REMARK SMILES CCCCCCCCCCCCCCCCCCCCCCCC(=O)[O-]
REMARK SMILES IDX 13 1 14 2 15 3 16 4 17 5 18 6 19 7 20 8 21 9 22 10 23 11
REMARK SMILES IDX 24 12 25 13 26 14 12 15 11 16 10 17 9 18 8 19 7 20 6 21 5 22
REMARK SMILES IDX 4 23 3 24 2 25 1 26
REMARK H PARENT
REMARK Flexibility Score: inf
ROOT
ATOM      1  C   UNL     1      -5.405   6.478  -4.833  1.00  0.00     0.000 C 
ENDROOT
BRANCH   1   2
ATOM      2  C   UNL     1      -5.198   5.739  -3.496  1.00  0.00     0.000 C 
BRANCH   2   3
ATOM      3  C   UNL     1      -3.927   4.868  -3.429  1.00  0.00     0.000 C 
BRANCH   3   4
ATOM      4  C   UNL     1      -3.735   4.094  -2.110  1.00  0.00     0.000 C 
BRANCH   4   5
ATOM      5  C   UNL     1      -3.400   4.965  -0.885  1.00  0.00     0.000 C 
BRANCH   5   6
ATOM      6  C   UNL     1      -2.758   4.161   0.260  1.00  0.00     0.000 C 
BRANCH   6   7
ATOM      7  C   UNL     1      -2.312   2.757  -0.181  1.00  0.00     0.000 C 
BRANCH   7   8
ATOM      8  C   UNL     1      -3.342   1.671   0.174  1.00  0.00     0.000 C 
BRANCH   8   9
ATOM      9  C   UNL     1      -3.735   0.810  -1.038  1.00  0.00     0.000 C 
BRANCH   9  10
ATOM     10  C   UNL     1      -3.023  -0.555  -1.048  1.00  0.00     0.006 C 
BRANCH  10  11
ATOM     11  C   UNL     1      -4.010  -1.724  -0.945  1.00  0.00     0.053 C 
BRANCH  11  12
ATOM     12  C   UNL     1      -3.758  -2.760  -1.998  1.00  0.00     0.041 C 
ATOM     13  O   UNL     1      -3.246  -2.433  -3.101  1.00  0.00    -0.550 OA
ATOM     14  O   UNL     1      -4.115  -4.084  -1.771  1.00  0.00    -0.550 OA
ENDBRANCH  11  12
ENDBRANCH  10  11
ENDBRANCH   9  10
ENDBRANCH   8   9
ENDBRANCH   7   8
ENDBRANCH   6   7
ENDBRANCH   5   6
ENDBRANCH   4   5
ENDBRANCH   3   4
ENDBRANCH   2   3
ENDBRANCH   1   2
BRANCH   1  15
ATOM     15  C   UNL     1      -6.199   5.696  -5.900  1.00  0.00     0.000 C 
BRANCH  15  16
ATOM     16  C   UNL     1      -7.468   6.395  -6.419  1.00  0.00     0.000 C 
BRANCH  16  17
ATOM     17  C   UNL     1      -7.537   6.452  -7.954  1.00  0.00     0.000 C 
BRANCH  17  18
ATOM     18  C   UNL     1      -8.961   6.705  -8.482  1.00  0.00    -0.000 C 
BRANCH  18  19
ATOM     19  C   UNL     1      -9.061   7.695  -9.657  1.00  0.00    -0.000 C 
BRANCH  19  20
ATOM     20  C   UNL     1     -10.125   8.782  -9.434  1.00  0.00    -0.000 C 
BRANCH  20  21
ATOM     21  C   UNL     1      -9.565  10.027  -8.724  1.00  0.00    -0.000 C 
BRANCH  21  22
ATOM     22  C   UNL     1      -8.026  10.125  -8.690  1.00  0.00    -0.000 C 
BRANCH  22  23
ATOM     23  C   UNL     1      -7.431  10.121  -7.267  1.00  0.00    -0.000 C 
BRANCH  23  24
ATOM     24  C   UNL     1      -5.925   9.798  -7.267  1.00  0.00    -0.000 C 
BRANCH  24  25
ATOM     25  C   UNL     1      -5.256  10.111  -8.613  1.00  0.00    -0.003 C 
ATOM     26  C   UNL     1      -4.598   8.884  -9.246  1.00  0.00     0.004 C 
ENDBRANCH  24  25
ENDBRANCH  23  24
ENDBRANCH  22  23
ENDBRANCH  21  22
ENDBRANCH  20  21
ENDBRANCH  19  20
ENDBRANCH  18  19
ENDBRANCH  17  18
ENDBRANCH  16  17
ENDBRANCH  15  16
ENDBRANCH   1  15
TORSDOF 22
ENDMDL
MODEL 8
REMARK VINA RESULT:    -2.104      4.104     11.506
REMARK INTER + INTRA:          -6.417
REMARK INTER:                  -5.901
REMARK INTRA:                  -0.517
REMARK UNBOUND:                -1.608
REMARK SMILES CCCCCCCCCCCCCCCCCCCCCCCC(=O)[O-]
REMARK SMILES IDX 13 1 14 2 15 3 16 4 17 5 18 6 19 7 20 8 21 9 22 10 23 11
REMARK SMILES IDX 24 12 25 13 26 14 12 15 11 16 10 17 9 18 8 19 7 20 6 21 5 22
REMARK SMILES IDX 4 23 3 24 2 25 1 26
REMARK H PARENT
REMARK Flexibility Score: inf
ROOT
ATOM      1  C   UNL     1      -3.904   4.725  -3.813  1.00  0.00     0.000 C 
ENDROOT
BRANCH   1   2
ATOM      2  C   UNL     1      -2.924   4.559  -2.635  1.00  0.00     0.000 C 
BRANCH   2   3
ATOM      3  C   UNL     1      -3.080   5.602  -1.511  1.00  0.00     0.000 C 
BRANCH   3   4
ATOM      4  C   UNL     1      -3.159   5.020  -0.086  1.00  0.00     0.000 C 
BRANCH   4   5
ATOM      5  C   UNL     1      -3.224   3.483  -0.011  1.00  0.00     0.000 C 
BRANCH   5   6
ATOM      6  C   UNL     1      -4.386   2.978   0.863  1.00  0.00     0.000 C 
BRANCH   6   7
ATOM      7  C   UNL     1      -4.286   1.474   1.168  1.00  0.00     0.000 C 
BRANCH   7   8
ATOM      8  C   UNL     1      -4.525   0.602  -0.076  1.00  0.00     0.000 C 
BRANCH   8   9
ATOM      9  C   UNL     1      -3.237   0.348  -0.876  1.00  0.00     0.000 C 
BRANCH   9  10
ATOM     10  C   UNL     1      -2.993  -1.148  -1.145  1.00  0.00     0.006 C 
BRANCH  10  11
ATOM     11  C   UNL     1      -4.141  -1.790  -1.934  1.00  0.00     0.053 C 
BRANCH  11  12
ATOM     12  C   UNL     1      -3.912  -3.254  -2.160  1.00  0.00     0.041 C 
ATOM     13  O   UNL     1      -3.851  -4.045  -1.182  1.00  0.00    -0.550 OA
ATOM     14  O   UNL     1      -3.735  -3.740  -3.449  1.00  0.00    -0.550 OA
ENDBRANCH  11  12
ENDBRANCH  10  11
ENDBRANCH   9  10
ENDBRANCH   8   9
ENDBRANCH   7   8
ENDBRANCH   6   7
ENDBRANCH   5   6
ENDBRANCH   4   5
ENDBRANCH   3   4
ENDBRANCH   2   3
ENDBRANCH   1   2
BRANCH   1  15
ATOM     15  C   UNL     1      -5.100   5.663  -3.544  1.00  0.00     0.000 C 
BRANCH  15  16
ATOM     16  C   UNL     1      -5.640   6.408  -4.778  1.00  0.00     0.000 C 
BRANCH  16  17
ATOM     17  C   UNL     1      -6.938   5.794  -5.329  1.00  0.00     0.000 C 
BRANCH  17  18
ATOM     18  C   UNL     1      -7.234   6.218  -6.780  1.00  0.00    -0.000 C 
BRANCH  18  19
ATOM     19  C   UNL     1      -6.801   7.648  -7.149  1.00  0.00    -0.000 C 
BRANCH  19  20
ATOM     20  C   UNL     1      -6.297   7.766  -8.597  1.00  0.00    -0.000 C 
BRANCH  20  21
ATOM     21  C   UNL     1      -5.971   9.215  -8.999  1.00  0.00    -0.000 C 
BRANCH  21  22
ATOM     22  C   UNL     1      -7.196  10.125  -9.219  1.00  0.00    -0.000 C 
BRANCH  22  23
ATOM     23  C   UNL     1      -8.405   9.772  -8.326  1.00  0.00    -0.000 C 
BRANCH  23  24
ATOM     24  C   UNL     1      -9.746   9.995  -9.049  1.00  0.00    -0.000 C 
BRANCH  24  25
ATOM     25  C   UNL     1     -10.123   8.821  -9.965  1.00  0.00    -0.003 C 
ATOM     26  C   UNL     1      -9.513   7.496  -9.507  1.00  0.00     0.004 C 
ENDBRANCH  24  25
ENDBRANCH  23  24
ENDBRANCH  22  23
ENDBRANCH  21  22
ENDBRANCH  20  21
ENDBRANCH  19  20
ENDBRANCH  18  19
ENDBRANCH  17  18
ENDBRANCH  16  17
ENDBRANCH  15  16
ENDBRANCH   1  15
TORSDOF 22
ENDMDL
MODEL 9
REMARK VINA RESULT:    -1.966      1.295      2.039
REMARK INTER + INTRA:          -6.102
REMARK INTER:                  -4.890
REMARK INTRA:                  -1.212
REMARK UNBOUND:                -1.608
REMARK SMILES CCCCCCCCCCCCCCCCCCCCCCCC(=O)[O-]
REMARK SMILES IDX 13 1 14 2 15 3 16 4 17 5 18 6 19 7 20 8 21 9 22 10 23 11
REMARK SMILES IDX 24 12 25 13 26 14 12 15 11 16 10 17 9 18 8 19 7 20 6 21 5 22
REMARK SMILES IDX 4 23 3 24 2 25 1 26
REMARK H PARENT
REMARK Flexibility Score: inf
ROOT
ATOM      1  C   UNL     1      -4.598   5.413  -3.864  1.00  0.00     0.000 C 
ENDROOT
BRANCH   1   2
ATOM      2  C   UNL     1      -6.081   5.708  -4.159  1.00  0.00     0.000 C 
BRANCH   2   3
ATOM      3  C   UNL     1      -6.332   6.567  -5.414  1.00  0.00     0.000 C 
BRANCH   3   4
ATOM      4  C   UNL     1      -7.239   5.918  -6.479  1.00  0.00     0.000 C 
BRANCH   4   5
ATOM      5  C   UNL     1      -7.128   6.526  -7.890  1.00  0.00     0.000 C 
BRANCH   5   6
ATOM      6  C   UNL     1      -8.420   7.232  -8.337  1.00  0.00     0.000 C 
BRANCH   6   7
ATOM      7  C   UNL     1      -8.205   8.724  -8.641  1.00  0.00     0.000 C 
BRANCH   7   8
ATOM      8  C   UNL     1      -7.437   9.449  -7.522  1.00  0.00     0.000 C 
BRANCH   8   9
ATOM      9  C   UNL     1      -6.081   9.997  -7.996  1.00  0.00     0.000 C 
BRANCH   9  10
ATOM     10  C   UNL     1      -5.991  10.106  -9.529  1.00  0.00     0.006 C 
BRANCH  10  11
ATOM     11  C   UNL     1      -4.540  10.093 -10.027  1.00  0.00     0.053 C 
BRANCH  11  12
ATOM     12  C   UNL     1      -3.919   8.736  -9.897  1.00  0.00     0.041 C 
ATOM     13  O   UNL     1      -2.666   8.606  -9.927  1.00  0.00    -0.550 OA
ATOM     14  O   UNL     1      -4.725   7.611  -9.771  1.00  0.00    -0.550 OA
ENDBRANCH  11  12
ENDBRANCH  10  11
ENDBRANCH   9  10
ENDBRANCH   8   9
ENDBRANCH   7   8
ENDBRANCH   6   7
ENDBRANCH   5   6
ENDBRANCH   4   5
ENDBRANCH   3   4
ENDBRANCH   2   3
ENDBRANCH   1   2
BRANCH   1  15
ATOM     15  C   UNL     1      -4.155   5.664  -2.406  1.00  0.00     0.000 C 
BRANCH  15  16
ATOM     16  C   UNL     1      -2.749   5.149  -2.048  1.00  0.00     0.000 C 
BRANCH  16  17
ATOM     17  C   UNL     1      -2.464   5.185  -0.538  1.00  0.00     0.000 C 
BRANCH  17  18
ATOM     18  C   UNL     1      -3.529   4.445   0.292  1.00  0.00    -0.000 C 
BRANCH  18  19
ATOM     19  C   UNL     1      -3.378   2.914   0.344  1.00  0.00    -0.000 C 
BRANCH  19  20
ATOM     20  C   UNL     1      -4.554   2.220   1.051  1.00  0.00    -0.000 C 
BRANCH  20  21
ATOM     21  C   UNL     1      -4.552   0.694   0.852  1.00  0.00    -0.000 C 
BRANCH  21  22
ATOM     22  C   UNL     1      -3.784   0.197  -0.390  1.00  0.00    -0.000 C 
BRANCH  22  23
ATOM     23  C   UNL     1      -4.293  -1.152  -0.940  1.00  0.00    -0.000 C 
BRANCH  23  24
ATOM     24  C   UNL     1      -3.756  -1.444  -2.353  1.00  0.00    -0.000 C 
BRANCH  24  25
ATOM     25  C   UNL     1      -3.923  -2.918  -2.753  1.00  0.00    -0.003 C 
ATOM     26  C   UNL     1      -3.711  -3.875  -1.579  1.00  0.00     0.004 C 
ENDBRANCH  24  25
ENDBRANCH  23  24
ENDBRANCH  22  23
ENDBRANCH  21  22
ENDBRANCH  20  21
ENDBRANCH  19  20
ENDBRANCH  18  19
ENDBRANCH  17  18
ENDBRANCH  16  17
ENDBRANCH  15  16
ENDBRANCH   1  15
TORSDOF 22
ENDMDL
