MODEL 1
REMARK VINA RESULT:    -5.809      0.000      0.000
REMARK INTER + INTRA:          -5.979
REMARK INTER:                  -5.979
REMARK INTRA:                   0.000
REMARK UNBOUND:                 0.000
REMARK SMILES O=c1ccc2ccc(O)cc2o1
REMARK SMILES IDX 6 1 7 2 8 3 10 4 11 5 5 6 4 7 3 8 2 9 1 10 12 11 9 12
REMARK H PARENT 9 13
REMARK Flexibility Score: inf
ROOT
ATOM      1  C   UNL     1      18.682  -4.309  20.894  1.00  0.00     0.016 A 
ATOM      2  C   UNL     1      18.427  -4.869  19.638  1.00  0.00     0.047 A 
ATOM      3  C   UNL     1      19.421  -4.872  18.649  1.00  0.00     0.119 A 
ATOM      4  C   UNL     1      20.675  -4.312  18.918  1.00  0.00     0.094 A 
ATOM      5  C   UNL     1      20.940  -3.749  20.172  1.00  0.00     0.142 A 
ATOM      6  C   UNL     1      19.938  -3.748  21.166  1.00  0.00     0.018 A 
ATOM      7  C   UNL     1      20.233  -3.179  22.409  1.00  0.00     0.019 A 
ATOM      8  C   UNL     1      21.498  -2.633  22.629  1.00  0.00     0.094 A 
ATOM      9  C   UNL     1      22.441  -2.670  21.596  1.00  0.00     0.336 A 
ATOM     10  O   UNL     1      23.588  -2.183  21.776  1.00  0.00    -0.246 OA
ATOM     11  O   UNL     1      22.135  -3.219  20.423  1.00  0.00    -0.423 OA
ENDROOT
BRANCH   3  12
ATOM     12  O   UNL     1      19.172  -5.428  17.396  1.00  0.00    -0.508 OA
ATOM     13  H   UNL     1      18.377  -6.036  17.235  1.00  0.00     0.293 HD
ENDBRANCH   3  12
TORSDOF 1
ENDMDL
MODEL 2
REMARK VINA RESULT:    -5.652      2.819      4.695
REMARK INTER + INTRA:          -5.817
REMARK INTER:                  -5.817
REMARK INTRA:                   0.000
REMARK UNBOUND:                 0.000
REMARK SMILES O=c1ccc2ccc(O)cc2o1
REMARK SMILES IDX 6 1 7 2 8 3 10 4 11 5 5 6 4 7 3 8 2 9 1 10 12 11 9 12
REMARK H PARENT 9 13
REMARK Flexibility Score: inf
ROOT
ATOM      1  C   UNL     1      20.266  -1.005  23.340  1.00  0.00     0.016 A 
ATOM      2  C   UNL     1      21.062  -2.075  23.763  1.00  0.00     0.047 A 
ATOM      3  C   UNL     1      21.074  -3.277  23.041  1.00  0.00     0.119 A 
ATOM      4  C   UNL     1      20.288  -3.408  21.890  1.00  0.00     0.094 A 
ATOM      5  C   UNL     1      19.489  -2.343  21.459  1.00  0.00     0.142 A 
ATOM      6  C   UNL     1      19.478  -1.134  22.188  1.00  0.00     0.018 A 
ATOM      7  C   UNL     1      18.671  -0.087  21.732  1.00  0.00     0.019 A 
ATOM      8  C   UNL     1      17.904  -0.266  20.580  1.00  0.00     0.094 A 
ATOM      9  C   UNL     1      17.966  -1.493  19.909  1.00  0.00     0.336 A 
ATOM     10  O   UNL     1      17.282  -1.673  18.868  1.00  0.00    -0.246 OA
ATOM     11  O   UNL     1      18.743  -2.472  20.364  1.00  0.00    -0.423 OA
ENDROOT
BRANCH   3  12
ATOM     12  O   UNL     1      21.864  -4.346  23.457  1.00  0.00    -0.508 OA
ATOM     13  H   UNL     1      22.275  -4.372  24.383  1.00  0.00     0.293 HD
ENDBRANCH   3  12
TORSDOF 1
ENDMDL
MODEL 3
REMARK VINA RESULT:    -5.527      4.397      5.108
REMARK INTER + INTRA:          -5.689
REMARK INTER:                  -5.689
REMARK INTRA:                   0.000
REMARK UNBOUND:                 0.000
REMARK SMILES O=c1ccc2ccc(O)cc2o1
REMARK SMILES IDX 6 1 7 2 8 3 10 4 11 5 5 6 4 7 3 8 2 9 1 10 12 11 9 12
REMARK H PARENT 9 13
REMARK Flexibility Score: inf
ROOT
ATOM      1  C   UNL     1      16.933  -4.533  16.629  1.00  0.00     0.016 A 
ATOM      2  C   UNL     1      15.820  -5.242  17.094  1.00  0.00     0.047 A 
ATOM      3  C   UNL     1      15.136  -4.811  18.241  1.00  0.00     0.119 A 
ATOM      4  C   UNL     1      15.567  -3.667  18.922  1.00  0.00     0.094 A 
ATOM      5  C   UNL     1      16.679  -2.951  18.464  1.00  0.00     0.142 A 
ATOM      6  C   UNL     1      17.366  -3.387  17.309  1.00  0.00     0.018 A 
ATOM      7  C   UNL     1      18.473  -2.652  16.875  1.00  0.00     0.019 A 
ATOM      8  C   UNL     1      18.865  -1.518  17.589  1.00  0.00     0.094 A 
ATOM      9  C   UNL     1      18.135  -1.147  18.724  1.00  0.00     0.336 A 
ATOM     10  O   UNL     1      18.473  -0.127  19.381  1.00  0.00    -0.246 OA
ATOM     11  O   UNL     1      17.085  -1.864  19.115  1.00  0.00    -0.423 OA
ENDROOT
BRANCH   3  12
ATOM     12  O   UNL     1      14.028  -5.512  18.710  1.00  0.00    -0.508 OA
ATOM     13  H   UNL     1      13.169  -5.564  18.174  1.00  0.00     0.293 HD
ENDBRANCH   3  12
TORSDOF 1
ENDMDL
MODEL 4
REMARK VINA RESULT:    -5.481      2.573      4.432
REMARK INTER + INTRA:          -5.642
REMARK INTER:                  -5.642
REMARK INTRA:                   0.000
REMARK UNBOUND:                 0.000
REMARK SMILES O=c1ccc2ccc(O)cc2o1
REMARK SMILES IDX 6 1 7 2 8 3 10 4 11 5 5 6 4 7 3 8 2 9 1 10 12 11 9 12
REMARK H PARENT 9 13
REMARK Flexibility Score: inf
ROOT
ATOM      1  C   UNL     1      20.289  -3.968  20.134  1.00  0.00     0.016 A 
ATOM      2  C   UNL     1      21.373  -4.012  19.252  1.00  0.00     0.047 A 
ATOM      3  C   UNL     1      21.194  -3.712  17.894  1.00  0.00     0.119 A 
ATOM      4  C   UNL     1      19.924  -3.364  17.418  1.00  0.00     0.094 A 
ATOM      5  C   UNL     1      18.833  -3.317  18.293  1.00  0.00     0.142 A 
ATOM      6  C   UNL     1      19.017  -3.621  19.660  1.00  0.00     0.018 A 
ATOM      7  C   UNL     1      17.908  -3.564  20.510  1.00  0.00     0.019 A 
ATOM      8  C   UNL     1      16.662  -3.214  19.988  1.00  0.00     0.094 A 
ATOM      9  C   UNL     1      16.556  -2.926  18.622  1.00  0.00     0.336 A 
ATOM     10  O   UNL     1      15.441  -2.607  18.134  1.00  0.00    -0.246 OA
ATOM     11  O   UNL     1      17.627  -2.986  17.836  1.00  0.00    -0.423 OA
ENDROOT
BRANCH   3  12
ATOM     12  O   UNL     1      22.270  -3.754  17.010  1.00  0.00    -0.508 OA
ATOM     13  H   UNL     1      22.130  -3.839  16.010  1.00  0.00     0.293 HD
ENDBRANCH   3  12
TORSDOF 1
ENDMDL
MODEL 5
REMARK VINA RESULT:    -5.436      1.077      4.193
REMARK INTER + INTRA:          -5.595
REMARK INTER:                  -5.595
REMARK INTRA:                   0.000
REMARK UNBOUND:                 0.000
REMARK SMILES O=c1ccc2ccc(O)cc2o1
REMARK SMILES IDX 6 1 7 2 8 3 10 4 11 5 5 6 4 7 3 8 2 9 1 10 12 11 9 12
REMARK H PARENT 9 13
REMARK Flexibility Score: inf
ROOT
ATOM      1  C   UNL     1      20.377  -3.615  22.605  1.00  0.00     0.016 A 
ATOM      2  C   UNL     1      21.713  -3.235  22.775  1.00  0.00     0.047 A 
ATOM      3  C   UNL     1      22.514  -2.950  21.660  1.00  0.00     0.119 A 
ATOM      4  C   UNL     1      21.976  -3.045  20.371  1.00  0.00     0.094 A 
ATOM      5  C   UNL     1      20.641  -3.425  20.191  1.00  0.00     0.142 A 
ATOM      6  C   UNL     1      19.837  -3.711  21.316  1.00  0.00     0.018 A 
ATOM      7  C   UNL     1      18.507  -4.088  21.105  1.00  0.00     0.019 A 
ATOM      8  C   UNL     1      18.017  -4.169  19.801  1.00  0.00     0.094 A 
ATOM      9  C   UNL     1      18.873  -3.870  18.735  1.00  0.00     0.336 A 
ATOM     10  O   UNL     1      18.449  -3.937  17.552  1.00  0.00    -0.246 OA
ATOM     11  O   UNL     1      20.134  -3.514  18.964  1.00  0.00    -0.423 OA
ENDROOT
BRANCH   3  12
ATOM     12  O   UNL     1      23.845  -2.570  21.821  1.00  0.00    -0.508 OA
ATOM     13  H   UNL     1      24.590  -3.017  21.300  1.00  0.00     0.293 HD
ENDBRANCH   3  12
TORSDOF 1
ENDMDL
MODEL 6
REMARK VINA RESULT:    -5.415      2.501      3.513
REMARK INTER + INTRA:          -5.574
REMARK INTER:                  -5.574
REMARK INTRA:                   0.000
REMARK UNBOUND:                 0.000
REMARK SMILES O=c1ccc2ccc(O)cc2o1
REMARK SMILES IDX 6 1 7 2 8 3 10 4 11 5 5 6 4 7 3 8 2 9 1 10 12 11 9 12
REMARK H PARENT 9 13
REMARK Flexibility Score: inf
ROOT
ATOM      1  C   UNL     1      17.972  -3.294  20.594  1.00  0.00     0.016 A 
ATOM      2  C   UNL     1      16.641  -3.372  20.173  1.00  0.00     0.047 A 
ATOM      3  C   UNL     1      16.324  -3.942  18.931  1.00  0.00     0.119 A 
ATOM      4  C   UNL     1      17.344  -4.436  18.109  1.00  0.00     0.094 A 
ATOM      5  C   UNL     1      18.679  -4.363  18.523  1.00  0.00     0.142 A 
ATOM      6  C   UNL     1      18.995  -3.788  19.774  1.00  0.00     0.018 A 
ATOM      7  C   UNL     1      20.338  -3.729  20.160  1.00  0.00     0.019 A 
ATOM      8  C   UNL     1      21.318  -4.235  19.305  1.00  0.00     0.094 A 
ATOM      9  C   UNL     1      20.930  -4.790  18.081  1.00  0.00     0.336 A 
ATOM     10  O   UNL     1      21.800  -5.251  17.298  1.00  0.00    -0.246 OA
ATOM     11  O   UNL     1      19.645  -4.834  17.739  1.00  0.00    -0.423 OA
ENDROOT
BRANCH   3  12
ATOM     12  O   UNL     1      15.000  -4.023  18.505  1.00  0.00    -0.508 OA
ATOM     13  H   UNL     1      14.705  -3.635  17.616  1.00  0.00     0.293 HD
ENDBRANCH   3  12
TORSDOF 1
ENDMDL
MODEL 7
REMARK VINA RESULT:    -5.385      1.867      2.235
REMARK INTER + INTRA:          -5.542
REMARK INTER:                  -5.542
REMARK INTRA:                   0.000
REMARK UNBOUND:                 0.000
REMARK SMILES O=c1ccc2ccc(O)cc2o1
REMARK SMILES IDX 6 1 7 2 8 3 10 4 11 5 5 6 4 7 3 8 2 9 1 10 12 11 9 12
REMARK H PARENT 9 13
REMARK Flexibility Score: inf
ROOT
ATOM      1  C   UNL     1      19.343  -2.135  18.447  1.00  0.00     0.016 A 
ATOM      2  C   UNL     1      19.853  -2.911  17.400  1.00  0.00     0.047 A 
ATOM      3  C   UNL     1      20.828  -3.887  17.653  1.00  0.00     0.119 A 
ATOM      4  C   UNL     1      21.294  -4.087  18.957  1.00  0.00     0.094 A 
ATOM      5  C   UNL     1      20.790  -3.316  20.011  1.00  0.00     0.142 A 
ATOM      6  C   UNL     1      19.808  -2.334  19.754  1.00  0.00     0.018 A 
ATOM      7  C   UNL     1      19.323  -1.579  20.827  1.00  0.00     0.019 A 
ATOM      8  C   UNL     1      19.820  -1.815  22.109  1.00  0.00     0.094 A 
ATOM      9  C   UNL     1      20.792  -2.806  22.288  1.00  0.00     0.336 A 
ATOM     10  O   UNL     1      21.251  -3.033  23.438  1.00  0.00    -0.246 OA
ATOM     11  O   UNL     1      21.235  -3.510  21.250  1.00  0.00    -0.423 OA
ENDROOT
BRANCH   3  12
ATOM     12  O   UNL     1      21.339  -4.663  16.615  1.00  0.00    -0.508 OA
ATOM     13  H   UNL     1      22.198  -4.412  16.140  1.00  0.00     0.293 HD
ENDBRANCH   3  12
TORSDOF 1
ENDMDL
MODEL 8
REMARK VINA RESULT:    -5.347      2.902      3.879
REMARK INTER + INTRA:          -5.503
REMARK INTER:                  -5.503
REMARK INTRA:                   0.000
REMARK UNBOUND:                 0.000
REMARK SMILES O=c1ccc2ccc(O)cc2o1
REMARK SMILES IDX 6 1 7 2 8 3 10 4 11 5 5 6 4 7 3 8 2 9 1 10 12 11 9 12
REMARK H PARENT 9 13
REMARK Flexibility Score: inf
ROOT
ATOM      1  C   UNL     1      16.573  -1.818  18.126  1.00  0.00     0.016 A 
ATOM      2  C   UNL     1      15.510  -2.725  18.187  1.00  0.00     0.047 A 
ATOM      3  C   UNL     1      15.743  -4.066  18.528  1.00  0.00     0.119 A 
ATOM      4  C   UNL     1      17.043  -4.499  18.810  1.00  0.00     0.094 A 
ATOM      5  C   UNL     1      18.113  -3.598  18.752  1.00  0.00     0.142 A 
ATOM      6  C   UNL     1      17.876  -2.249  18.408  1.00  0.00     0.018 A 
ATOM      7  C   UNL     1      18.965  -1.373  18.358  1.00  0.00     0.019 A 
ATOM      8  C   UNL     1      20.243  -1.852  18.647  1.00  0.00     0.094 A 
ATOM      9  C   UNL     1      20.401  -3.202  18.980  1.00  0.00     0.336 A 
ATOM     10  O   UNL     1      21.547  -3.652  19.244  1.00  0.00    -0.246 OA
ATOM     11  O   UNL     1      19.348  -4.014  19.021  1.00  0.00    -0.423 OA
ENDROOT
BRANCH   3  12
ATOM     12  O   UNL     1      14.688  -4.975  18.591  1.00  0.00    -0.508 OA
ATOM     13  H   UNL     1      13.759  -4.689  18.878  1.00  0.00     0.293 HD
ENDBRANCH   3  12
TORSDOF 1
ENDMDL
MODEL 9
REMARK VINA RESULT:    -5.300      2.018      4.593
REMARK INTER + INTRA:          -5.454
REMARK INTER:                  -5.454
REMARK INTRA:                   0.000
REMARK UNBOUND:                 0.000
REMARK SMILES O=c1ccc2ccc(O)cc2o1
REMARK SMILES IDX 6 1 7 2 8 3 10 4 11 5 5 6 4 7 3 8 2 9 1 10 12 11 9 12
REMARK H PARENT 9 13
REMARK Flexibility Score: inf
ROOT
ATOM      1  C   UNL     1      21.368  -0.542  22.499  1.00  0.00     0.016 A 
ATOM      2  C   UNL     1      22.716  -0.917  22.507  1.00  0.00     0.047 A 
ATOM      3  C   UNL     1      23.122  -2.107  21.887  1.00  0.00     0.119 A 
ATOM      4  C   UNL     1      22.177  -2.924  21.256  1.00  0.00     0.094 A 
ATOM      5  C   UNL     1      20.826  -2.557  21.243  1.00  0.00     0.142 A 
ATOM      6  C   UNL     1      20.420  -1.358  21.868  1.00  0.00     0.018 A 
ATOM      7  C   UNL     1      19.064  -1.018  21.838  1.00  0.00     0.019 A 
ATOM      8  C   UNL     1      18.159  -1.865  21.197  1.00  0.00     0.094 A 
ATOM      9  C   UNL     1      18.636  -3.037  20.599  1.00  0.00     0.336 A 
ATOM     10  O   UNL     1      17.835  -3.814  20.016  1.00  0.00    -0.246 OA
ATOM     11  O   UNL     1      19.931  -3.337  20.641  1.00  0.00    -0.423 OA
ENDROOT
BRANCH   3  12
ATOM     12  O   UNL     1      24.463  -2.486  21.891  1.00  0.00    -0.508 OA
ATOM     13  H   UNL     1      25.008  -2.514  21.037  1.00  0.00     0.293 HD
ENDBRANCH   3  12
TORSDOF 1
ENDMDL
