MODEL 1
REMARK VINA RESULT:    -3.559      0.000      0.000
REMARK INTER + INTRA:         -10.134
REMARK INTER:                  -6.888
REMARK INTRA:                  -3.247
REMARK UNBOUND:                -3.247
REMARK SMILES CCCCCCCCCCCCCCCCCC(=O)[O-]
REMARK SMILES IDX 10 1 11 2 12 3 13 4 14 5 15 6 16 7 17 8 18 9 19 10 20 11
REMARK SMILES IDX 9 12 8 13 7 14 6 15 5 16 4 17 3 18 2 19 1 20
REMARK H PARENT
REMARK Flexibility Score: inf
ROOT
ATOM      1  C   UNL     1       3.840  38.344  -8.908  1.00  0.00     0.000 C 
ENDROOT
BRANCH   1   2
ATOM      2  C   UNL     1       2.728  37.287  -8.830  1.00  0.00     0.000 C 
BRANCH   2   3
ATOM      3  C   UNL     1       3.317  35.877  -8.711  1.00  0.00     0.000 C 
BRANCH   3   4
ATOM      4  C   UNL     1       4.809  35.933  -8.351  1.00  0.00     0.000 C 
BRANCH   4   5
ATOM      5  C   UNL     1       5.229  34.821  -7.372  1.00  0.00     0.000 C 
BRANCH   5   6
ATOM      6  C   UNL     1       6.693  34.892  -6.890  1.00  0.00     0.000 C 
BRANCH   6   7
ATOM      7  C   UNL     1       6.986  34.139  -5.580  1.00  0.00     0.006 C 
BRANCH   7   8
ATOM      8  C   UNL     1       6.400  32.721  -5.564  1.00  0.00     0.053 C 
BRANCH   8   9
ATOM      9  C   UNL     1       5.375  32.592  -4.482  1.00  0.00     0.041 C 
ATOM     10  O   UNL     1       4.589  31.609  -4.469  1.00  0.00    -0.550 OA
ATOM     11  O   UNL     1       5.320  33.532  -3.461  1.00  0.00    -0.550 OA
ENDBRANCH   8   9
ENDBRANCH   7   8
ENDBRANCH   6   7
ENDBRANCH   5   6
ENDBRANCH   4   5
ENDBRANCH   3   4
ENDBRANCH   2   3
ENDBRANCH   1   2
BRANCH   1  12
ATOM     12  C   UNL     1       3.483  39.639  -8.163  1.00  0.00     0.000 C 
BRANCH  12  13
ATOM     13  C   UNL     1       4.551  40.047  -7.137  1.00  0.00    -0.000 C 
BRANCH  13  14
ATOM     14  C   UNL     1       5.827  39.210  -7.312  1.00  0.00    -0.000 C 
BRANCH  14  15
ATOM     15  C   UNL     1       6.239  38.469  -6.026  1.00  0.00    -0.000 C 
BRANCH  15  16
ATOM     16  C   UNL     1       5.143  38.386  -4.945  1.00  0.00    -0.000 C 
BRANCH  16  17
ATOM     17  C   UNL     1       4.786  36.959  -4.486  1.00  0.00    -0.000 C 
BRANCH  17  18
ATOM     18  C   UNL     1       3.324  36.539  -4.736  1.00  0.00    -0.000 C 
BRANCH  18  19
ATOM     19  C   UNL     1       2.378  37.688  -5.127  1.00  0.00    -0.003 C 
ATOM     20  C   UNL     1       1.024  37.198  -5.639  1.00  0.00     0.004 C 
ENDBRANCH  18  19
ENDBRANCH  17  18
ENDBRANCH  16  17
ENDBRANCH  15  16
ENDBRANCH  14  15
ENDBRANCH  13  14
ENDBRANCH  12  13
ENDBRANCH   1  12
TORSDOF 16
ENDMDL
MODEL 2
REMARK VINA RESULT:    -3.480      1.938      4.589
REMARK INTER + INTRA:          -9.981
REMARK INTER:                  -7.099
REMARK INTRA:                  -2.882
REMARK UNBOUND:                -3.247
REMARK SMILES CCCCCCCCCCCCCCCCCC(=O)[O-]
REMARK SMILES IDX 10 1 11 2 12 3 13 4 14 5 15 6 16 7 17 8 18 9 19 10 20 11
REMARK SMILES IDX 9 12 8 13 7 14 6 15 5 16 4 17 3 18 2 19 1 20
REMARK H PARENT
REMARK Flexibility Score: inf
ROOT
ATOM      1  C   UNL     1       2.815  38.359  -8.041  1.00  0.00     0.000 C 
ENDROOT
BRANCH   1   2
ATOM      2  C   UNL     1       3.757  39.508  -8.429  1.00  0.00     0.000 C 
BRANCH   2   3
ATOM      3  C   UNL     1       4.537  40.014  -7.209  1.00  0.00     0.000 C 
BRANCH   3   4
ATOM      4  C   UNL     1       5.851  39.238  -7.036  1.00  0.00     0.000 C 
BRANCH   4   5
ATOM      5  C   UNL     1       5.850  38.333  -5.791  1.00  0.00     0.000 C 
BRANCH   5   6
ATOM      6  C   UNL     1       4.663  38.543  -4.829  1.00  0.00     0.000 C 
BRANCH   6   7
ATOM      7  C   UNL     1       3.699  37.349  -4.712  1.00  0.00     0.006 C 
BRANCH   7   8
ATOM      8  C   UNL     1       2.273  37.771  -4.332  1.00  0.00     0.053 C 
BRANCH   8   9
ATOM      9  C   UNL     1       1.310  36.659  -4.607  1.00  0.00     0.041 C 
ATOM     10  O   UNL     1       0.327  36.469  -3.843  1.00  0.00    -0.550 OA
ATOM     11  O   UNL     1       1.471  35.863  -5.735  1.00  0.00    -0.550 OA
ENDBRANCH   8   9
ENDBRANCH   7   8
ENDBRANCH   6   7
ENDBRANCH   5   6
ENDBRANCH   4   5
ENDBRANCH   3   4
ENDBRANCH   2   3
ENDBRANCH   1   2
BRANCH   1  12
ATOM     12  C   UNL     1       3.005  37.112  -8.919  1.00  0.00     0.000 C 
BRANCH  12  13
ATOM     13  C   UNL     1       4.389  36.468  -8.742  1.00  0.00    -0.000 C 
BRANCH  13  14
ATOM     14  C   UNL     1       4.329  35.310  -7.735  1.00  0.00    -0.000 C 
BRANCH  14  15
ATOM     15  C   UNL     1       5.127  34.075  -8.194  1.00  0.00    -0.000 C 
BRANCH  15  16
ATOM     16  C   UNL     1       6.601  34.049  -7.741  1.00  0.00    -0.000 C 
BRANCH  16  17
ATOM     17  C   UNL     1       6.903  34.852  -6.461  1.00  0.00    -0.000 C 
BRANCH  17  18
ATOM     18  C   UNL     1       6.898  34.029  -5.157  1.00  0.00    -0.000 C 
BRANCH  18  19
ATOM     19  C   UNL     1       5.840  34.458  -4.126  1.00  0.00    -0.003 C 
ATOM     20  C   UNL     1       4.488  33.779  -4.342  1.00  0.00     0.004 C 
ENDBRANCH  18  19
ENDBRANCH  17  18
ENDBRANCH  16  17
ENDBRANCH  15  16
ENDBRANCH  14  15
ENDBRANCH  13  14
ENDBRANCH  12  13
ENDBRANCH   1  12
TORSDOF 16
ENDMDL
MODEL 3
REMARK VINA RESULT:    -3.396     12.350     15.334
REMARK INTER + INTRA:          -9.819
REMARK INTER:                  -6.960
REMARK INTRA:                  -2.859
REMARK UNBOUND:                -3.247
REMARK SMILES CCCCCCCCCCCCCCCCCC(=O)[O-]
REMARK SMILES IDX 10 1 11 2 12 3 13 4 14 5 15 6 16 7 17 8 18 9 19 10 20 11
REMARK SMILES IDX 9 12 8 13 7 14 6 15 5 16 4 17 3 18 2 19 1 20
REMARK H PARENT
REMARK Flexibility Score: inf
ROOT
ATOM      1  C   UNL     1       8.566  30.766   9.249  1.00  0.00     0.000 C 
ENDROOT
BRANCH   1   2
ATOM      2  C   UNL     1       8.603  30.493   7.738  1.00  0.00     0.000 C 
BRANCH   2   3
ATOM      3  C   UNL     1       9.903  29.784   7.339  1.00  0.00     0.000 C 
BRANCH   3   4
ATOM      4  C   UNL     1      10.582  30.502   6.164  1.00  0.00     0.000 C 
BRANCH   4   5
ATOM      5  C   UNL     1       9.635  31.464   5.424  1.00  0.00     0.000 C 
BRANCH   5   6
ATOM      6  C   UNL     1       9.323  31.080   3.962  1.00  0.00     0.000 C 
BRANCH   6   7
ATOM      7  C   UNL     1       7.848  30.742   3.678  1.00  0.00     0.006 C 
BRANCH   7   8
ATOM      8  C   UNL     1       6.877  31.499   4.594  1.00  0.00     0.053 C 
BRANCH   8   9
ATOM      9  C   UNL     1       6.120  32.527   3.814  1.00  0.00     0.041 C 
ATOM     10  O   UNL     1       5.291  33.278   4.393  1.00  0.00    -0.550 OA
ATOM     11  O   UNL     1       6.365  32.690   2.456  1.00  0.00    -0.550 OA
ENDBRANCH   8   9
ENDBRANCH   7   8
ENDBRANCH   6   7
ENDBRANCH   5   6
ENDBRANCH   4   5
ENDBRANCH   3   4
ENDBRANCH   2   3
ENDBRANCH   1   2
BRANCH   1  12
ATOM     12  C   UNL     1       9.919  30.513   9.932  1.00  0.00     0.000 C 
BRANCH  12  13
ATOM     13  C   UNL     1      10.492  31.774  10.597  1.00  0.00    -0.000 C 
BRANCH  13  14
ATOM     14  C   UNL     1      11.937  32.025  10.143  1.00  0.00    -0.000 C 
BRANCH  14  15
ATOM     15  C   UNL     1      12.026  32.615   8.723  1.00  0.00    -0.000 C 
BRANCH  15  16
ATOM     16  C   UNL     1      11.360  33.995   8.551  1.00  0.00    -0.000 C 
BRANCH  16  17
ATOM     17  C   UNL     1      10.107  34.008   7.655  1.00  0.00    -0.000 C 
BRANCH  17  18
ATOM     18  C   UNL     1       8.773  34.215   8.400  1.00  0.00    -0.000 C 
BRANCH  18  19
ATOM     19  C   UNL     1       7.513  33.939   7.560  1.00  0.00    -0.003 C 
ATOM     20  C   UNL     1       6.320  34.799   7.975  1.00  0.00     0.004 C 
ENDBRANCH  18  19
ENDBRANCH  17  18
ENDBRANCH  16  17
ENDBRANCH  15  16
ENDBRANCH  14  15
ENDBRANCH  13  14
ENDBRANCH  12  13
ENDBRANCH   1  12
TORSDOF 16
ENDMDL
MODEL 4
REMARK VINA RESULT:    -3.348     12.501     15.385
REMARK INTER + INTRA:          -9.727
REMARK INTER:                  -7.211
REMARK INTRA:                  -2.516
REMARK UNBOUND:                -3.247
REMARK SMILES CCCCCCCCCCCCCCCCCC(=O)[O-]
REMARK SMILES IDX 10 1 11 2 12 3 13 4 14 5 15 6 16 7 17 8 18 9 19 10 20 11
REMARK SMILES IDX 9 12 8 13 7 14 6 15 5 16 4 17 3 18 2 19 1 20
REMARK H PARENT
REMARK Flexibility Score: inf
ROOT
ATOM      1  C   UNL     1       8.556  30.217   7.452  1.00  0.00     0.000 C 
ENDROOT
BRANCH   1   2
ATOM      2  C   UNL     1       9.985  29.856   7.020  1.00  0.00     0.000 C 
BRANCH   2   3
ATOM      3  C   UNL     1      10.452  30.749   5.865  1.00  0.00     0.000 C 
BRANCH   3   4
ATOM      4  C   UNL     1       9.254  31.320   5.092  1.00  0.00     0.000 C 
BRANCH   4   5
ATOM      5  C   UNL     1       9.117  30.725   3.679  1.00  0.00     0.000 C 
BRANCH   5   6
ATOM      6  C   UNL     1       8.713  29.236   3.631  1.00  0.00     0.000 C 
BRANCH   6   7
ATOM      7  C   UNL     1       8.532  28.654   2.218  1.00  0.00     0.006 C 
BRANCH   7   8
ATOM      8  C   UNL     1       8.862  27.158   2.143  1.00  0.00     0.053 C 
BRANCH   8   9
ATOM      9  C   UNL     1       9.920  26.908   1.116  1.00  0.00     0.041 C 
ATOM     10  O   UNL     1      10.550  27.873   0.608  1.00  0.00    -0.550 OA
ATOM     11  O   UNL     1      10.246  25.606   0.755  1.00  0.00    -0.550 OA
ENDBRANCH   8   9
ENDBRANCH   7   8
ENDBRANCH   6   7
ENDBRANCH   5   6
ENDBRANCH   4   5
ENDBRANCH   3   4
ENDBRANCH   2   3
ENDBRANCH   1   2
BRANCH   1  12
ATOM     12  C   UNL     1       8.354  30.128   8.972  1.00  0.00     0.000 C 
BRANCH  12  13
ATOM     13  C   UNL     1       9.673  30.239   9.753  1.00  0.00    -0.000 C 
BRANCH  13  14
ATOM     14  C   UNL     1       9.650  31.448  10.699  1.00  0.00    -0.000 C 
BRANCH  14  15
ATOM     15  C   UNL     1      10.869  32.371  10.522  1.00  0.00    -0.000 C 
BRANCH  15  16
ATOM     16  C   UNL     1      11.586  32.247   9.162  1.00  0.00    -0.000 C 
BRANCH  16  17
ATOM     17  C   UNL     1      11.377  33.436   8.204  1.00  0.00    -0.000 C 
BRANCH  17  18
ATOM     18  C   UNL     1      10.139  34.307   8.503  1.00  0.00    -0.000 C 
BRANCH  18  19
ATOM     19  C   UNL     1       8.850  33.865   7.788  1.00  0.00    -0.003 C 
ATOM     20  C   UNL     1       7.629  33.865   8.708  1.00  0.00     0.004 C 
ENDBRANCH  18  19
ENDBRANCH  17  18
ENDBRANCH  16  17
ENDBRANCH  15  16
ENDBRANCH  14  15
ENDBRANCH  13  14
ENDBRANCH  12  13
ENDBRANCH   1  12
TORSDOF 16
ENDMDL
MODEL 5
REMARK VINA RESULT:    -3.345      1.400      2.923
REMARK INTER + INTRA:          -9.720
REMARK INTER:                  -7.208
REMARK INTRA:                  -2.512
REMARK UNBOUND:                -3.247
REMARK SMILES CCCCCCCCCCCCCCCCCC(=O)[O-]
REMARK SMILES IDX 10 1 11 2 12 3 13 4 14 5 15 6 16 7 17 8 18 9 19 10 20 11
REMARK SMILES IDX 9 12 8 13 7 14 6 15 5 16 4 17 3 18 2 19 1 20
REMARK H PARENT
REMARK Flexibility Score: inf
ROOT
ATOM      1  C   UNL     1       6.276  38.615  -6.271  1.00  0.00     0.000 C 
ENDROOT
BRANCH   1   2
ATOM      2  C   UNL     1       5.317  38.137  -5.170  1.00  0.00     0.000 C 
BRANCH   2   3
ATOM      3  C   UNL     1       5.304  36.606  -5.080  1.00  0.00     0.000 C 
BRANCH   3   4
ATOM      4  C   UNL     1       5.568  35.972  -6.453  1.00  0.00     0.000 C 
BRANCH   4   5
ATOM      5  C   UNL     1       6.719  34.950  -6.428  1.00  0.00     0.000 C 
BRANCH   5   6
ATOM      6  C   UNL     1       6.810  34.097  -5.146  1.00  0.00     0.000 C 
BRANCH   6   7
ATOM      7  C   UNL     1       5.699  33.045  -4.982  1.00  0.00     0.006 C 
BRANCH   7   8
ATOM      8  C   UNL     1       4.956  33.166  -3.645  1.00  0.00     0.053 C 
BRANCH   8   9
ATOM      9  C   UNL     1       3.518  33.508  -3.877  1.00  0.00     0.041 C 
ATOM     10  O   UNL     1       2.715  33.556  -2.908  1.00  0.00    -0.550 OA
ATOM     11  O   UNL     1       3.075  33.820  -5.156  1.00  0.00    -0.550 OA
ENDBRANCH   8   9
ENDBRANCH   7   8
ENDBRANCH   6   7
ENDBRANCH   5   6
ENDBRANCH   4   5
ENDBRANCH   3   4
ENDBRANCH   2   3
ENDBRANCH   1   2
BRANCH   1  12
ATOM     12  C   UNL     1       5.624  39.622  -7.230  1.00  0.00     0.000 C 
BRANCH  12  13
ATOM     13  C   UNL     1       4.090  39.535  -7.228  1.00  0.00    -0.000 C 
BRANCH  13  14
ATOM     14  C   UNL     1       3.568  39.031  -8.581  1.00  0.00    -0.000 C 
BRANCH  14  15
ATOM     15  C   UNL     1       2.314  38.146  -8.448  1.00  0.00    -0.000 C 
BRANCH  15  16
ATOM     16  C   UNL     1       2.245  37.307  -7.157  1.00  0.00    -0.000 C 
BRANCH  16  17
ATOM     17  C   UNL     1       1.221  37.797  -6.115  1.00  0.00    -0.000 C 
BRANCH  17  18
ATOM     18  C   UNL     1       1.790  38.038  -4.702  1.00  0.00    -0.000 C 
BRANCH  18  19
ATOM     19  C   UNL     1       1.598  36.869  -3.719  1.00  0.00    -0.003 C 
ATOM     20  C   UNL     1       0.331  36.060  -3.996  1.00  0.00     0.004 C 
ENDBRANCH  18  19
ENDBRANCH  17  18
ENDBRANCH  16  17
ENDBRANCH  15  16
ENDBRANCH  14  15
ENDBRANCH  13  14
ENDBRANCH  12  13
ENDBRANCH   1  12
TORSDOF 16
ENDMDL
MODEL 6
REMARK VINA RESULT:    -3.298      1.676      2.805
REMARK INTER + INTRA:          -9.629
REMARK INTER:                  -6.303
REMARK INTRA:                  -3.326
REMARK UNBOUND:                -3.247
REMARK SMILES CCCCCCCCCCCCCCCCCC(=O)[O-]
REMARK SMILES IDX 10 1 11 2 12 3 13 4 14 5 15 6 16 7 17 8 18 9 19 10 20 11
REMARK SMILES IDX 9 12 8 13 7 14 6 15 5 16 4 17 3 18 2 19 1 20
REMARK H PARENT
REMARK Flexibility Score: inf
ROOT
ATOM      1  C   UNL     1       4.195  39.765  -7.512  1.00  0.00     0.000 C 
ENDROOT
BRANCH   1   2
ATOM      2  C   UNL     1       3.691  38.687  -8.483  1.00  0.00     0.000 C 
BRANCH   2   3
ATOM      3  C   UNL     1       2.496  37.930  -7.890  1.00  0.00     0.000 C 
BRANCH   3   4
ATOM      4  C   UNL     1       2.728  36.412  -7.942  1.00  0.00     0.000 C 
BRANCH   4   5
ATOM      5  C   UNL     1       4.128  36.038  -8.459  1.00  0.00     0.000 C 
BRANCH   5   6
ATOM      6  C   UNL     1       4.803  34.858  -7.729  1.00  0.00     0.000 C 
BRANCH   6   7
ATOM      7  C   UNL     1       6.235  35.130  -7.236  1.00  0.00     0.006 C 
BRANCH   7   8
ATOM      8  C   UNL     1       6.642  34.227  -6.064  1.00  0.00     0.053 C 
BRANCH   8   9
ATOM      9  C   UNL     1       6.969  32.852  -6.554  1.00  0.00     0.041 C 
ATOM     10  O   UNL     1       6.628  31.842  -5.884  1.00  0.00    -0.550 OA
ATOM     11  O   UNL     1       7.609  32.683  -7.776  1.00  0.00    -0.550 OA
ENDBRANCH   8   9
ENDBRANCH   7   8
ENDBRANCH   6   7
ENDBRANCH   5   6
ENDBRANCH   4   5
ENDBRANCH   3   4
ENDBRANCH   2   3
ENDBRANCH   1   2
BRANCH   1  12
ATOM     12  C   UNL     1       5.692  39.624  -7.193  1.00  0.00     0.000 C 
BRANCH  12  13
ATOM     13  C   UNL     1       5.997  38.401  -6.314  1.00  0.00    -0.000 C 
BRANCH  13  14
ATOM     14  C   UNL     1       5.210  38.462  -4.998  1.00  0.00    -0.000 C 
BRANCH  14  15
ATOM     15  C   UNL     1       4.487  37.142  -4.671  1.00  0.00    -0.000 C 
BRANCH  15  16
ATOM     16  C   UNL     1       2.990  37.289  -4.332  1.00  0.00    -0.000 C 
BRANCH  16  17
ATOM     17  C   UNL     1       2.200  35.967  -4.281  1.00  0.00    -0.000 C 
BRANCH  17  18
ATOM     18  C   UNL     1       3.043  34.693  -4.496  1.00  0.00    -0.000 C 
BRANCH  18  19
ATOM     19  C   UNL     1       2.314  33.552  -5.227  1.00  0.00    -0.003 C 
ATOM     20  C   UNL     1       3.212  32.343  -5.488  1.00  0.00     0.004 C 
ENDBRANCH  18  19
ENDBRANCH  17  18
ENDBRANCH  16  17
ENDBRANCH  15  16
ENDBRANCH  14  15
ENDBRANCH  13  14
ENDBRANCH  12  13
ENDBRANCH   1  12
TORSDOF 16
ENDMDL
MODEL 7
REMARK VINA RESULT:    -3.252      1.534      3.087
REMARK INTER + INTRA:          -9.540
REMARK INTER:                  -6.606
REMARK INTRA:                  -2.934
REMARK UNBOUND:                -3.247
REMARK SMILES CCCCCCCCCCCCCCCCCC(=O)[O-]
REMARK SMILES IDX 10 1 11 2 12 3 13 4 14 5 15 6 16 7 17 8 18 9 19 10 20 11
REMARK SMILES IDX 9 12 8 13 7 14 6 15 5 16 4 17 3 18 2 19 1 20
REMARK H PARENT
REMARK Flexibility Score: inf
ROOT
ATOM      1  C   UNL     1       5.012  37.422  -4.617  1.00  0.00     0.000 C 
ENDROOT
BRANCH   1   2
ATOM      2  C   UNL     1       5.143  35.979  -5.126  1.00  0.00     0.000 C 
BRANCH   2   3
ATOM      3  C   UNL     1       5.538  35.953  -6.608  1.00  0.00     0.000 C 
BRANCH   3   4
ATOM      4  C   UNL     1       6.811  35.120  -6.823  1.00  0.00     0.000 C 
BRANCH   4   5
ATOM      5  C   UNL     1       7.016  34.051  -5.735  1.00  0.00     0.000 C 
BRANCH   5   6
ATOM      6  C   UNL     1       6.803  32.595  -6.200  1.00  0.00     0.000 C 
BRANCH   6   7
ATOM      7  C   UNL     1       5.920  31.738  -5.276  1.00  0.00     0.006 C 
BRANCH   7   8
ATOM      8  C   UNL     1       4.494  32.287  -5.137  1.00  0.00     0.053 C 
BRANCH   8   9
ATOM      9  C   UNL     1       3.785  32.237  -6.454  1.00  0.00     0.041 C 
ATOM     10  O   UNL     1       3.232  33.270  -6.916  1.00  0.00    -0.550 OA
ATOM     11  O   UNL     1       3.776  31.061  -7.194  1.00  0.00    -0.550 OA
ENDBRANCH   8   9
ENDBRANCH   7   8
ENDBRANCH   6   7
ENDBRANCH   5   6
ENDBRANCH   4   5
ENDBRANCH   3   4
ENDBRANCH   2   3
ENDBRANCH   1   2
BRANCH   1  12
ATOM     12  C   UNL     1       5.601  38.453  -5.592  1.00  0.00     0.000 C 
BRANCH  12  13
ATOM     13  C   UNL     1       4.554  39.457  -6.097  1.00  0.00    -0.000 C 
BRANCH  13  14
ATOM     14  C   UNL     1       4.693  39.681  -7.609  1.00  0.00    -0.000 C 
BRANCH  14  15
ATOM     15  C   UNL     1       3.875  38.675  -8.441  1.00  0.00    -0.000 C 
BRANCH  15  16
ATOM     16  C   UNL     1       2.485  38.336  -7.867  1.00  0.00    -0.000 C 
BRANCH  16  17
ATOM     17  C   UNL     1       2.177  36.831  -7.751  1.00  0.00    -0.000 C 
BRANCH  17  18
ATOM     18  C   UNL     1       1.711  36.364  -6.357  1.00  0.00    -0.000 C 
BRANCH  18  19
ATOM     19  C   UNL     1       1.380  37.500  -5.372  1.00  0.00    -0.003 C 
ATOM     20  C   UNL     1       1.408  37.049  -3.912  1.00  0.00     0.004 C 
ENDBRANCH  18  19
ENDBRANCH  17  18
ENDBRANCH  16  17
ENDBRANCH  15  16
ENDBRANCH  14  15
ENDBRANCH  13  14
ENDBRANCH  12  13
ENDBRANCH   1  12
TORSDOF 16
ENDMDL
MODEL 8
REMARK VINA RESULT:    -3.249      1.873      2.873
REMARK INTER + INTRA:          -9.535
REMARK INTER:                  -7.242
REMARK INTRA:                  -2.293
REMARK UNBOUND:                -3.247
REMARK SMILES CCCCCCCCCCCCCCCCCC(=O)[O-]
REMARK SMILES IDX 10 1 11 2 12 3 13 4 14 5 15 6 16 7 17 8 18 9 19 10 20 11
REMARK SMILES IDX 9 12 8 13 7 14 6 15 5 16 4 17 3 18 2 19 1 20
REMARK H PARENT
REMARK Flexibility Score: inf
ROOT
ATOM      1  C   UNL     1       4.523  39.834  -7.215  1.00  0.00     0.000 C 
ENDROOT
BRANCH   1   2
ATOM      2  C   UNL     1       3.720  39.421  -8.457  1.00  0.00     0.000 C 
BRANCH   2   3
ATOM      3  C   UNL     1       2.959  38.113  -8.210  1.00  0.00     0.000 C 
BRANCH   3   4
ATOM      4  C   UNL     1       3.783  36.902  -8.674  1.00  0.00     0.000 C 
BRANCH   4   5
ATOM      5  C   UNL     1       3.269  35.572  -8.093  1.00  0.00     0.000 C 
BRANCH   5   6
ATOM      6  C   UNL     1       4.315  34.754  -7.308  1.00  0.00     0.000 C 
BRANCH   6   7
ATOM      7  C   UNL     1       5.687  34.621  -7.992  1.00  0.00     0.006 C 
BRANCH   7   8
ATOM      8  C   UNL     1       6.858  34.774  -7.012  1.00  0.00     0.053 C 
BRANCH   8   9
ATOM      9  C   UNL     1       6.793  33.720  -5.953  1.00  0.00     0.041 C 
ATOM     10  O   UNL     1       6.642  34.043  -4.745  1.00  0.00    -0.550 OA
ATOM     11  O   UNL     1       6.849  32.376  -6.304  1.00  0.00    -0.550 OA
ENDBRANCH   8   9
ENDBRANCH   7   8
ENDBRANCH   6   7
ENDBRANCH   5   6
ENDBRANCH   4   5
ENDBRANCH   3   4
ENDBRANCH   2   3
ENDBRANCH   1   2
BRANCH   1  12
ATOM     12  C   UNL     1       5.961  39.292  -7.230  1.00  0.00     0.000 C 
BRANCH  12  13
ATOM     13  C   UNL     1       6.180  38.164  -6.210  1.00  0.00    -0.000 C 
BRANCH  13  14
ATOM     14  C   UNL     1       5.284  38.359  -4.978  1.00  0.00    -0.000 C 
BRANCH  14  15
ATOM     15  C   UNL     1       4.556  37.069  -4.557  1.00  0.00    -0.000 C 
BRANCH  15  16
ATOM     16  C   UNL     1       3.022  37.112  -4.704  1.00  0.00    -0.000 C 
BRANCH  16  17
ATOM     17  C   UNL     1       2.254  36.104  -3.826  1.00  0.00    -0.000 C 
BRANCH  17  18
ATOM     18  C   UNL     1       1.127  36.711  -2.967  1.00  0.00    -0.000 C 
BRANCH  18  19
ATOM     19  C   UNL     1       0.613  35.800  -1.838  1.00  0.00    -0.003 C 
ATOM     20  C   UNL     1       0.449  36.535  -0.508  1.00  0.00     0.004 C 
ENDBRANCH  18  19
ENDBRANCH  17  18
ENDBRANCH  16  17
ENDBRANCH  15  16
ENDBRANCH  14  15
ENDBRANCH  13  14
ENDBRANCH  12  13
ENDBRANCH   1  12
TORSDOF 16
ENDMDL
MODEL 9
REMARK VINA RESULT:    -3.249      1.494      3.104
REMARK INTER + INTRA:          -9.534
REMARK INTER:                  -6.438
REMARK INTRA:                  -3.096
REMARK UNBOUND:                -3.247
REMARK SMILES CCCCCCCCCCCCCCCCCC(=O)[O-]
REMARK SMILES IDX 10 1 11 2 12 3 13 4 14 5 15 6 16 7 17 8 18 9 19 10 20 11
REMARK SMILES IDX 9 12 8 13 7 14 6 15 5 16 4 17 3 18 2 19 1 20
REMARK H PARENT
REMARK Flexibility Score: inf
ROOT
ATOM      1  C   UNL     1       5.500  36.839  -5.401  1.00  0.00     0.000 C 
ENDROOT
BRANCH   1   2
ATOM      2  C   UNL     1       6.174  36.226  -6.637  1.00  0.00     0.000 C 
BRANCH   2   3
ATOM      3  C   UNL     1       6.803  34.868  -6.303  1.00  0.00     0.000 C 
BRANCH   3   4
ATOM      4  C   UNL     1       6.567  33.859  -7.437  1.00  0.00     0.000 C 
BRANCH   4   5
ATOM      5  C   UNL     1       5.375  34.237  -8.335  1.00  0.00     0.000 C 
BRANCH   5   6
ATOM      6  C   UNL     1       4.243  33.191  -8.396  1.00  0.00     0.000 C 
BRANCH   6   7
ATOM      7  C   UNL     1       3.670  32.771  -7.031  1.00  0.00     0.006 C 
BRANCH   7   8
ATOM      8  C   UNL     1       3.152  33.960  -6.211  1.00  0.00     0.053 C 
BRANCH   8   9
ATOM      9  C   UNL     1       3.511  33.795  -4.768  1.00  0.00     0.041 C 
ATOM     10  O   UNL     1       4.465  33.044  -4.435  1.00  0.00    -0.550 OA
ATOM     11  O   UNL     1       2.822  34.508  -3.794  1.00  0.00    -0.550 OA
ENDBRANCH   8   9
ENDBRANCH   7   8
ENDBRANCH   6   7
ENDBRANCH   5   6
ENDBRANCH   4   5
ENDBRANCH   3   4
ENDBRANCH   2   3
ENDBRANCH   1   2
BRANCH   1  12
ATOM     12  C   UNL     1       5.524  38.375  -5.411  1.00  0.00     0.000 C 
BRANCH  12  13
ATOM     13  C   UNL     1       5.836  38.954  -6.799  1.00  0.00    -0.000 C 
BRANCH  13  14
ATOM     14  C   UNL     1       4.820  40.039  -7.181  1.00  0.00    -0.000 C 
BRANCH  14  15
ATOM     15  C   UNL     1       3.884  39.608  -8.326  1.00  0.00    -0.000 C 
BRANCH  15  16
ATOM     16  C   UNL     1       3.935  38.108  -8.676  1.00  0.00    -0.000 C 
BRANCH  16  17
ATOM     17  C   UNL     1       2.804  37.257  -8.066  1.00  0.00    -0.000 C 
BRANCH  17  18
ATOM     18  C   UNL     1       1.907  37.994  -7.051  1.00  0.00    -0.000 C 
BRANCH  18  19
ATOM     19  C   UNL     1       1.619  37.214  -5.756  1.00  0.00    -0.003 C 
ATOM     20  C   UNL     1       2.018  37.982  -4.497  1.00  0.00     0.004 C 
ENDBRANCH  18  19
ENDBRANCH  17  18
ENDBRANCH  16  17
ENDBRANCH  15  16
ENDBRANCH  14  15
ENDBRANCH  13  14
ENDBRANCH  12  13
ENDBRANCH   1  12
TORSDOF 16
ENDMDL
