MODEL 1
REMARK VINA RESULT:    25.686      0.000      0.000
REMARK INTER + INTRA:          31.471
REMARK INTER:                  31.692
REMARK INTRA:                  -0.221
REMARK UNBOUND:                -0.221
REMARK SMILES Oc1cc(O)c2cc(O)c(-c3cc(O)c(O)c(O)c3)[o+]c2c1
REMARK SMILES IDX 10 1 20 2 21 3 22 4 2 5 3 6 4 7 6 8 7 9 8 10 11 11 12 12
REMARK SMILES IDX 13 13 19 14 15 15 17 16 14 17 16 19 18 21 9 23 1 25 5 27
REMARK H PARENT 14 18 16 20 18 22 9 24 1 26 5 28
REMARK Flexibility Score: inf
ROOT
ATOM      1  C   UNL     1      -3.956   2.538  14.254  1.00  0.00     0.402 A 
ATOM      2  O   UNL     1      -4.932   3.288  13.750  1.00  0.00    -0.202 OA
ATOM      3  C   UNL     1      -5.936   3.765  14.481  1.00  0.00     0.368 A 
ATOM      4  C   UNL     1      -6.918   4.543  13.861  1.00  0.00     0.162 A 
ATOM      5  C   UNL     1      -7.985   5.054  14.603  1.00  0.00     0.128 A 
ATOM      6  C   UNL     1      -8.073   4.785  15.971  1.00  0.00     0.093 A 
ATOM      7  C   UNL     1      -7.102   4.008  16.616  1.00  0.00     0.136 A 
ATOM      8  C   UNL     1      -6.014   3.489  15.866  1.00  0.00     0.125 A 
ATOM      9  C   UNL     1      -4.989   2.713  16.430  1.00  0.00     0.078 A 
ATOM     10  C   UNL     1      -3.946   2.240  15.629  1.00  0.00     0.223 A 
ENDROOT
BRANCH   1  11
ATOM     11  C   UNL     1      -2.897   2.058  13.335  1.00  0.00     0.091 A 
ATOM     12  C   UNL     1      -2.140   2.990  12.609  1.00  0.00     0.068 A 
ATOM     13  C   UNL     1      -1.147   2.562  11.719  1.00  0.00     0.162 A 
ATOM     14  C   UNL     1      -2.672   0.686  13.132  1.00  0.00     0.068 A 
ATOM     15  C   UNL     1      -0.912   1.193  11.535  1.00  0.00     0.200 A 
ATOM     16  C   UNL     1      -1.680   0.251  12.241  1.00  0.00     0.162 A 
BRANCH  13  17
ATOM     17  O   UNL     1      -0.387   3.491  11.011  1.00  0.00    -0.504 OA
ATOM     18  H   UNL     1      -0.057   4.347  11.443  1.00  0.00     0.293 HD
ENDBRANCH  13  17
BRANCH  15  19
ATOM     19  O   UNL     1       0.083   0.785  10.647  1.00  0.00    -0.502 OA
ATOM     20  H   UNL     1       0.143  -0.167  10.305  1.00  0.00     0.293 HD
ENDBRANCH  15  19
BRANCH  16  21
ATOM     21  O   UNL     1      -1.460  -1.112  12.051  1.00  0.00    -0.504 OA
ATOM     22  H   UNL     1      -0.850  -1.643  12.662  1.00  0.00     0.293 HD
ENDBRANCH  16  21
ENDBRANCH   1  11
BRANCH  10  23
ATOM     23  O   UNL     1      -2.902   1.511  16.198  1.00  0.00    -0.500 OA
ATOM     24  H   UNL     1      -3.021   0.548  16.489  1.00  0.00     0.294 HD
ENDBRANCH  10  23
BRANCH   5  25
ATOM     25  O   UNL     1      -8.968   5.830  13.993  1.00  0.00    -0.507 OA
ATOM     26  H   UNL     1      -9.915   5.864  14.351  1.00  0.00     0.293 HD
ENDBRANCH   5  25
BRANCH   7  27
ATOM     27  O   UNL     1      -7.263   3.783  17.987  1.00  0.00    -0.507 OA
ATOM     28  H   UNL     1      -7.821   4.361  18.598  1.00  0.00     0.293 HD
ENDBRANCH   7  27
TORSDOF 7
ENDMDL
MODEL 2
REMARK VINA RESULT:    25.772      1.676      6.945
REMARK INTER + INTRA:          31.578
REMARK INTER:                  31.960
REMARK INTRA:                  -0.382
REMARK UNBOUND:                -0.221
REMARK SMILES Oc1cc(O)c2cc(O)c(-c3cc(O)c(O)c(O)c3)[o+]c2c1
REMARK SMILES IDX 10 1 20 2 21 3 22 4 2 5 3 6 4 7 6 8 7 9 8 10 11 11 12 12
REMARK SMILES IDX 13 13 19 14 15 15 17 16 14 17 16 19 18 21 9 23 1 25 5 27
REMARK H PARENT 14 18 16 20 18 22 9 24 1 26 5 28
REMARK Flexibility Score: inf
ROOT
ATOM      1  C   UNL     1      -5.572   3.506  15.315  1.00  0.00     0.402 A 
ATOM      2  O   UNL     1      -4.833   3.006  14.328  1.00  0.00    -0.202 OA
ATOM      3  C   UNL     1      -3.930   2.047  14.508  1.00  0.00     0.368 A 
ATOM      4  C   UNL     1      -3.198   1.587  13.409  1.00  0.00     0.162 A 
ATOM      5  C   UNL     1      -2.241   0.583  13.570  1.00  0.00     0.128 A 
ATOM      6  C   UNL     1      -2.011   0.037  14.835  1.00  0.00     0.093 A 
ATOM      7  C   UNL     1      -2.730   0.480  15.952  1.00  0.00     0.136 A 
ATOM      8  C   UNL     1      -3.707   1.498  15.793  1.00  0.00     0.125 A 
ATOM      9  C   UNL     1      -4.483   1.995  16.852  1.00  0.00     0.078 A 
ATOM     10  C   UNL     1      -5.430   2.996  16.618  1.00  0.00     0.223 A 
ENDROOT
BRANCH   1  11
ATOM     11  C   UNL     1      -6.540   4.580  14.989  1.00  0.00     0.091 A 
ATOM     12  C   UNL     1      -7.804   4.240  14.483  1.00  0.00     0.068 A 
ATOM     13  C   UNL     1      -8.729   5.237  14.149  1.00  0.00     0.162 A 
ATOM     14  C   UNL     1      -6.198   5.937  15.122  1.00  0.00     0.068 A 
ATOM     15  C   UNL     1      -8.392   6.587  14.303  1.00  0.00     0.200 A 
ATOM     16  C   UNL     1      -7.120   6.939  14.787  1.00  0.00     0.162 A 
BRANCH  13  17
ATOM     17  O   UNL     1      -9.989   4.894  13.661  1.00  0.00    -0.504 OA
ATOM     18  H   UNL     1     -10.761   5.550  13.677  1.00  0.00     0.293 HD
ENDBRANCH  13  17
BRANCH  15  19
ATOM     19  O   UNL     1      -9.327   7.567  13.968  1.00  0.00    -0.502 OA
ATOM     20  H   UNL     1      -9.080   8.382  13.419  1.00  0.00     0.293 HD
ENDBRANCH  15  19
BRANCH  16  21
ATOM     21  O   UNL     1      -6.774   8.282  14.928  1.00  0.00    -0.504 OA
ATOM     22  H   UNL     1      -5.816   8.598  14.825  1.00  0.00     0.293 HD
ENDBRANCH  16  21
ENDBRANCH   1  11
BRANCH  10  23
ATOM     23  O   UNL     1      -6.236   3.455  17.660  1.00  0.00    -0.500 OA
ATOM     24  H   UNL     1      -7.177   3.793  17.497  1.00  0.00     0.294 HD
ENDBRANCH  10  23
BRANCH   5  25
ATOM     25  O   UNL     1      -1.508   0.119  12.479  1.00  0.00    -0.507 OA
ATOM     26  H   UNL     1      -0.508  -0.033  12.539  1.00  0.00     0.293 HD
ENDBRANCH   5  25
BRANCH   7  27
ATOM     27  O   UNL     1      -2.439  -0.115  17.183  1.00  0.00    -0.507 OA
ATOM     28  H   UNL     1      -1.970  -1.002  17.291  1.00  0.00     0.293 HD
ENDBRANCH   7  27
TORSDOF 7
ENDMDL
MODEL 3
REMARK VINA RESULT:    26.558      2.306      4.282
REMARK INTER + INTRA:          32.548
REMARK INTER:                  32.870
REMARK INTRA:                  -0.322
REMARK UNBOUND:                -0.221
REMARK SMILES Oc1cc(O)c2cc(O)c(-c3cc(O)c(O)c(O)c3)[o+]c2c1
REMARK SMILES IDX 10 1 20 2 21 3 22 4 2 5 3 6 4 7 6 8 7 9 8 10 11 11 12 12
REMARK SMILES IDX 13 13 19 14 15 15 17 16 14 17 16 19 18 21 9 23 1 25 5 27
REMARK H PARENT 14 18 16 20 18 22 9 24 1 26 5 28
REMARK Flexibility Score: inf
ROOT
ATOM      1  C   UNL     1      -5.734   4.071  14.777  1.00  0.00     0.402 A 
ATOM      2  O   UNL     1      -5.482   5.242  15.359  1.00  0.00    -0.202 OA
ATOM      3  C   UNL     1      -6.288   6.293  15.258  1.00  0.00     0.368 A 
ATOM      4  C   UNL     1      -5.937   7.484  15.902  1.00  0.00     0.162 A 
ATOM      5  C   UNL     1      -6.764   8.606  15.811  1.00  0.00     0.128 A 
ATOM      6  C   UNL     1      -7.947   8.540  15.071  1.00  0.00     0.093 A 
ATOM      7  C   UNL     1      -8.321   7.360  14.415  1.00  0.00     0.136 A 
ATOM      8  C   UNL     1      -7.486   6.216  14.508  1.00  0.00     0.125 A 
ATOM      9  C   UNL     1      -7.787   4.989  13.896  1.00  0.00     0.078 A 
ATOM     10  C   UNL     1      -6.917   3.904  14.035  1.00  0.00     0.223 A 
ENDROOT
BRANCH   1  11
ATOM     11  C   UNL     1      -4.752   2.976  14.956  1.00  0.00     0.091 A 
ATOM     12  C   UNL     1      -4.608   2.378  16.217  1.00  0.00     0.068 A 
ATOM     13  C   UNL     1      -3.673   1.354  16.417  1.00  0.00     0.162 A 
ATOM     14  C   UNL     1      -3.921   2.560  13.902  1.00  0.00     0.068 A 
ATOM     15  C   UNL     1      -2.861   0.928  15.358  1.00  0.00     0.200 A 
ATOM     16  C   UNL     1      -2.982   1.537  14.096  1.00  0.00     0.162 A 
BRANCH  13  17
ATOM     17  O   UNL     1      -3.543   0.752  17.668  1.00  0.00    -0.504 OA
ATOM     18  H   UNL     1      -4.217   0.915  18.406  1.00  0.00     0.293 HD
ENDBRANCH  13  17
BRANCH  15  19
ATOM     19  O   UNL     1      -1.938  -0.095  15.574  1.00  0.00    -0.502 OA
ATOM     20  H   UNL     1      -2.055  -1.020  15.177  1.00  0.00     0.293 HD
ENDBRANCH  15  19
BRANCH  16  21
ATOM     21  O   UNL     1      -2.166   1.127  13.043  1.00  0.00    -0.504 OA
ATOM     22  H   UNL     1      -2.451   0.395  12.403  1.00  0.00     0.293 HD
ENDBRANCH  16  21
ENDBRANCH   1  11
BRANCH  10  23
ATOM     23  O   UNL     1      -7.240   2.670  13.469  1.00  0.00    -0.500 OA
ATOM     24  H   UNL     1      -7.991   2.573  12.797  1.00  0.00     0.294 HD
ENDBRANCH  10  23
BRANCH   5  25
ATOM     25  O   UNL     1      -6.421   9.794  16.451  1.00  0.00    -0.507 OA
ATOM     26  H   UNL     1      -6.241   9.826  17.448  1.00  0.00     0.293 HD
ENDBRANCH   5  25
BRANCH   7  27
ATOM     27  O   UNL     1      -9.518   7.376  13.693  1.00  0.00    -0.507 OA
ATOM     28  H   UNL     1     -10.349   7.875  13.977  1.00  0.00     0.293 HD
ENDBRANCH   7  27
TORSDOF 7
ENDMDL
MODEL 4
REMARK VINA RESULT:    26.667      2.376      7.188
REMARK INTER + INTRA:          32.682
REMARK INTER:                  32.978
REMARK INTRA:                  -0.297
REMARK UNBOUND:                -0.221
REMARK SMILES Oc1cc(O)c2cc(O)c(-c3cc(O)c(O)c(O)c3)[o+]c2c1
REMARK SMILES IDX 10 1 20 2 21 3 22 4 2 5 3 6 4 7 6 8 7 9 8 10 11 11 12 12
REMARK SMILES IDX 13 13 19 14 15 15 17 16 14 17 16 19 18 21 9 23 1 25 5 27
REMARK H PARENT 14 18 16 20 18 22 9 24 1 26 5 28
REMARK Flexibility Score: inf
ROOT
ATOM      1  C   UNL     1      -6.102   5.078  15.443  1.00  0.00     0.402 A 
ATOM      2  O   UNL     1      -5.317   4.546  14.509  1.00  0.00    -0.202 OA
ATOM      3  C   UNL     1      -4.643   3.413  14.683  1.00  0.00     0.368 A 
ATOM      4  C   UNL     1      -3.840   2.934  13.644  1.00  0.00     0.162 A 
ATOM      5  C   UNL     1      -3.117   1.748  13.800  1.00  0.00     0.128 A 
ATOM      6  C   UNL     1      -3.195   1.040  15.002  1.00  0.00     0.093 A 
ATOM      7  C   UNL     1      -3.991   1.499  16.059  1.00  0.00     0.136 A 
ATOM      8  C   UNL     1      -4.730   2.702  15.903  1.00  0.00     0.125 A 
ATOM      9  C   UNL     1      -5.563   3.230  16.902  1.00  0.00     0.078 A 
ATOM     10  C   UNL     1      -6.264   4.418  16.675  1.00  0.00     0.223 A 
ENDROOT
BRANCH   1  11
ATOM     11  C   UNL     1      -6.795   6.350  15.132  1.00  0.00     0.091 A 
ATOM     12  C   UNL     1      -6.397   7.529  15.780  1.00  0.00     0.068 A 
ATOM     13  C   UNL     1      -7.049   8.741  15.518  1.00  0.00     0.162 A 
ATOM     14  C   UNL     1      -7.882   6.392  14.243  1.00  0.00     0.068 A 
ATOM     15  C   UNL     1      -8.119   8.781  14.615  1.00  0.00     0.200 A 
ATOM     16  C   UNL     1      -8.540   7.601  13.978  1.00  0.00     0.162 A 
BRANCH  13  17
ATOM     17  O   UNL     1      -6.640   9.913  16.153  1.00  0.00    -0.504 OA
ATOM     18  H   UNL     1      -6.512   9.955  17.157  1.00  0.00     0.293 HD
ENDBRANCH  13  17
BRANCH  15  19
ATOM     19  O   UNL     1      -8.755   9.997  14.364  1.00  0.00    -0.502 OA
ATOM     20  H   UNL     1      -8.778  10.413  13.440  1.00  0.00     0.293 HD
ENDBRANCH  15  19
BRANCH  16  21
ATOM     21  O   UNL     1      -9.614   7.633  13.090  1.00  0.00    -0.504 OA
ATOM     22  H   UNL     1     -10.534   7.301  13.355  1.00  0.00     0.293 HD
ENDBRANCH  16  21
ENDBRANCH   1  11
BRANCH  10  23
ATOM     23  O   UNL     1      -7.130   4.917  17.648  1.00  0.00    -0.500 OA
ATOM     24  H   UNL     1      -6.832   5.055  18.606  1.00  0.00     0.294 HD
ENDBRANCH  10  23
BRANCH   5  25
ATOM     25  O   UNL     1      -2.316   1.264  12.769  1.00  0.00    -0.507 OA
ATOM     26  H   UNL     1      -1.802   1.888  12.160  1.00  0.00     0.293 HD
ENDBRANCH   5  25
BRANCH   7  27
ATOM     27  O   UNL     1      -4.013   0.734  17.229  1.00  0.00    -0.507 OA
ATOM     28  H   UNL     1      -4.780   0.140  17.507  1.00  0.00     0.293 HD
ENDBRANCH   7  27
TORSDOF 7
ENDMDL
