MODEL 1
REMARK VINA RESULT:     0.336      0.000      0.000
REMARK INTER + INTRA:          -0.206
REMARK INTER:                   0.887
REMARK INTRA:                  -1.092
REMARK UNBOUND:                -1.092
REMARK SMILES CCCCCCCCCCCCCCCCCCCCCCCCCCCCCC(=O)[O-]
REMARK SMILES IDX 16 1 17 2 18 3 19 4 20 5 21 6 22 7 23 8 24 9 25 10 26 11
REMARK SMILES IDX 27 12 28 13 29 14 30 15 31 16 32 17 15 18 14 19 13 20 12 21
REMARK SMILES IDX 11 22 10 23 9 24 8 25 7 26 6 27 5 28 4 29 3 30 2 31 1 32
REMARK H PARENT
REMARK Flexibility Score: inf
ROOT
ATOM      1  C   UNL     1      45.107  13.272 -30.428  1.00  0.00     0.000 C 
ENDROOT
BRANCH   1   2
ATOM      2  C   UNL     1      44.807  12.401 -31.662  1.00  0.00     0.000 C 
BRANCH   2   3
ATOM      3  C   UNL     1      46.029  12.224 -32.580  1.00  0.00     0.000 C 
BRANCH   3   4
ATOM      4  C   UNL     1      45.957  13.102 -33.842  1.00  0.00     0.000 C 
BRANCH   4   5
ATOM      5  C   UNL     1      45.181  12.429 -34.998  1.00  0.00     0.000 C 
BRANCH   5   6
ATOM      6  C   UNL     1      43.704  12.142 -34.673  1.00  0.00     0.000 C 
BRANCH   6   7
ATOM      7  C   UNL     1      42.757  12.167 -35.888  1.00  0.00     0.000 C 
BRANCH   7   8
ATOM      8  C   UNL     1      41.943  13.474 -36.016  1.00  0.00     0.000 C 
BRANCH   8   9
ATOM      9  C   UNL     1      40.450  13.223 -36.271  1.00  0.00     0.000 C 
BRANCH   9  10
ATOM     10  C   UNL     1      39.693  14.544 -36.450  1.00  0.00     0.000 C 
BRANCH  10  11
ATOM     11  C   UNL     1      38.523  14.650 -35.459  1.00  0.00     0.000 C 
BRANCH  11  12
ATOM     12  C   UNL     1      38.221  13.313 -34.762  1.00  0.00     0.000 C 
BRANCH  12  13
ATOM     13  C   UNL     1      36.876  13.323 -34.021  1.00  0.00     0.006 C 
BRANCH  13  14
ATOM     14  C   UNL     1      37.041  12.820 -32.581  1.00  0.00     0.053 C 
BRANCH  14  15
ATOM     15  C   UNL     1      37.167  13.956 -31.610  1.00  0.00     0.041 C 
ATOM     16  O   UNL     1      37.462  13.724 -30.406  1.00  0.00    -0.550 OA
ATOM     17  O   UNL     1      36.889  15.261 -32.009  1.00  0.00    -0.550 OA
ENDBRANCH  14  15
ENDBRANCH  13  14
ENDBRANCH  12  13
ENDBRANCH  11  12
ENDBRANCH  10  11
ENDBRANCH   9  10
ENDBRANCH   8   9
ENDBRANCH   7   8
ENDBRANCH   6   7
ENDBRANCH   5   6
ENDBRANCH   4   5
ENDBRANCH   3   4
ENDBRANCH   2   3
ENDBRANCH   1   2
BRANCH   1  18
ATOM     18  C   UNL     1      46.331  12.766 -29.644  1.00  0.00     0.000 C 
BRANCH  18  19
ATOM     19  C   UNL     1      45.959  11.903 -28.423  1.00  0.00     0.000 C 
BRANCH  19  20
ATOM     20  C   UNL     1      45.371  12.747 -27.279  1.00  0.00     0.000 C 
BRANCH  20  21
ATOM     21  C   UNL     1      45.460  12.046 -25.916  1.00  0.00     0.000 C 
BRANCH  21  22
ATOM     22  C   UNL     1      45.073  12.967 -24.744  1.00  0.00     0.000 C 
BRANCH  22  23
ATOM     23  C   UNL     1      45.771  12.577 -23.433  1.00  0.00     0.000 C 
BRANCH  23  24
ATOM     24  C   UNL     1      45.824  13.736 -22.422  1.00  0.00    -0.000 C 
BRANCH  24  25
ATOM     25  C   UNL     1      46.260  15.062 -23.068  1.00  0.00    -0.000 C 
BRANCH  25  26
ATOM     26  C   UNL     1      47.173  15.889 -22.146  1.00  0.00    -0.000 C 
BRANCH  26  27
ATOM     27  C   UNL     1      48.103  15.015 -21.292  1.00  0.00    -0.000 C 
BRANCH  27  28
ATOM     28  C   UNL     1      49.326  15.783 -20.766  1.00  0.00    -0.000 C 
BRANCH  28  29
ATOM     29  C   UNL     1      50.654  15.062 -21.053  1.00  0.00    -0.000 C 
BRANCH  29  30
ATOM     30  C   UNL     1      51.323  14.471 -19.795  1.00  0.00    -0.000 C 
BRANCH  30  31
ATOM     31  C   UNL     1      52.853  14.426 -19.915  1.00  0.00    -0.003 C 
ATOM     32  C   UNL     1      53.364  12.987 -19.904  1.00  0.00     0.004 C 
ENDBRANCH  30  31
ENDBRANCH  29  30
ENDBRANCH  28  29
ENDBRANCH  27  28
ENDBRANCH  26  27
ENDBRANCH  25  26
ENDBRANCH  24  25
ENDBRANCH  23  24
ENDBRANCH  22  23
ENDBRANCH  21  22
ENDBRANCH  20  21
ENDBRANCH  19  20
ENDBRANCH  18  19
ENDBRANCH   1  18
TORSDOF 28
ENDMDL
MODEL 2
REMARK VINA RESULT:     0.406      2.412      3.586
REMARK INTER + INTRA:          -0.023
REMARK INTER:                   1.019
REMARK INTRA:                  -1.041
REMARK UNBOUND:                -1.092
REMARK SMILES CCCCCCCCCCCCCCCCCCCCCCCCCCCCCC(=O)[O-]
REMARK SMILES IDX 16 1 17 2 18 3 19 4 20 5 21 6 22 7 23 8 24 9 25 10 26 11
REMARK SMILES IDX 27 12 28 13 29 14 30 15 31 16 32 17 15 18 14 19 13 20 12 21
REMARK SMILES IDX 11 22 10 23 9 24 8 25 7 26 6 27 5 28 4 29 3 30 2 31 1 32
REMARK H PARENT
REMARK Flexibility Score: inf
ROOT
ATOM      1  C   UNL     1      45.065  12.625 -30.988  1.00  0.00     0.000 C 
ENDROOT
BRANCH   1   2
ATOM      2  C   UNL     1      45.739  11.971 -32.208  1.00  0.00     0.000 C 
BRANCH   2   3
ATOM      3  C   UNL     1      46.595  12.959 -33.019  1.00  0.00     0.000 C 
BRANCH   3   4
ATOM      4  C   UNL     1      46.078  13.156 -34.456  1.00  0.00     0.000 C 
BRANCH   4   5
ATOM      5  C   UNL     1      45.122  12.028 -34.909  1.00  0.00     0.000 C 
BRANCH   5   6
ATOM      6  C   UNL     1      43.641  12.301 -34.593  1.00  0.00     0.000 C 
BRANCH   6   7
ATOM      7  C   UNL     1      42.696  12.233 -35.808  1.00  0.00     0.000 C 
BRANCH   7   8
ATOM      8  C   UNL     1      42.032  13.584 -36.156  1.00  0.00     0.000 C 
BRANCH   8   9
ATOM      9  C   UNL     1      40.498  13.527 -36.090  1.00  0.00     0.000 C 
BRANCH   9  10
ATOM     10  C   UNL     1      39.914  14.895 -35.721  1.00  0.00     0.000 C 
BRANCH  10  11
ATOM     11  C   UNL     1      38.447  14.768 -35.277  1.00  0.00     0.000 C 
BRANCH  11  12
ATOM     12  C   UNL     1      38.205  13.531 -34.399  1.00  0.00     0.000 C 
BRANCH  12  13
ATOM     13  C   UNL     1      36.877  13.603 -33.630  1.00  0.00     0.006 C 
BRANCH  13  14
ATOM     14  C   UNL     1      36.911  12.697 -32.392  1.00  0.00     0.053 C 
BRANCH  14  15
ATOM     15  C   UNL     1      37.022  13.494 -31.127  1.00  0.00     0.041 C 
ATOM     16  O   UNL     1      37.256  14.732 -31.184  1.00  0.00    -0.550 OA
ATOM     17  O   UNL     1      36.942  12.867 -29.887  1.00  0.00    -0.550 OA
ENDBRANCH  14  15
ENDBRANCH  13  14
ENDBRANCH  12  13
ENDBRANCH  11  12
ENDBRANCH  10  11
ENDBRANCH   9  10
ENDBRANCH   8   9
ENDBRANCH   7   8
ENDBRANCH   6   7
ENDBRANCH   5   6
ENDBRANCH   4   5
ENDBRANCH   3   4
ENDBRANCH   2   3
ENDBRANCH   1   2
BRANCH   1  18
ATOM     18  C   UNL     1      46.089  13.075 -29.931  1.00  0.00     0.000 C 
BRANCH  18  19
ATOM     19  C   UNL     1      46.306  12.040 -28.811  1.00  0.00     0.000 C 
BRANCH  19  20
ATOM     20  C   UNL     1      45.255  12.171 -27.695  1.00  0.00     0.000 C 
BRANCH  20  21
ATOM     21  C   UNL     1      45.832  11.893 -26.299  1.00  0.00     0.000 C 
BRANCH  21  22
ATOM     22  C   UNL     1      45.002  12.532 -25.171  1.00  0.00     0.000 C 
BRANCH  22  23
ATOM     23  C   UNL     1      45.572  12.233 -23.777  1.00  0.00     0.000 C 
BRANCH  23  24
ATOM     24  C   UNL     1      45.543  13.460 -22.849  1.00  0.00    -0.000 C 
BRANCH  24  25
ATOM     25  C   UNL     1      46.265  14.675 -23.456  1.00  0.00    -0.000 C 
BRANCH  25  26
ATOM     26  C   UNL     1      45.821  16.000 -22.812  1.00  0.00    -0.000 C 
BRANCH  26  27
ATOM     27  C   UNL     1      47.002  16.918 -22.467  1.00  0.00    -0.000 C 
BRANCH  27  28
ATOM     28  C   UNL     1      46.790  18.365 -22.939  1.00  0.00    -0.000 C 
BRANCH  28  29
ATOM     29  C   UNL     1      47.610  18.711 -24.194  1.00  0.00    -0.000 C 
BRANCH  29  30
ATOM     30  C   UNL     1      47.616  20.215 -24.536  1.00  0.00    -0.000 C 
BRANCH  30  31
ATOM     31  C   UNL     1      47.134  20.489 -25.969  1.00  0.00    -0.003 C 
ATOM     32  C   UNL     1      45.630  20.745 -26.005  1.00  0.00     0.004 C 
ENDBRANCH  30  31
ENDBRANCH  29  30
ENDBRANCH  28  29
ENDBRANCH  27  28
ENDBRANCH  26  27
ENDBRANCH  25  26
ENDBRANCH  24  25
ENDBRANCH  23  24
ENDBRANCH  22  23
ENDBRANCH  21  22
ENDBRANCH  20  21
ENDBRANCH  19  20
ENDBRANCH  18  19
ENDBRANCH   1  18
TORSDOF 28
ENDMDL
MODEL 3
REMARK VINA RESULT:     2.541      3.334     13.067
REMARK INTER + INTRA:           5.607
REMARK INTER:                   7.280
REMARK INTRA:                  -1.673
REMARK UNBOUND:                -1.092
REMARK SMILES CCCCCCCCCCCCCCCCCCCCCCCCCCCCCC(=O)[O-]
REMARK SMILES IDX 16 1 17 2 18 3 19 4 20 5 21 6 22 7 23 8 24 9 25 10 26 11
REMARK SMILES IDX 27 12 28 13 29 14 30 15 31 16 32 17 15 18 14 19 13 20 12 21
REMARK SMILES IDX 11 22 10 23 9 24 8 25 7 26 6 27 5 28 4 29 3 30 2 31 1 32
REMARK H PARENT
REMARK Flexibility Score: inf
ROOT
ATOM      1  C   UNL     1      44.705  14.532 -28.938  1.00  0.00     0.000 C 
ENDROOT
BRANCH   1   2
ATOM      2  C   UNL     1      44.215  15.985 -29.084  1.00  0.00     0.000 C 
BRANCH   2   3
ATOM      3  C   UNL     1      43.639  16.556 -27.777  1.00  0.00     0.000 C 
BRANCH   3   4
ATOM      4  C   UNL     1      43.012  17.949 -27.961  1.00  0.00     0.000 C 
BRANCH   4   5
ATOM      5  C   UNL     1      43.590  19.001 -26.985  1.00  0.00     0.000 C 
BRANCH   5   6
ATOM      6  C   UNL     1      44.873  18.545 -26.267  1.00  0.00     0.000 C 
BRANCH   6   7
ATOM      7  C   UNL     1      45.452  19.563 -25.266  1.00  0.00     0.000 C 
BRANCH   7   8
ATOM      8  C   UNL     1      46.776  19.110 -24.612  1.00  0.00     0.000 C 
BRANCH   8   9
ATOM      9  C   UNL     1      46.600  18.687 -23.146  1.00  0.00     0.000 C 
BRANCH   9  10
ATOM     10  C   UNL     1      46.136  17.229 -23.046  1.00  0.00     0.000 C 
BRANCH  10  11
ATOM     11  C   UNL     1      47.188  16.361 -22.337  1.00  0.00     0.000 C 
BRANCH  11  12
ATOM     12  C   UNL     1      46.826  14.868 -22.358  1.00  0.00     0.000 C 
BRANCH  12  13
ATOM     13  C   UNL     1      46.114  14.450 -23.654  1.00  0.00     0.006 C 
BRANCH  13  14
ATOM     14  C   UNL     1      45.694  12.975 -23.597  1.00  0.00     0.053 C 
BRANCH  14  15
ATOM     15  C   UNL     1      44.873  12.590 -24.791  1.00  0.00     0.041 C 
ATOM     16  O   UNL     1      43.615  12.669 -24.740  1.00  0.00    -0.550 OA
ATOM     17  O   UNL     1      45.481  12.075 -25.932  1.00  0.00    -0.550 OA
ENDBRANCH  14  15
ENDBRANCH  13  14
ENDBRANCH  12  13
ENDBRANCH  11  12
ENDBRANCH  10  11
ENDBRANCH   9  10
ENDBRANCH   8   9
ENDBRANCH   7   8
ENDBRANCH   6   7
ENDBRANCH   5   6
ENDBRANCH   4   5
ENDBRANCH   3   4
ENDBRANCH   2   3
ENDBRANCH   1   2
BRANCH   1  18
ATOM     18  C   UNL     1      45.549  14.081 -30.143  1.00  0.00     0.000 C 
BRANCH  18  19
ATOM     19  C   UNL     1      46.194  12.695 -29.952  1.00  0.00     0.000 C 
BRANCH  19  20
ATOM     20  C   UNL     1      46.375  11.955 -31.289  1.00  0.00     0.000 C 
BRANCH  20  21
ATOM     21  C   UNL     1      45.731  12.696 -32.471  1.00  0.00     0.000 C 
BRANCH  21  22
ATOM     22  C   UNL     1      44.292  12.229 -32.755  1.00  0.00     0.000 C 
BRANCH  22  23
ATOM     23  C   UNL     1      43.729  12.815 -34.059  1.00  0.00     0.000 C 
BRANCH  23  24
ATOM     24  C   UNL     1      43.921  11.875 -35.263  1.00  0.00    -0.000 C 
BRANCH  24  25
ATOM     25  C   UNL     1      43.549  12.543 -36.597  1.00  0.00    -0.000 C 
BRANCH  25  26
ATOM     26  C   UNL     1      42.135  13.148 -36.574  1.00  0.00    -0.000 C 
BRANCH  26  27
ATOM     27  C   UNL     1      41.060  12.132 -36.160  1.00  0.00    -0.000 C 
BRANCH  27  28
ATOM     28  C   UNL     1      39.670  12.768 -36.002  1.00  0.00    -0.000 C 
BRANCH  28  29
ATOM     29  C   UNL     1      39.731  14.231 -35.533  1.00  0.00    -0.000 C 
BRANCH  29  30
ATOM     30  C   UNL     1      38.344  14.882 -35.350  1.00  0.00    -0.000 C 
BRANCH  30  31
ATOM     31  C   UNL     1      37.238  13.842 -35.118  1.00  0.00    -0.003 C 
ATOM     32  C   UNL     1      37.002  13.614 -33.627  1.00  0.00     0.004 C 
ENDBRANCH  30  31
ENDBRANCH  29  30
ENDBRANCH  28  29
ENDBRANCH  27  28
ENDBRANCH  26  27
ENDBRANCH  25  26
ENDBRANCH  24  25
ENDBRANCH  23  24
ENDBRANCH  22  23
ENDBRANCH  21  22
ENDBRANCH  20  21
ENDBRANCH  19  20
ENDBRANCH  18  19
ENDBRANCH   1  18
TORSDOF 28
ENDMDL
MODEL 4
REMARK VINA RESULT:     2.628      6.389     13.013
REMARK INTER + INTRA:           5.839
REMARK INTER:                   7.126
REMARK INTRA:                  -1.288
REMARK UNBOUND:                -1.092
REMARK SMILES CCCCCCCCCCCCCCCCCCCCCCCCCCCCCC(=O)[O-]
REMARK SMILES IDX 16 1 17 2 18 3 19 4 20 5 21 6 22 7 23 8 24 9 25 10 26 11
REMARK SMILES IDX 27 12 28 13 29 14 30 15 31 16 32 17 15 18 14 19 13 20 12 21
REMARK SMILES IDX 11 22 10 23 9 24 8 25 7 26 6 27 5 28 4 29 3 30 2 31 1 32
REMARK H PARENT
REMARK Flexibility Score: inf
ROOT
ATOM      1  C   UNL     1      46.980  14.520 -22.345  1.00  0.00     0.000 C 
ENDROOT
BRANCH   1   2
ATOM      2  C   UNL     1      47.288  16.011 -22.115  1.00  0.00     0.000 C 
BRANCH   2   3
ATOM      3  C   UNL     1      46.168  16.937 -22.619  1.00  0.00     0.000 C 
BRANCH   3   4
ATOM      4  C   UNL     1      46.696  18.296 -23.113  1.00  0.00     0.000 C 
BRANCH   4   5
ATOM      5  C   UNL     1      46.062  18.735 -24.453  1.00  0.00     0.000 C 
BRANCH   5   6
ATOM      6  C   UNL     1      46.818  19.876 -25.157  1.00  0.00     0.000 C 
BRANCH   6   7
ATOM      7  C   UNL     1      45.920  20.920 -25.846  1.00  0.00     0.000 C 
BRANCH   7   8
ATOM      8  C   UNL     1      46.488  22.356 -25.802  1.00  0.00     0.000 C 
BRANCH   8   9
ATOM      9  C   UNL     1      45.437  23.399 -25.390  1.00  0.00     0.000 C 
BRANCH   9  10
ATOM     10  C   UNL     1      45.846  24.108 -24.094  1.00  0.00     0.000 C 
BRANCH  10  11
ATOM     11  C   UNL     1      44.929  25.308 -23.808  1.00  0.00     0.000 C 
BRANCH  11  12
ATOM     12  C   UNL     1      43.729  25.371 -24.765  1.00  0.00     0.000 C 
BRANCH  12  13
ATOM     13  C   UNL     1      43.640  26.709 -25.515  1.00  0.00     0.006 C 
BRANCH  13  14
ATOM     14  C   UNL     1      42.206  26.978 -25.988  1.00  0.00     0.053 C 
BRANCH  14  15
ATOM     15  C   UNL     1      41.998  26.527 -27.403  1.00  0.00     0.041 C 
ATOM     16  O   UNL     1      42.812  26.879 -28.300  1.00  0.00    -0.550 OA
ATOM     17  O   UNL     1      40.874  25.783 -27.751  1.00  0.00    -0.550 OA
ENDBRANCH  14  15
ENDBRANCH  13  14
ENDBRANCH  12  13
ENDBRANCH  11  12
ENDBRANCH  10  11
ENDBRANCH   9  10
ENDBRANCH   8   9
ENDBRANCH   7   8
ENDBRANCH   6   7
ENDBRANCH   5   6
ENDBRANCH   4   5
ENDBRANCH   3   4
ENDBRANCH   2   3
ENDBRANCH   1   2
BRANCH   1  18
ATOM     18  C   UNL     1      45.970  14.305 -23.487  1.00  0.00     0.000 C 
BRANCH  18  19
ATOM     19  C   UNL     1      45.732  12.821 -23.821  1.00  0.00     0.000 C 
BRANCH  19  20
ATOM     20  C   UNL     1      45.530  12.596 -25.330  1.00  0.00     0.000 C 
BRANCH  20  21
ATOM     21  C   UNL     1      46.715  11.875 -25.988  1.00  0.00     0.000 C 
BRANCH  21  22
ATOM     22  C   UNL     1      46.900  12.258 -27.468  1.00  0.00     0.000 C 
BRANCH  22  23
ATOM     23  C   UNL     1      45.579  12.234 -28.252  1.00  0.00     0.000 C 
BRANCH  23  24
ATOM     24  C   UNL     1      45.716  12.837 -29.662  1.00  0.00    -0.000 C 
BRANCH  24  25
ATOM     25  C   UNL     1      46.625  11.999 -30.576  1.00  0.00    -0.000 C 
BRANCH  25  26
ATOM     26  C   UNL     1      46.149  12.006 -32.039  1.00  0.00    -0.000 C 
BRANCH  26  27
ATOM     27  C   UNL     1      44.766  12.650 -32.210  1.00  0.00    -0.000 C 
BRANCH  27  28
ATOM     28  C   UNL     1      43.912  11.950 -33.280  1.00  0.00    -0.000 C 
BRANCH  28  29
ATOM     29  C   UNL     1      43.930  12.682 -34.633  1.00  0.00    -0.000 C 
BRANCH  29  30
ATOM     30  C   UNL     1      43.110  11.975 -35.731  1.00  0.00    -0.000 C 
BRANCH  30  31
ATOM     31  C   UNL     1      42.152  12.935 -36.452  1.00  0.00    -0.003 C 
ATOM     32  C   UNL     1      40.716  12.420 -36.401  1.00  0.00     0.004 C 
ENDBRANCH  30  31
ENDBRANCH  29  30
ENDBRANCH  28  29
ENDBRANCH  27  28
ENDBRANCH  26  27
ENDBRANCH  25  26
ENDBRANCH  24  25
ENDBRANCH  23  24
ENDBRANCH  22  23
ENDBRANCH  21  22
ENDBRANCH  20  21
ENDBRANCH  19  20
ENDBRANCH  18  19
ENDBRANCH   1  18
TORSDOF 28
ENDMDL
MODEL 5
REMARK VINA RESULT:     3.068      5.621     15.064
REMARK INTER + INTRA:           6.998
REMARK INTER:                   7.974
REMARK INTRA:                  -0.977
REMARK UNBOUND:                -1.092
REMARK SMILES CCCCCCCCCCCCCCCCCCCCCCCCCCCCCC(=O)[O-]
REMARK SMILES IDX 16 1 17 2 18 3 19 4 20 5 21 6 22 7 23 8 24 9 25 10 26 11
REMARK SMILES IDX 27 12 28 13 29 14 30 15 31 16 32 17 15 18 14 19 13 20 12 21
REMARK SMILES IDX 11 22 10 23 9 24 8 25 7 26 6 27 5 28 4 29 3 30 2 31 1 32
REMARK H PARENT
REMARK Flexibility Score: inf
ROOT
ATOM      1  C   UNL     1      43.447  18.520 -27.500  1.00  0.00     0.000 C 
ENDROOT
BRANCH   1   2
ATOM      2  C   UNL     1      44.373  18.579 -26.271  1.00  0.00     0.000 C 
BRANCH   2   3
ATOM      3  C   UNL     1      44.972  19.976 -26.040  1.00  0.00     0.000 C 
BRANCH   3   4
ATOM      4  C   UNL     1      46.475  20.042 -26.365  1.00  0.00     0.000 C 
BRANCH   4   5
ATOM      5  C   UNL     1      47.331  20.486 -25.155  1.00  0.00     0.000 C 
BRANCH   5   6
ATOM      6  C   UNL     1      47.589  19.366 -24.131  1.00  0.00     0.000 C 
BRANCH   6   7
ATOM      7  C   UNL     1      46.342  18.888 -23.365  1.00  0.00     0.000 C 
BRANCH   7   8
ATOM      8  C   UNL     1      46.477  17.464 -22.781  1.00  0.00     0.000 C 
BRANCH   8   9
ATOM      9  C   UNL     1      47.720  17.300 -21.894  1.00  0.00     0.000 C 
BRANCH   9  10
ATOM     10  C   UNL     1      48.102  15.823 -21.752  1.00  0.00     0.000 C 
BRANCH  10  11
ATOM     11  C   UNL     1      49.406  15.663 -20.952  1.00  0.00     0.000 C 
BRANCH  11  12
ATOM     12  C   UNL     1      49.267  14.655 -19.801  1.00  0.00     0.000 C 
BRANCH  12  13
ATOM     13  C   UNL     1      50.620  14.086 -19.347  1.00  0.00     0.006 C 
BRANCH  13  14
ATOM     14  C   UNL     1      51.598  13.993 -20.526  1.00  0.00     0.053 C 
BRANCH  14  15
ATOM     15  C   UNL     1      53.018  14.176 -20.080  1.00  0.00     0.041 C 
ATOM     16  O   UNL     1      53.901  13.352 -20.444  1.00  0.00    -0.550 OA
ATOM     17  O   UNL     1      53.359  15.205 -19.207  1.00  0.00    -0.550 OA
ENDBRANCH  14  15
ENDBRANCH  13  14
ENDBRANCH  12  13
ENDBRANCH  11  12
ENDBRANCH  10  11
ENDBRANCH   9  10
ENDBRANCH   8   9
ENDBRANCH   7   8
ENDBRANCH   6   7
ENDBRANCH   5   6
ENDBRANCH   4   5
ENDBRANCH   3   4
ENDBRANCH   2   3
ENDBRANCH   1   2
BRANCH   1  18
ATOM     18  C   UNL     1      43.263  17.082 -28.019  1.00  0.00     0.000 C 
BRANCH  18  19
ATOM     19  C   UNL     1      44.379  16.633 -28.980  1.00  0.00     0.000 C 
BRANCH  19  20
ATOM     20  C   UNL     1      44.436  15.102 -29.121  1.00  0.00     0.000 C 
BRANCH  20  21
ATOM     21  C   UNL     1      45.500  14.636 -30.126  1.00  0.00     0.000 C 
BRANCH  21  22
ATOM     22  C   UNL     1      45.254  13.204 -30.635  1.00  0.00     0.000 C 
BRANCH  22  23
ATOM     23  C   UNL     1      45.392  13.089 -32.161  1.00  0.00     0.000 C 
BRANCH  23  24
ATOM     24  C   UNL     1      44.233  12.306 -32.803  1.00  0.00    -0.000 C 
BRANCH  24  25
ATOM     25  C   UNL     1      44.128  12.546 -34.319  1.00  0.00    -0.000 C 
BRANCH  25  26
ATOM     26  C   UNL     1      42.731  12.210 -34.869  1.00  0.00    -0.000 C 
BRANCH  26  27
ATOM     27  C   UNL     1      42.478  12.816 -36.257  1.00  0.00    -0.000 C 
BRANCH  27  28
ATOM     28  C   UNL     1      41.399  13.911 -36.241  1.00  0.00    -0.000 C 
BRANCH  28  29
ATOM     29  C   UNL     1      40.088  13.449 -35.582  1.00  0.00    -0.000 C 
BRANCH  29  30
ATOM     30  C   UNL     1      38.841  14.203 -36.087  1.00  0.00    -0.000 C 
BRANCH  30  31
ATOM     31  C   UNL     1      37.841  13.271 -36.788  1.00  0.00    -0.003 C 
ATOM     32  C   UNL     1      37.377  12.158 -35.851  1.00  0.00     0.004 C 
ENDBRANCH  30  31
ENDBRANCH  29  30
ENDBRANCH  28  29
ENDBRANCH  27  28
ENDBRANCH  26  27
ENDBRANCH  25  26
ENDBRANCH  24  25
ENDBRANCH  23  24
ENDBRANCH  22  23
ENDBRANCH  21  22
ENDBRANCH  20  21
ENDBRANCH  19  20
ENDBRANCH  18  19
ENDBRANCH   1  18
TORSDOF 28
ENDMDL
MODEL 6
REMARK VINA RESULT:     3.113      5.203     14.565
REMARK INTER + INTRA:           7.116
REMARK INTER:                   8.510
REMARK INTRA:                  -1.394
REMARK UNBOUND:                -1.092
REMARK SMILES CCCCCCCCCCCCCCCCCCCCCCCCCCCCCC(=O)[O-]
REMARK SMILES IDX 16 1 17 2 18 3 19 4 20 5 21 6 22 7 23 8 24 9 25 10 26 11
REMARK SMILES IDX 27 12 28 13 29 14 30 15 31 16 32 17 15 18 14 19 13 20 12 21
REMARK SMILES IDX 11 22 10 23 9 24 8 25 7 26 6 27 5 28 4 29 3 30 2 31 1 32
REMARK H PARENT
REMARK Flexibility Score: inf
ROOT
ATOM      1  C   UNL     1      44.818  14.711 -29.067  1.00  0.00     0.000 C 
ENDROOT
BRANCH   1   2
ATOM      2  C   UNL     1      43.981  16.003 -29.105  1.00  0.00     0.000 C 
BRANCH   2   3
ATOM      3  C   UNL     1      43.772  16.621 -27.712  1.00  0.00     0.000 C 
BRANCH   3   4
ATOM      4  C   UNL     1      43.139  18.023 -27.771  1.00  0.00     0.000 C 
BRANCH   4   5
ATOM      5  C   UNL     1      43.984  19.093 -27.041  1.00  0.00     0.000 C 
BRANCH   5   6
ATOM      6  C   UNL     1      44.719  18.564 -25.796  1.00  0.00     0.000 C 
BRANCH   6   7
ATOM      7  C   UNL     1      45.797  19.508 -25.230  1.00  0.00     0.000 C 
BRANCH   7   8
ATOM      8  C   UNL     1      46.833  18.801 -24.329  1.00  0.00     0.000 C 
BRANCH   8   9
ATOM      9  C   UNL     1      46.218  18.253 -23.032  1.00  0.00     0.000 C 
BRANCH   9  10
ATOM     10  C   UNL     1      46.823  16.891 -22.671  1.00  0.00     0.000 C 
BRANCH  10  11
ATOM     11  C   UNL     1      48.092  17.057 -21.819  1.00  0.00     0.000 C 
BRANCH  11  12
ATOM     12  C   UNL     1      48.468  15.769 -21.071  1.00  0.00     0.000 C 
BRANCH  12  13
ATOM     13  C   UNL     1      49.975  15.473 -21.125  1.00  0.00     0.006 C 
BRANCH  13  14
ATOM     14  C   UNL     1      50.389  14.532 -19.986  1.00  0.00     0.053 C 
BRANCH  14  15
ATOM     15  C   UNL     1      51.859  14.237 -20.021  1.00  0.00     0.041 C 
ATOM     16  O   UNL     1      52.275  13.187 -20.582  1.00  0.00    -0.550 OA
ATOM     17  O   UNL     1      52.765  15.075 -19.377  1.00  0.00    -0.550 OA
ENDBRANCH  14  15
ENDBRANCH  13  14
ENDBRANCH  12  13
ENDBRANCH  11  12
ENDBRANCH  10  11
ENDBRANCH   9  10
ENDBRANCH   8   9
ENDBRANCH   7   8
ENDBRANCH   6   7
ENDBRANCH   5   6
ENDBRANCH   4   5
ENDBRANCH   3   4
ENDBRANCH   2   3
ENDBRANCH   1   2
BRANCH   1  18
ATOM     18  C   UNL     1      45.663  14.530 -30.341  1.00  0.00     0.000 C 
BRANCH  18  19
ATOM     19  C   UNL     1      46.197  13.096 -30.520  1.00  0.00     0.000 C 
BRANCH  19  20
ATOM     20  C   UNL     1      45.179  12.187 -31.230  1.00  0.00     0.000 C 
BRANCH  20  21
ATOM     21  C   UNL     1      45.170  12.379 -32.753  1.00  0.00     0.000 C 
BRANCH  21  22
ATOM     22  C   UNL     1      43.814  12.030 -33.392  1.00  0.00     0.000 C 
BRANCH  22  23
ATOM     23  C   UNL     1      43.598  12.734 -34.739  1.00  0.00     0.000 C 
BRANCH  23  24
ATOM     24  C   UNL     1      42.799  11.875 -35.736  1.00  0.00    -0.000 C 
BRANCH  24  25
ATOM     25  C   UNL     1      41.337  12.332 -35.869  1.00  0.00    -0.000 C 
BRANCH  25  26
ATOM     26  C   UNL     1      41.175  13.845 -35.646  1.00  0.00    -0.000 C 
BRANCH  26  27
ATOM     27  C   UNL     1      39.831  14.381 -36.162  1.00  0.00    -0.000 C 
BRANCH  27  28
ATOM     28  C   UNL     1      38.811  13.265 -36.438  1.00  0.00    -0.000 C 
BRANCH  28  29
ATOM     29  C   UNL     1      37.507  13.437 -35.641  1.00  0.00    -0.000 C 
BRANCH  29  30
ATOM     30  C   UNL     1      37.448  14.743 -34.823  1.00  0.00    -0.000 C 
BRANCH  30  31
ATOM     31  C   UNL     1      36.939  14.512 -33.392  1.00  0.00    -0.003 C 
ATOM     32  C   UNL     1      36.891  13.023 -33.058  1.00  0.00     0.004 C 
ENDBRANCH  30  31
ENDBRANCH  29  30
ENDBRANCH  28  29
ENDBRANCH  27  28
ENDBRANCH  26  27
ENDBRANCH  25  26
ENDBRANCH  24  25
ENDBRANCH  23  24
ENDBRANCH  22  23
ENDBRANCH  21  22
ENDBRANCH  20  21
ENDBRANCH  19  20
ENDBRANCH  18  19
ENDBRANCH   1  18
TORSDOF 28
ENDMDL
