MODEL 1
REMARK VINA RESULT:    -2.539      0.000      0.000
REMARK INTER + INTRA:         -12.595
REMARK INTER:                  -6.695
REMARK INTRA:                  -5.901
REMARK UNBOUND:                -5.901
REMARK SMILES CCCCCCCCCCCCCCCCCCCCCCCCCCCCCC(=O)[O-]
REMARK SMILES IDX 16 1 17 2 18 3 19 4 20 5 21 6 22 7 23 8 24 9 25 10 26 11
REMARK SMILES IDX 27 12 28 13 29 14 30 15 31 16 32 17 15 18 14 19 13 20 12 21
REMARK SMILES IDX 11 22 10 23 9 24 8 25 7 26 6 27 5 28 4 29 3 30 2 31 1 32
REMARK H PARENT
REMARK Flexibility Score: inf
ROOT
ATOM      1  C   UNL     1      36.037   7.342  20.065  1.00  0.00     0.000 C 
ENDROOT
BRANCH   1   2
ATOM      2  C   UNL     1      35.452   8.714  20.440  1.00  0.00     0.000 C 
BRANCH   2   3
ATOM      3  C   UNL     1      35.742   9.105  21.901  1.00  0.00     0.000 C 
BRANCH   3   4
ATOM      4  C   UNL     1      35.760  10.629  22.103  1.00  0.00     0.000 C 
BRANCH   4   5
ATOM      5  C   UNL     1      34.740  11.093  23.157  1.00  0.00     0.000 C 
BRANCH   5   6
ATOM      6  C   UNL     1      33.304  11.172  22.608  1.00  0.00     0.000 C 
BRANCH   6   7
ATOM      7  C   UNL     1      32.210  10.636  23.549  1.00  0.00     0.000 C 
BRANCH   7   8
ATOM      8  C   UNL     1      31.317   9.572  22.888  1.00  0.00     0.000 C 
BRANCH   8   9
ATOM      9  C   UNL     1      32.054   8.781  21.795  1.00  0.00     0.000 C 
BRANCH   9  10
ATOM     10  C   UNL     1      31.345   7.463  21.436  1.00  0.00     0.000 C 
BRANCH  10  11
ATOM     11  C   UNL     1      32.329   6.306  21.192  1.00  0.00     0.000 C 
BRANCH  11  12
ATOM     12  C   UNL     1      32.574   6.016  19.695  1.00  0.00     0.000 C 
BRANCH  12  13
ATOM     13  C   UNL     1      32.890   4.536  19.435  1.00  0.00     0.006 C 
BRANCH  13  14
ATOM     14  C   UNL     1      34.168   4.384  18.602  1.00  0.00     0.053 C 
BRANCH  14  15
ATOM     15  C   UNL     1      35.091   3.387  19.228  1.00  0.00     0.041 C 
ATOM     16  O   UNL     1      34.712   2.700  20.213  1.00  0.00    -0.550 OA
ATOM     17  O   UNL     1      36.381   3.226  18.733  1.00  0.00    -0.550 OA
ENDBRANCH  14  15
ENDBRANCH  13  14
ENDBRANCH  12  13
ENDBRANCH  11  12
ENDBRANCH  10  11
ENDBRANCH   9  10
ENDBRANCH   8   9
ENDBRANCH   7   8
ENDBRANCH   6   7
ENDBRANCH   5   6
ENDBRANCH   4   5
ENDBRANCH   3   4
ENDBRANCH   2   3
ENDBRANCH   1   2
BRANCH   1  18
ATOM     18  C   UNL     1      36.034   6.353  21.243  1.00  0.00     0.000 C 
BRANCH  18  19
ATOM     19  C   UNL     1      37.323   5.513  21.318  1.00  0.00     0.000 C 
BRANCH  19  20
ATOM     20  C   UNL     1      38.280   5.884  22.469  1.00  0.00     0.000 C 
BRANCH  20  21
ATOM     21  C   UNL     1      37.593   6.403  23.747  1.00  0.00     0.000 C 
BRANCH  21  22
ATOM     22  C   UNL     1      38.321   7.563  24.455  1.00  0.00     0.000 C 
BRANCH  22  23
ATOM     23  C   UNL     1      39.840   7.632  24.206  1.00  0.00     0.000 C 
BRANCH  23  24
ATOM     24  C   UNL     1      40.315   9.032  23.787  1.00  0.00    -0.000 C 
BRANCH  24  25
ATOM     25  C   UNL     1      39.196   9.867  23.142  1.00  0.00    -0.000 C 
BRANCH  25  26
ATOM     26  C   UNL     1      39.459  10.165  21.655  1.00  0.00    -0.000 C 
BRANCH  26  27
ATOM     27  C   UNL     1      39.257   8.932  20.760  1.00  0.00    -0.000 C 
BRANCH  27  28
ATOM     28  C   UNL     1      40.562   8.466  20.091  1.00  0.00    -0.000 C 
BRANCH  28  29
ATOM     29  C   UNL     1      40.461   7.035  19.537  1.00  0.00    -0.000 C 
BRANCH  29  30
ATOM     30  C   UNL     1      39.353   6.892  18.479  1.00  0.00    -0.000 C 
BRANCH  30  31
ATOM     31  C   UNL     1      39.169   5.439  18.012  1.00  0.00    -0.003 C 
ATOM     32  C   UNL     1      39.906   4.433  18.896  1.00  0.00     0.004 C 
ENDBRANCH  30  31
ENDBRANCH  29  30
ENDBRANCH  28  29
ENDBRANCH  27  28
ENDBRANCH  26  27
ENDBRANCH  25  26
ENDBRANCH  24  25
ENDBRANCH  23  24
ENDBRANCH  22  23
ENDBRANCH  21  22
ENDBRANCH  20  21
ENDBRANCH  19  20
ENDBRANCH  18  19
ENDBRANCH   1  18
TORSDOF 28
ENDMDL
MODEL 2
REMARK VINA RESULT:    -2.461      2.335      6.086
REMARK INTER + INTRA:         -12.389
REMARK INTER:                  -6.385
REMARK INTRA:                  -6.004
REMARK UNBOUND:                -5.901
REMARK SMILES CCCCCCCCCCCCCCCCCCCCCCCCCCCCCC(=O)[O-]
REMARK SMILES IDX 16 1 17 2 18 3 19 4 20 5 21 6 22 7 23 8 24 9 25 10 26 11
REMARK SMILES IDX 27 12 28 13 29 14 30 15 31 16 32 17 15 18 14 19 13 20 12 21
REMARK SMILES IDX 11 22 10 23 9 24 8 25 7 26 6 27 5 28 4 29 3 30 2 31 1 32
REMARK H PARENT
REMARK Flexibility Score: inf
ROOT
ATOM      1  C   UNL     1      32.772   8.389  20.959  1.00  0.00     0.000 C 
ENDROOT
BRANCH   1   2
ATOM      2  C   UNL     1      32.349   7.600  19.709  1.00  0.00     0.000 C 
BRANCH   2   3
ATOM      3  C   UNL     1      31.135   6.687  19.965  1.00  0.00     0.000 C 
BRANCH   3   4
ATOM      4  C   UNL     1      31.197   5.392  19.138  1.00  0.00     0.000 C 
BRANCH   4   5
ATOM      5  C   UNL     1      31.484   4.155  20.007  1.00  0.00     0.000 C 
BRANCH   5   6
ATOM      6  C   UNL     1      31.828   4.513  21.464  1.00  0.00     0.000 C 
BRANCH   6   7
ATOM      7  C   UNL     1      33.324   4.448  21.821  1.00  0.00     0.000 C 
BRANCH   7   8
ATOM      8  C   UNL     1      34.200   3.963  20.652  1.00  0.00     0.000 C 
BRANCH   8   9
ATOM      9  C   UNL     1      35.206   5.029  20.189  1.00  0.00     0.000 C 
BRANCH   9  10
ATOM     10  C   UNL     1      35.682   5.935  21.338  1.00  0.00     0.000 C 
BRANCH  10  11
ATOM     11  C   UNL     1      36.145   7.320  20.851  1.00  0.00     0.000 C 
BRANCH  11  12
ATOM     12  C   UNL     1      37.578   7.679  21.299  1.00  0.00     0.000 C 
BRANCH  12  13
ATOM     13  C   UNL     1      38.510   7.938  20.107  1.00  0.00     0.006 C 
BRANCH  13  14
ATOM     14  C   UNL     1      37.976   7.272  18.835  1.00  0.00     0.053 C 
BRANCH  14  15
ATOM     15  C   UNL     1      38.740   6.022  18.531  1.00  0.00     0.041 C 
ATOM     16  O   UNL     1      38.923   5.156  19.427  1.00  0.00    -0.550 OA
ATOM     17  O   UNL     1      39.267   5.819  17.260  1.00  0.00    -0.550 OA
ENDBRANCH  14  15
ENDBRANCH  13  14
ENDBRANCH  12  13
ENDBRANCH  11  12
ENDBRANCH  10  11
ENDBRANCH   9  10
ENDBRANCH   8   9
ENDBRANCH   7   8
ENDBRANCH   6   7
ENDBRANCH   5   6
ENDBRANCH   4   5
ENDBRANCH   3   4
ENDBRANCH   2   3
ENDBRANCH   1   2
BRANCH   1  18
ATOM     18  C   UNL     1      31.636   8.532  21.986  1.00  0.00     0.000 C 
BRANCH  18  19
ATOM     19  C   UNL     1      31.652   9.892  22.708  1.00  0.00     0.000 C 
BRANCH  19  20
ATOM     20  C   UNL     1      32.427  11.010  21.980  1.00  0.00     0.000 C 
BRANCH  20  21
ATOM     21  C   UNL     1      33.225  11.955  22.899  1.00  0.00     0.000 C 
BRANCH  21  22
ATOM     22  C   UNL     1      34.457  11.321  23.577  1.00  0.00     0.000 C 
BRANCH  22  23
ATOM     23  C   UNL     1      35.324  10.436  22.662  1.00  0.00     0.000 C 
BRANCH  23  24
ATOM     24  C   UNL     1      36.675  11.079  22.312  1.00  0.00    -0.000 C 
BRANCH  24  25
ATOM     25  C   UNL     1      36.712  11.629  20.877  1.00  0.00    -0.000 C 
BRANCH  25  26
ATOM     26  C   UNL     1      35.554  11.104  20.009  1.00  0.00    -0.000 C 
BRANCH  26  27
ATOM     27  C   UNL     1      36.042  10.447  18.707  1.00  0.00    -0.000 C 
BRANCH  27  28
ATOM     28  C   UNL     1      34.998   9.495  18.099  1.00  0.00    -0.000 C 
BRANCH  28  29
ATOM     29  C   UNL     1      34.229  10.134  16.930  1.00  0.00    -0.000 C 
BRANCH  29  30
ATOM     30  C   UNL     1      32.781  10.493  17.307  1.00  0.00    -0.000 C 
BRANCH  30  31
ATOM     31  C   UNL     1      31.773  10.094  16.217  1.00  0.00    -0.003 C 
ATOM     32  C   UNL     1      31.254   8.665  16.383  1.00  0.00     0.004 C 
ENDBRANCH  30  31
ENDBRANCH  29  30
ENDBRANCH  28  29
ENDBRANCH  27  28
ENDBRANCH  26  27
ENDBRANCH  25  26
ENDBRANCH  24  25
ENDBRANCH  23  24
ENDBRANCH  22  23
ENDBRANCH  21  22
ENDBRANCH  20  21
ENDBRANCH  19  20
ENDBRANCH  18  19
ENDBRANCH   1  18
TORSDOF 28
ENDMDL
MODEL 3
REMARK VINA RESULT:    -2.452      3.038      6.193
REMARK INTER + INTRA:         -12.367
REMARK INTER:                  -5.855
REMARK INTRA:                  -6.512
REMARK UNBOUND:                -5.901
REMARK SMILES CCCCCCCCCCCCCCCCCCCCCCCCCCCCCC(=O)[O-]
REMARK SMILES IDX 16 1 17 2 18 3 19 4 20 5 21 6 22 7 23 8 24 9 25 10 26 11
REMARK SMILES IDX 27 12 28 13 29 14 30 15 31 16 32 17 15 18 14 19 13 20 12 21
REMARK SMILES IDX 11 22 10 23 9 24 8 25 7 26 6 27 5 28 4 29 3 30 2 31 1 32
REMARK H PARENT
REMARK Flexibility Score: inf
ROOT
ATOM      1  C   UNL     1      38.220   8.596  22.249  1.00  0.00     0.000 C 
ENDROOT
BRANCH   1   2
ATOM      2  C   UNL     1      37.955  10.009  22.795  1.00  0.00     0.000 C 
BRANCH   2   3
ATOM      3  C   UNL     1      36.478  10.234  23.170  1.00  0.00     0.000 C 
BRANCH   3   4
ATOM      4  C   UNL     1      36.016  11.671  22.875  1.00  0.00     0.000 C 
BRANCH   4   5
ATOM      5  C   UNL     1      34.655  11.992  23.518  1.00  0.00     0.000 C 
BRANCH   5   6
ATOM      6  C   UNL     1      33.470  11.761  22.562  1.00  0.00     0.000 C 
BRANCH   6   7
ATOM      7  C   UNL     1      32.815  10.371  22.652  1.00  0.00     0.000 C 
BRANCH   7   8
ATOM      8  C   UNL     1      33.160   9.465  21.457  1.00  0.00     0.000 C 
BRANCH   8   9
ATOM      9  C   UNL     1      33.604  10.264  20.221  1.00  0.00     0.000 C 
BRANCH   9  10
ATOM     10  C   UNL     1      35.026   9.900  19.759  1.00  0.00     0.000 C 
BRANCH  10  11
ATOM     11  C   UNL     1      35.853  11.131  19.350  1.00  0.00     0.000 C 
BRANCH  11  12
ATOM     12  C   UNL     1      37.344  10.814  19.104  1.00  0.00     0.000 C 
BRANCH  12  13
ATOM     13  C   UNL     1      38.269  11.903  19.667  1.00  0.00     0.006 C 
BRANCH  13  14
ATOM     14  C   UNL     1      39.722  11.663  19.244  1.00  0.00     0.053 C 
BRANCH  14  15
ATOM     15  C   UNL     1      40.544  11.208  20.408  1.00  0.00     0.041 C 
ATOM     16  O   UNL     1      40.956  10.019  20.468  1.00  0.00    -0.550 OA
ATOM     17  O   UNL     1      40.843  12.092  21.439  1.00  0.00    -0.550 OA
ENDBRANCH  14  15
ENDBRANCH  13  14
ENDBRANCH  12  13
ENDBRANCH  11  12
ENDBRANCH  10  11
ENDBRANCH   9  10
ENDBRANCH   8   9
ENDBRANCH   7   8
ENDBRANCH   6   7
ENDBRANCH   5   6
ENDBRANCH   4   5
ENDBRANCH   3   4
ENDBRANCH   2   3
ENDBRANCH   1   2
BRANCH   1  18
ATOM     18  C   UNL     1      36.998   7.670  22.377  1.00  0.00     0.000 C 
BRANCH  18  19
ATOM     19  C   UNL     1      36.673   6.929  21.067  1.00  0.00     0.000 C 
BRANCH  19  20
ATOM     20  C   UNL     1      35.193   6.534  20.889  1.00  0.00     0.000 C 
BRANCH  20  21
ATOM     21  C   UNL     1      34.919   5.018  20.881  1.00  0.00     0.000 C 
BRANCH  21  22
ATOM     22  C   UNL     1      33.588   4.590  21.531  1.00  0.00     0.000 C 
BRANCH  22  23
ATOM     23  C   UNL     1      32.336   4.803  20.659  1.00  0.00     0.000 C 
BRANCH  23  24
ATOM     24  C   UNL     1      31.510   6.027  21.086  1.00  0.00    -0.000 C 
BRANCH  24  25
ATOM     25  C   UNL     1      31.024   6.858  19.887  1.00  0.00    -0.000 C 
BRANCH  25  26
ATOM     26  C   UNL     1      31.831   6.580  18.606  1.00  0.00    -0.000 C 
BRANCH  26  27
ATOM     27  C   UNL     1      32.347   7.866  17.941  1.00  0.00    -0.000 C 
BRANCH  27  28
ATOM     28  C   UNL     1      33.648   7.643  17.152  1.00  0.00    -0.000 C 
BRANCH  28  29
ATOM     29  C   UNL     1      34.153   6.193  17.248  1.00  0.00    -0.000 C 
BRANCH  29  30
ATOM     30  C   UNL     1      35.685   6.111  17.360  1.00  0.00    -0.000 C 
BRANCH  30  31
ATOM     31  C   UNL     1      36.364   7.475  17.155  1.00  0.00    -0.003 C 
ATOM     32  C   UNL     1      37.825   7.485  17.608  1.00  0.00     0.004 C 
ENDBRANCH  30  31
ENDBRANCH  29  30
ENDBRANCH  28  29
ENDBRANCH  27  28
ENDBRANCH  26  27
ENDBRANCH  25  26
ENDBRANCH  24  25
ENDBRANCH  23  24
ENDBRANCH  22  23
ENDBRANCH  21  22
ENDBRANCH  20  21
ENDBRANCH  19  20
ENDBRANCH  18  19
ENDBRANCH   1  18
TORSDOF 28
ENDMDL
MODEL 4
REMARK VINA RESULT:    -2.451      1.637      4.926
REMARK INTER + INTRA:         -12.364
REMARK INTER:                  -7.518
REMARK INTRA:                  -4.846
REMARK UNBOUND:                -5.901
REMARK SMILES CCCCCCCCCCCCCCCCCCCCCCCCCCCCCC(=O)[O-]
REMARK SMILES IDX 16 1 17 2 18 3 19 4 20 5 21 6 22 7 23 8 24 9 25 10 26 11
REMARK SMILES IDX 27 12 28 13 29 14 30 15 31 16 32 17 15 18 14 19 13 20 12 21
REMARK SMILES IDX 11 22 10 23 9 24 8 25 7 26 6 27 5 28 4 29 3 30 2 31 1 32
REMARK H PARENT
REMARK Flexibility Score: inf
ROOT
ATOM      1  C   UNL     1      31.845   8.304  21.579  1.00  0.00     0.000 C 
ENDROOT
BRANCH   1   2
ATOM      2  C   UNL     1      31.317   6.861  21.505  1.00  0.00     0.000 C 
BRANCH   2   3
ATOM      3  C   UNL     1      31.609   6.191  20.149  1.00  0.00     0.000 C 
BRANCH   3   4
ATOM      4  C   UNL     1      31.798   7.218  19.021  1.00  0.00     0.000 C 
BRANCH   4   5
ATOM      5  C   UNL     1      32.549   6.631  17.814  1.00  0.00     0.000 C 
BRANCH   5   6
ATOM      6  C   UNL     1      33.359   7.687  17.039  1.00  0.00     0.000 C 
BRANCH   6   7
ATOM      7  C   UNL     1      34.883   7.624  17.240  1.00  0.00     0.000 C 
BRANCH   7   8
ATOM      8  C   UNL     1      35.384   8.572  18.344  1.00  0.00     0.000 C 
BRANCH   8   9
ATOM      9  C   UNL     1      36.087   7.825  19.489  1.00  0.00     0.000 C 
BRANCH   9  10
ATOM     10  C   UNL     1      35.125   7.445  20.628  1.00  0.00     0.000 C 
BRANCH  10  11
ATOM     11  C   UNL     1      35.293   5.987  21.090  1.00  0.00     0.000 C 
BRANCH  11  12
ATOM     12  C   UNL     1      35.034   4.956  19.970  1.00  0.00     0.000 C 
BRANCH  12  13
ATOM     13  C   UNL     1      35.750   3.624  20.231  1.00  0.00     0.006 C 
BRANCH  13  14
ATOM     14  C   UNL     1      35.061   2.473  19.490  1.00  0.00     0.053 C 
BRANCH  14  15
ATOM     15  C   UNL     1      35.080   1.225  20.314  1.00  0.00     0.041 C 
ATOM     16  O   UNL     1      34.005   0.733  20.746  1.00  0.00    -0.550 OA
ATOM     17  O   UNL     1      36.289   0.611  20.623  1.00  0.00    -0.550 OA
ENDBRANCH  14  15
ENDBRANCH  13  14
ENDBRANCH  12  13
ENDBRANCH  11  12
ENDBRANCH  10  11
ENDBRANCH   9  10
ENDBRANCH   8   9
ENDBRANCH   7   8
ENDBRANCH   6   7
ENDBRANCH   5   6
ENDBRANCH   4   5
ENDBRANCH   3   4
ENDBRANCH   2   3
ENDBRANCH   1   2
BRANCH   1  18
ATOM     18  C   UNL     1      31.117   9.150  22.637  1.00  0.00     0.000 C 
BRANCH  18  19
ATOM     19  C   UNL     1      32.009  10.254  23.234  1.00  0.00     0.000 C 
BRANCH  19  20
ATOM     20  C   UNL     1      32.381  11.392  22.263  1.00  0.00     0.000 C 
BRANCH  20  21
ATOM     21  C   UNL     1      33.786  11.991  22.467  1.00  0.00     0.000 C 
BRANCH  21  22
ATOM     22  C   UNL     1      34.774  11.092  23.238  1.00  0.00     0.000 C 
BRANCH  22  23
ATOM     23  C   UNL     1      35.851  10.411  22.373  1.00  0.00     0.000 C 
BRANCH  23  24
ATOM     24  C   UNL     1      37.119  10.054  23.166  1.00  0.00    -0.000 C 
BRANCH  24  25
ATOM     25  C   UNL     1      37.731   8.714  22.727  1.00  0.00    -0.000 C 
BRANCH  25  26
ATOM     26  C   UNL     1      38.246   7.878  23.913  1.00  0.00    -0.000 C 
BRANCH  26  27
ATOM     27  C   UNL     1      37.707   6.439  23.900  1.00  0.00    -0.000 C 
BRANCH  27  28
ATOM     28  C   UNL     1      38.702   5.430  24.499  1.00  0.00    -0.000 C 
BRANCH  28  29
ATOM     29  C   UNL     1      39.224   4.427  23.456  1.00  0.00    -0.000 C 
BRANCH  29  30
ATOM     30  C   UNL     1      38.672   4.705  22.048  1.00  0.00    -0.000 C 
BRANCH  30  31
ATOM     31  C   UNL     1      39.732   5.297  21.105  1.00  0.00    -0.003 C 
ATOM     32  C   UNL     1      39.130   6.195  20.024  1.00  0.00     0.004 C 
ENDBRANCH  30  31
ENDBRANCH  29  30
ENDBRANCH  28  29
ENDBRANCH  27  28
ENDBRANCH  26  27
ENDBRANCH  25  26
ENDBRANCH  24  25
ENDBRANCH  23  24
ENDBRANCH  22  23
ENDBRANCH  21  22
ENDBRANCH  20  21
ENDBRANCH  19  20
ENDBRANCH  18  19
ENDBRANCH   1  18
TORSDOF 28
ENDMDL
MODEL 5
REMARK VINA RESULT:    -2.451      2.485      6.429
REMARK INTER + INTRA:         -12.363
REMARK INTER:                  -6.877
REMARK INTRA:                  -5.486
REMARK UNBOUND:                -5.901
REMARK SMILES CCCCCCCCCCCCCCCCCCCCCCCCCCCCCC(=O)[O-]
REMARK SMILES IDX 16 1 17 2 18 3 19 4 20 5 21 6 22 7 23 8 24 9 25 10 26 11
REMARK SMILES IDX 27 12 28 13 29 14 30 15 31 16 32 17 15 18 14 19 13 20 12 21
REMARK SMILES IDX 11 22 10 23 9 24 8 25 7 26 6 27 5 28 4 29 3 30 2 31 1 32
REMARK H PARENT
REMARK Flexibility Score: inf
ROOT
ATOM      1  C   UNL     1      36.329  11.842  20.995  1.00  0.00     0.000 C 
ENDROOT
BRANCH   1   2
ATOM      2  C   UNL     1      37.076  10.902  20.035  1.00  0.00     0.000 C 
BRANCH   2   3
ATOM      3  C   UNL     1      36.135  10.198  19.040  1.00  0.00     0.000 C 
BRANCH   3   4
ATOM      4  C   UNL     1      34.834   9.721  19.708  1.00  0.00     0.000 C 
BRANCH   4   5
ATOM      5  C   UNL     1      33.590  10.036  18.860  1.00  0.00     0.000 C 
BRANCH   5   6
ATOM      6  C   UNL     1      33.135   8.846  17.996  1.00  0.00     0.000 C 
BRANCH   6   7
ATOM      7  C   UNL     1      33.898   8.666  16.671  1.00  0.00     0.000 C 
BRANCH   7   8
ATOM      8  C   UNL     1      34.693   7.351  16.609  1.00  0.00     0.000 C 
BRANCH   8   9
ATOM      9  C   UNL     1      34.138   6.281  17.564  1.00  0.00     0.000 C 
BRANCH   9  10
ATOM     10  C   UNL     1      35.077   5.999  18.750  1.00  0.00     0.000 C 
BRANCH  10  11
ATOM     11  C   UNL     1      36.500   6.537  18.524  1.00  0.00     0.000 C 
BRANCH  11  12
ATOM     12  C   UNL     1      37.301   6.721  19.832  1.00  0.00     0.000 C 
BRANCH  12  13
ATOM     13  C   UNL     1      36.402   6.666  21.075  1.00  0.00     0.006 C 
BRANCH  13  14
ATOM     14  C   UNL     1      36.842   7.698  22.119  1.00  0.00     0.053 C 
BRANCH  14  15
ATOM     15  C   UNL     1      37.882   7.121  23.027  1.00  0.00     0.041 C 
ATOM     16  O   UNL     1      37.548   6.358  23.971  1.00  0.00    -0.550 OA
ATOM     17  O   UNL     1      39.223   7.440  22.842  1.00  0.00    -0.550 OA
ENDBRANCH  14  15
ENDBRANCH  13  14
ENDBRANCH  12  13
ENDBRANCH  11  12
ENDBRANCH  10  11
ENDBRANCH   9  10
ENDBRANCH   8   9
ENDBRANCH   7   8
ENDBRANCH   6   7
ENDBRANCH   5   6
ENDBRANCH   4   5
ENDBRANCH   3   4
ENDBRANCH   2   3
ENDBRANCH   1   2
BRANCH   1  18
ATOM     18  C   UNL     1      36.642  11.555  22.474  1.00  0.00     0.000 C 
BRANCH  18  19
ATOM     19  C   UNL     1      35.440  10.964  23.233  1.00  0.00     0.000 C 
BRANCH  19  20
ATOM     20  C   UNL     1      34.063  11.513  22.808  1.00  0.00     0.000 C 
BRANCH  20  21
ATOM     21  C   UNL     1      32.866  10.967  23.610  1.00  0.00     0.000 C 
BRANCH  21  22
ATOM     22  C   UNL     1      31.598  10.682  22.780  1.00  0.00     0.000 C 
BRANCH  22  23
ATOM     23  C   UNL     1      31.153   9.208  22.749  1.00  0.00     0.000 C 
BRANCH  23  24
ATOM     24  C   UNL     1      31.830   8.401  21.629  1.00  0.00    -0.000 C 
BRANCH  24  25
ATOM     25  C   UNL     1      30.955   7.241  21.127  1.00  0.00    -0.000 C 
BRANCH  25  26
ATOM     26  C   UNL     1      31.776   6.128  20.450  1.00  0.00    -0.000 C 
BRANCH  26  27
ATOM     27  C   UNL     1      32.801   5.489  21.400  1.00  0.00    -0.000 C 
BRANCH  27  28
ATOM     28  C   UNL     1      32.461   4.028  21.741  1.00  0.00    -0.000 C 
BRANCH  28  29
ATOM     29  C   UNL     1      32.572   3.098  20.521  1.00  0.00    -0.000 C 
BRANCH  29  30
ATOM     30  C   UNL     1      33.803   2.178  20.595  1.00  0.00    -0.000 C 
BRANCH  30  31
ATOM     31  C   UNL     1      35.122   2.941  20.393  1.00  0.00    -0.003 C 
ATOM     32  C   UNL     1      36.266   2.037  19.933  1.00  0.00     0.004 C 
ENDBRANCH  30  31
ENDBRANCH  29  30
ENDBRANCH  28  29
ENDBRANCH  27  28
ENDBRANCH  26  27
ENDBRANCH  25  26
ENDBRANCH  24  25
ENDBRANCH  23  24
ENDBRANCH  22  23
ENDBRANCH  21  22
ENDBRANCH  20  21
ENDBRANCH  19  20
ENDBRANCH  18  19
ENDBRANCH   1  18
TORSDOF 28
ENDMDL
MODEL 6
REMARK VINA RESULT:    -2.446      2.376      5.544
REMARK INTER + INTRA:         -12.349
REMARK INTER:                  -6.913
REMARK INTRA:                  -5.436
REMARK UNBOUND:                -5.901
REMARK SMILES CCCCCCCCCCCCCCCCCCCCCCCCCCCCCC(=O)[O-]
REMARK SMILES IDX 16 1 17 2 18 3 19 4 20 5 21 6 22 7 23 8 24 9 25 10 26 11
REMARK SMILES IDX 27 12 28 13 29 14 30 15 31 16 32 17 15 18 14 19 13 20 12 21
REMARK SMILES IDX 11 22 10 23 9 24 8 25 7 26 6 27 5 28 4 29 3 30 2 31 1 32
REMARK H PARENT
REMARK Flexibility Score: inf
ROOT
ATOM      1  C   UNL     1      32.014   8.840  21.705  1.00  0.00     0.000 C 
ENDROOT
BRANCH   1   2
ATOM      2  C   UNL     1      31.546   7.406  21.405  1.00  0.00     0.000 C 
BRANCH   2   3
ATOM      3  C   UNL     1      32.081   6.875  20.063  1.00  0.00     0.000 C 
BRANCH   3   4
ATOM      4  C   UNL     1      32.934   5.608  20.237  1.00  0.00     0.000 C 
BRANCH   4   5
ATOM      5  C   UNL     1      32.680   4.910  21.585  1.00  0.00     0.000 C 
BRANCH   5   6
ATOM      6  C   UNL     1      31.888   3.598  21.441  1.00  0.00     0.000 C 
BRANCH   6   7
ATOM      7  C   UNL     1      31.086   3.454  20.136  1.00  0.00     0.000 C 
BRANCH   7   8
ATOM      8  C   UNL     1      30.876   1.988  19.718  1.00  0.00     0.000 C 
BRANCH   8   9
ATOM      9  C   UNL     1      31.297   1.724  18.263  1.00  0.00     0.000 C 
BRANCH   9  10
ATOM     10  C   UNL     1      32.482   2.598  17.820  1.00  0.00     0.000 C 
BRANCH  10  11
ATOM     11  C   UNL     1      33.845   1.945  18.107  1.00  0.00     0.000 C 
BRANCH  11  12
ATOM     12  C   UNL     1      34.751   2.794  19.025  1.00  0.00     0.000 C 
BRANCH  12  13
ATOM     13  C   UNL     1      35.259   1.998  20.236  1.00  0.00     0.006 C 
BRANCH  13  14
ATOM     14  C   UNL     1      34.274   0.888  20.618  1.00  0.00     0.053 C 
BRANCH  14  15
ATOM     15  C   UNL     1      34.948  -0.447  20.599  1.00  0.00     0.041 C 
ATOM     16  O   UNL     1      34.523  -1.363  19.847  1.00  0.00    -0.550 OA
ATOM     17  O   UNL     1      36.039  -0.689  21.427  1.00  0.00    -0.550 OA
ENDBRANCH  14  15
ENDBRANCH  13  14
ENDBRANCH  12  13
ENDBRANCH  11  12
ENDBRANCH  10  11
ENDBRANCH   9  10
ENDBRANCH   8   9
ENDBRANCH   7   8
ENDBRANCH   6   7
ENDBRANCH   5   6
ENDBRANCH   4   5
ENDBRANCH   3   4
ENDBRANCH   2   3
ENDBRANCH   1   2
BRANCH   1  18
ATOM     18  C   UNL     1      31.258   9.479  22.882  1.00  0.00     0.000 C 
BRANCH  18  19
ATOM     19  C   UNL     1      32.058  10.603  23.565  1.00  0.00     0.000 C 
BRANCH  19  20
ATOM     20  C   UNL     1      32.462  11.772  22.643  1.00  0.00     0.000 C 
BRANCH  20  21
ATOM     21  C   UNL     1      33.980  11.969  22.468  1.00  0.00     0.000 C 
BRANCH  21  22
ATOM     22  C   UNL     1      34.863  10.959  23.229  1.00  0.00     0.000 C 
BRANCH  22  23
ATOM     23  C   UNL     1      35.845  10.158  22.353  1.00  0.00     0.000 C 
BRANCH  23  24
ATOM     24  C   UNL     1      35.435  10.123  20.872  1.00  0.00    -0.000 C 
BRANCH  24  25
ATOM     25  C   UNL     1      35.403   8.695  20.303  1.00  0.00    -0.000 C 
BRANCH  25  26
ATOM     26  C   UNL     1      35.586   7.618  21.388  1.00  0.00    -0.000 C 
BRANCH  26  27
ATOM     27  C   UNL     1      36.758   6.669  21.088  1.00  0.00    -0.000 C 
BRANCH  27  28
ATOM     28  C   UNL     1      37.750   7.258  20.071  1.00  0.00    -0.000 C 
BRANCH  28  29
ATOM     29  C   UNL     1      38.160   6.242  18.992  1.00  0.00    -0.000 C 
BRANCH  29  30
ATOM     30  C   UNL     1      36.948   5.646  18.256  1.00  0.00    -0.000 C 
BRANCH  30  31
ATOM     31  C   UNL     1      36.279   6.656  17.309  1.00  0.00    -0.003 C 
ATOM     32  C   UNL     1      34.773   6.433  17.173  1.00  0.00     0.004 C 
ENDBRANCH  30  31
ENDBRANCH  29  30
ENDBRANCH  28  29
ENDBRANCH  27  28
ENDBRANCH  26  27
ENDBRANCH  25  26
ENDBRANCH  24  25
ENDBRANCH  23  24
ENDBRANCH  22  23
ENDBRANCH  21  22
ENDBRANCH  20  21
ENDBRANCH  19  20
ENDBRANCH  18  19
ENDBRANCH   1  18
TORSDOF 28
ENDMDL
MODEL 7
REMARK VINA RESULT:    -2.423      2.583      5.274
REMARK INTER + INTRA:         -12.291
REMARK INTER:                  -6.964
REMARK INTRA:                  -5.327
REMARK UNBOUND:                -5.901
REMARK SMILES CCCCCCCCCCCCCCCCCCCCCCCCCCCCCC(=O)[O-]
REMARK SMILES IDX 16 1 17 2 18 3 19 4 20 5 21 6 22 7 23 8 24 9 25 10 26 11
REMARK SMILES IDX 27 12 28 13 29 14 30 15 31 16 32 17 15 18 14 19 13 20 12 21
REMARK SMILES IDX 11 22 10 23 9 24 8 25 7 26 6 27 5 28 4 29 3 30 2 31 1 32
REMARK H PARENT
REMARK Flexibility Score: inf
ROOT
ATOM      1  C   UNL     1      33.282   8.379  21.075  1.00  0.00     0.000 C 
ENDROOT
BRANCH   1   2
ATOM      2  C   UNL     1      32.452   9.649  21.332  1.00  0.00     0.000 C 
BRANCH   2   3
ATOM      3  C   UNL     1      31.740   9.626  22.697  1.00  0.00     0.000 C 
BRANCH   3   4
ATOM      4  C   UNL     1      32.063  10.870  23.542  1.00  0.00     0.000 C 
BRANCH   4   5
ATOM      5  C   UNL     1      33.130  11.764  22.886  1.00  0.00     0.000 C 
BRANCH   5   6
ATOM      6  C   UNL     1      34.493  11.692  23.597  1.00  0.00     0.000 C 
BRANCH   6   7
ATOM      7  C   UNL     1      35.543  10.797  22.915  1.00  0.00     0.000 C 
BRANCH   7   8
ATOM      8  C   UNL     1      36.806  11.567  22.493  1.00  0.00     0.000 C 
BRANCH   8   9
ATOM      9  C   UNL     1      36.834  11.873  20.986  1.00  0.00     0.000 C 
BRANCH   9  10
ATOM     10  C   UNL     1      35.748  11.112  20.206  1.00  0.00     0.000 C 
BRANCH  10  11
ATOM     11  C   UNL     1      34.715  12.048  19.557  1.00  0.00     0.000 C 
BRANCH  11  12
ATOM     12  C   UNL     1      33.930  11.389  18.402  1.00  0.00     0.000 C 
BRANCH  12  13
ATOM     13  C   UNL     1      34.507  10.020  18.016  1.00  0.00     0.006 C 
BRANCH  13  14
ATOM     14  C   UNL     1      34.102   9.633  16.590  1.00  0.00     0.053 C 
BRANCH  14  15
ATOM     15  C   UNL     1      32.883   8.767  16.602  1.00  0.00     0.041 C 
ATOM     16  O   UNL     1      32.994   7.513  16.561  1.00  0.00    -0.550 OA
ATOM     17  O   UNL     1      31.618   9.343  16.642  1.00  0.00    -0.550 OA
ENDBRANCH  14  15
ENDBRANCH  13  14
ENDBRANCH  12  13
ENDBRANCH  11  12
ENDBRANCH  10  11
ENDBRANCH   9  10
ENDBRANCH   8   9
ENDBRANCH   7   8
ENDBRANCH   6   7
ENDBRANCH   5   6
ENDBRANCH   4   5
ENDBRANCH   3   4
ENDBRANCH   2   3
ENDBRANCH   1   2
BRANCH   1  18
ATOM     18  C   UNL     1      32.599   7.411  20.093  1.00  0.00     0.000 C 
BRANCH  18  19
ATOM     19  C   UNL     1      31.500   6.564  20.760  1.00  0.00     0.000 C 
BRANCH  19  20
ATOM     20  C   UNL     1      31.984   5.246  21.397  1.00  0.00     0.000 C 
BRANCH  20  21
ATOM     21  C   UNL     1      32.596   4.232  20.411  1.00  0.00     0.000 C 
BRANCH  21  22
ATOM     22  C   UNL     1      34.020   3.755  20.763  1.00  0.00     0.000 C 
BRANCH  22  23
ATOM     23  C   UNL     1      35.157   4.670  20.272  1.00  0.00     0.000 C 
BRANCH  23  24
ATOM     24  C   UNL     1      35.666   5.629  21.361  1.00  0.00    -0.000 C 
BRANCH  24  25
ATOM     25  C   UNL     1      36.914   6.412  20.920  1.00  0.00    -0.000 C 
BRANCH  25  26
ATOM     26  C   UNL     1      36.974   7.825  21.527  1.00  0.00    -0.000 C 
BRANCH  26  27
ATOM     27  C   UNL     1      38.287   8.087  22.284  1.00  0.00    -0.000 C 
BRANCH  27  28
ATOM     28  C   UNL     1      38.066   8.311  23.790  1.00  0.00    -0.000 C 
BRANCH  28  29
ATOM     29  C   UNL     1      38.354   7.050  24.621  1.00  0.00    -0.000 C 
BRANCH  29  30
ATOM     30  C   UNL     1      39.463   6.180  24.002  1.00  0.00    -0.000 C 
BRANCH  30  31
ATOM     31  C   UNL     1      39.107   4.684  24.004  1.00  0.00    -0.003 C 
ATOM     32  C   UNL     1      39.168   4.059  22.610  1.00  0.00     0.004 C 
ENDBRANCH  30  31
ENDBRANCH  29  30
ENDBRANCH  28  29
ENDBRANCH  27  28
ENDBRANCH  26  27
ENDBRANCH  25  26
ENDBRANCH  24  25
ENDBRANCH  23  24
ENDBRANCH  22  23
ENDBRANCH  21  22
ENDBRANCH  20  21
ENDBRANCH  19  20
ENDBRANCH  18  19
ENDBRANCH   1  18
TORSDOF 28
ENDMDL
MODEL 8
REMARK VINA RESULT:    -2.406      2.465      6.573
REMARK INTER + INTRA:         -12.244
REMARK INTER:                  -6.510
REMARK INTRA:                  -5.734
REMARK UNBOUND:                -5.901
REMARK SMILES CCCCCCCCCCCCCCCCCCCCCCCCCCCCCC(=O)[O-]
REMARK SMILES IDX 16 1 17 2 18 3 19 4 20 5 21 6 22 7 23 8 24 9 25 10 26 11
REMARK SMILES IDX 27 12 28 13 29 14 30 15 31 16 32 17 15 18 14 19 13 20 12 21
REMARK SMILES IDX 11 22 10 23 9 24 8 25 7 26 6 27 5 28 4 29 3 30 2 31 1 32
REMARK H PARENT
REMARK Flexibility Score: inf
ROOT
ATOM      1  C   UNL     1      33.038   6.625  20.716  1.00  0.00     0.000 C 
ENDROOT
BRANCH   1   2
ATOM      2  C   UNL     1      32.048   5.470  20.948  1.00  0.00     0.000 C 
BRANCH   2   3
ATOM      3  C   UNL     1      32.588   4.413  21.929  1.00  0.00     0.000 C 
BRANCH   3   4
ATOM      4  C   UNL     1      32.798   3.047  21.255  1.00  0.00     0.000 C 
BRANCH   4   5
ATOM      5  C   UNL     1      32.588   3.107  19.732  1.00  0.00     0.000 C 
BRANCH   5   6
ATOM      6  C   UNL     1      33.857   2.752  18.936  1.00  0.00     0.000 C 
BRANCH   6   7
ATOM      7  C   UNL     1      34.440   3.895  18.085  1.00  0.00     0.000 C 
BRANCH   7   8
ATOM      8  C   UNL     1      35.354   4.836  18.889  1.00  0.00     0.000 C 
BRANCH   8   9
ATOM      9  C   UNL     1      36.036   4.128  20.071  1.00  0.00     0.000 C 
BRANCH   9  10
ATOM     10  C   UNL     1      37.122   4.992  20.734  1.00  0.00     0.000 C 
BRANCH  10  11
ATOM     11  C   UNL     1      36.541   6.056  21.682  1.00  0.00     0.000 C 
BRANCH  11  12
ATOM     12  C   UNL     1      36.656   7.494  21.133  1.00  0.00     0.000 C 
BRANCH  12  13
ATOM     13  C   UNL     1      38.021   7.760  20.483  1.00  0.00     0.006 C 
BRANCH  13  14
ATOM     14  C   UNL     1      37.925   8.874  19.435  1.00  0.00     0.053 C 
BRANCH  14  15
ATOM     15  C   UNL     1      38.011   8.309  18.052  1.00  0.00     0.041 C 
ATOM     16  O   UNL     1      38.087   9.076  17.057  1.00  0.00    -0.550 OA
ATOM     17  O   UNL     1      37.991   6.932  17.859  1.00  0.00    -0.550 OA
ENDBRANCH  14  15
ENDBRANCH  13  14
ENDBRANCH  12  13
ENDBRANCH  11  12
ENDBRANCH  10  11
ENDBRANCH   9  10
ENDBRANCH   8   9
ENDBRANCH   7   8
ENDBRANCH   6   7
ENDBRANCH   5   6
ENDBRANCH   4   5
ENDBRANCH   3   4
ENDBRANCH   2   3
ENDBRANCH   1   2
BRANCH   1  18
ATOM     18  C   UNL     1      32.419   8.004  20.998  1.00  0.00     0.000 C 
BRANCH  18  19
ATOM     19  C   UNL     1      31.146   7.921  21.861  1.00  0.00     0.000 C 
BRANCH  19  20
ATOM     20  C   UNL     1      30.947   9.088  22.849  1.00  0.00     0.000 C 
BRANCH  20  21
ATOM     21  C   UNL     1      31.685  10.389  22.479  1.00  0.00     0.000 C 
BRANCH  21  22
ATOM     22  C   UNL     1      32.575  10.975  23.593  1.00  0.00     0.000 C 
BRANCH  22  23
ATOM     23  C   UNL     1      33.903  11.591  23.114  1.00  0.00     0.000 C 
BRANCH  23  24
ATOM     24  C   UNL     1      34.900  10.540  22.601  1.00  0.00    -0.000 C 
BRANCH  24  25
ATOM     25  C   UNL     1      35.412  10.855  21.185  1.00  0.00    -0.000 C 
BRANCH  25  26
ATOM     26  C   UNL     1      34.546  11.900  20.459  1.00  0.00    -0.000 C 
BRANCH  26  27
ATOM     27  C   UNL     1      34.385  11.596  18.961  1.00  0.00    -0.000 C 
BRANCH  27  28
ATOM     28  C   UNL     1      33.576  10.314  18.701  1.00  0.00    -0.000 C 
BRANCH  28  29
ATOM     29  C   UNL     1      34.451   9.161  18.181  1.00  0.00    -0.000 C 
BRANCH  29  30
ATOM     30  C   UNL     1      33.795   8.409  17.010  1.00  0.00    -0.000 C 
BRANCH  30  31
ATOM     31  C   UNL     1      32.307   8.114  17.259  1.00  0.00    -0.003 C 
ATOM     32  C   UNL     1      31.984   6.620  17.222  1.00  0.00     0.004 C 
ENDBRANCH  30  31
ENDBRANCH  29  30
ENDBRANCH  28  29
ENDBRANCH  27  28
ENDBRANCH  26  27
ENDBRANCH  25  26
ENDBRANCH  24  25
ENDBRANCH  23  24
ENDBRANCH  22  23
ENDBRANCH  21  22
ENDBRANCH  20  21
ENDBRANCH  19  20
ENDBRANCH  18  19
ENDBRANCH   1  18
TORSDOF 28
ENDMDL
MODEL 9
REMARK VINA RESULT:    -2.405      2.921      6.243
REMARK INTER + INTRA:         -12.244
REMARK INTER:                  -5.583
REMARK INTRA:                  -6.661
REMARK UNBOUND:                -5.901
REMARK SMILES CCCCCCCCCCCCCCCCCCCCCCCCCCCCCC(=O)[O-]
REMARK SMILES IDX 16 1 17 2 18 3 19 4 20 5 21 6 22 7 23 8 24 9 25 10 26 11
REMARK SMILES IDX 27 12 28 13 29 14 30 15 31 16 32 17 15 18 14 19 13 20 12 21
REMARK SMILES IDX 11 22 10 23 9 24 8 25 7 26 6 27 5 28 4 29 3 30 2 31 1 32
REMARK H PARENT
REMARK Flexibility Score: inf
ROOT
ATOM      1  C   UNL     1      32.936   8.834  21.112  1.00  0.00     0.000 C 
ENDROOT
BRANCH   1   2
ATOM      2  C   UNL     1      33.309  10.285  21.462  1.00  0.00     0.000 C 
BRANCH   2   3
ATOM      3  C   UNL     1      33.172  10.587  22.966  1.00  0.00     0.000 C 
BRANCH   3   4
ATOM      4  C   UNL     1      34.400  11.324  23.526  1.00  0.00     0.000 C 
BRANCH   4   5
ATOM      5  C   UNL     1      35.409  11.701  22.427  1.00  0.00     0.000 C 
BRANCH   5   6
ATOM      6  C   UNL     1      36.859  11.333  22.791  1.00  0.00     0.000 C 
BRANCH   6   7
ATOM      7  C   UNL     1      37.133   9.827  22.953  1.00  0.00     0.000 C 
BRANCH   7   8
ATOM      8  C   UNL     1      37.157   9.073  21.613  1.00  0.00     0.000 C 
BRANCH   8   9
ATOM      9  C   UNL     1      36.360   7.759  21.661  1.00  0.00     0.000 C 
BRANCH   9  10
ATOM     10  C   UNL     1      36.063   7.192  20.262  1.00  0.00     0.000 C 
BRANCH  10  11
ATOM     11  C   UNL     1      37.334   6.992  19.419  1.00  0.00     0.000 C 
BRANCH  11  12
ATOM     12  C   UNL     1      37.105   7.195  17.905  1.00  0.00     0.000 C 
BRANCH  12  13
ATOM     13  C   UNL     1      35.625   7.432  17.570  1.00  0.00     0.006 C 
BRANCH  13  14
ATOM     14  C   UNL     1      35.450   7.827  16.100  1.00  0.00     0.053 C 
BRANCH  14  15
ATOM     15  C   UNL     1      34.675   6.783  15.360  1.00  0.00     0.041 C 
ATOM     16  O   UNL     1      33.772   7.118  14.549  1.00  0.00    -0.550 OA
ATOM     17  O   UNL     1      34.938   5.435  15.577  1.00  0.00    -0.550 OA
ENDBRANCH  14  15
ENDBRANCH  13  14
ENDBRANCH  12  13
ENDBRANCH  11  12
ENDBRANCH  10  11
ENDBRANCH   9  10
ENDBRANCH   8   9
ENDBRANCH   7   8
ENDBRANCH   6   7
ENDBRANCH   5   6
ENDBRANCH   4   5
ENDBRANCH   3   4
ENDBRANCH   2   3
ENDBRANCH   1   2
BRANCH   1  18
ATOM     18  C   UNL     1      31.630   8.378  21.784  1.00  0.00     0.000 C 
BRANCH  18  19
ATOM     19  C   UNL     1      31.255   6.926  21.431  1.00  0.00     0.000 C 
BRANCH  19  20
ATOM     20  C   UNL     1      32.442   6.019  21.045  1.00  0.00     0.000 C 
BRANCH  20  21
ATOM     21  C   UNL     1      32.180   5.074  19.856  1.00  0.00     0.000 C 
BRANCH  21  22
ATOM     22  C   UNL     1      32.718   5.568  18.498  1.00  0.00     0.000 C 
BRANCH  22  23
ATOM     23  C   UNL     1      31.733   6.417  17.673  1.00  0.00     0.000 C 
BRANCH  23  24
ATOM     24  C   UNL     1      32.005   7.927  17.783  1.00  0.00    -0.000 C 
BRANCH  24  25
ATOM     25  C   UNL     1      31.524   8.704  16.547  1.00  0.00    -0.000 C 
BRANCH  25  26
ATOM     26  C   UNL     1      32.086  10.136  16.490  1.00  0.00    -0.000 C 
BRANCH  26  27
ATOM     27  C   UNL     1      33.172  10.387  17.549  1.00  0.00    -0.000 C 
BRANCH  27  28
ATOM     28  C   UNL     1      33.700  11.832  17.523  1.00  0.00    -0.000 C 
BRANCH  28  29
ATOM     29  C   UNL     1      34.806  12.073  18.565  1.00  0.00    -0.000 C 
BRANCH  29  30
ATOM     30  C   UNL     1      35.675  10.825  18.798  1.00  0.00    -0.000 C 
BRANCH  30  31
ATOM     31  C   UNL     1      37.160  11.074  18.488  1.00  0.00    -0.003 C 
ATOM     32  C   UNL     1      37.515  10.802  17.026  1.00  0.00     0.004 C 
ENDBRANCH  30  31
ENDBRANCH  29  30
ENDBRANCH  28  29
ENDBRANCH  27  28
ENDBRANCH  26  27
ENDBRANCH  25  26
ENDBRANCH  24  25
ENDBRANCH  23  24
ENDBRANCH  22  23
ENDBRANCH  21  22
ENDBRANCH  20  21
ENDBRANCH  19  20
ENDBRANCH  18  19
ENDBRANCH   1  18
TORSDOF 28
ENDMDL
