MODEL 1
REMARK VINA RESULT:    -3.641      0.000      0.000
REMARK INTER + INTRA:          -7.566
REMARK INTER:                  -6.195
REMARK INTRA:                  -1.371
REMARK UNBOUND:                -1.371
REMARK SMILES CCCCCCCCCCCCCC(=O)[O-]
REMARK SMILES IDX 8 1 9 2 10 3 11 4 12 5 13 6 14 7 15 8 16 9 7 10 6 11 5 12
REMARK SMILES IDX 4 13 3 14 2 15 1 16
REMARK H PARENT
REMARK Flexibility Score: inf
ROOT
ATOM      1  C   UNL     1      -4.874 -63.543  -0.389  1.00  0.00     0.000 C 
ENDROOT
BRANCH   1   2
ATOM      2  C   UNL     1      -4.174 -64.728  -1.072  1.00  0.00     0.000 C 
BRANCH   2   3
ATOM      3  C   UNL     1      -4.800 -66.081  -0.704  1.00  0.00     0.000 C 
BRANCH   3   4
ATOM      4  C   UNL     1      -5.270 -66.827  -1.963  1.00  0.00     0.000 C 
BRANCH   4   5
ATOM      5  C   UNL     1      -4.368 -66.563  -3.179  1.00  0.00     0.006 C 
BRANCH   5   6
ATOM      6  C   UNL     1      -4.351 -67.737  -4.167  1.00  0.00     0.053 C 
BRANCH   6   7
ATOM      7  C   UNL     1      -4.354 -67.234  -5.576  1.00  0.00     0.041 C 
ATOM      8  O   UNL     1      -4.256 -68.042  -6.537  1.00  0.00    -0.550 OA
ATOM      9  O   UNL     1      -4.516 -65.878  -5.830  1.00  0.00    -0.550 OA
ENDBRANCH   6   7
ENDBRANCH   5   6
ENDBRANCH   4   5
ENDBRANCH   3   4
ENDBRANCH   2   3
ENDBRANCH   1   2
BRANCH   1  10
ATOM     10  C   UNL     1      -6.302 -63.885   0.072  1.00  0.00     0.000 C 
BRANCH  10  11
ATOM     11  C   UNL     1      -7.352 -63.588  -1.010  1.00  0.00    -0.000 C 
BRANCH  11  12
ATOM     12  C   UNL     1      -8.561 -64.539  -0.939  1.00  0.00    -0.000 C 
BRANCH  12  13
ATOM     13  C   UNL     1      -8.589 -65.348   0.376  1.00  0.00    -0.000 C 
BRANCH  13  14
ATOM     14  C   UNL     1      -8.404 -66.865   0.173  1.00  0.00    -0.000 C 
BRANCH  14  15
ATOM     15  C   UNL     1      -9.094 -67.435  -1.077  1.00  0.00    -0.003 C 
ATOM     16  C   UNL     1      -9.181 -68.961  -1.062  1.00  0.00     0.004 C 
ENDBRANCH  14  15
ENDBRANCH  13  14
ENDBRANCH  12  13
ENDBRANCH  11  12
ENDBRANCH  10  11
ENDBRANCH   1  10
TORSDOF 12
ENDMDL
MODEL 2
REMARK VINA RESULT:    -3.636      1.159      1.826
REMARK INTER + INTRA:          -7.558
REMARK INTER:                  -5.818
REMARK INTRA:                  -1.740
REMARK UNBOUND:                -1.371
REMARK SMILES CCCCCCCCCCCCCC(=O)[O-]
REMARK SMILES IDX 8 1 9 2 10 3 11 4 12 5 13 6 14 7 15 8 16 9 7 10 6 11 5 12
REMARK SMILES IDX 4 13 3 14 2 15 1 16
REMARK H PARENT
REMARK Flexibility Score: inf
ROOT
ATOM      1  C   UNL     1      -5.619 -63.578   0.138  1.00  0.00     0.000 C 
ENDROOT
BRANCH   1   2
ATOM      2  C   UNL     1      -4.943 -64.417  -0.959  1.00  0.00     0.000 C 
BRANCH   2   3
ATOM      3  C   UNL     1      -4.774 -65.891  -0.560  1.00  0.00     0.000 C 
BRANCH   3   4
ATOM      4  C   UNL     1      -5.055 -66.816  -1.754  1.00  0.00     0.000 C 
BRANCH   4   5
ATOM      5  C   UNL     1      -4.963 -66.086  -3.104  1.00  0.00     0.006 C 
BRANCH   5   6
ATOM      6  C   UNL     1      -3.740 -66.517  -3.924  1.00  0.00     0.053 C 
BRANCH   6   7
ATOM      7  C   UNL     1      -4.133 -67.527  -4.956  1.00  0.00     0.041 C 
ATOM      8  O   UNL     1      -3.875 -67.324  -6.172  1.00  0.00    -0.550 OA
ATOM      9  O   UNL     1      -4.739 -68.716  -4.570  1.00  0.00    -0.550 OA
ENDBRANCH   6   7
ENDBRANCH   5   6
ENDBRANCH   4   5
ENDBRANCH   3   4
ENDBRANCH   2   3
ENDBRANCH   1   2
BRANCH   1  10
ATOM     10  C   UNL     1      -6.928 -62.925  -0.339  1.00  0.00     0.000 C 
BRANCH  10  11
ATOM     11  C   UNL     1      -7.655 -63.775  -1.394  1.00  0.00    -0.000 C 
BRANCH  11  12
ATOM     12  C   UNL     1      -8.831 -64.573  -0.803  1.00  0.00    -0.000 C 
BRANCH  12  13
ATOM     13  C   UNL     1      -8.621 -66.098  -0.924  1.00  0.00    -0.000 C 
BRANCH  13  14
ATOM     14  C   UNL     1      -8.680 -66.839   0.426  1.00  0.00    -0.000 C 
BRANCH  14  15
ATOM     15  C   UNL     1      -7.948 -66.135   1.579  1.00  0.00    -0.003 C 
ATOM     16  C   UNL     1      -8.775 -66.086   2.864  1.00  0.00     0.004 C 
ENDBRANCH  14  15
ENDBRANCH  13  14
ENDBRANCH  12  13
ENDBRANCH  11  12
ENDBRANCH  10  11
ENDBRANCH   1  10
TORSDOF 12
ENDMDL
MODEL 3
REMARK VINA RESULT:    -3.590      6.881      9.064
REMARK INTER + INTRA:          -7.480
REMARK INTER:                  -6.548
REMARK INTRA:                  -0.931
REMARK UNBOUND:                -1.371
REMARK SMILES CCCCCCCCCCCCCC(=O)[O-]
REMARK SMILES IDX 8 1 9 2 10 3 11 4 12 5 13 6 14 7 15 8 16 9 7 10 6 11 5 12
REMARK SMILES IDX 4 13 3 14 2 15 1 16
REMARK H PARENT
REMARK Flexibility Score: inf
ROOT
ATOM      1  C   UNL     1     -10.309 -66.788   6.828  1.00  0.00     0.000 C 
ENDROOT
BRANCH   1   2
ATOM      2  C   UNL     1     -11.421 -67.844   6.736  1.00  0.00     0.000 C 
BRANCH   2   3
ATOM      3  C   UNL     1     -10.906 -69.272   6.972  1.00  0.00     0.000 C 
BRANCH   3   4
ATOM      4  C   UNL     1      -9.390 -69.353   6.735  1.00  0.00     0.000 C 
BRANCH   4   5
ATOM      5  C   UNL     1      -9.016 -70.356   5.632  1.00  0.00     0.006 C 
BRANCH   5   6
ATOM      6  C   UNL     1      -9.598 -71.753   5.883  1.00  0.00     0.053 C 
BRANCH   6   7
ATOM      7  C   UNL     1      -9.892 -72.437   4.585  1.00  0.00     0.041 C 
ATOM      8  O   UNL     1     -10.852 -73.249   4.501  1.00  0.00    -0.550 OA
ATOM      9  O   UNL     1      -9.139 -72.141   3.457  1.00  0.00    -0.550 OA
ENDBRANCH   6   7
ENDBRANCH   5   6
ENDBRANCH   4   5
ENDBRANCH   3   4
ENDBRANCH   2   3
ENDBRANCH   1   2
BRANCH   1  10
ATOM     10  C   UNL     1     -10.045 -66.088   5.484  1.00  0.00     0.000 C 
BRANCH  10  11
ATOM     11  C   UNL     1      -8.567 -66.159   5.068  1.00  0.00    -0.000 C 
BRANCH  11  12
ATOM     12  C   UNL     1      -8.344 -67.035   3.822  1.00  0.00    -0.000 C 
BRANCH  12  13
ATOM     13  C   UNL     1      -7.906 -66.205   2.596  1.00  0.00    -0.000 C 
BRANCH  13  14
ATOM     14  C   UNL     1      -8.901 -66.266   1.421  1.00  0.00    -0.000 C 
BRANCH  14  15
ATOM     15  C   UNL     1      -8.258 -66.508   0.045  1.00  0.00    -0.003 C 
ATOM     16  C   UNL     1      -8.998 -67.562  -0.778  1.00  0.00     0.004 C 
ENDBRANCH  14  15
ENDBRANCH  13  14
ENDBRANCH  12  13
ENDBRANCH  11  12
ENDBRANCH  10  11
ENDBRANCH   1  10
TORSDOF 12
ENDMDL
MODEL 4
REMARK VINA RESULT:    -3.571      5.793      7.467
REMARK INTER + INTRA:          -7.448
REMARK INTER:                  -6.539
REMARK INTRA:                  -0.908
REMARK UNBOUND:                -1.371
REMARK SMILES CCCCCCCCCCCCCC(=O)[O-]
REMARK SMILES IDX 8 1 9 2 10 3 11 4 12 5 13 6 14 7 15 8 16 9 7 10 6 11 5 12
REMARK SMILES IDX 4 13 3 14 2 15 1 16
REMARK H PARENT
REMARK Flexibility Score: inf
ROOT
ATOM      1  C   UNL     1      -8.272 -66.484   3.111  1.00  0.00     0.000 C 
ENDROOT
BRANCH   1   2
ATOM      2  C   UNL     1      -7.694 -67.177   4.355  1.00  0.00     0.000 C 
BRANCH   2   3
ATOM      3  C   UNL     1      -8.088 -68.659   4.446  1.00  0.00     0.000 C 
BRANCH   3   4
ATOM      4  C   UNL     1      -6.908 -69.509   4.944  1.00  0.00     0.000 C 
BRANCH   4   5
ATOM      5  C   UNL     1      -7.178 -71.018   4.839  1.00  0.00     0.006 C 
BRANCH   5   6
ATOM      6  C   UNL     1      -8.600 -71.395   5.276  1.00  0.00     0.053 C 
BRANCH   6   7
ATOM      7  C   UNL     1      -9.276 -72.203   4.213  1.00  0.00     0.041 C 
ATOM      8  O   UNL     1      -8.961 -72.048   3.003  1.00  0.00    -0.550 OA
ATOM      9  O   UNL     1     -10.217 -73.163   4.562  1.00  0.00    -0.550 OA
ENDBRANCH   6   7
ENDBRANCH   5   6
ENDBRANCH   4   5
ENDBRANCH   3   4
ENDBRANCH   2   3
ENDBRANCH   1   2
BRANCH   1  10
ATOM     10  C   UNL     1      -7.545 -65.170   2.773  1.00  0.00     0.000 C 
BRANCH  10  11
ATOM     11  C   UNL     1      -7.627 -64.824   1.279  1.00  0.00    -0.000 C 
BRANCH  11  12
ATOM     12  C   UNL     1      -6.625 -65.626   0.429  1.00  0.00    -0.000 C 
BRANCH  12  13
ATOM     13  C   UNL     1      -7.269 -66.190  -0.856  1.00  0.00    -0.000 C 
BRANCH  13  14
ATOM     14  C   UNL     1      -8.797 -66.369  -0.754  1.00  0.00    -0.000 C 
BRANCH  14  15
ATOM     15  C   UNL     1      -9.251 -67.769  -0.308  1.00  0.00    -0.003 C 
ATOM     16  C   UNL     1      -8.998 -68.840  -1.369  1.00  0.00     0.004 C 
ENDBRANCH  14  15
ENDBRANCH  13  14
ENDBRANCH  12  13
ENDBRANCH  11  12
ENDBRANCH  10  11
ENDBRANCH   1  10
TORSDOF 12
ENDMDL
MODEL 5
REMARK VINA RESULT:    -3.504      1.503      2.439
REMARK INTER + INTRA:          -7.334
REMARK INTER:                  -6.339
REMARK INTRA:                  -0.995
REMARK UNBOUND:                -1.371
REMARK SMILES CCCCCCCCCCCCCC(=O)[O-]
REMARK SMILES IDX 8 1 9 2 10 3 11 4 12 5 13 6 14 7 15 8 16 9 7 10 6 11 5 12
REMARK SMILES IDX 4 13 3 14 2 15 1 16
REMARK H PARENT
REMARK Flexibility Score: inf
ROOT
ATOM      1  C   UNL     1      -5.429 -66.039  -1.264  1.00  0.00     0.000 C 
ENDROOT
BRANCH   1   2
ATOM      2  C   UNL     1      -5.137 -67.208  -2.219  1.00  0.00     0.000 C 
BRANCH   2   3
ATOM      3  C   UNL     1      -4.376 -66.770  -3.479  1.00  0.00     0.000 C 
BRANCH   3   4
ATOM      4  C   UNL     1      -4.385 -67.883  -4.538  1.00  0.00     0.000 C 
BRANCH   4   5
ATOM      5  C   UNL     1      -4.002 -67.374  -5.937  1.00  0.00     0.006 C 
BRANCH   5   6
ATOM      6  C   UNL     1      -4.281 -68.406  -7.037  1.00  0.00     0.053 C 
BRANCH   6   7
ATOM      7  C   UNL     1      -4.401 -67.731  -8.367  1.00  0.00     0.041 C 
ATOM      8  O   UNL     1      -4.404 -68.414  -9.426  1.00  0.00    -0.550 OA
ATOM      9  O   UNL     1      -4.558 -66.353  -8.436  1.00  0.00    -0.550 OA
ENDBRANCH   6   7
ENDBRANCH   5   6
ENDBRANCH   4   5
ENDBRANCH   3   4
ENDBRANCH   2   3
ENDBRANCH   1   2
BRANCH   1  10
ATOM     10  C   UNL     1      -5.680 -64.716  -2.008  1.00  0.00     0.000 C 
BRANCH  10  11
ATOM     11  C   UNL     1      -7.065 -64.126  -1.700  1.00  0.00    -0.000 C 
BRANCH  11  12
ATOM     12  C   UNL     1      -7.112 -63.404  -0.342  1.00  0.00    -0.000 C 
BRANCH  12  13
ATOM     13  C   UNL     1      -8.146 -64.032   0.618  1.00  0.00    -0.000 C 
BRANCH  13  14
ATOM     14  C   UNL     1      -9.158 -64.958  -0.084  1.00  0.00    -0.000 C 
BRANCH  14  15
ATOM     15  C   UNL     1      -9.079 -66.434   0.337  1.00  0.00    -0.003 C 
ATOM     16  C   UNL     1      -8.800 -67.372  -0.837  1.00  0.00     0.004 C 
ENDBRANCH  14  15
ENDBRANCH  13  14
ENDBRANCH  12  13
ENDBRANCH  11  12
ENDBRANCH  10  11
ENDBRANCH   1  10
TORSDOF 12
ENDMDL
MODEL 6
REMARK VINA RESULT:    -3.494      1.999      4.289
REMARK INTER + INTRA:          -7.317
REMARK INTER:                  -5.638
REMARK INTRA:                  -1.679
REMARK UNBOUND:                -1.371
REMARK SMILES CCCCCCCCCCCCCC(=O)[O-]
REMARK SMILES IDX 8 1 9 2 10 3 11 4 12 5 13 6 14 7 15 8 16 9 7 10 6 11 5 12
REMARK SMILES IDX 4 13 3 14 2 15 1 16
REMARK H PARENT
REMARK Flexibility Score: inf
ROOT
ATOM      1  C   UNL     1      -8.892 -65.698   1.173  1.00  0.00     0.000 C 
ENDROOT
BRANCH   1   2
ATOM      2  C   UNL     1      -9.031 -66.711   0.026  1.00  0.00     0.000 C 
BRANCH   2   3
ATOM      3  C   UNL     1      -7.739 -66.866  -0.790  1.00  0.00     0.000 C 
BRANCH   3   4
ATOM      4  C   UNL     1      -7.121 -65.494  -1.101  1.00  0.00     0.000 C 
BRANCH   4   5
ATOM      5  C   UNL     1      -5.613 -65.574  -1.386  1.00  0.00     0.006 C 
BRANCH   5   6
ATOM      6  C   UNL     1      -5.181 -66.956  -1.895  1.00  0.00     0.053 C 
BRANCH   6   7
ATOM      7  C   UNL     1      -4.445 -66.828  -3.192  1.00  0.00     0.041 C 
ATOM      8  O   UNL     1      -3.677 -65.850  -3.390  1.00  0.00    -0.550 OA
ATOM      9  O   UNL     1      -4.569 -67.814  -4.162  1.00  0.00    -0.550 OA
ENDBRANCH   6   7
ENDBRANCH   5   6
ENDBRANCH   4   5
ENDBRANCH   3   4
ENDBRANCH   2   3
ENDBRANCH   1   2
BRANCH   1  10
ATOM     10  C   UNL     1      -8.462 -66.356   2.496  1.00  0.00     0.000 C 
BRANCH  10  11
ATOM     11  C   UNL     1      -7.408 -65.527   3.246  1.00  0.00    -0.000 C 
BRANCH  11  12
ATOM     12  C   UNL     1      -6.268 -65.051   2.329  1.00  0.00    -0.000 C 
BRANCH  12  13
ATOM     13  C   UNL     1      -6.054 -63.524   2.408  1.00  0.00    -0.000 C 
BRANCH  13  14
ATOM     14  C   UNL     1      -5.923 -62.845   1.031  1.00  0.00    -0.000 C 
BRANCH  14  15
ATOM     15  C   UNL     1      -7.169 -62.069   0.575  1.00  0.00    -0.003 C 
ATOM     16  C   UNL     1      -8.133 -61.768   1.723  1.00  0.00     0.004 C 
ENDBRANCH  14  15
ENDBRANCH  13  14
ENDBRANCH  12  13
ENDBRANCH  11  12
ENDBRANCH  10  11
ENDBRANCH   1  10
TORSDOF 12
ENDMDL
MODEL 7
REMARK VINA RESULT:    -3.470      2.086      3.105
REMARK INTER + INTRA:          -7.275
REMARK INTER:                  -6.405
REMARK INTRA:                  -0.871
REMARK UNBOUND:                -1.371
REMARK SMILES CCCCCCCCCCCCCC(=O)[O-]
REMARK SMILES IDX 8 1 9 2 10 3 11 4 12 5 13 6 14 7 15 8 16 9 7 10 6 11 5 12
REMARK SMILES IDX 4 13 3 14 2 15 1 16
REMARK H PARENT
REMARK Flexibility Score: inf
ROOT
ATOM      1  C   UNL     1      -5.065 -66.853  -1.902  1.00  0.00     0.000 C 
ENDROOT
BRANCH   1   2
ATOM      2  C   UNL     1      -4.662 -67.362  -3.295  1.00  0.00     0.000 C 
BRANCH   2   3
ATOM      3  C   UNL     1      -4.022 -66.269  -4.165  1.00  0.00     0.000 C 
BRANCH   3   4
ATOM      4  C   UNL     1      -4.283 -66.535  -5.656  1.00  0.00     0.000 C 
BRANCH   4   5
ATOM      5  C   UNL     1      -4.932 -65.336  -6.367  1.00  0.00     0.006 C 
BRANCH   5   6
ATOM      6  C   UNL     1      -5.761 -65.753  -7.589  1.00  0.00     0.053 C 
BRANCH   6   7
ATOM      7  C   UNL     1      -6.961 -64.871  -7.731  1.00  0.00     0.041 C 
ATOM      8  O   UNL     1      -7.738 -65.012  -8.712  1.00  0.00    -0.550 OA
ATOM      9  O   UNL     1      -7.250 -63.926  -6.755  1.00  0.00    -0.550 OA
ENDBRANCH   6   7
ENDBRANCH   5   6
ENDBRANCH   4   5
ENDBRANCH   3   4
ENDBRANCH   2   3
ENDBRANCH   1   2
BRANCH   1  10
ATOM     10  C   UNL     1      -5.002 -65.320  -1.792  1.00  0.00     0.000 C 
BRANCH  10  11
ATOM     11  C   UNL     1      -6.028 -64.763  -0.791  1.00  0.00    -0.000 C 
BRANCH  11  12
ATOM     12  C   UNL     1      -7.282 -64.198  -1.481  1.00  0.00    -0.000 C 
BRANCH  12  13
ATOM     13  C   UNL     1      -8.548 -65.017  -1.151  1.00  0.00    -0.000 C 
BRANCH  13  14
ATOM     14  C   UNL     1      -8.267 -66.281  -0.316  1.00  0.00    -0.000 C 
BRANCH  14  15
ATOM     15  C   UNL     1      -8.377 -67.603  -1.094  1.00  0.00    -0.003 C 
ATOM     16  C   UNL     1      -9.636 -68.395  -0.741  1.00  0.00     0.004 C 
ENDBRANCH  14  15
ENDBRANCH  13  14
ENDBRANCH  12  13
ENDBRANCH  11  12
ENDBRANCH  10  11
ENDBRANCH   1  10
TORSDOF 12
ENDMDL
MODEL 8
REMARK VINA RESULT:    -3.452      3.638      6.587
REMARK INTER + INTRA:          -7.244
REMARK INTER:                  -6.205
REMARK INTRA:                  -1.039
REMARK UNBOUND:                -1.371
REMARK SMILES CCCCCCCCCCCCCC(=O)[O-]
REMARK SMILES IDX 8 1 9 2 10 3 11 4 12 5 13 6 14 7 15 8 16 9 7 10 6 11 5 12
REMARK SMILES IDX 4 13 3 14 2 15 1 16
REMARK H PARENT
REMARK Flexibility Score: inf
ROOT
ATOM      1  C   UNL     1      -4.341 -67.074  -3.568  1.00  0.00     0.000 C 
ENDROOT
BRANCH   1   2
ATOM      2  C   UNL     1      -5.144 -67.312  -2.279  1.00  0.00     0.000 C 
BRANCH   2   3
ATOM      3  C   UNL     1      -5.127 -66.100  -1.336  1.00  0.00     0.000 C 
BRANCH   3   4
ATOM      4  C   UNL     1      -6.553 -65.598  -1.065  1.00  0.00     0.000 C 
BRANCH   4   5
ATOM      5  C   UNL     1      -7.529 -66.737  -0.727  1.00  0.00     0.006 C 
BRANCH   5   6
ATOM      6  C   UNL     1      -8.777 -66.245   0.016  1.00  0.00     0.053 C 
BRANCH   6   7
ATOM      7  C   UNL     1      -8.479 -66.058   1.470  1.00  0.00     0.041 C 
ATOM      8  O   UNL     1      -8.496 -67.046   2.252  1.00  0.00    -0.550 OA
ATOM      9  O   UNL     1      -8.135 -64.803   1.955  1.00  0.00    -0.550 OA
ENDBRANCH   6   7
ENDBRANCH   5   6
ENDBRANCH   4   5
ENDBRANCH   3   4
ENDBRANCH   2   3
ENDBRANCH   1   2
BRANCH   1  10
ATOM     10  C   UNL     1      -3.930 -65.601  -3.746  1.00  0.00     0.000 C 
BRANCH  10  11
ATOM     11  C   UNL     1      -3.803 -65.204  -5.224  1.00  0.00    -0.000 C 
BRANCH  11  12
ATOM     12  C   UNL     1      -5.092 -64.569  -5.779  1.00  0.00    -0.000 C 
BRANCH  12  13
ATOM     13  C   UNL     1      -5.609 -65.302  -7.035  1.00  0.00    -0.000 C 
BRANCH  13  14
ATOM     14  C   UNL     1      -4.501 -66.014  -7.836  1.00  0.00    -0.000 C 
BRANCH  14  15
ATOM     15  C   UNL     1      -4.773 -67.497  -8.131  1.00  0.00    -0.003 C 
ATOM     16  C   UNL     1      -4.309 -68.421  -7.005  1.00  0.00     0.004 C 
ENDBRANCH  14  15
ENDBRANCH  13  14
ENDBRANCH  12  13
ENDBRANCH  11  12
ENDBRANCH  10  11
ENDBRANCH   1  10
TORSDOF 12
ENDMDL
MODEL 9
REMARK VINA RESULT:    -3.404      3.530      5.840
REMARK INTER + INTRA:          -7.163
REMARK INTER:                  -4.928
REMARK INTRA:                  -2.235
REMARK UNBOUND:                -1.371
REMARK SMILES CCCCCCCCCCCCCC(=O)[O-]
REMARK SMILES IDX 8 1 9 2 10 3 11 4 12 5 13 6 14 7 15 8 16 9 7 10 6 11 5 12
REMARK SMILES IDX 4 13 3 14 2 15 1 16
REMARK H PARENT
REMARK Flexibility Score: inf
ROOT
ATOM      1  C   UNL     1      -8.136 -65.304   2.675  1.00  0.00     0.000 C 
ENDROOT
BRANCH   1   2
ATOM      2  C   UNL     1      -6.627 -65.029   2.770  1.00  0.00     0.000 C 
BRANCH   2   3
ATOM      3  C   UNL     1      -6.264 -63.576   2.428  1.00  0.00     0.000 C 
BRANCH   3   4
ATOM      4  C   UNL     1      -7.453 -62.639   2.694  1.00  0.00     0.000 C 
BRANCH   4   5
ATOM      5  C   UNL     1      -7.801 -61.764   1.480  1.00  0.00     0.006 C 
BRANCH   5   6
ATOM      6  C   UNL     1      -6.600 -61.535   0.553  1.00  0.00     0.053 C 
BRANCH   6   7
ATOM      7  C   UNL     1      -7.034 -60.849  -0.704  1.00  0.00     0.041 C 
ATOM      8  O   UNL     1      -6.923 -61.434  -1.814  1.00  0.00    -0.550 OA
ATOM      9  O   UNL     1      -7.606 -59.585  -0.646  1.00  0.00    -0.550 OA
ENDBRANCH   6   7
ENDBRANCH   5   6
ENDBRANCH   4   5
ENDBRANCH   3   4
ENDBRANCH   2   3
ENDBRANCH   1   2
BRANCH   1  10
ATOM     10  C   UNL     1      -8.450 -66.671   2.042  1.00  0.00     0.000 C 
BRANCH  10  11
ATOM     11  C   UNL     1      -8.855 -66.551   0.564  1.00  0.00    -0.000 C 
BRANCH  11  12
ATOM     12  C   UNL     1      -9.089 -65.093   0.131  1.00  0.00    -0.000 C 
BRANCH  12  13
ATOM     13  C   UNL     1      -8.155 -64.669  -1.023  1.00  0.00    -0.000 C 
BRANCH  13  14
ATOM     14  C   UNL     1      -6.848 -65.483  -1.091  1.00  0.00    -0.000 C 
BRANCH  14  15
ATOM     15  C   UNL     1      -5.563 -64.643  -1.021  1.00  0.00    -0.003 C 
ATOM     16  C   UNL     1      -4.406 -65.384  -0.350  1.00  0.00     0.004 C 
ENDBRANCH  14  15
ENDBRANCH  13  14
ENDBRANCH  12  13
ENDBRANCH  11  12
ENDBRANCH  10  11
ENDBRANCH   1  10
TORSDOF 12
ENDMDL
