MODEL 1
REMARK VINA RESULT:    27.868      0.000      0.000
REMARK INTER + INTRA:          34.041
REMARK INTER:                  34.385
REMARK INTRA:                  -0.344
REMARK UNBOUND:                -0.344
REMARK SMILES Oc1cc(O)c2cc(O)c(-c3cc(O)c(O)c(O)c3)[o+]c2c1
REMARK SMILES IDX 10 1 20 2 21 3 22 4 2 5 3 6 4 7 6 8 7 9 8 10 11 11 12 12
REMARK SMILES IDX 13 13 19 14 15 15 17 16 14 17 16 19 18 21 9 23 1 25 5 27
REMARK H PARENT 14 18 16 20 18 22 9 24 1 26 5 28
REMARK Flexibility Score: inf
ROOT
ATOM      1  C   UNL     1       9.263   2.235   8.966  1.00  0.00     0.402 A 
ATOM      2  O   UNL     1      10.142   1.362   8.480  1.00  0.00    -0.202 OA
ATOM      3  C   UNL     1      11.167   1.710   7.709  1.00  0.00     0.368 A 
ATOM      4  C   UNL     1      12.036   0.719   7.245  1.00  0.00     0.162 A 
ATOM      5  C   UNL     1      13.119   1.056   6.432  1.00  0.00     0.128 A 
ATOM      6  C   UNL     1      13.335   2.393   6.077  1.00  0.00     0.093 A 
ATOM      7  C   UNL     1      12.478   3.404   6.530  1.00  0.00     0.136 A 
ATOM      8  C   UNL     1      11.378   3.066   7.359  1.00  0.00     0.125 A 
ATOM      9  C   UNL     1      10.475   4.013   7.869  1.00  0.00     0.078 A 
ATOM     10  C   UNL     1       9.417   3.605   8.686  1.00  0.00     0.223 A 
ENDROOT
BRANCH   1  11
ATOM     11  C   UNL     1       8.157   1.721   9.806  1.00  0.00     0.091 A 
ATOM     12  C   UNL     1       6.872   1.601   9.256  1.00  0.00     0.068 A 
ATOM     13  C   UNL     1       5.803   1.137  10.030  1.00  0.00     0.162 A 
ATOM     14  C   UNL     1       8.353   1.401  11.160  1.00  0.00     0.068 A 
ATOM     15  C   UNL     1       6.009   0.799  11.379  1.00  0.00     0.200 A 
ATOM     16  C   UNL     1       7.288   0.936  11.944  1.00  0.00     0.162 A 
BRANCH  13  17
ATOM     17  O   UNL     1       4.544   1.019   9.442  1.00  0.00    -0.504 OA
ATOM     18  H   UNL     1       4.410   1.077   8.440  1.00  0.00     0.293 HD
ENDBRANCH  13  17
BRANCH  15  19
ATOM     19  O   UNL     1       4.939   0.333  12.144  1.00  0.00    -0.502 OA
ATOM     20  H   UNL     1       5.068  -0.075  13.062  1.00  0.00     0.293 HD
ENDBRANCH  15  19
BRANCH  16  21
ATOM     21  O   UNL     1       7.496   0.616  13.285  1.00  0.00    -0.504 OA
ATOM     22  H   UNL     1       6.758   0.702  13.973  1.00  0.00     0.293 HD
ENDBRANCH  16  21
ENDBRANCH   1  11
BRANCH  10  23
ATOM     23  O   UNL     1       8.549   4.550   9.234  1.00  0.00    -0.500 OA
ATOM     24  H   UNL     1       8.770   5.039  10.095  1.00  0.00     0.294 HD
ENDBRANCH  10  23
BRANCH   5  25
ATOM     25  O   UNL     1      13.974   0.055   5.979  1.00  0.00    -0.507 OA
ATOM     26  H   UNL     1      13.775  -0.926   6.139  1.00  0.00     0.293 HD
ENDBRANCH   5  25
BRANCH   7  27
ATOM     27  O   UNL     1      12.760   4.713   6.129  1.00  0.00    -0.507 OA
ATOM     28  H   UNL     1      13.425   4.960   5.412  1.00  0.00     0.293 HD
ENDBRANCH   7  27
TORSDOF 7
ENDMDL
MODEL 2
REMARK VINA RESULT:    28.289      1.051      2.552
REMARK INTER + INTRA:          34.560
REMARK INTER:                  34.926
REMARK INTRA:                  -0.366
REMARK UNBOUND:                -0.344
REMARK SMILES Oc1cc(O)c2cc(O)c(-c3cc(O)c(O)c(O)c3)[o+]c2c1
REMARK SMILES IDX 10 1 20 2 21 3 22 4 2 5 3 6 4 7 6 8 7 9 8 10 11 11 12 12
REMARK SMILES IDX 13 13 19 14 15 15 17 16 14 17 16 19 18 21 9 23 1 25 5 27
REMARK H PARENT 14 18 16 20 18 22 9 24 1 26 5 28
REMARK Flexibility Score: inf
ROOT
ATOM      1  C   UNL     1       9.185   1.389   9.140  1.00  0.00     0.402 A 
ATOM      2  O   UNL     1       9.474   2.594   8.655  1.00  0.00    -0.202 OA
ATOM      3  C   UNL     1      10.523   2.835   7.876  1.00  0.00     0.368 A 
ATOM      4  C   UNL     1      10.744   4.136   7.418  1.00  0.00     0.162 A 
ATOM      5  C   UNL     1      11.840   4.419   6.601  1.00  0.00     0.128 A 
ATOM      6  C   UNL     1      12.722   3.394   6.238  1.00  0.00     0.093 A 
ATOM      7  C   UNL     1      12.521   2.082   6.685  1.00  0.00     0.136 A 
ATOM      8  C   UNL     1      11.408   1.790   7.514  1.00  0.00     0.125 A 
ATOM      9  C   UNL     1      11.120   0.503   7.998  1.00  0.00     0.078 A 
ATOM     10  C   UNL     1      10.000   0.291   8.806  1.00  0.00     0.223 A 
ENDROOT
BRANCH   1  11
ATOM     11  C   UNL     1       7.992   1.250  10.007  1.00  0.00     0.091 A 
ATOM     12  C   UNL     1       6.715   1.244   9.427  1.00  0.00     0.068 A 
ATOM     13  C   UNL     1       5.569   1.134  10.222  1.00  0.00     0.162 A 
ATOM     14  C   UNL     1       8.108   1.179  11.405  1.00  0.00     0.068 A 
ATOM     15  C   UNL     1       5.691   1.043  11.619  1.00  0.00     0.200 A 
ATOM     16  C   UNL     1       6.965   1.070  12.210  1.00  0.00     0.162 A 
BRANCH  13  17
ATOM     17  O   UNL     1       4.318   1.117   9.605  1.00  0.00    -0.504 OA
ATOM     18  H   UNL     1       4.018   1.850   8.976  1.00  0.00     0.293 HD
ENDBRANCH  13  17
BRANCH  15  19
ATOM     19  O   UNL     1       4.544   0.930  12.405  1.00  0.00    -0.502 OA
ATOM     20  H   UNL     1       4.436   0.203  13.103  1.00  0.00     0.293 HD
ENDBRANCH  15  19
BRANCH  16  21
ATOM     21  O   UNL     1       7.093   0.994  13.596  1.00  0.00    -0.504 OA
ATOM     22  H   UNL     1       7.811   1.509  14.093  1.00  0.00     0.293 HD
ENDBRANCH  16  21
ENDBRANCH   1  11
BRANCH  10  23
ATOM     23  O   UNL     1       9.686  -0.995   9.245  1.00  0.00    -0.500 OA
ATOM     24  H   UNL     1       9.534  -1.199  10.227  1.00  0.00     0.294 HD
ENDBRANCH  10  23
BRANCH   5  25
ATOM     25  O   UNL     1      12.044   5.722   6.154  1.00  0.00    -0.507 OA
ATOM     26  H   UNL     1      12.511   5.914   5.275  1.00  0.00     0.293 HD
ENDBRANCH   5  25
BRANCH   7  27
ATOM     27  O   UNL     1      13.449   1.117   6.283  1.00  0.00    -0.507 OA
ATOM     28  H   UNL     1      13.335   0.516   5.479  1.00  0.00     0.293 HD
ENDBRANCH   7  27
TORSDOF 7
ENDMDL
MODEL 3
REMARK VINA RESULT:    29.181      1.500      7.261
REMARK INTER + INTRA:          35.661
REMARK INTER:                  36.046
REMARK INTRA:                  -0.385
REMARK UNBOUND:                -0.344
REMARK SMILES Oc1cc(O)c2cc(O)c(-c3cc(O)c(O)c(O)c3)[o+]c2c1
REMARK SMILES IDX 10 1 20 2 21 3 22 4 2 5 3 6 4 7 6 8 7 9 8 10 11 11 12 12
REMARK SMILES IDX 13 13 19 14 15 15 17 16 14 17 16 19 18 21 9 23 1 25 5 27
REMARK H PARENT 14 18 16 20 18 22 9 24 1 26 5 28
REMARK Flexibility Score: inf
ROOT
ATOM      1  C   UNL     1       8.635   1.678   9.206  1.00  0.00     0.402 A 
ATOM      2  O   UNL     1       7.465   1.776   8.579  1.00  0.00    -0.202 OA
ATOM      3  C   UNL     1       6.297   1.564   9.177  1.00  0.00     0.368 A 
ATOM      4  C   UNL     1       5.121   1.688   8.432  1.00  0.00     0.162 A 
ATOM      5  C   UNL     1       3.880   1.469   9.032  1.00  0.00     0.128 A 
ATOM      6  C   UNL     1       3.813   1.121  10.387  1.00  0.00     0.093 A 
ATOM      7  C   UNL     1       4.978   0.991  11.154  1.00  0.00     0.136 A 
ATOM      8  C   UNL     1       6.241   1.215  10.548  1.00  0.00     0.125 A 
ATOM      9  C   UNL     1       7.459   1.119  11.241  1.00  0.00     0.078 A 
ATOM     10  C   UNL     1       8.664   1.361  10.577  1.00  0.00     0.223 A 
ENDROOT
BRANCH   1  11
ATOM     11  C   UNL     1       9.870   1.928   8.428  1.00  0.00     0.091 A 
ATOM     12  C   UNL     1      10.301   3.247   8.224  1.00  0.00     0.068 A 
ATOM     13  C   UNL     1      11.453   3.515   7.477  1.00  0.00     0.162 A 
ATOM     14  C   UNL     1      10.590   0.875   7.841  1.00  0.00     0.068 A 
ATOM     15  C   UNL     1      12.183   2.456   6.908  1.00  0.00     0.200 A 
ATOM     16  C   UNL     1      11.746   1.133   7.089  1.00  0.00     0.162 A 
BRANCH  13  17
ATOM     17  O   UNL     1      11.857   4.839   7.310  1.00  0.00    -0.504 OA
ATOM     18  H   UNL     1      11.665   5.358   6.462  1.00  0.00     0.293 HD
ENDBRANCH  13  17
BRANCH  15  19
ATOM     19  O   UNL     1      13.332   2.732   6.167  1.00  0.00    -0.502 OA
ATOM     20  H   UNL     1      13.626   2.152   5.391  1.00  0.00     0.293 HD
ENDBRANCH  15  19
BRANCH  16  21
ATOM     21  O   UNL     1      12.456   0.080   6.517  1.00  0.00    -0.504 OA
ATOM     22  H   UNL     1      12.513  -0.828   6.963  1.00  0.00     0.293 HD
ENDBRANCH  16  21
ENDBRANCH   1  11
BRANCH  10  23
ATOM     23  O   UNL     1       9.871   1.316  11.276  1.00  0.00    -0.500 OA
ATOM     24  H   UNL     1      10.325   2.159  11.609  1.00  0.00     0.294 HD
ENDBRANCH  10  23
BRANCH   5  25
ATOM     25  O   UNL     1       2.719   1.597   8.275  1.00  0.00    -0.507 OA
ATOM     26  H   UNL     1       2.709   1.399   7.281  1.00  0.00     0.293 HD
ENDBRANCH   5  25
BRANCH   7  27
ATOM     27  O   UNL     1       4.827   0.637  12.498  1.00  0.00    -0.507 OA
ATOM     28  H   UNL     1       5.062   1.237  13.275  1.00  0.00     0.293 HD
ENDBRANCH   7  27
TORSDOF 7
ENDMDL
MODEL 4
REMARK VINA RESULT:    30.347      4.823      8.160
REMARK INTER + INTRA:          37.100
REMARK INTER:                  37.453
REMARK INTRA:                  -0.353
REMARK UNBOUND:                -0.344
REMARK SMILES Oc1cc(O)c2cc(O)c(-c3cc(O)c(O)c(O)c3)[o+]c2c1
REMARK SMILES IDX 10 1 20 2 21 3 22 4 2 5 3 6 4 7 6 8 7 9 8 10 11 11 12 12
REMARK SMILES IDX 13 13 19 14 15 15 17 16 14 17 16 19 18 21 9 23 1 25 5 27
REMARK H PARENT 14 18 16 20 18 22 9 24 1 26 5 28
REMARK Flexibility Score: inf
ROOT
ATOM      1  C   UNL     1      14.803   2.915   9.019  1.00  0.00     0.402 A 
ATOM      2  O   UNL     1      13.942   3.807   8.535  1.00  0.00    -0.202 OA
ATOM      3  C   UNL     1      12.941   3.488   7.722  1.00  0.00     0.368 A 
ATOM      4  C   UNL     1      12.090   4.497   7.263  1.00  0.00     0.162 A 
ATOM      5  C   UNL     1      11.032   4.192   6.406  1.00  0.00     0.128 A 
ATOM      6  C   UNL     1      10.822   2.868   6.002  1.00  0.00     0.093 A 
ATOM      7  C   UNL     1      11.661   1.839   6.448  1.00  0.00     0.136 A 
ATOM      8  C   UNL     1      12.737   2.145   7.321  1.00  0.00     0.125 A 
ATOM      9  C   UNL     1      13.620   1.178   7.828  1.00  0.00     0.078 A 
ATOM     10  C   UNL     1      14.653   1.555   8.690  1.00  0.00     0.223 A 
ENDROOT
BRANCH   1  11
ATOM     11  C   UNL     1      15.884   3.396   9.910  1.00  0.00     0.091 A 
ATOM     12  C   UNL     1      17.180   3.557   9.396  1.00  0.00     0.068 A 
ATOM     13  C   UNL     1      18.225   3.992  10.218  1.00  0.00     0.162 A 
ATOM     14  C   UNL     1      15.653   3.644  11.273  1.00  0.00     0.068 A 
ATOM     15  C   UNL     1      17.985   4.259  11.577  1.00  0.00     0.200 A 
ATOM     16  C   UNL     1      16.696   4.080  12.104  1.00  0.00     0.162 A 
BRANCH  13  17
ATOM     17  O   UNL     1      19.495   4.153   9.665  1.00  0.00    -0.504 OA
ATOM     18  H   UNL     1      20.304   3.657  10.019  1.00  0.00     0.293 HD
ENDBRANCH  13  17
BRANCH  15  19
ATOM     19  O   UNL     1      19.033   4.695  12.389  1.00  0.00    -0.502 OA
ATOM     20  H   UNL     1      19.862   5.136  12.010  1.00  0.00     0.293 HD
ENDBRANCH  15  19
BRANCH  16  21
ATOM     21  O   UNL     1      16.454   4.328  13.454  1.00  0.00    -0.504 OA
ATOM     22  H   UNL     1      16.074   5.211  13.773  1.00  0.00     0.293 HD
ENDBRANCH  16  21
ENDBRANCH   1  11
BRANCH  10  23
ATOM     23  O   UNL     1      15.500   0.588   9.234  1.00  0.00    -0.500 OA
ATOM     24  H   UNL     1      16.413   0.398   8.838  1.00  0.00     0.294 HD
ENDBRANCH  10  23
BRANCH   5  25
ATOM     25  O   UNL     1      10.195   5.211   5.960  1.00  0.00    -0.507 OA
ATOM     26  H   UNL     1      10.140   6.102   6.440  1.00  0.00     0.293 HD
ENDBRANCH   5  25
BRANCH   7  27
ATOM     27  O   UNL     1      11.388   0.545   5.996  1.00  0.00    -0.507 OA
ATOM     28  H   UNL     1      10.465   0.200   5.776  1.00  0.00     0.293 HD
ENDBRANCH   7  27
TORSDOF 7
ENDMDL
