MODEL 1
REMARK VINA RESULT:    -5.537      0.000      0.000
REMARK INTER + INTRA:          -6.792
REMARK INTER:                  -6.509
REMARK INTRA:                  -0.284
REMARK UNBOUND:                -0.284
REMARK SMILES O=c1cc(-c2ccc(O)c(O)c2)oc2cc(O)cc(O)c12
REMARK SMILES IDX 4 1 3 2 2 3 1 4 21 5 19 6 18 7 16 8 15 9 14 10 13 11 5 12
REMARK SMILES IDX 6 13 7 14 8 15 12 16 10 17 9 18 11 20 20 22 17 24
REMARK H PARENT 9 19 11 21 20 23 17 25
REMARK Flexibility Score: inf
ROOT
ATOM      1  C   UNL     1      -7.395  23.381  -9.451  1.00  0.00     0.138 A 
ATOM      2  C   UNL     1      -8.695  23.515  -8.944  1.00  0.00     0.100 A 
ATOM      3  C   UNL     1      -9.394  24.707  -9.143  1.00  0.00     0.197 A 
ATOM      4  O   UNL     1     -10.580  24.775  -8.731  1.00  0.00    -0.289 OA
ATOM      5  C   UNL     1      -8.774  25.780  -9.828  1.00  0.00     0.107 A 
ATOM      6  C   UNL     1      -9.375  27.054 -10.053  1.00  0.00     0.134 A 
ATOM      7  C   UNL     1      -8.711  27.999 -10.845  1.00  0.00     0.093 A 
ATOM      8  C   UNL     1      -7.444  27.740 -11.368  1.00  0.00     0.123 A 
ATOM      9  C   UNL     1      -6.824  26.517 -11.107  1.00  0.00     0.094 A 
ATOM     10  C   UNL     1      -7.476  25.540 -10.350  1.00  0.00     0.146 A 
ATOM     11  O   UNL     1      -6.857  24.383 -10.138  1.00  0.00    -0.456 OA
ENDROOT
BRANCH   1  12
ATOM     12  C   UNL     1      -6.606  22.136  -9.267  1.00  0.00     0.021 A 
ATOM     13  C   UNL     1      -7.121  20.875  -9.624  1.00  0.00     0.016 A 
ATOM     14  C   UNL     1      -6.361  19.719  -9.430  1.00  0.00     0.051 A 
ATOM     15  C   UNL     1      -5.081  19.798  -8.873  1.00  0.00     0.157 A 
ATOM     16  C   UNL     1      -5.324  22.207  -8.694  1.00  0.00     0.062 A 
ATOM     17  C   UNL     1      -4.560  21.047  -8.500  1.00  0.00     0.158 A 
BRANCH  15  18
ATOM     18  O   UNL     1      -4.347  18.626  -8.694  1.00  0.00    -0.504 OA
ATOM     19  H   UNL     1      -3.353  18.580  -8.885  1.00  0.00     0.293 HD
ENDBRANCH  15  18
BRANCH  17  20
ATOM     20  O   UNL     1      -3.287  21.132  -7.939  1.00  0.00    -0.504 OA
ATOM     21  H   UNL     1      -2.450  21.008  -8.497  1.00  0.00     0.293 HD
ENDBRANCH  17  20
ENDBRANCH   1  12
BRANCH   6  22
ATOM     22  O   UNL     1     -10.601  27.448  -9.508  1.00  0.00    -0.507 OA
ATOM     23  H   UNL     1     -10.718  28.173  -8.817  1.00  0.00     0.293 HD
ENDBRANCH   6  22
BRANCH   8  24
ATOM     24  O   UNL     1      -6.806  28.709 -12.138  1.00  0.00    -0.508 OA
ATOM     25  H   UNL     1      -6.354  29.511 -11.714  1.00  0.00     0.293 HD
ENDBRANCH   8  24
TORSDOF 5
ENDMDL
MODEL 2
REMARK VINA RESULT:    -5.405      1.294      2.740
REMARK INTER + INTRA:          -6.636
REMARK INTER:                  -6.369
REMARK INTRA:                  -0.267
REMARK UNBOUND:                -0.284
REMARK SMILES O=c1cc(-c2ccc(O)c(O)c2)oc2cc(O)cc(O)c12
REMARK SMILES IDX 4 1 3 2 2 3 1 4 21 5 19 6 18 7 16 8 15 9 14 10 13 11 5 12
REMARK SMILES IDX 6 13 7 14 8 15 12 16 10 17 9 18 11 20 20 22 17 24
REMARK H PARENT 9 19 11 21 20 23 17 25
REMARK Flexibility Score: inf
ROOT
ATOM      1  C   UNL     1      -6.101  23.413  -9.361  1.00  0.00     0.138 A 
ATOM      2  C   UNL     1      -5.264  24.417  -9.868  1.00  0.00     0.100 A 
ATOM      3  C   UNL     1      -5.796  25.671 -10.173  1.00  0.00     0.197 A 
ATOM      4  O   UNL     1      -5.009  26.569 -10.567  1.00  0.00    -0.289 OA
ATOM      5  C   UNL     1      -7.180  25.909  -9.997  1.00  0.00     0.107 A 
ATOM      6  C   UNL     1      -7.839  27.135 -10.312  1.00  0.00     0.134 A 
ATOM      7  C   UNL     1      -9.192  27.293  -9.987  1.00  0.00     0.093 A 
ATOM      8  C   UNL     1      -9.923  26.253  -9.414  1.00  0.00     0.123 A 
ATOM      9  C   UNL     1      -9.301  25.031  -9.151  1.00  0.00     0.094 A 
ATOM     10  C   UNL     1      -7.944  24.853  -9.432  1.00  0.00     0.146 A 
ATOM     11  O   UNL     1      -7.386  23.680  -9.153  1.00  0.00    -0.456 OA
ENDROOT
BRANCH   1  12
ATOM     12  C   UNL     1      -5.588  22.061  -9.021  1.00  0.00     0.021 A 
ATOM     13  C   UNL     1      -6.156  20.896  -9.571  1.00  0.00     0.016 A 
ATOM     14  C   UNL     1      -5.660  19.636  -9.226  1.00  0.00     0.051 A 
ATOM     15  C   UNL     1      -4.598  19.515  -8.325  1.00  0.00     0.157 A 
ATOM     16  C   UNL     1      -4.529  21.932  -8.105  1.00  0.00     0.062 A 
ATOM     17  C   UNL     1      -4.031  20.667  -7.759  1.00  0.00     0.158 A 
BRANCH  15  18
ATOM     18  O   UNL     1      -4.125  18.244  -8.002  1.00  0.00    -0.504 OA
ATOM     19  H   UNL     1      -4.535  17.403  -8.390  1.00  0.00     0.293 HD
ENDBRANCH  15  18
BRANCH  17  20
ATOM     20  O   UNL     1      -2.975  20.554  -6.856  1.00  0.00    -0.504 OA
ATOM     21  H   UNL     1      -2.439  19.699  -6.769  1.00  0.00     0.293 HD
ENDBRANCH  17  20
ENDBRANCH   1  12
BRANCH   6  22
ATOM     22  O   UNL     1      -7.223  28.209 -10.962  1.00  0.00    -0.507 OA
ATOM     23  H   UNL     1      -7.695  28.865 -11.565  1.00  0.00     0.293 HD
ENDBRANCH   6  22
BRANCH   8  24
ATOM     24  O   UNL     1     -11.271  26.441  -9.118  1.00  0.00    -0.508 OA
ATOM     25  H   UNL     1     -11.940  25.685  -9.190  1.00  0.00     0.293 HD
ENDBRANCH   8  24
TORSDOF 5
ENDMDL
MODEL 3
REMARK VINA RESULT:    -5.346      1.499      6.848
REMARK INTER + INTRA:          -6.567
REMARK INTER:                  -6.289
REMARK INTRA:                  -0.278
REMARK UNBOUND:                -0.284
REMARK SMILES O=c1cc(-c2ccc(O)c(O)c2)oc2cc(O)cc(O)c12
REMARK SMILES IDX 4 1 3 2 2 3 1 4 21 5 19 6 18 7 16 8 15 9 14 10 13 11 5 12
REMARK SMILES IDX 6 13 7 14 8 15 12 16 10 17 9 18 11 20 20 22 17 24
REMARK H PARENT 9 19 11 21 20 23 17 25
REMARK Flexibility Score: inf
ROOT
ATOM      1  C   UNL     1      -7.920  24.038  -9.546  1.00  0.00     0.138 A 
ATOM      2  C   UNL     1      -8.549  22.785  -9.522  1.00  0.00     0.100 A 
ATOM      3  C   UNL     1      -7.786  21.634  -9.318  1.00  0.00     0.197 A 
ATOM      4  O   UNL     1      -8.387  20.532  -9.239  1.00  0.00    -0.289 OA
ATOM      5  C   UNL     1      -6.383  21.737  -9.167  1.00  0.00     0.107 A 
ATOM      6  C   UNL     1      -5.501  20.628  -8.994  1.00  0.00     0.134 A 
ATOM      7  C   UNL     1      -4.144  20.861  -8.738  1.00  0.00     0.093 A 
ATOM      8  C   UNL     1      -3.626  22.155  -8.709  1.00  0.00     0.123 A 
ATOM      9  C   UNL     1      -4.470  23.245  -8.932  1.00  0.00     0.094 A 
ATOM     10  C   UNL     1      -5.835  23.048  -9.155  1.00  0.00     0.146 A 
ATOM     11  O   UNL     1      -6.607  24.112  -9.347  1.00  0.00    -0.456 OA
ENDROOT
BRANCH   1  12
ATOM     12  C   UNL     1      -8.681  25.294  -9.762  1.00  0.00     0.021 A 
ATOM     13  C   UNL     1      -9.735  25.675  -8.909  1.00  0.00     0.016 A 
ATOM     14  C   UNL     1     -10.442  26.858  -9.141  1.00  0.00     0.051 A 
ATOM     15  C   UNL     1     -10.117  27.676 -10.226  1.00  0.00     0.157 A 
ATOM     16  C   UNL     1      -8.369  26.115 -10.861  1.00  0.00     0.062 A 
ATOM     17  C   UNL     1      -9.077  27.303 -11.093  1.00  0.00     0.158 A 
BRANCH  15  18
ATOM     18  O   UNL     1     -10.840  28.850 -10.431  1.00  0.00    -0.504 OA
ATOM     19  H   UNL     1     -10.388  29.728 -10.657  1.00  0.00     0.293 HD
ENDBRANCH  15  18
BRANCH  17  20
ATOM     20  O   UNL     1      -8.751  28.111 -12.181  1.00  0.00    -0.504 OA
ATOM     21  H   UNL     1      -7.788  28.298 -12.434  1.00  0.00     0.293 HD
ENDBRANCH  17  20
ENDBRANCH   1  12
BRANCH   6  22
ATOM     22  O   UNL     1      -5.899  19.291  -9.087  1.00  0.00    -0.507 OA
ATOM     23  H   UNL     1      -6.067  18.799  -9.951  1.00  0.00     0.293 HD
ENDBRANCH   6  22
BRANCH   8  24
ATOM     24  O   UNL     1      -2.268  22.347  -8.468  1.00  0.00    -0.508 OA
ATOM     25  H   UNL     1      -1.579  21.653  -8.729  1.00  0.00     0.293 HD
ENDBRANCH   8  24
TORSDOF 5
ENDMDL
MODEL 4
REMARK VINA RESULT:    -5.289      1.596      1.940
REMARK INTER + INTRA:          -6.500
REMARK INTER:                  -6.194
REMARK INTRA:                  -0.306
REMARK UNBOUND:                -0.284
REMARK SMILES O=c1cc(-c2ccc(O)c(O)c2)oc2cc(O)cc(O)c12
REMARK SMILES IDX 4 1 3 2 2 3 1 4 21 5 19 6 18 7 16 8 15 9 14 10 13 11 5 12
REMARK SMILES IDX 6 13 7 14 8 15 12 16 10 17 9 18 11 20 20 22 17 24
REMARK H PARENT 9 19 11 21 20 23 17 25
REMARK Flexibility Score: inf
ROOT
ATOM      1  C   UNL     1      -6.024  23.366  -9.646  1.00  0.00     0.138 A 
ATOM      2  C   UNL     1      -7.362  23.593  -9.998  1.00  0.00     0.100 A 
ATOM      3  C   UNL     1      -7.766  24.870 -10.390  1.00  0.00     0.197 A 
ATOM      4  O   UNL     1      -8.958  25.028 -10.759  1.00  0.00    -0.289 OA
ATOM      5  C   UNL     1      -6.830  25.932 -10.401  1.00  0.00     0.107 A 
ATOM      6  C   UNL     1      -7.138  27.282 -10.744  1.00  0.00     0.134 A 
ATOM      7  C   UNL     1      -6.105  28.223 -10.831  1.00  0.00     0.093 A 
ATOM      8  C   UNL     1      -4.788  27.880 -10.531  1.00  0.00     0.123 A 
ATOM      9  C   UNL     1      -4.484  26.574 -10.141  1.00  0.00     0.094 A 
ATOM     10  C   UNL     1      -5.487  25.603 -10.078  1.00  0.00     0.146 A 
ATOM     11  O   UNL     1      -5.154  24.368  -9.717  1.00  0.00    -0.456 OA
ENDROOT
BRANCH   1  12
ATOM     12  C   UNL     1      -5.541  22.029  -9.220  1.00  0.00     0.021 A 
ATOM     13  C   UNL     1      -6.149  20.843  -9.676  1.00  0.00     0.016 A 
ATOM     14  C   UNL     1      -5.679  19.597  -9.251  1.00  0.00     0.051 A 
ATOM     15  C   UNL     1      -4.605  19.511  -8.361  1.00  0.00     0.157 A 
ATOM     16  C   UNL     1      -4.469  21.935  -8.314  1.00  0.00     0.062 A 
ATOM     17  C   UNL     1      -3.997  20.685  -7.888  1.00  0.00     0.158 A 
BRANCH  15  18
ATOM     18  O   UNL     1      -4.159  18.254  -7.957  1.00  0.00    -0.504 OA
ATOM     19  H   UNL     1      -4.524  17.399  -8.359  1.00  0.00     0.293 HD
ENDBRANCH  15  18
BRANCH  17  20
ATOM     20  O   UNL     1      -2.928  20.607  -6.996  1.00  0.00    -0.504 OA
ATOM     21  H   UNL     1      -2.077  20.110  -7.230  1.00  0.00     0.293 HD
ENDBRANCH  17  20
ENDBRANCH   1  12
BRANCH   6  22
ATOM     22  O   UNL     1      -8.434  27.752 -10.981  1.00  0.00    -0.507 OA
ATOM     23  H   UNL     1      -8.675  28.456 -11.662  1.00  0.00     0.293 HD
ENDBRANCH   6  22
BRANCH   8  24
ATOM     24  O   UNL     1      -3.788  28.846 -10.613  1.00  0.00    -0.508 OA
ATOM     25  H   UNL     1      -2.910  28.744 -10.121  1.00  0.00     0.293 HD
ENDBRANCH   8  24
TORSDOF 5
ENDMDL
MODEL 5
REMARK VINA RESULT:    -5.285      1.592      7.258
REMARK INTER + INTRA:          -6.495
REMARK INTER:                  -6.230
REMARK INTRA:                  -0.266
REMARK UNBOUND:                -0.284
REMARK SMILES O=c1cc(-c2ccc(O)c(O)c2)oc2cc(O)cc(O)c12
REMARK SMILES IDX 4 1 3 2 2 3 1 4 21 5 19 6 18 7 16 8 15 9 14 10 13 11 5 12
REMARK SMILES IDX 6 13 7 14 8 15 12 16 10 17 9 18 11 20 20 22 17 24
REMARK H PARENT 9 19 11 21 20 23 17 25
REMARK Flexibility Score: inf
ROOT
ATOM      1  C   UNL     1      -6.704  22.880  -8.982  1.00  0.00     0.138 A 
ATOM      2  C   UNL     1      -6.910  21.606  -9.528  1.00  0.00     0.100 A 
ATOM      3  C   UNL     1      -6.130  20.533  -9.092  1.00  0.00     0.197 A 
ATOM      4  O   UNL     1      -6.381  19.391  -9.555  1.00  0.00    -0.289 OA
ATOM      5  C   UNL     1      -5.118  20.747  -8.126  1.00  0.00     0.107 A 
ATOM      6  C   UNL     1      -4.237  19.736  -7.637  1.00  0.00     0.134 A 
ATOM      7  C   UNL     1      -3.351  20.040  -6.595  1.00  0.00     0.093 A 
ATOM      8  C   UNL     1      -3.273  21.328  -6.066  1.00  0.00     0.123 A 
ATOM      9  C   UNL     1      -4.093  22.337  -6.575  1.00  0.00     0.094 A 
ATOM     10  C   UNL     1      -5.011  22.058  -7.590  1.00  0.00     0.146 A 
ATOM     11  O   UNL     1      -5.784  23.042  -8.036  1.00  0.00    -0.456 OA
ENDROOT
BRANCH   1  12
ATOM     12  C   UNL     1      -7.503  24.056  -9.410  1.00  0.00     0.021 A 
ATOM     13  C   UNL     1      -6.959  25.059 -10.235  1.00  0.00     0.016 A 
ATOM     14  C   UNL     1      -7.731  26.160 -10.614  1.00  0.00     0.051 A 
ATOM     15  C   UNL     1      -9.052  26.285 -10.175  1.00  0.00     0.157 A 
ATOM     16  C   UNL     1      -8.828  24.194  -8.959  1.00  0.00     0.062 A 
ATOM     17  C   UNL     1      -9.604  25.299  -9.341  1.00  0.00     0.158 A 
BRANCH  15  18
ATOM     18  O   UNL     1      -9.796  27.394 -10.571  1.00  0.00    -0.504 OA
ATOM     19  H   UNL     1      -9.952  27.616 -11.547  1.00  0.00     0.293 HD
ENDBRANCH  15  18
BRANCH  17  20
ATOM     20  O   UNL     1     -10.918  25.419  -8.894  1.00  0.00    -0.504 OA
ATOM     21  H   UNL     1     -11.428  26.292  -8.970  1.00  0.00     0.293 HD
ENDBRANCH  17  20
ENDBRANCH   1  12
BRANCH   6  22
ATOM     22  O   UNL     1      -4.173  18.438  -8.152  1.00  0.00    -0.507 OA
ATOM     23  H   UNL     1      -3.715  17.661  -7.701  1.00  0.00     0.293 HD
ENDBRANCH   6  22
BRANCH   8  24
ATOM     24  O   UNL     1      -2.369  21.597  -5.041  1.00  0.00    -0.508 OA
ATOM     25  H   UNL     1      -1.463  22.009  -5.228  1.00  0.00     0.293 HD
ENDBRANCH   8  24
TORSDOF 5
ENDMDL
MODEL 6
REMARK VINA RESULT:    -5.253      1.897      7.085
REMARK INTER + INTRA:          -6.457
REMARK INTER:                  -6.163
REMARK INTRA:                  -0.294
REMARK UNBOUND:                -0.284
REMARK SMILES O=c1cc(-c2ccc(O)c(O)c2)oc2cc(O)cc(O)c12
REMARK SMILES IDX 4 1 3 2 2 3 1 4 21 5 19 6 18 7 16 8 15 9 14 10 13 11 5 12
REMARK SMILES IDX 6 13 7 14 8 15 12 16 10 17 9 18 11 20 20 22 17 24
REMARK H PARENT 9 19 11 21 20 23 17 25
REMARK Flexibility Score: inf
ROOT
ATOM      1  C   UNL     1      -6.204  23.344  -9.617  1.00  0.00     0.138 A 
ATOM      2  C   UNL     1      -6.616  22.078 -10.057  1.00  0.00     0.100 A 
ATOM      3  C   UNL     1      -6.045  20.934  -9.498  1.00  0.00     0.197 A 
ATOM      4  O   UNL     1      -6.479  19.813  -9.868  1.00  0.00    -0.289 OA
ATOM      5  C   UNL     1      -5.034  21.061  -8.515  1.00  0.00     0.107 A 
ATOM      6  C   UNL     1      -4.353  19.965  -7.905  1.00  0.00     0.134 A 
ATOM      7  C   UNL     1      -3.453  20.209  -6.860  1.00  0.00     0.093 A 
ATOM      8  C   UNL     1      -3.164  21.508  -6.444  1.00  0.00     0.123 A 
ATOM      9  C   UNL     1      -3.785  22.590  -7.071  1.00  0.00     0.094 A 
ATOM     10  C   UNL     1      -4.714  22.378  -8.093  1.00  0.00     0.146 A 
ATOM     11  O   UNL     1      -5.293  23.435  -8.654  1.00  0.00    -0.456 OA
ENDROOT
BRANCH   1  12
ATOM     12  C   UNL     1      -6.777  24.594 -10.178  1.00  0.00     0.021 A 
ATOM     13  C   UNL     1      -8.155  24.723 -10.439  1.00  0.00     0.016 A 
ATOM     14  C   UNL     1      -8.666  25.908 -10.976  1.00  0.00     0.051 A 
ATOM     15  C   UNL     1      -7.816  26.977 -11.269  1.00  0.00     0.157 A 
ATOM     16  C   UNL     1      -5.925  25.669 -10.488  1.00  0.00     0.062 A 
ATOM     17  C   UNL     1      -6.438  26.858 -11.027  1.00  0.00     0.158 A 
BRANCH  15  18
ATOM     18  O   UNL     1      -8.356  28.146 -11.804  1.00  0.00    -0.504 OA
ATOM     19  H   UNL     1      -8.127  29.062 -11.436  1.00  0.00     0.293 HD
ENDBRANCH  15  18
BRANCH  17  20
ATOM     20  O   UNL     1      -5.583  27.919 -11.322  1.00  0.00    -0.504 OA
ATOM     21  H   UNL     1      -5.088  27.973 -12.204  1.00  0.00     0.293 HD
ENDBRANCH  17  20
ENDBRANCH   1  12
BRANCH   6  22
ATOM     22  O   UNL     1      -4.504  18.632  -8.301  1.00  0.00    -0.507 OA
ATOM     23  H   UNL     1      -5.376  18.127  -8.301  1.00  0.00     0.293 HD
ENDBRANCH   6  22
BRANCH   8  24
ATOM     24  O   UNL     1      -2.252  21.714  -5.412  1.00  0.00    -0.508 OA
ATOM     25  H   UNL     1      -2.296  21.182  -4.551  1.00  0.00     0.293 HD
ENDBRANCH   8  24
TORSDOF 5
ENDMDL
MODEL 7
REMARK VINA RESULT:    -5.187      3.784      5.563
REMARK INTER + INTRA:          -6.381
REMARK INTER:                  -6.087
REMARK INTRA:                  -0.294
REMARK UNBOUND:                -0.284
REMARK SMILES O=c1cc(-c2ccc(O)c(O)c2)oc2cc(O)cc(O)c12
REMARK SMILES IDX 4 1 3 2 2 3 1 4 21 5 19 6 18 7 16 8 15 9 14 10 13 11 5 12
REMARK SMILES IDX 6 13 7 14 8 15 12 16 10 17 9 18 11 20 20 22 17 24
REMARK H PARENT 9 19 11 21 20 23 17 25
REMARK Flexibility Score: inf
ROOT
ATOM      1  C   UNL     1      -4.983  21.938  -7.599  1.00  0.00     0.138 A 
ATOM      2  C   UNL     1      -5.022  22.176  -8.980  1.00  0.00     0.100 A 
ATOM      3  C   UNL     1      -6.251  22.195  -9.642  1.00  0.00     0.197 A 
ATOM      4  O   UNL     1      -6.259  22.473 -10.869  1.00  0.00    -0.289 OA
ATOM      5  C   UNL     1      -7.443  21.945  -8.921  1.00  0.00     0.107 A 
ATOM      6  C   UNL     1      -8.747  21.900  -9.499  1.00  0.00     0.134 A 
ATOM      7  C   UNL     1      -9.864  21.759  -8.667  1.00  0.00     0.093 A 
ATOM      8  C   UNL     1      -9.723  21.602  -7.288  1.00  0.00     0.123 A 
ATOM      9  C   UNL     1      -8.448  21.589  -6.719  1.00  0.00     0.094 A 
ATOM     10  C   UNL     1      -7.315  21.763  -7.518  1.00  0.00     0.146 A 
ATOM     11  O   UNL     1      -6.121  21.760  -6.936  1.00  0.00    -0.456 OA
ENDROOT
BRANCH   1  12
ATOM     12  C   UNL     1      -3.704  21.905  -6.845  1.00  0.00     0.021 A 
ATOM     13  C   UNL     1      -2.685  22.850  -7.075  1.00  0.00     0.016 A 
ATOM     14  C   UNL     1      -1.487  22.789  -6.358  1.00  0.00     0.051 A 
ATOM     15  C   UNL     1      -1.281  21.785  -5.408  1.00  0.00     0.157 A 
ATOM     16  C   UNL     1      -3.484  20.889  -5.898  1.00  0.00     0.062 A 
ATOM     17  C   UNL     1      -2.282  20.828  -5.177  1.00  0.00     0.158 A 
BRANCH  15  18
ATOM     18  O   UNL     1      -0.076  21.752  -4.708  1.00  0.00    -0.504 OA
ATOM     19  H   UNL     1       0.707  22.345  -4.957  1.00  0.00     0.293 HD
ENDBRANCH  15  18
BRANCH  17  20
ATOM     20  O   UNL     1      -2.081  19.821  -4.235  1.00  0.00    -0.504 OA
ATOM     21  H   UNL     1      -2.844  19.456  -3.677  1.00  0.00     0.293 HD
ENDBRANCH  17  20
ENDBRANCH   1  12
BRANCH   6  22
ATOM     22  O   UNL     1      -8.996  21.964 -10.873  1.00  0.00    -0.507 OA
ATOM     23  H   UNL     1      -8.496  21.438 -11.574  1.00  0.00     0.293 HD
ENDBRANCH   6  22
BRANCH   8  24
ATOM     24  O   UNL     1     -10.856  21.448  -6.493  1.00  0.00    -0.508 OA
ATOM     25  H   UNL     1     -11.236  22.218  -5.956  1.00  0.00     0.293 HD
ENDBRANCH   8  24
TORSDOF 5
ENDMDL
MODEL 8
REMARK VINA RESULT:    -5.106      3.573      7.047
REMARK INTER + INTRA:          -6.285
REMARK INTER:                  -5.996
REMARK INTRA:                  -0.289
REMARK UNBOUND:                -0.284
REMARK SMILES O=c1cc(-c2ccc(O)c(O)c2)oc2cc(O)cc(O)c12
REMARK SMILES IDX 4 1 3 2 2 3 1 4 21 5 19 6 18 7 16 8 15 9 14 10 13 11 5 12
REMARK SMILES IDX 6 13 7 14 8 15 12 16 10 17 9 18 11 20 20 22 17 24
REMARK H PARENT 9 19 11 21 20 23 17 25
REMARK Flexibility Score: inf
ROOT
ATOM      1  C   UNL     1      -5.944  22.387  -8.372  1.00  0.00     0.138 A 
ATOM      2  C   UNL     1      -5.070  23.302  -8.976  1.00  0.00     0.100 A 
ATOM      3  C   UNL     1      -3.769  23.438  -8.488  1.00  0.00     0.197 A 
ATOM      4  O   UNL     1      -2.989  24.221  -9.090  1.00  0.00    -0.289 OA
ATOM      5  C   UNL     1      -3.352  22.675  -7.372  1.00  0.00     0.107 A 
ATOM      6  C   UNL     1      -2.064  22.761  -6.764  1.00  0.00     0.134 A 
ATOM      7  C   UNL     1      -1.726  21.873  -5.736  1.00  0.00     0.093 A 
ATOM      8  C   UNL     1      -2.647  20.944  -5.253  1.00  0.00     0.123 A 
ATOM      9  C   UNL     1      -3.929  20.888  -5.803  1.00  0.00     0.094 A 
ATOM     10  C   UNL     1      -4.285  21.738  -6.854  1.00  0.00     0.146 A 
ATOM     11  O   UNL     1      -5.510  21.643  -7.360  1.00  0.00    -0.456 OA
ENDROOT
BRANCH   1  12
ATOM     12  C   UNL     1      -7.338  22.203  -8.849  1.00  0.00     0.021 A 
ATOM     13  C   UNL     1      -8.335  21.651  -8.022  1.00  0.00     0.016 A 
ATOM     14  C   UNL     1      -9.637  21.479  -8.499  1.00  0.00     0.051 A 
ATOM     15  C   UNL     1      -9.965  21.847  -9.807  1.00  0.00     0.157 A 
ATOM     16  C   UNL     1      -7.672  22.557 -10.169  1.00  0.00     0.062 A 
ATOM     17  C   UNL     1      -8.979  22.386 -10.648  1.00  0.00     0.158 A 
BRANCH  15  18
ATOM     18  O   UNL     1     -11.273  21.664 -10.254  1.00  0.00    -0.504 OA
ATOM     19  H   UNL     1     -11.481  21.244 -11.152  1.00  0.00     0.293 HD
ENDBRANCH  15  18
BRANCH  17  20
ATOM     20  O   UNL     1      -9.298  22.749 -11.955  1.00  0.00    -0.504 OA
ATOM     21  H   UNL     1      -8.586  22.835 -12.672  1.00  0.00     0.293 HD
ENDBRANCH  17  20
ENDBRANCH   1  12
BRANCH   6  22
ATOM     22  O   UNL     1      -1.097  23.708  -7.114  1.00  0.00    -0.507 OA
ATOM     23  H   UNL     1      -0.660  23.779  -8.020  1.00  0.00     0.293 HD
ENDBRANCH   6  22
BRANCH   8  24
ATOM     24  O   UNL     1      -2.282  20.086  -4.218  1.00  0.00    -0.508 OA
ATOM     25  H   UNL     1      -2.802  20.052  -3.349  1.00  0.00     0.293 HD
ENDBRANCH   8  24
TORSDOF 5
ENDMDL
MODEL 9
REMARK VINA RESULT:    -5.103      3.572      5.224
REMARK INTER + INTRA:          -6.281
REMARK INTER:                  -5.969
REMARK INTRA:                  -0.312
REMARK UNBOUND:                -0.284
REMARK SMILES O=c1cc(-c2ccc(O)c(O)c2)oc2cc(O)cc(O)c12
REMARK SMILES IDX 4 1 3 2 2 3 1 4 21 5 19 6 18 7 16 8 15 9 14 10 13 11 5 12
REMARK SMILES IDX 6 13 7 14 8 15 12 16 10 17 9 18 11 20 20 22 17 24
REMARK H PARENT 9 19 11 21 20 23 17 25
REMARK Flexibility Score: inf
ROOT
ATOM      1  C   UNL     1      -4.515  22.563  -8.567  1.00  0.00     0.138 A 
ATOM      2  C   UNL     1      -5.012  21.961  -7.403  1.00  0.00     0.100 A 
ATOM      3  C   UNL     1      -6.363  21.615  -7.328  1.00  0.00     0.197 A 
ATOM      4  O   UNL     1      -6.766  21.020  -6.295  1.00  0.00    -0.289 OA
ATOM      5  C   UNL     1      -7.224  21.903  -8.413  1.00  0.00     0.107 A 
ATOM      6  C   UNL     1      -8.625  21.632  -8.432  1.00  0.00     0.134 A 
ATOM      7  C   UNL     1      -9.354  21.854  -9.606  1.00  0.00     0.093 A 
ATOM      8  C   UNL     1      -8.748  22.391 -10.742  1.00  0.00     0.123 A 
ATOM      9  C   UNL     1      -7.389  22.710 -10.716  1.00  0.00     0.094 A 
ATOM     10  C   UNL     1      -6.627  22.468  -9.571  1.00  0.00     0.146 A 
ATOM     11  O   UNL     1      -5.334  22.772  -9.593  1.00  0.00    -0.456 OA
ENDROOT
BRANCH   1  12
ATOM     12  C   UNL     1      -3.088  22.953  -8.700  1.00  0.00     0.021 A 
ATOM     13  C   UNL     1      -2.276  23.179  -7.572  1.00  0.00     0.016 A 
ATOM     14  C   UNL     1      -0.939  23.555  -7.727  1.00  0.00     0.051 A 
ATOM     15  C   UNL     1      -0.392  23.718  -9.003  1.00  0.00     0.157 A 
ATOM     16  C   UNL     1      -2.536  23.132  -9.981  1.00  0.00     0.062 A 
ATOM     17  C   UNL     1      -1.193  23.508 -10.136  1.00  0.00     0.158 A 
BRANCH  15  18
ATOM     18  O   UNL     1       0.946  24.092  -9.124  1.00  0.00    -0.504 OA
ATOM     19  H   UNL     1       1.241  24.840  -9.740  1.00  0.00     0.293 HD
ENDBRANCH  15  18
BRANCH  17  20
ATOM     20  O   UNL     1      -0.656  23.674 -11.412  1.00  0.00    -0.504 OA
ATOM     21  H   UNL     1      -0.395  24.588 -11.764  1.00  0.00     0.293 HD
ENDBRANCH  17  20
ENDBRANCH   1  12
BRANCH   6  22
ATOM     22  O   UNL     1      -9.347  21.172  -7.326  1.00  0.00    -0.507 OA
ATOM     23  H   UNL     1      -9.171  21.442  -6.370  1.00  0.00     0.293 HD
ENDBRANCH   6  22
BRANCH   8  24
ATOM     24  O   UNL     1      -9.508  22.613 -11.888  1.00  0.00    -0.508 OA
ATOM     25  H   UNL     1     -10.235  21.969 -12.175  1.00  0.00     0.293 HD
ENDBRANCH   8  24
TORSDOF 5
ENDMDL
