MODEL 1
REMARK VINA RESULT:    -4.079      0.000      0.000
REMARK INTER + INTRA:          -7.885
REMARK INTER:                  -6.463
REMARK INTRA:                  -1.422
REMARK UNBOUND:                -1.422
REMARK SMILES CCCCCCCCCCCC(=O)[O-]
REMARK SMILES IDX 7 1 8 2 9 3 10 4 11 5 12 6 13 7 14 8 6 9 5 10 4 11 3 12 2 13
REMARK SMILES IDX 1 14
REMARK H PARENT
REMARK Flexibility Score: inf
ROOT
ATOM      1  C   UNL     1     -19.496 -32.683  19.644  1.00  0.00     0.000 C 
ENDROOT
BRANCH   1   2
ATOM      2  C   UNL     1     -20.036 -31.314  20.089  1.00  0.00     0.000 C 
BRANCH   2   3
ATOM      3  C   UNL     1     -19.895 -30.241  18.999  1.00  0.00     0.000 C 
BRANCH   3   4
ATOM      4  C   UNL     1     -18.508 -30.306  18.341  1.00  0.00     0.006 C 
BRANCH   4   5
ATOM      5  C   UNL     1     -17.530 -29.294  18.949  1.00  0.00     0.053 C 
BRANCH   5   6
ATOM      6  C   UNL     1     -17.762 -27.910  18.421  1.00  0.00     0.041 C 
ATOM      7  O   UNL     1     -17.472 -27.630  17.229  1.00  0.00    -0.550 OA
ATOM      8  O   UNL     1     -18.331 -26.941  19.236  1.00  0.00    -0.550 OA
ENDBRANCH   5   6
ENDBRANCH   4   5
ENDBRANCH   3   4
ENDBRANCH   2   3
ENDBRANCH   1   2
BRANCH   1   9
ATOM      9  C   UNL     1     -18.547 -33.310  20.681  1.00  0.00     0.000 C 
BRANCH   9  10
ATOM     10  C   UNL     1     -18.146 -32.322  21.788  1.00  0.00    -0.000 C 
BRANCH  10  11
ATOM     11  C   UNL     1     -16.672 -31.899  21.695  1.00  0.00    -0.000 C 
BRANCH  11  12
ATOM     12  C   UNL     1     -15.802 -33.053  21.177  1.00  0.00    -0.000 C 
BRANCH  12  13
ATOM     13  C   UNL     1     -14.835 -32.612  20.066  1.00  0.00    -0.003 C 
ATOM     14  C   UNL     1     -15.515 -32.499  18.701  1.00  0.00     0.004 C 
ENDBRANCH  12  13
ENDBRANCH  11  12
ENDBRANCH  10  11
ENDBRANCH   9  10
ENDBRANCH   1   9
TORSDOF 10
ENDMDL
MODEL 2
REMARK VINA RESULT:    -4.011      2.127      3.095
REMARK INTER + INTRA:          -7.778
REMARK INTER:                  -6.110
REMARK INTRA:                  -1.668
REMARK UNBOUND:                -1.422
REMARK SMILES CCCCCCCCCCCC(=O)[O-]
REMARK SMILES IDX 7 1 8 2 9 3 10 4 11 5 12 6 13 7 14 8 6 9 5 10 4 11 3 12 2 13
REMARK SMILES IDX 1 14
REMARK H PARENT
REMARK Flexibility Score: inf
ROOT
ATOM      1  C   UNL     1     -18.754 -31.301  20.778  1.00  0.00     0.000 C 
ENDROOT
BRANCH   1   2
ATOM      2  C   UNL     1     -20.067 -31.146  19.993  1.00  0.00     0.000 C 
BRANCH   2   3
ATOM      3  C   UNL     1     -19.955 -30.126  18.850  1.00  0.00     0.000 C 
BRANCH   3   4
ATOM      4  C   UNL     1     -18.548 -29.510  18.800  1.00  0.00     0.006 C 
BRANCH   4   5
ATOM      5  C   UNL     1     -17.759 -29.966  17.567  1.00  0.00     0.053 C 
BRANCH   5   6
ATOM      6  C   UNL     1     -16.296 -30.103  17.862  1.00  0.00     0.041 C 
ATOM      7  O   UNL     1     -15.870 -29.951  19.037  1.00  0.00    -0.550 OA
ATOM      8  O   UNL     1     -15.408 -30.432  16.846  1.00  0.00    -0.550 OA
ENDBRANCH   5   6
ENDBRANCH   4   5
ENDBRANCH   3   4
ENDBRANCH   2   3
ENDBRANCH   1   2
BRANCH   1   9
ATOM      9  C   UNL     1     -18.487 -32.756  21.202  1.00  0.00     0.000 C 
BRANCH   9  10
ATOM     10  C   UNL     1     -18.455 -33.724  20.008  1.00  0.00    -0.000 C 
BRANCH  10  11
ATOM     11  C   UNL     1     -17.275 -33.455  19.062  1.00  0.00    -0.000 C 
BRANCH  11  12
ATOM     12  C   UNL     1     -17.658 -33.765  17.608  1.00  0.00    -0.000 C 
BRANCH  12  13
ATOM     13  C   UNL     1     -19.153 -33.541  17.329  1.00  0.00    -0.003 C 
ATOM     14  C   UNL     1     -19.412 -32.904  15.964  1.00  0.00     0.004 C 
ENDBRANCH  12  13
ENDBRANCH  11  12
ENDBRANCH  10  11
ENDBRANCH   9  10
ENDBRANCH   1   9
TORSDOF 10
ENDMDL
MODEL 3
REMARK VINA RESULT:    -3.929      2.405      4.654
REMARK INTER + INTRA:          -7.647
REMARK INTER:                  -6.461
REMARK INTRA:                  -1.186
REMARK UNBOUND:                -1.422
REMARK SMILES CCCCCCCCCCCC(=O)[O-]
REMARK SMILES IDX 7 1 8 2 9 3 10 4 11 5 12 6 13 7 14 8 6 9 5 10 4 11 3 12 2 13
REMARK SMILES IDX 1 14
REMARK H PARENT
REMARK Flexibility Score: inf
ROOT
ATOM      1  C   UNL     1     -19.624 -32.520  19.629  1.00  0.00     0.000 C 
ENDROOT
BRANCH   1   2
ATOM      2  C   UNL     1     -18.721 -33.082  20.740  1.00  0.00     0.000 C 
BRANCH   2   3
ATOM      3  C   UNL     1     -18.080 -31.980  21.595  1.00  0.00     0.000 C 
BRANCH   3   4
ATOM      4  C   UNL     1     -16.630 -32.338  21.954  1.00  0.00     0.006 C 
BRANCH   4   5
ATOM      5  C   UNL     1     -16.018 -33.340  20.968  1.00  0.00     0.053 C 
BRANCH   5   6
ATOM      6  C   UNL     1     -15.051 -32.680  20.032  1.00  0.00     0.041 C 
ATOM      7  O   UNL     1     -15.442 -31.766  19.260  1.00  0.00    -0.550 OA
ATOM      8  O   UNL     1     -13.713 -33.051  20.037  1.00  0.00    -0.550 OA
ENDBRANCH   5   6
ENDBRANCH   4   5
ENDBRANCH   3   4
ENDBRANCH   2   3
ENDBRANCH   1   2
BRANCH   1   9
ATOM      9  C   UNL     1     -20.272 -31.179  20.017  1.00  0.00     0.000 C 
BRANCH   9  10
ATOM     10  C   UNL     1     -19.982 -30.065  18.999  1.00  0.00    -0.000 C 
BRANCH  10  11
ATOM     11  C   UNL     1     -18.841 -30.428  18.036  1.00  0.00    -0.000 C 
BRANCH  11  12
ATOM     12  C   UNL     1     -17.736 -29.362  18.069  1.00  0.00    -0.000 C 
BRANCH  12  13
ATOM     13  C   UNL     1     -17.475 -28.825  19.485  1.00  0.00    -0.003 C 
ATOM     14  C   UNL     1     -17.318 -27.305  19.523  1.00  0.00     0.004 C 
ENDBRANCH  12  13
ENDBRANCH  11  12
ENDBRANCH  10  11
ENDBRANCH   9  10
ENDBRANCH   1   9
TORSDOF 10
ENDMDL
MODEL 4
REMARK VINA RESULT:    -3.913      2.694      4.815
REMARK INTER + INTRA:          -7.622
REMARK INTER:                  -6.443
REMARK INTRA:                  -1.179
REMARK UNBOUND:                -1.422
REMARK SMILES CCCCCCCCCCCC(=O)[O-]
REMARK SMILES IDX 7 1 8 2 9 3 10 4 11 5 12 6 13 7 14 8 6 9 5 10 4 11 3 12 2 13
REMARK SMILES IDX 1 14
REMARK H PARENT
REMARK Flexibility Score: inf
ROOT
ATOM      1  C   UNL     1     -19.522 -30.432  19.049  1.00  0.00     0.000 C 
ENDROOT
BRANCH   1   2
ATOM      2  C   UNL     1     -20.091 -31.473  20.027  1.00  0.00     0.000 C 
BRANCH   2   3
ATOM      3  C   UNL     1     -19.515 -32.878  19.797  1.00  0.00     0.000 C 
BRANCH   3   4
ATOM      4  C   UNL     1     -18.453 -33.215  20.855  1.00  0.00     0.006 C 
BRANCH   4   5
ATOM      5  C   UNL     1     -17.083 -33.505  20.231  1.00  0.00     0.053 C 
BRANCH   5   6
ATOM      6  C   UNL     1     -15.972 -32.868  21.010  1.00  0.00     0.041 C 
ATOM      7  O   UNL     1     -14.800 -32.864  20.553  1.00  0.00    -0.550 OA
ATOM      8  O   UNL     1     -16.239 -32.250  22.225  1.00  0.00    -0.550 OA
ENDBRANCH   5   6
ENDBRANCH   4   5
ENDBRANCH   3   4
ENDBRANCH   2   3
ENDBRANCH   1   2
BRANCH   1   9
ATOM      9  C   UNL     1     -18.932 -31.074  17.781  1.00  0.00     0.000 C 
BRANCH   9  10
ATOM     10  C   UNL     1     -17.424 -30.815  17.633  1.00  0.00    -0.000 C 
BRANCH  10  11
ATOM     11  C   UNL     1     -16.909 -29.751  18.614  1.00  0.00    -0.000 C 
BRANCH  11  12
ATOM     12  C   UNL     1     -16.420 -28.504  17.863  1.00  0.00    -0.000 C 
BRANCH  12  13
ATOM     13  C   UNL     1     -17.503 -27.418  17.754  1.00  0.00    -0.003 C 
ATOM     14  C   UNL     1     -18.170 -27.110  19.094  1.00  0.00     0.004 C 
ENDBRANCH  12  13
ENDBRANCH  11  12
ENDBRANCH  10  11
ENDBRANCH   9  10
ENDBRANCH   1   9
TORSDOF 10
ENDMDL
MODEL 5
REMARK VINA RESULT:    -3.904      1.418      2.412
REMARK INTER + INTRA:          -7.608
REMARK INTER:                  -5.982
REMARK INTRA:                  -1.627
REMARK UNBOUND:                -1.422
REMARK SMILES CCCCCCCCCCCC(=O)[O-]
REMARK SMILES IDX 7 1 8 2 9 3 10 4 11 5 12 6 13 7 14 8 6 9 5 10 4 11 3 12 2 13
REMARK SMILES IDX 1 14
REMARK H PARENT
REMARK Flexibility Score: inf
ROOT
ATOM      1  C   UNL     1     -17.685 -33.642  18.075  1.00  0.00     0.000 C 
ENDROOT
BRANCH   1   2
ATOM      2  C   UNL     1     -16.982 -32.496  17.329  1.00  0.00     0.000 C 
BRANCH   2   3
ATOM      3  C   UNL     1     -17.513 -31.113  17.735  1.00  0.00     0.000 C 
BRANCH   3   4
ATOM      4  C   UNL     1     -16.645 -30.494  18.841  1.00  0.00     0.006 C 
BRANCH   4   5
ATOM      5  C   UNL     1     -17.472 -29.672  19.837  1.00  0.00     0.053 C 
BRANCH   5   6
ATOM      6  C   UNL     1     -17.490 -28.218  19.476  1.00  0.00     0.041 C 
ATOM      7  O   UNL     1     -18.496 -27.719  18.908  1.00  0.00    -0.550 OA
ATOM      8  O   UNL     1     -16.409 -27.407  19.798  1.00  0.00    -0.550 OA
ENDBRANCH   5   6
ENDBRANCH   4   5
ENDBRANCH   3   4
ENDBRANCH   2   3
ENDBRANCH   1   2
BRANCH   1   9
ATOM      9  C   UNL     1     -19.137 -33.298  18.454  1.00  0.00     0.000 C 
BRANCH   9  10
ATOM     10  C   UNL     1     -19.372 -33.316  19.972  1.00  0.00    -0.000 C 
BRANCH  10  11
ATOM     11  C   UNL     1     -18.132 -33.770  20.757  1.00  0.00    -0.000 C 
BRANCH  11  12
ATOM     12  C   UNL     1     -17.810 -32.787  21.891  1.00  0.00    -0.000 C 
BRANCH  12  13
ATOM     13  C   UNL     1     -16.309 -32.472  21.992  1.00  0.00    -0.003 C 
ATOM     14  C   UNL     1     -15.460 -33.332  21.055  1.00  0.00     0.004 C 
ENDBRANCH  12  13
ENDBRANCH  11  12
ENDBRANCH  10  11
ENDBRANCH   9  10
ENDBRANCH   1   9
TORSDOF 10
ENDMDL
MODEL 6
REMARK VINA RESULT:    -3.875      2.492      3.971
REMARK INTER + INTRA:          -7.562
REMARK INTER:                  -6.246
REMARK INTRA:                  -1.315
REMARK UNBOUND:                -1.422
REMARK SMILES CCCCCCCCCCCC(=O)[O-]
REMARK SMILES IDX 7 1 8 2 9 3 10 4 11 5 12 6 13 7 14 8 6 9 5 10 4 11 3 12 2 13
REMARK SMILES IDX 1 14
REMARK H PARENT
REMARK Flexibility Score: inf
ROOT
ATOM      1  C   UNL     1     -17.177 -33.517  19.860  1.00  0.00     0.000 C 
ENDROOT
BRANCH   1   2
ATOM      2  C   UNL     1     -18.607 -33.667  20.404  1.00  0.00     0.000 C 
BRANCH   2   3
ATOM      3  C   UNL     1     -19.644 -32.919  19.554  1.00  0.00     0.000 C 
BRANCH   3   4
ATOM      4  C   UNL     1     -19.856 -31.491  20.079  1.00  0.00     0.006 C 
BRANCH   4   5
ATOM      5  C   UNL     1     -19.720 -30.439  18.971  1.00  0.00     0.053 C 
BRANCH   5   6
ATOM      6  C   UNL     1     -18.431 -29.683  19.076  1.00  0.00     0.041 C 
ATOM      7  O   UNL     1     -18.155 -28.781  18.243  1.00  0.00    -0.550 OA
ATOM      8  O   UNL     1     -17.549 -29.953  20.115  1.00  0.00    -0.550 OA
ENDBRANCH   5   6
ENDBRANCH   4   5
ENDBRANCH   3   4
ENDBRANCH   2   3
ENDBRANCH   1   2
BRANCH   1   9
ATOM      9  C   UNL     1     -17.073 -33.871  18.366  1.00  0.00     0.000 C 
BRANCH   9  10
ATOM     10  C   UNL     1     -16.465 -32.734  17.529  1.00  0.00    -0.000 C 
BRANCH  10  11
ATOM     11  C   UNL     1     -17.462 -32.147  16.519  1.00  0.00    -0.000 C 
BRANCH  11  12
ATOM     12  C   UNL     1     -17.448 -32.946  15.208  1.00  0.00    -0.000 C 
BRANCH  12  13
ATOM     13  C   UNL     1     -18.861 -33.202  14.657  1.00  0.00    -0.003 C 
ATOM     14  C   UNL     1     -19.800 -33.812  15.697  1.00  0.00     0.004 C 
ENDBRANCH  12  13
ENDBRANCH  11  12
ENDBRANCH  10  11
ENDBRANCH   9  10
ENDBRANCH   1   9
TORSDOF 10
ENDMDL
MODEL 7
REMARK VINA RESULT:    -3.872      1.165      2.122
REMARK INTER + INTRA:          -7.558
REMARK INTER:                  -6.565
REMARK INTRA:                  -0.993
REMARK UNBOUND:                -1.422
REMARK SMILES CCCCCCCCCCCC(=O)[O-]
REMARK SMILES IDX 7 1 8 2 9 3 10 4 11 5 12 6 13 7 14 8 6 9 5 10 4 11 3 12 2 13
REMARK SMILES IDX 1 14
REMARK H PARENT
REMARK Flexibility Score: inf
ROOT
ATOM      1  C   UNL     1     -19.661 -31.167  19.976  1.00  0.00     0.000 C 
ENDROOT
BRANCH   1   2
ATOM      2  C   UNL     1     -19.428 -30.573  18.577  1.00  0.00     0.000 C 
BRANCH   2   3
ATOM      3  C   UNL     1     -17.996 -30.050  18.390  1.00  0.00     0.000 C 
BRANCH   3   4
ATOM      4  C   UNL     1     -17.288 -29.890  19.744  1.00  0.00     0.006 C 
BRANCH   4   5
ATOM      5  C   UNL     1     -16.727 -28.476  19.942  1.00  0.00     0.053 C 
BRANCH   5   6
ATOM      6  C   UNL     1     -17.242 -27.524  18.907  1.00  0.00     0.041 C 
ATOM      7  O   UNL     1     -16.581 -27.311  17.857  1.00  0.00    -0.550 OA
ATOM      8  O   UNL     1     -18.468 -26.896  19.086  1.00  0.00    -0.550 OA
ENDBRANCH   5   6
ENDBRANCH   4   5
ENDBRANCH   3   4
ENDBRANCH   2   3
ENDBRANCH   1   2
BRANCH   1   9
ATOM      9  C   UNL     1     -19.650 -32.707  19.973  1.00  0.00     0.000 C 
BRANCH   9  10
ATOM     10  C   UNL     1     -19.041 -33.291  18.689  1.00  0.00    -0.000 C 
BRANCH  10  11
ATOM     11  C   UNL     1     -17.625 -33.847  18.908  1.00  0.00    -0.000 C 
BRANCH  11  12
ATOM     12  C   UNL     1     -17.341 -34.051  20.403  1.00  0.00    -0.000 C 
BRANCH  12  13
ATOM     13  C   UNL     1     -16.113 -33.261  20.884  1.00  0.00    -0.003 C 
ATOM     14  C   UNL     1     -16.367 -32.510  22.191  1.00  0.00     0.004 C 
ENDBRANCH  12  13
ENDBRANCH  11  12
ENDBRANCH  10  11
ENDBRANCH   9  10
ENDBRANCH   1   9
TORSDOF 10
ENDMDL
MODEL 8
REMARK VINA RESULT:    -3.828      2.153      3.313
REMARK INTER + INTRA:          -7.488
REMARK INTER:                  -6.512
REMARK INTRA:                  -0.976
REMARK UNBOUND:                -1.422
REMARK SMILES CCCCCCCCCCCC(=O)[O-]
REMARK SMILES IDX 7 1 8 2 9 3 10 4 11 5 12 6 13 7 14 8 6 9 5 10 4 11 3 12 2 13
REMARK SMILES IDX 1 14
REMARK H PARENT
REMARK Flexibility Score: inf
ROOT
ATOM      1  C   UNL     1     -19.146 -32.180  20.219  1.00  0.00     0.000 C 
ENDROOT
BRANCH   1   2
ATOM      2  C   UNL     1     -20.038 -30.947  19.999  1.00  0.00     0.000 C 
BRANCH   2   3
ATOM      3  C   UNL     1     -19.931 -30.388  18.573  1.00  0.00     0.000 C 
BRANCH   3   4
ATOM      4  C   UNL     1     -18.478 -30.022  18.234  1.00  0.00     0.006 C 
BRANCH   4   5
ATOM      5  C   UNL     1     -17.858 -29.084  19.276  1.00  0.00     0.053 C 
BRANCH   5   6
ATOM      6  C   UNL     1     -17.738 -27.682  18.761  1.00  0.00     0.041 C 
ATOM      7  O   UNL     1     -18.510 -26.783  19.185  1.00  0.00    -0.550 OA
ATOM      8  O   UNL     1     -16.752 -27.361  17.836  1.00  0.00    -0.550 OA
ENDBRANCH   5   6
ENDBRANCH   4   5
ENDBRANCH   3   4
ENDBRANCH   2   3
ENDBRANCH   1   2
BRANCH   1   9
ATOM      9  C   UNL     1     -19.620 -33.403  19.415  1.00  0.00     0.000 C 
BRANCH   9  10
ATOM     10  C   UNL     1     -18.706 -33.715  18.219  1.00  0.00    -0.000 C 
BRANCH  10  11
ATOM     11  C   UNL     1     -19.496 -34.057  16.946  1.00  0.00    -0.000 C 
BRANCH  11  12
ATOM     12  C   UNL     1     -19.207 -33.040  15.833  1.00  0.00    -0.000 C 
BRANCH  12  13
ATOM     13  C   UNL     1     -17.724 -32.640  15.768  1.00  0.00    -0.003 C 
ATOM     14  C   UNL     1     -17.196 -32.556  14.336  1.00  0.00     0.004 C 
ENDBRANCH  12  13
ENDBRANCH  11  12
ENDBRANCH  10  11
ENDBRANCH   9  10
ENDBRANCH   1   9
TORSDOF 10
ENDMDL
MODEL 9
REMARK VINA RESULT:    -3.825      3.224      4.793
REMARK INTER + INTRA:          -7.482
REMARK INTER:                  -5.994
REMARK INTRA:                  -1.488
REMARK UNBOUND:                -1.422
REMARK SMILES CCCCCCCCCCCC(=O)[O-]
REMARK SMILES IDX 7 1 8 2 9 3 10 4 11 5 12 6 13 7 14 8 6 9 5 10 4 11 3 12 2 13
REMARK SMILES IDX 1 14
REMARK H PARENT
REMARK Flexibility Score: inf
ROOT
ATOM      1  C   UNL     1     -17.741 -29.189  17.750  1.00  0.00     0.000 C 
ENDROOT
BRANCH   1   2
ATOM      2  C   UNL     1     -18.556 -29.282  19.051  1.00  0.00     0.000 C 
BRANCH   2   3
ATOM      3  C   UNL     1     -19.886 -30.025  18.862  1.00  0.00     0.000 C 
BRANCH   3   4
ATOM      4  C   UNL     1     -19.988 -31.221  19.821  1.00  0.00     0.006 C 
BRANCH   4   5
ATOM      5  C   UNL     1     -18.756 -31.346  20.726  1.00  0.00     0.053 C 
BRANCH   5   6
ATOM      6  C   UNL     1     -18.504 -32.767  21.128  1.00  0.00     0.041 C 
ATOM      7  O   UNL     1     -19.098 -33.707  20.539  1.00  0.00    -0.550 OA
ATOM      8  O   UNL     1     -17.588 -33.054  22.132  1.00  0.00    -0.550 OA
ENDBRANCH   5   6
ENDBRANCH   4   5
ENDBRANCH   3   4
ENDBRANCH   2   3
ENDBRANCH   1   2
BRANCH   1   9
ATOM      9  C   UNL     1     -16.596 -30.217  17.695  1.00  0.00     0.000 C 
BRANCH   9  10
ATOM     10  C   UNL     1     -16.426 -30.838  16.299  1.00  0.00    -0.000 C 
BRANCH  10  11
ATOM     11  C   UNL     1     -16.628 -32.361  16.302  1.00  0.00    -0.000 C 
BRANCH  11  12
ATOM     12  C   UNL     1     -17.506 -32.795  17.485  1.00  0.00    -0.000 C 
BRANCH  12  13
ATOM     13  C   UNL     1     -18.750 -33.581  17.040  1.00  0.00    -0.003 C 
ATOM     14  C   UNL     1     -19.567 -32.845  15.979  1.00  0.00     0.004 C 
ENDBRANCH  12  13
ENDBRANCH  11  12
ENDBRANCH  10  11
ENDBRANCH   9  10
ENDBRANCH   1   9
TORSDOF 10
ENDMDL
