MODEL 1
REMARK VINA RESULT:    -7.420      0.000      0.000
REMARK INTER + INTRA:          -9.535
REMARK INTER:                  -9.154
REMARK INTRA:                  -0.380
REMARK UNBOUND:                -0.380
REMARK SMILES Oc1cc(O)c2cc(O)c(-c3cc(O)c(O)c(O)c3)[o+]c2c1
REMARK SMILES IDX 10 1 20 2 21 3 22 4 2 5 3 6 4 7 6 8 7 9 8 10 11 11 12 12
REMARK SMILES IDX 13 13 19 14 15 15 17 16 14 17 16 19 18 21 9 23 1 25 5 27
REMARK H PARENT 14 18 16 20 18 22 9 24 1 26 5 28
REMARK Flexibility Score: inf
ROOT
ATOM      1  C   UNL     1      -6.654  -7.848  13.624  1.00  0.00     0.402 A 
ATOM      2  O   UNL     1      -7.138  -8.351  14.756  1.00  0.00    -0.202 OA
ATOM      3  C   UNL     1      -8.434  -8.364  15.054  1.00  0.00     0.368 A 
ATOM      4  C   UNL     1      -8.847  -8.912  16.271  1.00  0.00     0.162 A 
ATOM      5  C   UNL     1     -10.203  -8.936  16.610  1.00  0.00     0.128 A 
ATOM      6  C   UNL     1     -11.149  -8.409  15.729  1.00  0.00     0.093 A 
ATOM      7  C   UNL     1     -10.762  -7.854  14.503  1.00  0.00     0.136 A 
ATOM      8  C   UNL     1      -9.386  -7.830  14.153  1.00  0.00     0.125 A 
ATOM      9  C   UNL     1      -8.907  -7.306  12.941  1.00  0.00     0.078 A 
ATOM     10  C   UNL     1      -7.538  -7.321  12.663  1.00  0.00     0.223 A 
ENDROOT
BRANCH   1  11
ATOM     11  C   UNL     1      -5.189  -7.883  13.413  1.00  0.00     0.091 A 
ATOM     12  C   UNL     1      -4.410  -6.782  13.799  1.00  0.00     0.068 A 
ATOM     13  C   UNL     1      -3.024  -6.782  13.592  1.00  0.00     0.162 A 
ATOM     14  C   UNL     1      -4.566  -8.974  12.782  1.00  0.00     0.068 A 
ATOM     15  C   UNL     1      -2.406  -7.880  12.981  1.00  0.00     0.200 A 
ATOM     16  C   UNL     1      -3.180  -8.979  12.571  1.00  0.00     0.162 A 
BRANCH  13  17
ATOM     17  O   UNL     1      -2.252  -5.691  13.991  1.00  0.00    -0.504 OA
ATOM     18  H   UNL     1      -2.531  -4.739  13.781  1.00  0.00     0.293 HD
ENDBRANCH  13  17
BRANCH  15  19
ATOM     19  O   UNL     1      -1.024  -7.864  12.786  1.00  0.00    -0.502 OA
ATOM     20  H   UNL     1      -0.372  -8.035  13.542  1.00  0.00     0.293 HD
ENDBRANCH  15  19
BRANCH  16  21
ATOM     21  O   UNL     1      -2.571 -10.068  11.950  1.00  0.00    -0.504 OA
ATOM     22  H   UNL     1      -3.087 -10.682  11.330  1.00  0.00     0.293 HD
ENDBRANCH  16  21
ENDBRANCH   1  11
BRANCH  10  23
ATOM     23  O   UNL     1      -7.066  -6.847  11.439  1.00  0.00    -0.500 OA
ATOM     24  H   UNL     1      -6.450  -7.400  10.855  1.00  0.00     0.294 HD
ENDBRANCH  10  23
BRANCH   5  25
ATOM     25  O   UNL     1     -10.621  -9.481  17.822  1.00  0.00    -0.507 OA
ATOM     26  H   UNL     1     -11.038 -10.403  17.873  1.00  0.00     0.293 HD
ENDBRANCH   5  25
BRANCH   7  27
ATOM     27  O   UNL     1     -11.770  -7.345  13.679  1.00  0.00    -0.507 OA
ATOM     28  H   UNL     1     -11.611  -6.933  12.771  1.00  0.00     0.293 HD
ENDBRANCH   7  27
TORSDOF 7
ENDMDL
MODEL 2
REMARK VINA RESULT:    -6.991      3.412      7.860
REMARK INTER + INTRA:          -9.007
REMARK INTER:                  -8.622
REMARK INTRA:                  -0.385
REMARK UNBOUND:                -0.380
REMARK SMILES Oc1cc(O)c2cc(O)c(-c3cc(O)c(O)c(O)c3)[o+]c2c1
REMARK SMILES IDX 10 1 20 2 21 3 22 4 2 5 3 6 4 7 6 8 7 9 8 10 11 11 12 12
REMARK SMILES IDX 13 13 19 14 15 15 17 16 14 17 16 19 18 21 9 23 1 25 5 27
REMARK H PARENT 14 18 16 20 18 22 9 24 1 26 5 28
REMARK Flexibility Score: inf
ROOT
ATOM      1  C   UNL     1      -2.860  -9.281  14.088  1.00  0.00     0.402 A 
ATOM      2  O   UNL     1      -1.978  -8.962  15.032  1.00  0.00    -0.202 OA
ATOM      3  C   UNL     1      -0.891  -8.233  14.800  1.00  0.00     0.368 A 
ATOM      4  C   UNL     1      -0.021  -7.952  15.856  1.00  0.00     0.162 A 
ATOM      5  C   UNL     1       1.131  -7.191  15.639  1.00  0.00     0.128 A 
ATOM      6  C   UNL     1       1.415  -6.709  14.359  1.00  0.00     0.093 A 
ATOM      7  C   UNL     1       0.560  -6.977  13.283  1.00  0.00     0.136 A 
ATOM      8  C   UNL     1      -0.613  -7.747  13.499  1.00  0.00     0.125 A 
ATOM      9  C   UNL     1      -1.534  -8.053  12.483  1.00  0.00     0.078 A 
ATOM     10  C   UNL     1      -2.669  -8.814  12.774  1.00  0.00     0.223 A 
ENDROOT
BRANCH   1  11
ATOM     11  C   UNL     1      -4.027 -10.107  14.471  1.00  0.00     0.091 A 
ATOM     12  C   UNL     1      -5.177  -9.484  14.976  1.00  0.00     0.068 A 
ATOM     13  C   UNL     1      -6.288 -10.246  15.364  1.00  0.00     0.162 A 
ATOM     14  C   UNL     1      -3.987 -11.510  14.390  1.00  0.00     0.068 A 
ATOM     15  C   UNL     1      -6.251 -11.642  15.263  1.00  0.00     0.200 A 
ATOM     16  C   UNL     1      -5.096 -12.277  14.778  1.00  0.00     0.162 A 
BRANCH  13  17
ATOM     17  O   UNL     1      -7.434  -9.620  15.853  1.00  0.00    -0.504 OA
ATOM     18  H   UNL     1      -8.078  -9.138  15.237  1.00  0.00     0.293 HD
ENDBRANCH  13  17
BRANCH  15  19
ATOM     19  O   UNL     1      -7.368 -12.383  15.651  1.00  0.00    -0.502 OA
ATOM     20  H   UNL     1      -8.082 -12.002  16.260  1.00  0.00     0.293 HD
ENDBRANCH  15  19
BRANCH  16  21
ATOM     21  O   UNL     1      -5.049 -13.668  14.690  1.00  0.00    -0.504 OA
ATOM     22  H   UNL     1      -5.808 -14.248  15.031  1.00  0.00     0.293 HD
ENDBRANCH  16  21
ENDBRANCH   1  11
BRANCH  10  23
ATOM     23  O   UNL     1      -3.609  -9.076  11.777  1.00  0.00    -0.500 OA
ATOM     24  H   UNL     1      -4.298  -9.813  11.875  1.00  0.00     0.294 HD
ENDBRANCH  10  23
BRANCH   5  25
ATOM     25  O   UNL     1       2.002  -6.907  16.688  1.00  0.00    -0.507 OA
ATOM     26  H   UNL     1       1.986  -6.012  17.164  1.00  0.00     0.293 HD
ENDBRANCH   5  25
BRANCH   7  27
ATOM     27  O   UNL     1       0.917  -6.462  12.034  1.00  0.00    -0.507 OA
ATOM     28  H   UNL     1       0.267  -6.289  11.281  1.00  0.00     0.293 HD
ENDBRANCH   7  27
TORSDOF 7
ENDMDL
MODEL 3
REMARK VINA RESULT:    -6.986      3.474      8.480
REMARK INTER + INTRA:          -9.000
REMARK INTER:                  -8.649
REMARK INTRA:                  -0.351
REMARK UNBOUND:                -0.380
REMARK SMILES Oc1cc(O)c2cc(O)c(-c3cc(O)c(O)c(O)c3)[o+]c2c1
REMARK SMILES IDX 10 1 20 2 21 3 22 4 2 5 3 6 4 7 6 8 7 9 8 10 11 11 12 12
REMARK SMILES IDX 13 13 19 14 15 15 17 16 14 17 16 19 18 21 9 23 1 25 5 27
REMARK H PARENT 14 18 16 20 18 22 9 24 1 26 5 28
REMARK Flexibility Score: inf
ROOT
ATOM      1  C   UNL     1      -1.560  -7.441  13.893  1.00  0.00     0.402 A 
ATOM      2  O   UNL     1      -1.200  -7.380  15.173  1.00  0.00    -0.202 OA
ATOM      3  C   UNL     1       0.066  -7.315  15.573  1.00  0.00     0.368 A 
ATOM      4  C   UNL     1       0.345  -7.257  16.941  1.00  0.00     0.162 A 
ATOM      5  C   UNL     1       1.667  -7.191  17.389  1.00  0.00     0.128 A 
ATOM      6  C   UNL     1       2.715  -7.184  16.466  1.00  0.00     0.093 A 
ATOM      7  C   UNL     1       2.462  -7.241  15.090  1.00  0.00     0.136 A 
ATOM      8  C   UNL     1       1.121  -7.306  14.629  1.00  0.00     0.125 A 
ATOM      9  C   UNL     1       0.773  -7.353  13.269  1.00  0.00     0.078 A 
ATOM     10  C   UNL     1      -0.571  -7.410  12.892  1.00  0.00     0.223 A 
ENDROOT
BRANCH   1  11
ATOM     11  C   UNL     1      -3.003  -7.521  13.575  1.00  0.00     0.091 A 
ATOM     12  C   UNL     1      -3.564  -8.756  13.219  1.00  0.00     0.068 A 
ATOM     13  C   UNL     1      -4.924  -8.854  12.893  1.00  0.00     0.162 A 
ATOM     14  C   UNL     1      -3.815  -6.373  13.568  1.00  0.00     0.068 A 
ATOM     15  C   UNL     1      -5.733  -7.711  12.908  1.00  0.00     0.200 A 
ATOM     16  C   UNL     1      -5.176  -6.465  13.242  1.00  0.00     0.162 A 
BRANCH  13  17
ATOM     17  O   UNL     1      -5.480 -10.087  12.554  1.00  0.00    -0.504 OA
ATOM     18  H   UNL     1      -5.169 -10.602  11.738  1.00  0.00     0.293 HD
ENDBRANCH  13  17
BRANCH  15  19
ATOM     19  O   UNL     1      -7.085  -7.828  12.584  1.00  0.00    -0.502 OA
ATOM     20  H   UNL     1      -7.729  -8.366  13.151  1.00  0.00     0.293 HD
ENDBRANCH  15  19
BRANCH  16  21
ATOM     21  O   UNL     1      -5.974  -5.322  13.243  1.00  0.00    -0.504 OA
ATOM     22  H   UNL     1      -5.812  -4.560  12.593  1.00  0.00     0.293 HD
ENDBRANCH  16  21
ENDBRANCH   1  11
BRANCH  10  23
ATOM     23  O   UNL     1      -0.919  -7.407  11.541  1.00  0.00    -0.500 OA
ATOM     24  H   UNL     1      -1.040  -8.268  11.020  1.00  0.00     0.294 HD
ENDBRANCH  10  23
BRANCH   5  25
ATOM     25  O   UNL     1       1.952  -7.133  18.752  1.00  0.00    -0.507 OA
ATOM     26  H   UNL     1       2.750  -7.616  19.148  1.00  0.00     0.293 HD
ENDBRANCH   5  25
BRANCH   7  27
ATOM     27  O   UNL     1       3.566  -7.234  14.232  1.00  0.00    -0.507 OA
ATOM     28  H   UNL     1       3.506  -7.262  13.225  1.00  0.00     0.293 HD
ENDBRANCH   7  27
TORSDOF 7
ENDMDL
MODEL 4
REMARK VINA RESULT:    -6.981      3.467      8.329
REMARK INTER + INTRA:          -8.994
REMARK INTER:                  -8.629
REMARK INTRA:                  -0.366
REMARK UNBOUND:                -0.380
REMARK SMILES Oc1cc(O)c2cc(O)c(-c3cc(O)c(O)c(O)c3)[o+]c2c1
REMARK SMILES IDX 10 1 20 2 21 3 22 4 2 5 3 6 4 7 6 8 7 9 8 10 11 11 12 12
REMARK SMILES IDX 13 13 19 14 15 15 17 16 14 17 16 19 18 21 9 23 1 25 5 27
REMARK H PARENT 14 18 16 20 18 22 9 24 1 26 5 28
REMARK Flexibility Score: inf
ROOT
ATOM      1  C   UNL     1      -1.512  -7.480  13.794  1.00  0.00     0.402 A 
ATOM      2  O   UNL     1      -1.154  -7.390  15.072  1.00  0.00    -0.202 OA
ATOM      3  C   UNL     1       0.111  -7.308  15.473  1.00  0.00     0.368 A 
ATOM      4  C   UNL     1       0.389  -7.221  16.839  1.00  0.00     0.162 A 
ATOM      5  C   UNL     1       1.710  -7.135  17.287  1.00  0.00     0.128 A 
ATOM      6  C   UNL     1       2.758  -7.138  16.365  1.00  0.00     0.093 A 
ATOM      7  C   UNL     1       2.507  -7.225  14.990  1.00  0.00     0.136 A 
ATOM      8  C   UNL     1       1.167  -7.309  14.529  1.00  0.00     0.125 A 
ATOM      9  C   UNL     1       0.821  -7.386  13.170  1.00  0.00     0.078 A 
ATOM     10  C   UNL     1      -0.522  -7.461  12.793  1.00  0.00     0.223 A 
ENDROOT
BRANCH   1  11
ATOM     11  C   UNL     1      -2.955  -7.577  13.477  1.00  0.00     0.091 A 
ATOM     12  C   UNL     1      -3.755  -6.427  13.544  1.00  0.00     0.068 A 
ATOM     13  C   UNL     1      -5.127  -6.496  13.267  1.00  0.00     0.162 A 
ATOM     14  C   UNL     1      -3.553  -8.810  13.162  1.00  0.00     0.068 A 
ATOM     15  C   UNL     1      -5.714  -7.723  12.934  1.00  0.00     0.200 A 
ATOM     16  C   UNL     1      -4.926  -8.885  12.885  1.00  0.00     0.162 A 
BRANCH  13  17
ATOM     17  O   UNL     1      -5.915  -5.348  13.322  1.00  0.00    -0.504 OA
ATOM     18  H   UNL     1      -5.507  -4.422  13.264  1.00  0.00     0.293 HD
ENDBRANCH  13  17
BRANCH  15  19
ATOM     19  O   UNL     1      -7.081  -7.772  12.659  1.00  0.00    -0.502 OA
ATOM     20  H   UNL     1      -7.726  -8.305  13.229  1.00  0.00     0.293 HD
ENDBRANCH  15  19
BRANCH  16  21
ATOM     21  O   UNL     1      -5.509 -10.111  12.568  1.00  0.00    -0.504 OA
ATOM     22  H   UNL     1      -5.690 -10.382  11.608  1.00  0.00     0.293 HD
ENDBRANCH  16  21
ENDBRANCH   1  11
BRANCH  10  23
ATOM     23  O   UNL     1      -0.869  -7.488  11.442  1.00  0.00    -0.500 OA
ATOM     24  H   UNL     1      -0.369  -8.063  10.775  1.00  0.00     0.294 HD
ENDBRANCH  10  23
BRANCH   5  25
ATOM     25  O   UNL     1       1.993  -7.047  18.648  1.00  0.00    -0.507 OA
ATOM     26  H   UNL     1       2.905  -6.758  18.983  1.00  0.00     0.293 HD
ENDBRANCH   5  25
BRANCH   7  27
ATOM     27  O   UNL     1       3.612  -7.226  14.133  1.00  0.00    -0.507 OA
ATOM     28  H   UNL     1       4.251  -6.453  14.026  1.00  0.00     0.293 HD
ENDBRANCH   7  27
TORSDOF 7
ENDMDL
MODEL 5
REMARK VINA RESULT:    -6.951      2.156      2.761
REMARK INTER + INTRA:          -8.957
REMARK INTER:                  -8.618
REMARK INTRA:                  -0.338
REMARK UNBOUND:                -0.380
REMARK SMILES Oc1cc(O)c2cc(O)c(-c3cc(O)c(O)c(O)c3)[o+]c2c1
REMARK SMILES IDX 10 1 20 2 21 3 22 4 2 5 3 6 4 7 6 8 7 9 8 10 11 11 12 12
REMARK SMILES IDX 13 13 19 14 15 15 17 16 14 17 16 19 18 21 9 23 1 25 5 27
REMARK H PARENT 14 18 16 20 18 22 9 24 1 26 5 28
REMARK Flexibility Score: inf
ROOT
ATOM      1  C   UNL     1      -4.408  -8.243  13.932  1.00  0.00     0.402 A 
ATOM      2  O   UNL     1      -4.632  -9.204  14.824  1.00  0.00    -0.202 OA
ATOM      3  C   UNL     1      -5.846  -9.666  15.111  1.00  0.00     0.368 A 
ATOM      4  C   UNL     1      -5.981 -10.675  16.068  1.00  0.00     0.162 A 
ATOM      5  C   UNL     1      -7.246 -11.176  16.390  1.00  0.00     0.128 A 
ATOM      6  C   UNL     1      -8.379 -10.665  15.755  1.00  0.00     0.093 A 
ATOM      7  C   UNL     1      -8.270  -9.653  14.793  1.00  0.00     0.136 A 
ATOM      8  C   UNL     1      -6.988  -9.142  14.460  1.00  0.00     0.125 A 
ATOM      9  C   UNL     1      -6.783  -8.138  13.500  1.00  0.00     0.078 A 
ATOM     10  C   UNL     1      -5.489  -7.689  13.222  1.00  0.00     0.223 A 
ENDROOT
BRANCH   1  11
ATOM     11  C   UNL     1      -3.010  -7.808  13.708  1.00  0.00     0.091 A 
ATOM     12  C   UNL     1      -2.421  -6.896  14.597  1.00  0.00     0.068 A 
ATOM     13  C   UNL     1      -1.107  -6.454  14.396  1.00  0.00     0.162 A 
ATOM     14  C   UNL     1      -2.278  -8.247  12.591  1.00  0.00     0.068 A 
ATOM     15  C   UNL     1      -0.374  -6.909  13.293  1.00  0.00     0.200 A 
ATOM     16  C   UNL     1      -0.963  -7.806  12.385  1.00  0.00     0.162 A 
BRANCH  13  17
ATOM     17  O   UNL     1      -0.521  -5.559  15.290  1.00  0.00    -0.504 OA
ATOM     18  H   UNL     1      -0.520  -4.560  15.116  1.00  0.00     0.293 HD
ENDBRANCH  13  17
BRANCH  15  19
ATOM     19  O   UNL     1       0.934  -6.460  13.110  1.00  0.00    -0.502 OA
ATOM     20  H   UNL     1       1.331  -5.716  13.672  1.00  0.00     0.293 HD
ENDBRANCH  15  19
BRANCH  16  21
ATOM     21  O   UNL     1      -0.242  -8.250  11.277  1.00  0.00    -0.504 OA
ATOM     22  H   UNL     1       0.247  -9.138  11.282  1.00  0.00     0.293 HD
ENDBRANCH  16  21
ENDBRANCH   1  11
BRANCH  10  23
ATOM     23  O   UNL     1      -5.280  -6.727  12.233  1.00  0.00    -0.500 OA
ATOM     24  H   UNL     1      -5.990  -6.507  11.545  1.00  0.00     0.294 HD
ENDBRANCH  10  23
BRANCH   5  25
ATOM     25  O   UNL     1      -7.387 -12.183  17.342  1.00  0.00    -0.507 OA
ATOM     26  H   UNL     1      -8.277 -12.641  17.502  1.00  0.00     0.293 HD
ENDBRANCH   5  25
BRANCH   7  27
ATOM     27  O   UNL     1      -9.453  -9.192  14.207  1.00  0.00    -0.507 OA
ATOM     28  H   UNL     1     -10.140  -8.624  14.679  1.00  0.00     0.293 HD
ENDBRANCH   7  27
TORSDOF 7
ENDMDL
MODEL 6
REMARK VINA RESULT:    -6.857      4.806      9.795
REMARK INTER + INTRA:          -8.841
REMARK INTER:                  -8.477
REMARK INTRA:                  -0.363
REMARK UNBOUND:                -0.380
REMARK SMILES Oc1cc(O)c2cc(O)c(-c3cc(O)c(O)c(O)c3)[o+]c2c1
REMARK SMILES IDX 10 1 20 2 21 3 22 4 2 5 3 6 4 7 6 8 7 9 8 10 11 11 12 12
REMARK SMILES IDX 13 13 19 14 15 15 17 16 14 17 16 19 18 21 9 23 1 25 5 27
REMARK H PARENT 14 18 16 20 18 22 9 24 1 26 5 28
REMARK Flexibility Score: inf
ROOT
ATOM      1  C   UNL     1       0.554  -7.685  14.259  1.00  0.00     0.402 A 
ATOM      2  O   UNL     1       0.826  -8.081  15.499  1.00  0.00    -0.202 OA
ATOM      3  C   UNL     1       2.043  -8.034  16.032  1.00  0.00     0.368 A 
ATOM      4  C   UNL     1       2.230  -8.476  17.344  1.00  0.00     0.162 A 
ATOM      5  C   UNL     1       3.500  -8.440  17.926  1.00  0.00     0.128 A 
ATOM      6  C   UNL     1       4.587  -7.961  17.194  1.00  0.00     0.093 A 
ATOM      7  C   UNL     1       4.427  -7.512  15.877  1.00  0.00     0.136 A 
ATOM      8  C   UNL     1       3.139  -7.544  15.281  1.00  0.00     0.125 A 
ATOM      9  C   UNL     1       2.882  -7.103  13.973  1.00  0.00     0.078 A 
ATOM     10  C   UNL     1       1.585  -7.161  13.456  1.00  0.00     0.223 A 
ENDROOT
BRANCH   1  11
ATOM     11  C   UNL     1      -0.841  -7.797  13.777  1.00  0.00     0.091 A 
ATOM     12  C   UNL     1      -1.206  -8.883  12.967  1.00  0.00     0.068 A 
ATOM     13  C   UNL     1      -2.516  -9.000  12.482  1.00  0.00     0.162 A 
ATOM     14  C   UNL     1      -1.797  -6.808  14.069  1.00  0.00     0.068 A 
ATOM     15  C   UNL     1      -3.470  -8.023  12.792  1.00  0.00     0.200 A 
ATOM     16  C   UNL     1      -3.109  -6.921  13.586  1.00  0.00     0.162 A 
BRANCH  13  17
ATOM     17  O   UNL     1      -2.878 -10.089  11.689  1.00  0.00    -0.504 OA
ATOM     18  H   UNL     1      -2.207 -10.803  11.432  1.00  0.00     0.293 HD
ENDBRANCH  13  17
BRANCH  15  19
ATOM     19  O   UNL     1      -4.770  -8.159  12.303  1.00  0.00    -0.502 OA
ATOM     20  H   UNL     1      -5.219  -9.062  12.213  1.00  0.00     0.293 HD
ENDBRANCH  15  19
BRANCH  16  21
ATOM     21  O   UNL     1      -4.051  -5.938  13.885  1.00  0.00    -0.504 OA
ATOM     22  H   UNL     1      -4.812  -6.111  14.532  1.00  0.00     0.293 HD
ENDBRANCH  16  21
ENDBRANCH   1  11
BRANCH  10  23
ATOM     23  O   UNL     1       1.320  -6.677  12.175  1.00  0.00    -0.500 OA
ATOM     24  H   UNL     1       1.089  -5.704  12.010  1.00  0.00     0.294 HD
ENDBRANCH  10  23
BRANCH   5  25
ATOM     25  O   UNL     1       3.693  -8.879  19.234  1.00  0.00    -0.507 OA
ATOM     26  H   UNL     1       3.545  -8.265  20.027  1.00  0.00     0.293 HD
ENDBRANCH   5  25
BRANCH   7  27
ATOM     27  O   UNL     1       5.567  -7.052  15.210  1.00  0.00    -0.507 OA
ATOM     28  H   UNL     1       5.781  -7.249  14.244  1.00  0.00     0.293 HD
ENDBRANCH   7  27
TORSDOF 7
ENDMDL
MODEL 7
REMARK VINA RESULT:    -6.854      4.622      9.119
REMARK INTER + INTRA:          -8.838
REMARK INTER:                  -8.511
REMARK INTRA:                  -0.326
REMARK UNBOUND:                -0.380
REMARK SMILES Oc1cc(O)c2cc(O)c(-c3cc(O)c(O)c(O)c3)[o+]c2c1
REMARK SMILES IDX 10 1 20 2 21 3 22 4 2 5 3 6 4 7 6 8 7 9 8 10 11 11 12 12
REMARK SMILES IDX 13 13 19 14 15 15 17 16 14 17 16 19 18 21 9 23 1 25 5 27
REMARK H PARENT 14 18 16 20 18 22 9 24 1 26 5 28
REMARK Flexibility Score: inf
ROOT
ATOM      1  C   UNL     1      -0.122  -7.572  14.910  1.00  0.00     0.402 A 
ATOM      2  O   UNL     1       0.120  -8.408  15.916  1.00  0.00    -0.202 OA
ATOM      3  C   UNL     1       1.269  -8.434  16.584  1.00  0.00     0.368 A 
ATOM      4  C   UNL     1       1.431  -9.352  17.625  1.00  0.00     0.162 A 
ATOM      5  C   UNL     1       2.629  -9.402  18.342  1.00  0.00     0.128 A 
ATOM      6  C   UNL     1       3.671  -8.531  18.016  1.00  0.00     0.093 A 
ATOM      7  C   UNL     1       3.535  -7.602  16.978  1.00  0.00     0.136 A 
ATOM      8  C   UNL     1       2.318  -7.545  16.248  1.00  0.00     0.125 A 
ATOM      9  C   UNL     1       2.087  -6.638  15.201  1.00  0.00     0.078 A 
ATOM     10  C   UNL     1       0.861  -6.638  14.531  1.00  0.00     0.223 A 
ENDROOT
BRANCH   1  11
ATOM     11  C   UNL     1      -1.439  -7.648  14.237  1.00  0.00     0.091 A 
ATOM     12  C   UNL     1      -2.424  -6.696  14.539  1.00  0.00     0.068 A 
ATOM     13  C   UNL     1      -3.685  -6.758  13.931  1.00  0.00     0.162 A 
ATOM     14  C   UNL     1      -1.744  -8.689  13.343  1.00  0.00     0.068 A 
ATOM     15  C   UNL     1      -3.977  -7.784  13.025  1.00  0.00     0.200 A 
ATOM     16  C   UNL     1      -3.005  -8.756  12.732  1.00  0.00     0.162 A 
BRANCH  13  17
ATOM     17  O   UNL     1      -4.655  -5.800  14.223  1.00  0.00    -0.504 OA
ATOM     18  H   UNL     1      -4.449  -4.998  14.808  1.00  0.00     0.293 HD
ENDBRANCH  13  17
BRANCH  15  19
ATOM     19  O   UNL     1      -5.237  -7.828  12.427  1.00  0.00    -0.502 OA
ATOM     20  H   UNL     1      -5.357  -7.807  11.422  1.00  0.00     0.293 HD
ENDBRANCH  15  19
BRANCH  16  21
ATOM     21  O   UNL     1      -3.297  -9.788  11.842  1.00  0.00    -0.504 OA
ATOM     22  H   UNL     1      -3.105  -9.705  10.850  1.00  0.00     0.293 HD
ENDBRANCH  16  21
ENDBRANCH   1  11
BRANCH  10  23
ATOM     23  O   UNL     1       0.613  -5.705  13.525  1.00  0.00    -0.500 OA
ATOM     24  H   UNL     1       0.899  -4.737  13.613  1.00  0.00     0.294 HD
ENDBRANCH  10  23
BRANCH   5  25
ATOM     25  O   UNL     1       2.797 -10.315  19.380  1.00  0.00    -0.507 OA
ATOM     26  H   UNL     1       3.018 -11.288  19.201  1.00  0.00     0.293 HD
ENDBRANCH   5  25
BRANCH   7  27
ATOM     27  O   UNL     1       4.625  -6.769  16.712  1.00  0.00    -0.507 OA
ATOM     28  H   UNL     1       4.724  -5.829  17.066  1.00  0.00     0.293 HD
ENDBRANCH   7  27
TORSDOF 7
ENDMDL
MODEL 8
REMARK VINA RESULT:    -6.814      3.418      5.436
REMARK INTER + INTRA:          -8.787
REMARK INTER:                  -8.436
REMARK INTRA:                  -0.352
REMARK UNBOUND:                -0.380
REMARK SMILES Oc1cc(O)c2cc(O)c(-c3cc(O)c(O)c(O)c3)[o+]c2c1
REMARK SMILES IDX 10 1 20 2 21 3 22 4 2 5 3 6 4 7 6 8 7 9 8 10 11 11 12 12
REMARK SMILES IDX 13 13 19 14 15 15 17 16 14 17 16 19 18 21 9 23 1 25 5 27
REMARK H PARENT 14 18 16 20 18 22 9 24 1 26 5 28
REMARK Flexibility Score: inf
ROOT
ATOM      1  C   UNL     1      -2.038  -8.550  13.354  1.00  0.00     0.402 A 
ATOM      2  O   UNL     1      -2.224  -9.830  13.664  1.00  0.00    -0.202 OA
ATOM      3  C   UNL     1      -3.421 -10.357  13.905  1.00  0.00     0.368 A 
ATOM      4  C   UNL     1      -3.514 -11.713  14.228  1.00  0.00     0.162 A 
ATOM      5  C   UNL     1      -4.760 -12.292  14.487  1.00  0.00     0.128 A 
ATOM      6  C   UNL     1      -5.916 -11.511  14.426  1.00  0.00     0.093 A 
ATOM      7  C   UNL     1      -5.849 -10.150  14.105  1.00  0.00     0.136 A 
ATOM      8  C   UNL     1      -4.587  -9.558  13.837  1.00  0.00     0.125 A 
ATOM      9  C   UNL     1      -4.426  -8.205  13.495  1.00  0.00     0.078 A 
ATOM     10  C   UNL     1      -3.150  -7.694  13.240  1.00  0.00     0.223 A 
ENDROOT
BRANCH   1  11
ATOM     11  C   UNL     1      -0.654  -8.080  13.118  1.00  0.00     0.091 A 
ATOM     12  C   UNL     1       0.002  -8.434  11.930  1.00  0.00     0.068 A 
ATOM     13  C   UNL     1       1.319  -8.019  11.692  1.00  0.00     0.162 A 
ATOM     14  C   UNL     1       0.039  -7.332  14.086  1.00  0.00     0.068 A 
ATOM     15  C   UNL     1       1.998  -7.256  12.651  1.00  0.00     0.200 A 
ATOM     16  C   UNL     1       1.358  -6.914  13.854  1.00  0.00     0.162 A 
BRANCH  13  17
ATOM     17  O   UNL     1       1.961  -8.361  10.503  1.00  0.00    -0.504 OA
ATOM     18  H   UNL     1       1.759  -7.880   9.634  1.00  0.00     0.293 HD
ENDBRANCH  13  17
BRANCH  15  19
ATOM     19  O   UNL     1       3.308  -6.849  12.395  1.00  0.00    -0.502 OA
ATOM     20  H   UNL     1       3.535  -5.896  12.139  1.00  0.00     0.293 HD
ENDBRANCH  15  19
BRANCH  16  21
ATOM     21  O   UNL     1       2.035  -6.169  14.817  1.00  0.00    -0.504 OA
ATOM     22  H   UNL     1       1.627  -5.336  15.228  1.00  0.00     0.293 HD
ENDBRANCH  16  21
ENDBRANCH   1  11
BRANCH  10  23
ATOM     23  O   UNL     1      -2.994  -6.364  12.852  1.00  0.00    -0.500 OA
ATOM     24  H   UNL     1      -2.139  -5.852  13.035  1.00  0.00     0.294 HD
ENDBRANCH  10  23
BRANCH   5  25
ATOM     25  O   UNL     1      -4.860 -13.644  14.809  1.00  0.00    -0.507 OA
ATOM     26  H   UNL     1      -4.071 -14.161  15.179  1.00  0.00     0.293 HD
ENDBRANCH   5  25
BRANCH   7  27
ATOM     27  O   UNL     1      -7.051  -9.437  14.068  1.00  0.00    -0.507 OA
ATOM     28  H   UNL     1      -7.196  -8.590  13.539  1.00  0.00     0.293 HD
ENDBRANCH   7  27
TORSDOF 7
ENDMDL
MODEL 9
REMARK VINA RESULT:    -6.788      4.902      9.948
REMARK INTER + INTRA:          -8.756
REMARK INTER:                  -8.383
REMARK INTRA:                  -0.372
REMARK UNBOUND:                -0.380
REMARK SMILES Oc1cc(O)c2cc(O)c(-c3cc(O)c(O)c(O)c3)[o+]c2c1
REMARK SMILES IDX 10 1 20 2 21 3 22 4 2 5 3 6 4 7 6 8 7 9 8 10 11 11 12 12
REMARK SMILES IDX 13 13 19 14 15 15 17 16 14 17 16 19 18 21 9 23 1 25 5 27
REMARK H PARENT 14 18 16 20 18 22 9 24 1 26 5 28
REMARK Flexibility Score: inf
ROOT
ATOM      1  C   UNL     1       0.441  -8.466  12.995  1.00  0.00     0.402 A 
ATOM      2  O   UNL     1       1.018  -8.238  14.172  1.00  0.00    -0.202 OA
ATOM      3  C   UNL     1       2.267  -7.801  14.300  1.00  0.00     0.368 A 
ATOM      4  C   UNL     1       2.788  -7.594  15.580  1.00  0.00     0.162 A 
ATOM      5  C   UNL     1       4.099  -7.137  15.743  1.00  0.00     0.128 A 
ATOM      6  C   UNL     1       4.893  -6.887  14.622  1.00  0.00     0.093 A 
ATOM      7  C   UNL     1       4.395  -7.087  13.328  1.00  0.00     0.136 A 
ATOM      8  C   UNL     1       3.063  -7.548  13.157  1.00  0.00     0.125 A 
ATOM      9  C   UNL     1       2.477  -7.763  11.899  1.00  0.00     0.078 A 
ATOM     10  C   UNL     1       1.157  -8.213  11.810  1.00  0.00     0.223 A 
ENDROOT
BRANCH   1  11
ATOM     11  C   UNL     1      -0.954  -8.962  12.984  1.00  0.00     0.091 A 
ATOM     12  C   UNL     1      -1.195 -10.343  13.039  1.00  0.00     0.068 A 
ATOM     13  C   UNL     1      -2.506 -10.839  13.010  1.00  0.00     0.162 A 
ATOM     14  C   UNL     1      -2.043  -8.081  12.864  1.00  0.00     0.068 A 
ATOM     15  C   UNL     1      -3.588  -9.956  12.910  1.00  0.00     0.200 A 
ATOM     16  C   UNL     1      -3.356  -8.572  12.833  1.00  0.00     0.162 A 
BRANCH  13  17
ATOM     17  O   UNL     1      -2.740 -12.212  13.079  1.00  0.00    -0.504 OA
ATOM     18  H   UNL     1      -1.980 -12.881  13.062  1.00  0.00     0.293 HD
ENDBRANCH  13  17
BRANCH  15  19
ATOM     19  O   UNL     1      -4.886 -10.468  12.886  1.00  0.00    -0.502 OA
ATOM     20  H   UNL     1      -5.082 -11.425  12.619  1.00  0.00     0.293 HD
ENDBRANCH  15  19
BRANCH  16  21
ATOM     21  O   UNL     1      -4.429  -7.691  12.719  1.00  0.00    -0.504 OA
ATOM     22  H   UNL     1      -5.118  -7.593  13.457  1.00  0.00     0.293 HD
ENDBRANCH  16  21
ENDBRANCH   1  11
BRANCH  10  23
ATOM     23  O   UNL     1       0.557  -8.380  10.562  1.00  0.00    -0.500 OA
ATOM     24  H   UNL     1      -0.210  -9.026  10.421  1.00  0.00     0.294 HD
ENDBRANCH  10  23
BRANCH   5  25
ATOM     25  O   UNL     1       4.624  -6.929  17.017  1.00  0.00    -0.507 OA
ATOM     26  H   UNL     1       5.491  -6.424  17.157  1.00  0.00     0.293 HD
ENDBRANCH   5  25
BRANCH   7  27
ATOM     27  O   UNL     1       5.254  -6.817  12.259  1.00  0.00    -0.507 OA
ATOM     28  H   UNL     1       6.252  -6.690  12.347  1.00  0.00     0.293 HD
ENDBRANCH   7  27
TORSDOF 7
ENDMDL
