MODEL 1
REMARK VINA RESULT:    81.399      0.000      0.000
REMARK INTER + INTRA:          88.968
REMARK INTER:                  88.537
REMARK INTRA:                   0.430
REMARK UNBOUND:                 0.430
REMARK SMILES C[C@@H]1[C@@H](C)CC[C@]2(C(=O)[O-])CC[C@]3(C)C(=CC[C@@H]4[C@]5(C)CC[C@H](O)C(C)(C)[C@@H]5CC[C@@]43C)[C@@H]12
REMARK SMILES IDX 7 1 6 2 11 3 33 4 5 5 12 6 15 7 2 8 3 9 13 10 16 11 1 12
REMARK SMILES IDX 4 13 14 14 31 15 17 16 18 17 30 18 32 19 19 20 29 21 28 22
REMARK SMILES IDX 21 23 20 24 25 25 22 26 23 27 26 28 27 29 8 30 9 31 10 32
REMARK SMILES IDX 24 33
REMARK H PARENT 24 34
REMARK Flexibility Score: inf
ROOT
ATOM      1  C   UNL     1       0.659  60.226   1.030  1.00  0.00     0.017 C 
ATOM      2  C   UNL     1       1.365  59.950   2.380  1.00  0.00     0.014 C 
ATOM      3  C   UNL     1       0.617  58.893   0.206  1.00  0.00     0.014 C 
ATOM      4  C   UNL     1       1.507  61.266   0.217  1.00  0.00     0.030 C 
ATOM      5  C   UNL     1       1.651  61.236   3.166  1.00  0.00     0.004 C 
ATOM      6  C   UNL     1       0.138  59.065  -1.267  1.00  0.00     0.013 C 
ATOM      7  C   UNL     1       0.856  61.426  -1.160  1.00  0.00    -0.063 C 
ATOM      8  C   UNL     1       1.865  62.575   0.996  1.00  0.00    -0.003 C 
ATOM      9  C   UNL     1       2.528  62.217   2.362  1.00  0.00    -0.011 C 
ATOM     10  C   UNL     1       0.881  60.191  -2.073  1.00  0.00    -0.006 C 
ATOM     11  C   UNL     1      -0.142  62.320  -1.287  1.00  0.00    -0.027 C 
ATOM     12  C   UNL     1       2.803  63.454   0.142  1.00  0.00     0.008 C 
ATOM     13  C   UNL     1       2.803  63.465   3.220  1.00  0.00     0.008 C 
ATOM     14  C   UNL     1       2.362  59.712  -2.269  1.00  0.00     0.017 C 
ATOM     15  C   UNL     1       0.221  60.515  -3.534  1.00  0.00    -0.020 C 
ATOM     16  C   UNL     1      -1.366  61.988  -2.074  1.00  0.00     0.032 C 
ATOM     17  C   UNL     1      -1.001  61.543  -3.503  1.00  0.00     0.006 C 
ATOM     18  C   UNL     1      -0.236  59.192  -4.195  1.00  0.00     0.008 C 
ATOM     19  C   UNL     1       1.308  61.157  -4.466  1.00  0.00     0.012 C 
ATOM     20  C   UNL     1      -2.273  61.198  -4.418  1.00  0.00    -0.025 C 
ATOM     21  C   UNL     1      -0.835  59.348  -5.589  1.00  0.00     0.005 C 
ATOM     22  C   UNL     1      -1.820  60.550  -5.796  1.00  0.00     0.003 C 
ATOM     23  C   UNL     1      -3.296  60.254  -3.694  1.00  0.00     0.010 C 
ATOM     24  C   UNL     1      -2.989  62.561  -4.702  1.00  0.00     0.012 C 
ATOM     25  C   UNL     1      -3.028  60.194  -6.800  1.00  0.00    -0.006 C 
ATOM     26  C   UNL     1      -4.018  59.245  -4.614  1.00  0.00     0.033 C 
ATOM     27  C   UNL     1      -4.337  59.815  -6.004  1.00  0.00     0.120 C 
ATOM     28  C   UNL     1      -2.656  59.043  -7.792  1.00  0.00     0.014 C 
ATOM     29  C   UNL     1      -3.325  61.406  -7.731  1.00  0.00     0.014 C 
ENDROOT
BRANCH   1  30
ATOM     30  C   UNL     1      -0.778  60.684   1.314  1.00  0.00     0.048 C 
ATOM     31  O   UNL     1      -0.994  61.758   1.937  1.00  0.00    -0.550 OA
ATOM     32  O   UNL     1      -1.871  59.992   0.811  1.00  0.00    -0.550 OA
ENDBRANCH   1  30
BRANCH  27  33
ATOM     33  O   UNL     1      -5.121  58.877  -6.699  1.00  0.00    -0.393 OA
ATOM     34  H   UNL     1      -5.439  58.213  -6.033  1.00  0.00     0.210 HD
ENDBRANCH  27  33
TORSDOF 2
ENDMDL
