MODEL 1
REMARK VINA RESULT:    -4.030      0.000      0.000
REMARK INTER + INTRA:         -15.509
REMARK INTER:                 -10.154
REMARK INTRA:                  -5.354
REMARK UNBOUND:                -5.354
REMARK SMILES CCCCCCCCCCCCCCCCCCCCCCCCCCCC(=O)[O-]
REMARK SMILES IDX 15 1 16 2 17 3 18 4 19 5 20 6 21 7 22 8 23 9 24 10 25 11
REMARK SMILES IDX 26 12 27 13 28 14 29 15 30 16 14 17 13 18 12 19 11 20 10 21
REMARK SMILES IDX 9 22 8 23 7 24 6 25 5 26 4 27 3 28 2 29 1 30
REMARK H PARENT
REMARK Flexibility Score: inf
ROOT
ATOM      1  C   UNL     1      14.952   1.016  58.035  1.00  0.00     0.000 C 
ENDROOT
BRANCH   1   2
ATOM      2  C   UNL     1      16.015   0.522  57.039  1.00  0.00     0.000 C 
BRANCH   2   3
ATOM      3  C   UNL     1      17.448   0.757  57.548  1.00  0.00     0.000 C 
BRANCH   3   4
ATOM      4  C   UNL     1      18.404   1.203  56.428  1.00  0.00     0.000 C 
BRANCH   4   5
ATOM      5  C   UNL     1      17.676   1.917  55.276  1.00  0.00     0.000 C 
BRANCH   5   6
ATOM      6  C   UNL     1      18.228   3.327  55.008  1.00  0.00     0.000 C 
BRANCH   6   7
ATOM      7  C   UNL     1      17.614   4.393  55.935  1.00  0.00     0.000 C 
BRANCH   7   8
ATOM      8  C   UNL     1      16.101   4.243  56.191  1.00  0.00     0.000 C 
BRANCH   8   9
ATOM      9  C   UNL     1      15.663   4.415  57.659  1.00  0.00     0.000 C 
BRANCH   9  10
ATOM     10  C   UNL     1      16.817   4.586  58.664  1.00  0.00     0.000 C 
BRANCH  10  11
ATOM     11  C   UNL     1      16.673   3.682  59.897  1.00  0.00     0.000 C 
BRANCH  11  12
ATOM     12  C   UNL     1      17.991   2.955  60.203  1.00  0.00     0.006 C 
BRANCH  12  13
ATOM     13  C   UNL     1      17.893   2.076  61.457  1.00  0.00     0.053 C 
BRANCH  13  14
ATOM     14  C   UNL     1      17.445   2.861  62.651  1.00  0.00     0.041 C 
ATOM     15  O   UNL     1      18.115   3.852  63.047  1.00  0.00    -0.550 OA
ATOM     16  O   UNL     1      16.266   2.523  63.303  1.00  0.00    -0.550 OA
ENDBRANCH  13  14
ENDBRANCH  12  13
ENDBRANCH  11  12
ENDBRANCH  10  11
ENDBRANCH   9  10
ENDBRANCH   8   9
ENDBRANCH   7   8
ENDBRANCH   6   7
ENDBRANCH   5   6
ENDBRANCH   4   5
ENDBRANCH   3   4
ENDBRANCH   2   3
ENDBRANCH   1   2
BRANCH   1  17
ATOM     17  C   UNL     1      14.781   0.076  59.240  1.00  0.00     0.000 C 
BRANCH  17  18
ATOM     18  C   UNL     1      14.491   0.835  60.547  1.00  0.00     0.000 C 
BRANCH  18  19
ATOM     19  C   UNL     1      14.475  -0.086  61.781  1.00  0.00     0.000 C 
BRANCH  19  20
ATOM     20  C   UNL     1      13.235  -0.995  61.905  1.00  0.00     0.000 C 
BRANCH  20  21
ATOM     21  C   UNL     1      13.527  -2.508  61.880  1.00  0.00     0.000 C 
BRANCH  21  22
ATOM     22  C   UNL     1      14.965  -2.902  62.272  1.00  0.00    -0.000 C 
BRANCH  22  23
ATOM     23  C   UNL     1      15.542  -4.109  61.509  1.00  0.00    -0.000 C 
BRANCH  23  24
ATOM     24  C   UNL     1      16.857  -3.779  60.783  1.00  0.00    -0.000 C 
BRANCH  24  25
ATOM     25  C   UNL     1      16.739  -2.535  59.887  1.00  0.00    -0.000 C 
BRANCH  25  26
ATOM     26  C   UNL     1      17.756  -1.442  60.259  1.00  0.00    -0.000 C 
BRANCH  26  27
ATOM     27  C   UNL     1      18.613  -1.812  61.484  1.00  0.00    -0.000 C 
BRANCH  27  28
ATOM     28  C   UNL     1      20.079  -1.345  61.421  1.00  0.00    -0.000 C 
BRANCH  28  29
ATOM     29  C   UNL     1      20.492  -0.851  60.027  1.00  0.00    -0.003 C 
ATOM     30  C   UNL     1      20.923   0.613  60.067  1.00  0.00     0.004 C 
ENDBRANCH  28  29
ENDBRANCH  27  28
ENDBRANCH  26  27
ENDBRANCH  25  26
ENDBRANCH  24  25
ENDBRANCH  23  24
ENDBRANCH  22  23
ENDBRANCH  21  22
ENDBRANCH  20  21
ENDBRANCH  19  20
ENDBRANCH  18  19
ENDBRANCH  17  18
ENDBRANCH   1  17
TORSDOF 26
ENDMDL
MODEL 2
REMARK VINA RESULT:    -3.984      1.403      4.539
REMARK INTER + INTRA:         -15.394
REMARK INTER:                 -10.131
REMARK INTRA:                  -5.264
REMARK UNBOUND:                -5.354
REMARK SMILES CCCCCCCCCCCCCCCCCCCCCCCCCCCC(=O)[O-]
REMARK SMILES IDX 15 1 16 2 17 3 18 4 19 5 20 6 21 7 22 8 23 9 24 10 25 11
REMARK SMILES IDX 26 12 27 13 28 14 29 15 30 16 14 17 13 18 12 19 11 20 10 21
REMARK SMILES IDX 9 22 8 23 7 24 6 25 5 26 4 27 3 28 2 29 1 30
REMARK H PARENT
REMARK Flexibility Score: inf
ROOT
ATOM      1  C   UNL     1      18.170   3.029  59.354  1.00  0.00     0.000 C 
ENDROOT
BRANCH   1   2
ATOM      2  C   UNL     1      18.576   3.364  57.908  1.00  0.00     0.000 C 
BRANCH   2   3
ATOM      3  C   UNL     1      17.525   2.904  56.883  1.00  0.00     0.000 C 
BRANCH   3   4
ATOM      4  C   UNL     1      18.095   1.895  55.871  1.00  0.00     0.000 C 
BRANCH   4   5
ATOM      5  C   UNL     1      18.115   0.456  56.415  1.00  0.00     0.000 C 
BRANCH   5   6
ATOM      6  C   UNL     1      16.756  -0.251  56.275  1.00  0.00     0.000 C 
BRANCH   6   7
ATOM      7  C   UNL     1      16.026  -0.408  57.622  1.00  0.00     0.000 C 
BRANCH   7   8
ATOM      8  C   UNL     1      14.912   0.625  57.887  1.00  0.00     0.000 C 
BRANCH   8   9
ATOM      9  C   UNL     1      14.935   1.272  59.286  1.00  0.00     0.000 C 
BRANCH   9  10
ATOM     10  C   UNL     1      14.430   0.369  60.426  1.00  0.00     0.000 C 
BRANCH  10  11
ATOM     11  C   UNL     1      14.680   0.970  61.818  1.00  0.00     0.000 C 
BRANCH  11  12
ATOM     12  C   UNL     1      15.477   2.279  61.715  1.00  0.00     0.006 C 
BRANCH  12  13
ATOM     13  C   UNL     1      16.382   2.506  62.933  1.00  0.00     0.053 C 
BRANCH  13  14
ATOM     14  C   UNL     1      17.063   3.839  62.878  1.00  0.00     0.041 C 
ATOM     15  O   UNL     1      18.182   4.003  63.434  1.00  0.00    -0.550 OA
ATOM     16  O   UNL     1      16.482   4.888  62.179  1.00  0.00    -0.550 OA
ENDBRANCH  13  14
ENDBRANCH  12  13
ENDBRANCH  11  12
ENDBRANCH  10  11
ENDBRANCH   9  10
ENDBRANCH   8   9
ENDBRANCH   7   8
ENDBRANCH   6   7
ENDBRANCH   5   6
ENDBRANCH   4   5
ENDBRANCH   3   4
ENDBRANCH   2   3
ENDBRANCH   1   2
BRANCH   1  17
ATOM     17  C   UNL     1      19.097   1.991  60.008  1.00  0.00     0.000 C 
BRANCH  17  18
ATOM     18  C   UNL     1      18.443   0.604  60.127  1.00  0.00     0.000 C 
BRANCH  18  19
ATOM     19  C   UNL     1      19.400  -0.542  59.749  1.00  0.00     0.000 C 
BRANCH  19  20
ATOM     20  C   UNL     1      20.714  -0.593  60.555  1.00  0.00     0.000 C 
BRANCH  20  21
ATOM     21  C   UNL     1      21.146  -2.000  61.011  1.00  0.00     0.000 C 
BRANCH  21  22
ATOM     22  C   UNL     1      20.399  -2.546  62.245  1.00  0.00    -0.000 C 
BRANCH  22  23
ATOM     23  C   UNL     1      19.040  -3.204  61.945  1.00  0.00    -0.000 C 
BRANCH  23  24
ATOM     24  C   UNL     1      17.924  -2.716  62.884  1.00  0.00    -0.000 C 
BRANCH  24  25
ATOM     25  C   UNL     1      16.819  -1.951  62.138  1.00  0.00    -0.000 C 
BRANCH  25  26
ATOM     26  C   UNL     1      16.531  -2.539  60.746  1.00  0.00    -0.000 C 
BRANCH  26  27
ATOM     27  C   UNL     1      15.373  -3.554  60.751  1.00  0.00    -0.000 C 
BRANCH  27  28
ATOM     28  C   UNL     1      14.656  -3.722  62.103  1.00  0.00    -0.000 C 
BRANCH  28  29
ATOM     29  C   UNL     1      13.130  -3.589  61.995  1.00  0.00    -0.003 C 
ATOM     30  C   UNL     1      12.680  -2.159  62.279  1.00  0.00     0.004 C 
ENDBRANCH  28  29
ENDBRANCH  27  28
ENDBRANCH  26  27
ENDBRANCH  25  26
ENDBRANCH  24  25
ENDBRANCH  23  24
ENDBRANCH  22  23
ENDBRANCH  21  22
ENDBRANCH  20  21
ENDBRANCH  19  20
ENDBRANCH  18  19
ENDBRANCH  17  18
ENDBRANCH   1  17
TORSDOF 26
ENDMDL
MODEL 3
REMARK VINA RESULT:    -3.977      1.544      3.653
REMARK INTER + INTRA:         -15.377
REMARK INTER:                  -9.989
REMARK INTRA:                  -5.388
REMARK UNBOUND:                -5.354
REMARK SMILES CCCCCCCCCCCCCCCCCCCCCCCCCCCC(=O)[O-]
REMARK SMILES IDX 15 1 16 2 17 3 18 4 19 5 20 6 21 7 22 8 23 9 24 10 25 11
REMARK SMILES IDX 26 12 27 13 28 14 29 15 30 16 14 17 13 18 12 19 11 20 10 21
REMARK SMILES IDX 9 22 8 23 7 24 6 25 5 26 4 27 3 28 2 29 1 30
REMARK H PARENT
REMARK Flexibility Score: inf
ROOT
ATOM      1  C   UNL     1      14.853   0.735  59.242  1.00  0.00     0.000 C 
ENDROOT
BRANCH   1   2
ATOM      2  C   UNL     1      15.366   0.555  57.802  1.00  0.00     0.000 C 
BRANCH   2   3
ATOM      3  C   UNL     1      16.370  -0.604  57.680  1.00  0.00     0.000 C 
BRANCH   3   4
ATOM      4  C   UNL     1      17.273  -0.470  56.442  1.00  0.00     0.000 C 
BRANCH   4   5
ATOM      5  C   UNL     1      18.752  -0.258  56.807  1.00  0.00     0.000 C 
BRANCH   5   6
ATOM      6  C   UNL     1      19.200   1.205  56.644  1.00  0.00     0.000 C 
BRANCH   6   7
ATOM      7  C   UNL     1      18.167   2.064  55.892  1.00  0.00     0.000 C 
BRANCH   7   8
ATOM      8  C   UNL     1      17.618   3.269  56.683  1.00  0.00     0.000 C 
BRANCH   8   9
ATOM      9  C   UNL     1      16.382   3.951  56.065  1.00  0.00     0.000 C 
BRANCH   9  10
ATOM     10  C   UNL     1      15.490   4.709  57.066  1.00  0.00     0.000 C 
BRANCH  10  11
ATOM     11  C   UNL     1      15.667   4.220  58.511  1.00  0.00     0.000 C 
BRANCH  11  12
ATOM     12  C   UNL     1      15.892   5.400  59.468  1.00  0.00     0.006 C 
BRANCH  12  13
ATOM     13  C   UNL     1      15.314   5.135  60.864  1.00  0.00     0.053 C 
BRANCH  13  14
ATOM     14  C   UNL     1      16.185   5.705  61.942  1.00  0.00     0.041 C 
ATOM     15  O   UNL     1      15.754   5.796  63.123  1.00  0.00    -0.550 OA
ATOM     16  O   UNL     1      17.484   6.098  61.651  1.00  0.00    -0.550 OA
ENDBRANCH  13  14
ENDBRANCH  12  13
ENDBRANCH  11  12
ENDBRANCH  10  11
ENDBRANCH   9  10
ENDBRANCH   8   9
ENDBRANCH   7   8
ENDBRANCH   6   7
ENDBRANCH   5   6
ENDBRANCH   4   5
ENDBRANCH   3   4
ENDBRANCH   2   3
ENDBRANCH   1   2
BRANCH   1  17
ATOM     17  C   UNL     1      14.947  -0.555  60.074  1.00  0.00     0.000 C 
BRANCH  17  18
ATOM     18  C   UNL     1      15.484  -0.307  61.494  1.00  0.00     0.000 C 
BRANCH  18  19
ATOM     19  C   UNL     1      15.599   1.190  61.836  1.00  0.00     0.000 C 
BRANCH  19  20
ATOM     20  C   UNL     1      17.005   1.661  62.261  1.00  0.00     0.000 C 
BRANCH  20  21
ATOM     21  C   UNL     1      17.778   2.460  61.194  1.00  0.00     0.000 C 
BRANCH  21  22
ATOM     22  C   UNL     1      18.374   1.616  60.050  1.00  0.00    -0.000 C 
BRANCH  22  23
ATOM     23  C   UNL     1      19.437   0.589  60.483  1.00  0.00    -0.000 C 
BRANCH  23  24
ATOM     24  C   UNL     1      18.893  -0.849  60.526  1.00  0.00    -0.000 C 
BRANCH  24  25
ATOM     25  C   UNL     1      19.627  -1.727  61.552  1.00  0.00    -0.000 C 
BRANCH  25  26
ATOM     26  C   UNL     1      18.806  -2.960  61.968  1.00  0.00    -0.000 C 
BRANCH  26  27
ATOM     27  C   UNL     1      17.823  -2.667  63.115  1.00  0.00    -0.000 C 
BRANCH  27  28
ATOM     28  C   UNL     1      16.466  -3.389  63.014  1.00  0.00    -0.000 C 
BRANCH  28  29
ATOM     29  C   UNL     1      16.400  -4.379  61.842  1.00  0.00    -0.003 C 
ATOM     30  C   UNL     1      15.178  -4.114  60.966  1.00  0.00     0.004 C 
ENDBRANCH  28  29
ENDBRANCH  27  28
ENDBRANCH  26  27
ENDBRANCH  25  26
ENDBRANCH  24  25
ENDBRANCH  23  24
ENDBRANCH  22  23
ENDBRANCH  21  22
ENDBRANCH  20  21
ENDBRANCH  19  20
ENDBRANCH  18  19
ENDBRANCH  17  18
ENDBRANCH   1  17
TORSDOF 26
ENDMDL
MODEL 4
REMARK VINA RESULT:    -3.940      1.537      6.219
REMARK INTER + INTRA:         -15.283
REMARK INTER:                  -9.776
REMARK INTRA:                  -5.507
REMARK UNBOUND:                -5.354
REMARK SMILES CCCCCCCCCCCCCCCCCCCCCCCCCCCC(=O)[O-]
REMARK SMILES IDX 15 1 16 2 17 3 18 4 19 5 20 6 21 7 22 8 23 9 24 10 25 11
REMARK SMILES IDX 26 12 27 13 28 14 29 15 30 16 14 17 13 18 12 19 11 20 10 21
REMARK SMILES IDX 9 22 8 23 7 24 6 25 5 26 4 27 3 28 2 29 1 30
REMARK H PARENT
REMARK Flexibility Score: inf
ROOT
ATOM      1  C   UNL     1      15.077   0.688  59.166  1.00  0.00     0.000 C 
ENDROOT
BRANCH   1   2
ATOM      2  C   UNL     1      14.549  -0.288  60.232  1.00  0.00     0.000 C 
BRANCH   2   3
ATOM      3  C   UNL     1      15.239  -1.661  60.161  1.00  0.00     0.000 C 
BRANCH   3   4
ATOM      4  C   UNL     1      14.803  -2.597  61.302  1.00  0.00     0.000 C 
BRANCH   4   5
ATOM      5  C   UNL     1      15.996  -3.190  62.071  1.00  0.00     0.000 C 
BRANCH   5   6
ATOM      6  C   UNL     1      17.329  -3.017  61.324  1.00  0.00     0.000 C 
BRANCH   6   7
ATOM      7  C   UNL     1      18.394  -2.290  62.166  1.00  0.00     0.000 C 
BRANCH   7   8
ATOM      8  C   UNL     1      19.073  -1.093  61.470  1.00  0.00     0.000 C 
BRANCH   8   9
ATOM      9  C   UNL     1      18.176   0.144  61.270  1.00  0.00     0.000 C 
BRANCH   9  10
ATOM     10  C   UNL     1      17.270   0.489  62.466  1.00  0.00     0.000 C 
BRANCH  10  11
ATOM     11  C   UNL     1      16.700   1.914  62.390  1.00  0.00     0.000 C 
BRANCH  11  12
ATOM     12  C   UNL     1      17.813   2.938  62.128  1.00  0.00     0.006 C 
BRANCH  12  13
ATOM     13  C   UNL     1      17.851   4.042  63.194  1.00  0.00     0.053 C 
BRANCH  13  14
ATOM     14  C   UNL     1      17.196   5.300  62.712  1.00  0.00     0.041 C 
ATOM     15  O   UNL     1      17.638   5.895  61.693  1.00  0.00    -0.550 OA
ATOM     16  O   UNL     1      16.076   5.795  63.367  1.00  0.00    -0.550 OA
ENDBRANCH  13  14
ENDBRANCH  12  13
ENDBRANCH  11  12
ENDBRANCH  10  11
ENDBRANCH   9  10
ENDBRANCH   8   9
ENDBRANCH   7   8
ENDBRANCH   6   7
ENDBRANCH   5   6
ENDBRANCH   4   5
ENDBRANCH   3   4
ENDBRANCH   2   3
ENDBRANCH   1   2
BRANCH   1  17
ATOM     17  C   UNL     1      14.890   0.165  57.733  1.00  0.00     0.000 C 
BRANCH  17  18
ATOM     18  C   UNL     1      16.157   0.322  56.874  1.00  0.00     0.000 C 
BRANCH  18  19
ATOM     19  C   UNL     1      17.116  -0.876  56.998  1.00  0.00     0.000 C 
BRANCH  19  20
ATOM     20  C   UNL     1      18.376  -0.623  57.851  1.00  0.00     0.000 C 
BRANCH  20  21
ATOM     21  C   UNL     1      19.567  -0.007  57.092  1.00  0.00     0.000 C 
BRANCH  21  22
ATOM     22  C   UNL     1      19.796   1.496  57.344  1.00  0.00    -0.000 C 
BRANCH  22  23
ATOM     23  C   UNL     1      19.004   2.087  58.525  1.00  0.00    -0.000 C 
BRANCH  23  24
ATOM     24  C   UNL     1      19.324   3.571  58.772  1.00  0.00    -0.000 C 
BRANCH  24  25
ATOM     25  C   UNL     1      18.142   4.494  58.434  1.00  0.00    -0.000 C 
BRANCH  25  26
ATOM     26  C   UNL     1      16.808   3.732  58.338  1.00  0.00    -0.000 C 
BRANCH  26  27
ATOM     27  C   UNL     1      16.116   3.903  56.973  1.00  0.00    -0.000 C 
BRANCH  27  28
ATOM     28  C   UNL     1      17.031   4.384  55.832  1.00  0.00    -0.000 C 
BRANCH  28  29
ATOM     29  C   UNL     1      17.597   3.231  54.990  1.00  0.00    -0.003 C 
ATOM     30  C   UNL     1      18.992   3.565  54.466  1.00  0.00     0.004 C 
ENDBRANCH  28  29
ENDBRANCH  27  28
ENDBRANCH  26  27
ENDBRANCH  25  26
ENDBRANCH  24  25
ENDBRANCH  23  24
ENDBRANCH  22  23
ENDBRANCH  21  22
ENDBRANCH  20  21
ENDBRANCH  19  20
ENDBRANCH  18  19
ENDBRANCH  17  18
ENDBRANCH   1  17
TORSDOF 26
ENDMDL
MODEL 5
REMARK VINA RESULT:    -3.924      2.541      4.063
REMARK INTER + INTRA:         -15.243
REMARK INTER:                  -9.701
REMARK INTRA:                  -5.543
REMARK UNBOUND:                -5.354
REMARK SMILES CCCCCCCCCCCCCCCCCCCCCCCCCCCC(=O)[O-]
REMARK SMILES IDX 15 1 16 2 17 3 18 4 19 5 20 6 21 7 22 8 23 9 24 10 25 11
REMARK SMILES IDX 26 12 27 13 28 14 29 15 30 16 14 17 13 18 12 19 11 20 10 21
REMARK SMILES IDX 9 22 8 23 7 24 6 25 5 26 4 27 3 28 2 29 1 30
REMARK H PARENT
REMARK Flexibility Score: inf
ROOT
ATOM      1  C   UNL     1      18.157   2.124  61.410  1.00  0.00     0.000 C 
ENDROOT
BRANCH   1   2
ATOM      2  C   UNL     1      19.064   1.695  60.244  1.00  0.00     0.000 C 
BRANCH   2   3
ATOM      3  C   UNL     1      18.368   0.706  59.293  1.00  0.00     0.000 C 
BRANCH   3   4
ATOM      4  C   UNL     1      19.276   0.270  58.131  1.00  0.00     0.000 C 
BRANCH   4   5
ATOM      5  C   UNL     1      18.501   0.059  56.819  1.00  0.00     0.000 C 
BRANCH   5   6
ATOM      6  C   UNL     1      17.229  -0.785  57.011  1.00  0.00     0.000 C 
BRANCH   6   7
ATOM      7  C   UNL     1      15.946  -0.023  56.629  1.00  0.00     0.000 C 
BRANCH   7   8
ATOM      8  C   UNL     1      15.239   0.693  57.798  1.00  0.00     0.000 C 
BRANCH   8   9
ATOM      9  C   UNL     1      15.051   2.213  57.618  1.00  0.00     0.000 C 
BRANCH   9  10
ATOM     10  C   UNL     1      15.796   3.085  58.646  1.00  0.00     0.000 C 
BRANCH  10  11
ATOM     11  C   UNL     1      16.941   3.895  58.022  1.00  0.00     0.000 C 
BRANCH  11  12
ATOM     12  C   UNL     1      17.106   3.557  56.533  1.00  0.00     0.006 C 
BRANCH  12  13
ATOM     13  C   UNL     1      18.561   3.690  56.063  1.00  0.00     0.053 C 
BRANCH  13  14
ATOM     14  C   UNL     1      18.810   5.009  55.398  1.00  0.00     0.041 C 
ATOM     15  O   UNL     1      18.192   6.038  55.778  1.00  0.00    -0.550 OA
ATOM     16  O   UNL     1      19.755   5.108  54.385  1.00  0.00    -0.550 OA
ENDBRANCH  13  14
ENDBRANCH  12  13
ENDBRANCH  11  12
ENDBRANCH  10  11
ENDBRANCH   9  10
ENDBRANCH   8   9
ENDBRANCH   7   8
ENDBRANCH   6   7
ENDBRANCH   5   6
ENDBRANCH   4   5
ENDBRANCH   3   4
ENDBRANCH   2   3
ENDBRANCH   1   2
BRANCH   1  17
ATOM     17  C   UNL     1      17.148   1.035  61.813  1.00  0.00     0.000 C 
BRANCH  17  18
ATOM     18  C   UNL     1      15.739   1.597  62.069  1.00  0.00     0.000 C 
BRANCH  18  19
ATOM     19  C   UNL     1      14.636   0.788  61.363  1.00  0.00     0.000 C 
BRANCH  19  20
ATOM     20  C   UNL     1      14.332  -0.591  61.986  1.00  0.00     0.000 C 
BRANCH  20  21
ATOM     21  C   UNL     1      14.427  -1.783  61.014  1.00  0.00     0.000 C 
BRANCH  21  22
ATOM     22  C   UNL     1      15.658  -1.773  60.087  1.00  0.00    -0.000 C 
BRANCH  22  23
ATOM     23  C   UNL     1      16.305  -3.149  59.846  1.00  0.00    -0.000 C 
BRANCH  23  24
ATOM     24  C   UNL     1      15.768  -4.233  60.797  1.00  0.00    -0.000 C 
BRANCH  24  25
ATOM     25  C   UNL     1      16.872  -5.181  61.293  1.00  0.00    -0.000 C 
BRANCH  25  26
ATOM     26  C   UNL     1      17.404  -4.790  62.683  1.00  0.00    -0.000 C 
BRANCH  26  27
ATOM     27  C   UNL     1      16.797  -3.477  63.211  1.00  0.00    -0.000 C 
BRANCH  27  28
ATOM     28  C   UNL     1      17.785  -2.302  63.332  1.00  0.00    -0.000 C 
BRANCH  28  29
ATOM     29  C   UNL     1      19.154  -2.602  62.703  1.00  0.00    -0.003 C 
ATOM     30  C   UNL     1      19.320  -1.869  61.374  1.00  0.00     0.004 C 
ENDBRANCH  28  29
ENDBRANCH  27  28
ENDBRANCH  26  27
ENDBRANCH  25  26
ENDBRANCH  24  25
ENDBRANCH  23  24
ENDBRANCH  22  23
ENDBRANCH  21  22
ENDBRANCH  20  21
ENDBRANCH  19  20
ENDBRANCH  18  19
ENDBRANCH  17  18
ENDBRANCH   1  17
TORSDOF 26
ENDMDL
MODEL 6
REMARK VINA RESULT:    -3.870      2.364      4.802
REMARK INTER + INTRA:         -15.106
REMARK INTER:                 -10.611
REMARK INTRA:                  -4.495
REMARK UNBOUND:                -5.354
REMARK SMILES CCCCCCCCCCCCCCCCCCCCCCCCCCCC(=O)[O-]
REMARK SMILES IDX 15 1 16 2 17 3 18 4 19 5 20 6 21 7 22 8 23 9 24 10 25 11
REMARK SMILES IDX 26 12 27 13 28 14 29 15 30 16 14 17 13 18 12 19 11 20 10 21
REMARK SMILES IDX 9 22 8 23 7 24 6 25 5 26 4 27 3 28 2 29 1 30
REMARK H PARENT
REMARK Flexibility Score: inf
ROOT
ATOM      1  C   UNL     1      17.598   0.429  55.249  1.00  0.00     0.000 C 
ENDROOT
BRANCH   1   2
ATOM      2  C   UNL     1      17.827   1.659  56.145  1.00  0.00     0.000 C 
BRANCH   2   3
ATOM      3  C   UNL     1      17.443   2.973  55.444  1.00  0.00     0.000 C 
BRANCH   3   4
ATOM      4  C   UNL     1      17.034   4.072  56.440  1.00  0.00     0.000 C 
BRANCH   4   5
ATOM      5  C   UNL     1      15.647   3.827  57.058  1.00  0.00     0.000 C 
BRANCH   5   6
ATOM      6  C   UNL     1      15.711   3.548  58.569  1.00  0.00     0.000 C 
BRANCH   6   7
ATOM      7  C   UNL     1      16.124   4.787  59.386  1.00  0.00     0.000 C 
BRANCH   7   8
ATOM      8  C   UNL     1      15.913   4.666  60.909  1.00  0.00     0.000 C 
BRANCH   8   9
ATOM      9  C   UNL     1      16.978   5.365  61.776  1.00  0.00     0.000 C 
BRANCH   9  10
ATOM     10  C   UNL     1      17.812   4.422  62.665  1.00  0.00     0.000 C 
BRANCH  10  11
ATOM     11  C   UNL     1      17.470   4.552  64.156  1.00  0.00     0.000 C 
BRANCH  11  12
ATOM     12  C   UNL     1      18.173   5.767  64.778  1.00  0.00     0.006 C 
BRANCH  12  13
ATOM     13  C   UNL     1      17.209   6.646  65.587  1.00  0.00     0.053 C 
BRANCH  13  14
ATOM     14  C   UNL     1      16.744   7.832  64.799  1.00  0.00     0.041 C 
ATOM     15  O   UNL     1      17.373   8.921  64.862  1.00  0.00    -0.550 OA
ATOM     16  O   UNL     1      15.640   7.722  63.964  1.00  0.00    -0.550 OA
ENDBRANCH  13  14
ENDBRANCH  12  13
ENDBRANCH  11  12
ENDBRANCH  10  11
ENDBRANCH   9  10
ENDBRANCH   8   9
ENDBRANCH   7   8
ENDBRANCH   6   7
ENDBRANCH   5   6
ENDBRANCH   4   5
ENDBRANCH   3   4
ENDBRANCH   2   3
ENDBRANCH   1   2
BRANCH   1  17
ATOM     17  C   UNL     1      16.559  -0.545  55.828  1.00  0.00     0.000 C 
BRANCH  17  18
ATOM     18  C   UNL     1      15.629   0.122  56.857  1.00  0.00     0.000 C 
BRANCH  18  19
ATOM     19  C   UNL     1      15.782  -0.467  58.271  1.00  0.00     0.000 C 
BRANCH  19  20
ATOM     20  C   UNL     1      17.016  -1.370  58.476  1.00  0.00     0.000 C 
BRANCH  20  21
ATOM     21  C   UNL     1      18.080  -0.814  59.442  1.00  0.00     0.000 C 
BRANCH  21  22
ATOM     22  C   UNL     1      17.977   0.697  59.728  1.00  0.00    -0.000 C 
BRANCH  22  23
ATOM     23  C   UNL     1      18.262   1.106  61.185  1.00  0.00    -0.000 C 
BRANCH  23  24
ATOM     24  C   UNL     1      17.031   0.960  62.095  1.00  0.00    -0.000 C 
BRANCH  24  25
ATOM     25  C   UNL     1      15.716   1.271  61.362  1.00  0.00    -0.000 C 
BRANCH  25  26
ATOM     26  C   UNL     1      14.479   0.794  62.142  1.00  0.00    -0.000 C 
BRANCH  26  27
ATOM     27  C   UNL     1      13.760  -0.388  61.466  1.00  0.00    -0.000 C 
BRANCH  27  28
ATOM     28  C   UNL     1      14.064  -1.771  62.072  1.00  0.00    -0.000 C 
BRANCH  28  29
ATOM     29  C   UNL     1      15.301  -2.439  61.452  1.00  0.00    -0.003 C 
ATOM     30  C   UNL     1      14.942  -3.782  60.821  1.00  0.00     0.004 C 
ENDBRANCH  28  29
ENDBRANCH  27  28
ENDBRANCH  26  27
ENDBRANCH  25  26
ENDBRANCH  24  25
ENDBRANCH  23  24
ENDBRANCH  22  23
ENDBRANCH  21  22
ENDBRANCH  20  21
ENDBRANCH  19  20
ENDBRANCH  18  19
ENDBRANCH  17  18
ENDBRANCH   1  17
TORSDOF 26
ENDMDL
MODEL 7
REMARK VINA RESULT:    -3.862      1.496      3.399
REMARK INTER + INTRA:         -15.087
REMARK INTER:                  -9.781
REMARK INTRA:                  -5.306
REMARK UNBOUND:                -5.354
REMARK SMILES CCCCCCCCCCCCCCCCCCCCCCCCCCCC(=O)[O-]
REMARK SMILES IDX 15 1 16 2 17 3 18 4 19 5 20 6 21 7 22 8 23 9 24 10 25 11
REMARK SMILES IDX 26 12 27 13 28 14 29 15 30 16 14 17 13 18 12 19 11 20 10 21
REMARK SMILES IDX 9 22 8 23 7 24 6 25 5 26 4 27 3 28 2 29 1 30
REMARK H PARENT
REMARK Flexibility Score: inf
ROOT
ATOM      1  C   UNL     1      15.997   0.078  56.591  1.00  0.00     0.000 C 
ENDROOT
BRANCH   1   2
ATOM      2  C   UNL     1      17.138  -0.949  56.694  1.00  0.00     0.000 C 
BRANCH   2   3
ATOM      3  C   UNL     1      18.523  -0.280  56.747  1.00  0.00     0.000 C 
BRANCH   3   4
ATOM      4  C   UNL     1      18.447   1.245  56.558  1.00  0.00     0.000 C 
BRANCH   4   5
ATOM      5  C   UNL     1      19.158   2.018  57.681  1.00  0.00     0.000 C 
BRANCH   5   6
ATOM      6  C   UNL     1      19.492   3.467  57.285  1.00  0.00     0.000 C 
BRANCH   6   7
ATOM      7  C   UNL     1      18.742   3.926  56.020  1.00  0.00     0.000 C 
BRANCH   7   8
ATOM      8  C   UNL     1      17.543   4.861  56.275  1.00  0.00     0.000 C 
BRANCH   8   9
ATOM      9  C   UNL     1      16.156   4.219  56.075  1.00  0.00     0.000 C 
BRANCH   9  10
ATOM     10  C   UNL     1      15.389   3.911  57.375  1.00  0.00     0.000 C 
BRANCH  10  11
ATOM     11  C   UNL     1      16.091   4.460  58.625  1.00  0.00     0.000 C 
BRANCH  11  12
ATOM     12  C   UNL     1      16.252   3.366  59.690  1.00  0.00     0.006 C 
BRANCH  12  13
ATOM     13  C   UNL     1      17.443   3.631  60.621  1.00  0.00     0.053 C 
BRANCH  13  14
ATOM     14  C   UNL     1      17.120   3.293  62.045  1.00  0.00     0.041 C 
ATOM     15  O   UNL     1      16.113   2.586  62.316  1.00  0.00    -0.550 OA
ATOM     16  O   UNL     1      17.954   3.725  63.068  1.00  0.00    -0.550 OA
ENDBRANCH  13  14
ENDBRANCH  12  13
ENDBRANCH  11  12
ENDBRANCH  10  11
ENDBRANCH   9  10
ENDBRANCH   8   9
ENDBRANCH   7   8
ENDBRANCH   6   7
ENDBRANCH   5   6
ENDBRANCH   4   5
ENDBRANCH   3   4
ENDBRANCH   2   3
ENDBRANCH   1   2
BRANCH   1  17
ATOM     17  C   UNL     1      15.238   0.260  57.916  1.00  0.00     0.000 C 
BRANCH  17  18
ATOM     18  C   UNL     1      15.588  -0.821  58.953  1.00  0.00     0.000 C 
BRANCH  18  19
ATOM     19  C   UNL     1      16.139  -0.233  60.265  1.00  0.00     0.000 C 
BRANCH  19  20
ATOM     20  C   UNL     1      17.667  -0.026  60.302  1.00  0.00     0.000 C 
BRANCH  20  21
ATOM     21  C   UNL     1      18.386  -0.673  61.502  1.00  0.00     0.000 C 
BRANCH  21  22
ATOM     22  C   UNL     1      17.459  -1.167  62.630  1.00  0.00    -0.000 C 
BRANCH  22  23
ATOM     23  C   UNL     1      17.880  -2.494  63.287  1.00  0.00    -0.000 C 
BRANCH  23  24
ATOM     24  C   UNL     1      16.810  -3.590  63.152  1.00  0.00    -0.000 C 
BRANCH  24  25
ATOM     25  C   UNL     1      15.495  -3.060  62.556  1.00  0.00    -0.000 C 
BRANCH  25  26
ATOM     26  C   UNL     1      15.136  -3.739  61.223  1.00  0.00    -0.000 C 
BRANCH  26  27
ATOM     27  C   UNL     1      16.374  -4.174  60.417  1.00  0.00    -0.000 C 
BRANCH  27  28
ATOM     28  C   UNL     1      16.395  -5.655  59.997  1.00  0.00    -0.000 C 
BRANCH  28  29
ATOM     29  C   UNL     1      15.951  -6.604  61.121  1.00  0.00    -0.003 C 
ATOM     30  C   UNL     1      17.147  -7.089  61.935  1.00  0.00     0.004 C 
ENDBRANCH  28  29
ENDBRANCH  27  28
ENDBRANCH  26  27
ENDBRANCH  25  26
ENDBRANCH  24  25
ENDBRANCH  23  24
ENDBRANCH  22  23
ENDBRANCH  21  22
ENDBRANCH  20  21
ENDBRANCH  19  20
ENDBRANCH  18  19
ENDBRANCH  17  18
ENDBRANCH   1  17
TORSDOF 26
ENDMDL
MODEL 8
REMARK VINA RESULT:    -3.859      2.040      7.119
REMARK INTER + INTRA:         -15.078
REMARK INTER:                 -10.272
REMARK INTRA:                  -4.806
REMARK UNBOUND:                -5.354
REMARK SMILES CCCCCCCCCCCCCCCCCCCCCCCCCCCC(=O)[O-]
REMARK SMILES IDX 15 1 16 2 17 3 18 4 19 5 20 6 21 7 22 8 23 9 24 10 25 11
REMARK SMILES IDX 26 12 27 13 28 14 29 15 30 16 14 17 13 18 12 19 11 20 10 21
REMARK SMILES IDX 9 22 8 23 7 24 6 25 5 26 4 27 3 28 2 29 1 30
REMARK H PARENT
REMARK Flexibility Score: inf
ROOT
ATOM      1  C   UNL     1      15.575  -0.047  57.360  1.00  0.00     0.000 C 
ENDROOT
BRANCH   1   2
ATOM      2  C   UNL     1      15.542   1.348  58.008  1.00  0.00     0.000 C 
BRANCH   2   3
ATOM      3  C   UNL     1      14.807   1.348  59.360  1.00  0.00     0.000 C 
BRANCH   3   4
ATOM      4  C   UNL     1      14.832  -0.032  60.042  1.00  0.00     0.000 C 
BRANCH   4   5
ATOM      5  C   UNL     1      14.131  -0.030  61.411  1.00  0.00     0.000 C 
BRANCH   5   6
ATOM      6  C   UNL     1      13.823  -1.448  61.922  1.00  0.00     0.000 C 
BRANCH   6   7
ATOM      7  C   UNL     1      14.554  -2.541  61.120  1.00  0.00     0.000 C 
BRANCH   7   8
ATOM      8  C   UNL     1      15.412  -3.507  61.963  1.00  0.00     0.000 C 
BRANCH   8   9
ATOM      9  C   UNL     1      16.920  -3.191  61.990  1.00  0.00     0.000 C 
BRANCH   9  10
ATOM     10  C   UNL     1      17.292  -1.856  62.663  1.00  0.00     0.000 C 
BRANCH  10  11
ATOM     11  C   UNL     1      18.308  -1.042  61.849  1.00  0.00     0.000 C 
BRANCH  11  12
ATOM     12  C   UNL     1      18.178  -1.341  60.348  1.00  0.00     0.006 C 
BRANCH  12  13
ATOM     13  C   UNL     1      18.562  -0.136  59.479  1.00  0.00     0.053 C 
BRANCH  13  14
ATOM     14  C   UNL     1      19.996  -0.195  59.051  1.00  0.00     0.041 C 
ATOM     15  O   UNL     1      20.909   0.165  59.840  1.00  0.00    -0.550 OA
ATOM     16  O   UNL     1      20.326  -0.685  57.794  1.00  0.00    -0.550 OA
ENDBRANCH  13  14
ENDBRANCH  12  13
ENDBRANCH  11  12
ENDBRANCH  10  11
ENDBRANCH   9  10
ENDBRANCH   8   9
ENDBRANCH   7   8
ENDBRANCH   6   7
ENDBRANCH   5   6
ENDBRANCH   4   5
ENDBRANCH   3   4
ENDBRANCH   2   3
ENDBRANCH   1   2
BRANCH   1  17
ATOM     17  C   UNL     1      16.471  -0.103  56.112  1.00  0.00     0.000 C 
BRANCH  17  18
ATOM     18  C   UNL     1      17.633   0.904  56.170  1.00  0.00     0.000 C 
BRANCH  18  19
ATOM     19  C   UNL     1      17.638   1.879  54.979  1.00  0.00     0.000 C 
BRANCH  19  20
ATOM     20  C   UNL     1      18.481   3.156  55.180  1.00  0.00     0.000 C 
BRANCH  20  21
ATOM     21  C   UNL     1      17.756   4.312  55.896  1.00  0.00     0.000 C 
BRANCH  21  22
ATOM     22  C   UNL     1      16.216   4.239  55.862  1.00  0.00    -0.000 C 
BRANCH  22  23
ATOM     23  C   UNL     1      15.495   5.241  56.782  1.00  0.00    -0.000 C 
BRANCH  23  24
ATOM     24  C   UNL     1      15.574   4.848  58.267  1.00  0.00    -0.000 C 
BRANCH  24  25
ATOM     25  C   UNL     1      15.210   6.011  59.205  1.00  0.00    -0.000 C 
BRANCH  25  26
ATOM     26  C   UNL     1      15.136   5.579  60.679  1.00  0.00    -0.000 C 
BRANCH  26  27
ATOM     27  C   UNL     1      16.108   4.433  61.018  1.00  0.00    -0.000 C 
BRANCH  27  28
ATOM     28  C   UNL     1      15.704   3.570  62.227  1.00  0.00    -0.000 C 
BRANCH  28  29
ATOM     29  C   UNL     1      16.687   2.422  62.500  1.00  0.00    -0.003 C 
ATOM     30  C   UNL     1      18.020   2.658  61.795  1.00  0.00     0.004 C 
ENDBRANCH  28  29
ENDBRANCH  27  28
ENDBRANCH  26  27
ENDBRANCH  25  26
ENDBRANCH  24  25
ENDBRANCH  23  24
ENDBRANCH  22  23
ENDBRANCH  21  22
ENDBRANCH  20  21
ENDBRANCH  19  20
ENDBRANCH  18  19
ENDBRANCH  17  18
ENDBRANCH   1  17
TORSDOF 26
ENDMDL
MODEL 9
REMARK VINA RESULT:    -3.804      1.760      4.205
REMARK INTER + INTRA:         -14.939
REMARK INTER:                  -9.760
REMARK INTRA:                  -5.179
REMARK UNBOUND:                -5.354
REMARK SMILES CCCCCCCCCCCCCCCCCCCCCCCCCCCC(=O)[O-]
REMARK SMILES IDX 15 1 16 2 17 3 18 4 19 5 20 6 21 7 22 8 23 9 24 10 25 11
REMARK SMILES IDX 26 12 27 13 28 14 29 15 30 16 14 17 13 18 12 19 11 20 10 21
REMARK SMILES IDX 9 22 8 23 7 24 6 25 5 26 4 27 3 28 2 29 1 30
REMARK H PARENT
REMARK Flexibility Score: inf
ROOT
ATOM      1  C   UNL     1      15.179   0.122  58.017  1.00  0.00     0.000 C 
ENDROOT
BRANCH   1   2
ATOM      2  C   UNL     1      14.892   1.619  58.229  1.00  0.00     0.000 C 
BRANCH   2   3
ATOM      3  C   UNL     1      16.052   2.510  57.754  1.00  0.00     0.000 C 
BRANCH   3   4
ATOM      4  C   UNL     1      15.564   3.845  57.166  1.00  0.00     0.000 C 
BRANCH   4   5
ATOM      5  C   UNL     1      16.367   4.277  55.927  1.00  0.00     0.000 C 
BRANCH   5   6
ATOM      6  C   UNL     1      17.513   3.305  55.595  1.00  0.00     0.000 C 
BRANCH   6   7
ATOM      7  C   UNL     1      18.865   3.759  56.175  1.00  0.00     0.000 C 
BRANCH   7   8
ATOM      8  C   UNL     1      19.000   5.277  56.409  1.00  0.00     0.000 C 
BRANCH   8   9
ATOM      9  C   UNL     1      18.965   5.719  57.885  1.00  0.00     0.000 C 
BRANCH   9  10
ATOM     10  C   UNL     1      18.919   4.568  58.907  1.00  0.00     0.000 C 
BRANCH  10  11
ATOM     11  C   UNL     1      18.824   5.062  60.358  1.00  0.00     0.000 C 
BRANCH  11  12
ATOM     12  C   UNL     1      17.972   4.109  61.208  1.00  0.00     0.006 C 
BRANCH  12  13
ATOM     13  C   UNL     1      17.667   4.684  62.598  1.00  0.00     0.053 C 
BRANCH  13  14
ATOM     14  C   UNL     1      16.333   5.364  62.636  1.00  0.00     0.041 C 
ATOM     15  O   UNL     1      16.205   6.477  63.212  1.00  0.00    -0.550 OA
ATOM     16  O   UNL     1      15.240   4.788  62.001  1.00  0.00    -0.550 OA
ENDBRANCH  13  14
ENDBRANCH  12  13
ENDBRANCH  11  12
ENDBRANCH  10  11
ENDBRANCH   9  10
ENDBRANCH   8   9
ENDBRANCH   7   8
ENDBRANCH   6   7
ENDBRANCH   5   6
ENDBRANCH   4   5
ENDBRANCH   3   4
ENDBRANCH   2   3
ENDBRANCH   1   2
BRANCH   1  17
ATOM     17  C   UNL     1      15.899  -0.164  56.689  1.00  0.00     0.000 C 
BRANCH  17  18
ATOM     18  C   UNL     1      17.179  -0.998  56.876  1.00  0.00     0.000 C 
BRANCH  18  19
ATOM     19  C   UNL     1      18.462  -0.196  56.588  1.00  0.00     0.000 C 
BRANCH  19  20
ATOM     20  C   UNL     1      19.542  -0.268  57.687  1.00  0.00     0.000 C 
BRANCH  20  21
ATOM     21  C   UNL     1      19.692   1.006  58.541  1.00  0.00     0.000 C 
BRANCH  21  22
ATOM     22  C   UNL     1      19.335   0.840  60.031  1.00  0.00    -0.000 C 
BRANCH  22  23
ATOM     23  C   UNL     1      17.854   0.530  60.316  1.00  0.00    -0.000 C 
BRANCH  23  24
ATOM     24  C   UNL     1      17.556   0.379  61.817  1.00  0.00    -0.000 C 
BRANCH  24  25
ATOM     25  C   UNL     1      17.543  -1.090  62.271  1.00  0.00    -0.000 C 
BRANCH  25  26
ATOM     26  C   UNL     1      17.430  -2.070  61.091  1.00  0.00    -0.000 C 
BRANCH  26  27
ATOM     27  C   UNL     1      16.149  -2.924  61.139  1.00  0.00    -0.000 C 
BRANCH  27  28
ATOM     28  C   UNL     1      14.869  -2.209  60.671  1.00  0.00    -0.000 C 
BRANCH  28  29
ATOM     29  C   UNL     1      14.018  -1.679  61.835  1.00  0.00    -0.003 C 
ATOM     30  C   UNL     1      13.835  -0.167  61.741  1.00  0.00     0.004 C 
ENDBRANCH  28  29
ENDBRANCH  27  28
ENDBRANCH  26  27
ENDBRANCH  25  26
ENDBRANCH  24  25
ENDBRANCH  23  24
ENDBRANCH  22  23
ENDBRANCH  21  22
ENDBRANCH  20  21
ENDBRANCH  19  20
ENDBRANCH  18  19
ENDBRANCH  17  18
ENDBRANCH   1  17
TORSDOF 26
ENDMDL
