MODEL 1
REMARK VINA RESULT:    -6.241      0.000      0.000
REMARK INTER + INTRA:         -13.757
REMARK INTER:                 -11.714
REMARK INTRA:                  -2.043
REMARK UNBOUND:                -2.043
REMARK SMILES CCCCCCCCC=CCCCCCCCC(=O)[O-]
REMARK SMILES IDX 10 1 9 2 11 3 12 4 13 5 14 6 15 7 16 8 17 9 18 10 19 11
REMARK SMILES IDX 20 12 8 13 7 14 6 15 5 16 4 17 3 18 2 19 1 20
REMARK H PARENT
REMARK Flexibility Score: inf
ROOT
ATOM      1  C   UNL     1     104.088 102.938 107.184  1.00  0.00    -0.031 C 
ATOM      2  C   UNL     1     103.843 104.047 106.468  1.00  0.00    -0.031 C 
ENDROOT
BRANCH   1   3
ATOM      3  C   UNL     1     105.108 101.922 106.742  1.00  0.00     0.027 C 
BRANCH   3   4
ATOM      4  C   UNL     1     105.563 102.165 105.294  1.00  0.00     0.004 C 
BRANCH   4   5
ATOM      5  C   UNL     1     105.714 100.870 104.470  1.00  0.00     0.000 C 
BRANCH   5   6
ATOM      6  C   UNL     1     105.116  99.627 105.165  1.00  0.00     0.000 C 
BRANCH   6   7
ATOM      7  C   UNL     1     103.931  98.996 104.410  1.00  0.00     0.000 C 
BRANCH   7   8
ATOM      8  C   UNL     1     102.858 100.011 103.966  1.00  0.00     0.006 C 
BRANCH   8   9
ATOM      9  C   UNL     1     102.178  99.613 102.649  1.00  0.00     0.053 C 
BRANCH   9  10
ATOM     10  C   UNL     1     102.917 100.187 101.483  1.00  0.00     0.041 C 
ATOM     11  O   UNL     1     102.956  99.564 100.389  1.00  0.00    -0.550 OA
ATOM     12  O   UNL     1     103.609 101.382 101.620  1.00  0.00    -0.550 OA
ENDBRANCH   9  10
ENDBRANCH   8   9
ENDBRANCH   7   8
ENDBRANCH   6   7
ENDBRANCH   5   6
ENDBRANCH   4   5
ENDBRANCH   3   4
ENDBRANCH   1   3
BRANCH   2  13
ATOM     13  C   UNL     1     102.836 105.073 106.915  1.00  0.00     0.027 C 
BRANCH  13  14
ATOM     14  C   UNL     1     101.503 104.424 107.313  1.00  0.00     0.004 C 
BRANCH  14  15
ATOM     15  C   UNL     1     101.323 104.212 108.831  1.00  0.00     0.000 C 
BRANCH  15  16
ATOM     16  C   UNL     1     102.079 105.215 109.722  1.00  0.00     0.000 C 
BRANCH  16  17
ATOM     17  C   UNL     1     103.201 104.601 110.581  1.00  0.00    -0.000 C 
BRANCH  17  18
ATOM     18  C   UNL     1     104.609 105.128 110.231  1.00  0.00    -0.000 C 
BRANCH  18  19
ATOM     19  C   UNL     1     105.687 104.040 110.342  1.00  0.00    -0.003 C 
ATOM     20  C   UNL     1     106.827 104.292 109.360  1.00  0.00     0.004 C 
ENDBRANCH  18  19
ENDBRANCH  17  18
ENDBRANCH  16  17
ENDBRANCH  15  16
ENDBRANCH  14  15
ENDBRANCH  13  14
ENDBRANCH   2  13
TORSDOF 15
ENDMDL
MODEL 2
REMARK VINA RESULT:    -6.241      4.523      6.188
REMARK INTER + INTRA:         -13.756
REMARK INTER:                 -11.998
REMARK INTRA:                  -1.758
REMARK UNBOUND:                -2.043
REMARK SMILES CCCCCCCCC=CCCCCCCCC(=O)[O-]
REMARK SMILES IDX 10 1 9 2 11 3 12 4 13 5 14 6 15 7 16 8 17 9 18 10 19 11
REMARK SMILES IDX 20 12 8 13 7 14 6 15 5 16 4 17 3 18 2 19 1 20
REMARK H PARENT
REMARK Flexibility Score: inf
ROOT
ATOM      1  C   UNL     1     103.257 105.830 107.409  1.00  0.00    -0.031 C 
ATOM      2  C   UNL     1     102.245 104.948 107.390  1.00  0.00    -0.031 C 
ENDROOT
BRANCH   1   3
ATOM      3  C   UNL     1     103.973 106.237 106.148  1.00  0.00     0.027 C 
BRANCH   3   4
ATOM      4  C   UNL     1     102.997 106.439 104.979  1.00  0.00     0.004 C 
BRANCH   4   5
ATOM      5  C   UNL     1     103.286 107.705 104.146  1.00  0.00     0.000 C 
BRANCH   5   6
ATOM      6  C   UNL     1     103.796 108.892 104.992  1.00  0.00     0.000 C 
BRANCH   6   7
ATOM      7  C   UNL     1     105.171 109.430 104.554  1.00  0.00     0.000 C 
BRANCH   7   8
ATOM      8  C   UNL     1     105.867 108.571 103.480  1.00  0.00     0.006 C 
BRANCH   8   9
ATOM      9  C   UNL     1     106.342 109.398 102.278  1.00  0.00     0.053 C 
BRANCH   9  10
ATOM     10  C   UNL     1     105.864 108.789 100.999  1.00  0.00     0.041 C 
ATOM     11  O   UNL     1     106.133 109.336  99.897  1.00  0.00    -0.550 OA
ATOM     12  O   UNL     1     105.075 107.647 101.027  1.00  0.00    -0.550 OA
ENDBRANCH   9  10
ENDBRANCH   8   9
ENDBRANCH   7   8
ENDBRANCH   6   7
ENDBRANCH   5   6
ENDBRANCH   4   5
ENDBRANCH   3   4
ENDBRANCH   1   3
BRANCH   2  13
ATOM     13  C   UNL     1     101.515 104.551 108.645  1.00  0.00     0.027 C 
BRANCH  13  14
ATOM     14  C   UNL     1     101.865 103.120 109.077  1.00  0.00     0.004 C 
BRANCH  14  15
ATOM     15  C   UNL     1     103.085 103.017 110.017  1.00  0.00     0.000 C 
BRANCH  15  16
ATOM     16  C   UNL     1     103.383 104.287 110.836  1.00  0.00     0.000 C 
BRANCH  16  17
ATOM     17  C   UNL     1     104.784 104.887 110.613  1.00  0.00    -0.000 C 
BRANCH  17  18
ATOM     18  C   UNL     1     105.777 103.913 109.945  1.00  0.00    -0.000 C 
BRANCH  18  19
ATOM     19  C   UNL     1     106.414 104.502 108.677  1.00  0.00    -0.003 C 
ATOM     20  C   UNL     1     107.933 104.362 108.707  1.00  0.00     0.004 C 
ENDBRANCH  18  19
ENDBRANCH  17  18
ENDBRANCH  16  17
ENDBRANCH  15  16
ENDBRANCH  14  15
ENDBRANCH  13  14
ENDBRANCH   2  13
TORSDOF 15
ENDMDL
MODEL 3
REMARK VINA RESULT:    -6.239      3.475      8.060
REMARK INTER + INTRA:         -13.752
REMARK INTER:                 -12.155
REMARK INTRA:                  -1.598
REMARK UNBOUND:                -2.043
REMARK SMILES CCCCCCCCC=CCCCCCCCC(=O)[O-]
REMARK SMILES IDX 10 1 9 2 11 3 12 4 13 5 14 6 15 7 16 8 17 9 18 10 19 11
REMARK SMILES IDX 20 12 8 13 7 14 6 15 5 16 4 17 3 18 2 19 1 20
REMARK H PARENT
REMARK Flexibility Score: inf
ROOT
ATOM      1  C   UNL     1     105.664 102.827 104.566  1.00  0.00    -0.031 C 
ATOM      2  C   UNL     1     105.445 102.955 103.248  1.00  0.00    -0.031 C 
ENDROOT
BRANCH   1   3
ATOM      3  C   UNL     1     105.547 103.999 105.503  1.00  0.00     0.027 C 
BRANCH   3   4
ATOM      4  C   UNL     1     106.131 103.681 106.889  1.00  0.00     0.004 C 
BRANCH   4   5
ATOM      5  C   UNL     1     107.444 104.433 107.191  1.00  0.00     0.000 C 
BRANCH   5   6
ATOM      6  C   UNL     1     107.730 104.584 108.701  1.00  0.00     0.000 C 
BRANCH   6   7
ATOM      7  C   UNL     1     106.817 103.731 109.602  1.00  0.00     0.000 C 
BRANCH   7   8
ATOM      8  C   UNL     1     106.020 104.548 110.639  1.00  0.00     0.006 C 
BRANCH   8   9
ATOM      9  C   UNL     1     105.476 105.862 110.064  1.00  0.00     0.053 C 
BRANCH   9  10
ATOM     10  C   UNL     1     104.199 105.623 109.325  1.00  0.00     0.041 C 
ATOM     11  O   UNL     1     103.946 106.269 108.273  1.00  0.00    -0.550 OA
ATOM     12  O   UNL     1     103.264 104.728 109.825  1.00  0.00    -0.550 OA
ENDBRANCH   9  10
ENDBRANCH   8   9
ENDBRANCH   7   8
ENDBRANCH   6   7
ENDBRANCH   5   6
ENDBRANCH   4   5
ENDBRANCH   3   4
ENDBRANCH   1   3
BRANCH   2  13
ATOM     13  C   UNL     1     105.544 101.782 102.310  1.00  0.00     0.027 C 
BRANCH  13  14
ATOM     14  C   UNL     1     104.667 101.975 101.065  1.00  0.00     0.004 C 
BRANCH  14  15
ATOM     15  C   UNL     1     104.812 100.865 100.003  1.00  0.00     0.000 C 
BRANCH  15  16
ATOM     16  C   UNL     1     103.579  99.957  99.839  1.00  0.00     0.000 C 
BRANCH  16  17
ATOM     17  C   UNL     1     102.418 100.260 100.804  1.00  0.00    -0.000 C 
BRANCH  17  18
ATOM     18  C   UNL     1     102.350  99.302 102.013  1.00  0.00    -0.000 C 
BRANCH  18  19
ATOM     19  C   UNL     1     102.373 100.049 103.355  1.00  0.00    -0.003 C 
ATOM     20  C   UNL     1     103.492  99.533 104.254  1.00  0.00     0.004 C 
ENDBRANCH  18  19
ENDBRANCH  17  18
ENDBRANCH  16  17
ENDBRANCH  15  16
ENDBRANCH  14  15
ENDBRANCH  13  14
ENDBRANCH   2  13
TORSDOF 15
ENDMDL
MODEL 4
REMARK VINA RESULT:    -6.221      3.802      6.257
REMARK INTER + INTRA:         -13.719
REMARK INTER:                 -11.251
REMARK INTRA:                  -2.468
REMARK UNBOUND:                -2.043
REMARK SMILES CCCCCCCCC=CCCCCCCCC(=O)[O-]
REMARK SMILES IDX 10 1 9 2 11 3 12 4 13 5 14 6 15 7 16 8 17 9 18 10 19 11
REMARK SMILES IDX 20 12 8 13 7 14 6 15 5 16 4 17 3 18 2 19 1 20
REMARK H PARENT
REMARK Flexibility Score: inf
ROOT
ATOM      1  C   UNL     1     103.402 105.299 109.601  1.00  0.00    -0.031 C 
ATOM      2  C   UNL     1     104.118 104.471 110.377  1.00  0.00    -0.031 C 
ENDROOT
BRANCH   1   3
ATOM      3  C   UNL     1     101.966 105.008 109.252  1.00  0.00     0.027 C 
BRANCH   3   4
ATOM      4  C   UNL     1     101.807 103.626 108.600  1.00  0.00     0.004 C 
BRANCH   4   5
ATOM      5  C   UNL     1     101.833 103.665 107.058  1.00  0.00     0.000 C 
BRANCH   5   6
ATOM      6  C   UNL     1     102.158 105.061 106.485  1.00  0.00     0.000 C 
BRANCH   6   7
ATOM      7  C   UNL     1     102.804 105.032 105.087  1.00  0.00     0.000 C 
BRANCH   7   8
ATOM      8  C   UNL     1     103.365 106.392 104.626  1.00  0.00     0.006 C 
BRANCH   8   9
ATOM      9  C   UNL     1     103.625 107.350 105.795  1.00  0.00     0.053 C 
BRANCH   9  10
ATOM     10  C   UNL     1     104.138 108.662 105.295  1.00  0.00     0.041 C 
ATOM     11  O   UNL     1     105.137 108.701 104.529  1.00  0.00    -0.550 OA
ATOM     12  O   UNL     1     103.548 109.845 105.717  1.00  0.00    -0.550 OA
ENDBRANCH   9  10
ENDBRANCH   8   9
ENDBRANCH   7   8
ENDBRANCH   6   7
ENDBRANCH   5   6
ENDBRANCH   4   5
ENDBRANCH   3   4
ENDBRANCH   1   3
BRANCH   2  13
ATOM     13  C   UNL     1     105.548 104.766 110.743  1.00  0.00     0.027 C 
BRANCH  13  14
ATOM     14  C   UNL     1     106.055 106.045 110.061  1.00  0.00     0.004 C 
BRANCH  14  15
ATOM     15  C   UNL     1     107.379 105.875 109.287  1.00  0.00     0.000 C 
BRANCH  15  16
ATOM     16  C   UNL     1     107.502 104.562 108.490  1.00  0.00     0.000 C 
BRANCH  16  17
ATOM     17  C   UNL     1     107.380 104.718 106.963  1.00  0.00    -0.000 C 
BRANCH  17  18
ATOM     18  C   UNL     1     106.167 103.979 106.360  1.00  0.00    -0.000 C 
BRANCH  18  19
ATOM     19  C   UNL     1     105.488 103.043 107.370  1.00  0.00    -0.003 C 
ATOM     20  C   UNL     1     104.991 101.769 106.693  1.00  0.00     0.004 C 
ENDBRANCH  18  19
ENDBRANCH  17  18
ENDBRANCH  16  17
ENDBRANCH  15  16
ENDBRANCH  14  15
ENDBRANCH  13  14
ENDBRANCH   2  13
TORSDOF 15
ENDMDL
MODEL 5
REMARK VINA RESULT:    -6.208      3.701      8.875
REMARK INTER + INTRA:         -13.694
REMARK INTER:                 -12.835
REMARK INTRA:                  -0.859
REMARK UNBOUND:                -2.043
REMARK SMILES CCCCCCCCC=CCCCCCCCC(=O)[O-]
REMARK SMILES IDX 10 1 9 2 11 3 12 4 13 5 14 6 15 7 16 8 17 9 18 10 19 11
REMARK SMILES IDX 20 12 8 13 7 14 6 15 5 16 4 17 3 18 2 19 1 20
REMARK H PARENT
REMARK Flexibility Score: inf
ROOT
ATOM      1  C   UNL     1     102.328 101.687 104.086  1.00  0.00    -0.031 C 
ATOM      2  C   UNL     1     102.624 100.397 104.310  1.00  0.00    -0.031 C 
ENDROOT
BRANCH   1   3
ATOM      3  C   UNL     1     101.732 102.558 105.159  1.00  0.00     0.027 C 
BRANCH   3   4
ATOM      4  C   UNL     1     102.413 103.934 105.220  1.00  0.00     0.004 C 
BRANCH   4   5
ATOM      5  C   UNL     1     102.215 104.660 106.567  1.00  0.00     0.000 C 
BRANCH   5   6
ATOM      6  C   UNL     1     101.750 103.727 107.705  1.00  0.00     0.000 C 
BRANCH   6   7
ATOM      7  C   UNL     1     101.050 104.455 108.868  1.00  0.00     0.000 C 
BRANCH   7   8
ATOM      8  C   UNL     1     101.997 105.313 109.732  1.00  0.00     0.006 C 
BRANCH   8   9
ATOM      9  C   UNL     1     103.001 104.467 110.525  1.00  0.00     0.053 C 
BRANCH   9  10
ATOM     10  C   UNL     1     104.403 104.848 110.172  1.00  0.00     0.041 C 
ATOM     11  O   UNL     1     104.623 105.868 109.466  1.00  0.00    -0.550 OA
ATOM     12  O   UNL     1     105.463 104.048 110.575  1.00  0.00    -0.550 OA
ENDBRANCH   9  10
ENDBRANCH   8   9
ENDBRANCH   7   8
ENDBRANCH   6   7
ENDBRANCH   5   6
ENDBRANCH   4   5
ENDBRANCH   3   4
ENDBRANCH   1   3
BRANCH   2  13
ATOM     13  C   UNL     1     103.237  99.528 103.244  1.00  0.00     0.027 C 
BRANCH  13  14
ATOM     14  C   UNL     1     102.236  99.213 102.123  1.00  0.00     0.004 C 
BRANCH  14  15
ATOM     15  C   UNL     1     102.233 100.233 100.966  1.00  0.00     0.000 C 
BRANCH  15  16
ATOM     16  C   UNL     1     103.276  99.970  99.864  1.00  0.00     0.000 C 
BRANCH  16  17
ATOM     17  C   UNL     1     104.555 100.823  99.965  1.00  0.00    -0.000 C 
BRANCH  17  18
ATOM     18  C   UNL     1     105.786 100.177  99.295  1.00  0.00    -0.000 C 
BRANCH  18  19
ATOM     19  C   UNL     1     105.398  99.151  98.219  1.00  0.00    -0.003 C 
ATOM     20  C   UNL     1     105.108  99.834  96.886  1.00  0.00     0.004 C 
ENDBRANCH  18  19
ENDBRANCH  17  18
ENDBRANCH  16  17
ENDBRANCH  15  16
ENDBRANCH  14  15
ENDBRANCH  13  14
ENDBRANCH   2  13
TORSDOF 15
ENDMDL
MODEL 6
REMARK VINA RESULT:    -6.207      4.395      5.610
REMARK INTER + INTRA:         -13.693
REMARK INTER:                 -11.236
REMARK INTRA:                  -2.457
REMARK UNBOUND:                -2.043
REMARK SMILES CCCCCCCCC=CCCCCCCCC(=O)[O-]
REMARK SMILES IDX 10 1 9 2 11 3 12 4 13 5 14 6 15 7 16 8 17 9 18 10 19 11
REMARK SMILES IDX 20 12 8 13 7 14 6 15 5 16 4 17 3 18 2 19 1 20
REMARK H PARENT
REMARK Flexibility Score: inf
ROOT
ATOM      1  C   UNL     1     105.568 103.591 109.668  1.00  0.00    -0.031 C 
ATOM      2  C   UNL     1     104.890 104.514 110.367  1.00  0.00    -0.031 C 
ENDROOT
BRANCH   1   3
ATOM      3  C   UNL     1     107.037 103.743 109.375  1.00  0.00     0.027 C 
BRANCH   3   4
ATOM      4  C   UNL     1     107.389 105.181 108.962  1.00  0.00     0.004 C 
BRANCH   4   5
ATOM      5  C   UNL     1     107.033 105.506 107.497  1.00  0.00     0.000 C 
BRANCH   5   6
ATOM      6  C   UNL     1     107.390 104.372 106.512  1.00  0.00     0.000 C 
BRANCH   6   7
ATOM      7  C   UNL     1     106.979 104.653 105.055  1.00  0.00     0.000 C 
BRANCH   7   8
ATOM      8  C   UNL     1     107.063 106.139 104.655  1.00  0.00     0.006 C 
BRANCH   8   9
ATOM      9  C   UNL     1     106.093 106.502 103.523  1.00  0.00     0.053 C 
BRANCH   9  10
ATOM     10  C   UNL     1     106.291 107.921 103.097  1.00  0.00     0.041 C 
ATOM     11  O   UNL     1     106.637 108.793 103.938  1.00  0.00    -0.550 OA
ATOM     12  O   UNL     1     106.039 108.293 101.784  1.00  0.00    -0.550 OA
ENDBRANCH   9  10
ENDBRANCH   8   9
ENDBRANCH   7   8
ENDBRANCH   6   7
ENDBRANCH   5   6
ENDBRANCH   4   5
ENDBRANCH   3   4
ENDBRANCH   1   3
BRANCH   2  13
ATOM     13  C   UNL     1     103.425 104.357 110.676  1.00  0.00     0.027 C 
BRANCH  13  14
ATOM     14  C   UNL     1     102.898 102.983 110.241  1.00  0.00     0.004 C 
BRANCH  14  15
ATOM     15  C   UNL     1     101.773 103.035 109.186  1.00  0.00     0.000 C 
BRANCH  15  16
ATOM     16  C   UNL     1     101.442 104.443 108.657  1.00  0.00     0.000 C 
BRANCH  16  17
ATOM     17  C   UNL     1     101.717 104.653 107.156  1.00  0.00    -0.000 C 
BRANCH  17  18
ATOM     18  C   UNL     1     103.189 104.992 106.837  1.00  0.00    -0.000 C 
BRANCH  18  19
ATOM     19  C   UNL     1     103.641 106.310 107.485  1.00  0.00    -0.003 C 
ATOM     20  C   UNL     1     103.963 107.362 106.428  1.00  0.00     0.004 C 
ENDBRANCH  18  19
ENDBRANCH  17  18
ENDBRANCH  16  17
ENDBRANCH  15  16
ENDBRANCH  14  15
ENDBRANCH  13  14
ENDBRANCH   2  13
TORSDOF 15
ENDMDL
MODEL 7
REMARK VINA RESULT:    -6.198      1.731      5.003
REMARK INTER + INTRA:         -13.676
REMARK INTER:                 -11.119
REMARK INTRA:                  -2.557
REMARK UNBOUND:                -2.043
REMARK SMILES CCCCCCCCC=CCCCCCCCC(=O)[O-]
REMARK SMILES IDX 10 1 9 2 11 3 12 4 13 5 14 6 15 7 16 8 17 9 18 10 19 11
REMARK SMILES IDX 20 12 8 13 7 14 6 15 5 16 4 17 3 18 2 19 1 20
REMARK H PARENT
REMARK Flexibility Score: inf
ROOT
ATOM      1  C   UNL     1     104.824 104.397 110.743  1.00  0.00    -0.031 C 
ATOM      2  C   UNL     1     105.485 103.837 109.717  1.00  0.00    -0.031 C 
ENDROOT
BRANCH   1   3
ATOM      3  C   UNL     1     103.321 104.480 110.761  1.00  0.00     0.027 C 
BRANCH   3   4
ATOM      4  C   UNL     1     102.775 105.191 109.513  1.00  0.00     0.004 C 
BRANCH   4   5
ATOM      5  C   UNL     1     101.584 104.461 108.859  1.00  0.00     0.000 C 
BRANCH   5   6
ATOM      6  C   UNL     1     101.955 103.727 107.553  1.00  0.00     0.000 C 
BRANCH   6   7
ATOM      7  C   UNL     1     101.702 104.550 106.276  1.00  0.00     0.000 C 
BRANCH   7   8
ATOM      8  C   UNL     1     101.843 103.742 104.970  1.00  0.00     0.006 C 
BRANCH   8   9
ATOM      9  C   UNL     1     101.675 102.233 105.189  1.00  0.00     0.053 C 
BRANCH   9  10
ATOM     10  C   UNL     1     102.404 101.465 104.134  1.00  0.00     0.041 C 
ATOM     11  O   UNL     1     102.828 102.051 103.102  1.00  0.00    -0.550 OA
ATOM     12  O   UNL     1     102.569 100.093 104.262  1.00  0.00    -0.550 OA
ENDBRANCH   9  10
ENDBRANCH   8   9
ENDBRANCH   7   8
ENDBRANCH   6   7
ENDBRANCH   5   6
ENDBRANCH   4   5
ENDBRANCH   3   4
ENDBRANCH   1   3
BRANCH   2  13
ATOM     13  C   UNL     1     106.987 103.736 109.703  1.00  0.00     0.027 C 
BRANCH  13  14
ATOM     14  C   UNL     1     107.595 104.493 108.513  1.00  0.00     0.004 C 
BRANCH  14  15
ATOM     15  C   UNL     1     106.693 105.603 107.934  1.00  0.00     0.000 C 
BRANCH  15  16
ATOM     16  C   UNL     1     106.408 105.488 106.425  1.00  0.00     0.000 C 
BRANCH  16  17
ATOM     17  C   UNL     1     105.435 104.360 106.033  1.00  0.00    -0.000 C 
BRANCH  17  18
ATOM     18  C   UNL     1     106.064 103.289 105.118  1.00  0.00    -0.000 C 
BRANCH  18  19
ATOM     19  C   UNL     1     105.567 101.872 105.444  1.00  0.00    -0.003 C 
ATOM     20  C   UNL     1     104.989 101.802 106.854  1.00  0.00     0.004 C 
ENDBRANCH  18  19
ENDBRANCH  17  18
ENDBRANCH  16  17
ENDBRANCH  15  16
ENDBRANCH  14  15
ENDBRANCH  13  14
ENDBRANCH   2  13
TORSDOF 15
ENDMDL
MODEL 8
REMARK VINA RESULT:    -6.193      4.668      6.591
REMARK INTER + INTRA:         -13.666
REMARK INTER:                 -12.695
REMARK INTRA:                  -0.971
REMARK UNBOUND:                -2.043
REMARK SMILES CCCCCCCCC=CCCCCCCCC(=O)[O-]
REMARK SMILES IDX 10 1 9 2 11 3 12 4 13 5 14 6 15 7 16 8 17 9 18 10 19 11
REMARK SMILES IDX 20 12 8 13 7 14 6 15 5 16 4 17 3 18 2 19 1 20
REMARK H PARENT
REMARK Flexibility Score: inf
ROOT
ATOM      1  C   UNL     1     106.658 104.149 106.810  1.00  0.00    -0.031 C 
ATOM      2  C   UNL     1     107.359 105.019 107.555  1.00  0.00    -0.031 C 
ENDROOT
BRANCH   1   3
ATOM      3  C   UNL     1     106.221 104.483 105.408  1.00  0.00     0.027 C 
BRANCH   3   4
ATOM      4  C   UNL     1     106.985 105.693 104.847  1.00  0.00     0.004 C 
BRANCH   4   5
ATOM      5  C   UNL     1     106.074 106.883 104.484  1.00  0.00     0.000 C 
BRANCH   5   6
ATOM      6  C   UNL     1     106.854 108.149 104.068  1.00  0.00     0.000 C 
BRANCH   6   7
ATOM      7  C   UNL     1     105.997 109.207 103.349  1.00  0.00     0.000 C 
BRANCH   7   8
ATOM      8  C   UNL     1     106.584 109.683 102.005  1.00  0.00     0.006 C 
BRANCH   8   9
ATOM      9  C   UNL     1     106.839 108.527 101.029  1.00  0.00     0.053 C 
BRANCH   9  10
ATOM     10  C   UNL     1     105.886 108.592  99.879  1.00  0.00     0.041 C 
ATOM     11  O   UNL     1     105.001 107.707  99.739  1.00  0.00    -0.550 OA
ATOM     12  O   UNL     1     106.009 109.598  98.931  1.00  0.00    -0.550 OA
ENDBRANCH   9  10
ENDBRANCH   8   9
ENDBRANCH   7   8
ENDBRANCH   6   7
ENDBRANCH   5   6
ENDBRANCH   4   5
ENDBRANCH   3   4
ENDBRANCH   1   3
BRANCH   2  13
ATOM     13  C   UNL     1     107.813 104.682 108.950  1.00  0.00     0.027 C 
BRANCH  13  14
ATOM     14  C   UNL     1     106.895 103.643 109.610  1.00  0.00     0.004 C 
BRANCH  14  15
ATOM     15  C   UNL     1     105.693 104.244 110.368  1.00  0.00     0.000 C 
BRANCH  15  16
ATOM     16  C   UNL     1     104.327 103.620 110.023  1.00  0.00     0.000 C 
BRANCH  16  17
ATOM     17  C   UNL     1     103.115 104.316 110.669  1.00  0.00    -0.000 C 
BRANCH  17  18
ATOM     18  C   UNL     1     102.349 105.248 109.707  1.00  0.00    -0.000 C 
BRANCH  18  19
ATOM     19  C   UNL     1     101.245 104.513 108.932  1.00  0.00    -0.003 C 
ATOM     20  C   UNL     1     101.674 104.229 107.497  1.00  0.00     0.004 C 
ENDBRANCH  18  19
ENDBRANCH  17  18
ENDBRANCH  16  17
ENDBRANCH  15  16
ENDBRANCH  14  15
ENDBRANCH  13  14
ENDBRANCH   2  13
TORSDOF 15
ENDMDL
MODEL 9
REMARK VINA RESULT:    -6.142      1.036      2.888
REMARK INTER + INTRA:         -13.571
REMARK INTER:                 -11.765
REMARK INTRA:                  -1.806
REMARK UNBOUND:                -2.043
REMARK SMILES CCCCCCCCC=CCCCCCCCC(=O)[O-]
REMARK SMILES IDX 10 1 9 2 11 3 12 4 13 5 14 6 15 7 16 8 17 9 18 10 19 11
REMARK SMILES IDX 20 12 8 13 7 14 6 15 5 16 4 17 3 18 2 19 1 20
REMARK H PARENT
REMARK Flexibility Score: inf
ROOT
ATOM      1  C   UNL     1     105.844 103.242 107.373  1.00  0.00    -0.031 C 
ATOM      2  C   UNL     1     106.610 104.243 106.912  1.00  0.00    -0.031 C 
ENDROOT
BRANCH   1   3
ATOM      3  C   UNL     1     105.114 102.312 106.440  1.00  0.00     0.027 C 
BRANCH   3   4
ATOM      4  C   UNL     1     105.707 102.347 105.023  1.00  0.00     0.004 C 
BRANCH   4   5
ATOM      5  C   UNL     1     105.799 100.958 104.359  1.00  0.00     0.000 C 
BRANCH   5   6
ATOM      6  C   UNL     1     105.160  99.832 105.200  1.00  0.00     0.000 C 
BRANCH   6   7
ATOM      7  C   UNL     1     104.015  99.088 104.487  1.00  0.00     0.000 C 
BRANCH   7   8
ATOM      8  C   UNL     1     103.069 100.008 103.691  1.00  0.00     0.006 C 
BRANCH   8   9
ATOM      9  C   UNL     1     102.585  99.369 102.383  1.00  0.00     0.053 C 
BRANCH   9  10
ATOM     10  C   UNL     1     103.076 100.147 101.205  1.00  0.00     0.041 C 
ATOM     11  O   UNL     1     103.834 101.140 101.373  1.00  0.00    -0.550 OA
ATOM     12  O   UNL     1     102.655  99.811  99.926  1.00  0.00    -0.550 OA
ENDBRANCH   9  10
ENDBRANCH   8   9
ENDBRANCH   7   8
ENDBRANCH   6   7
ENDBRANCH   5   6
ENDBRANCH   4   5
ENDBRANCH   3   4
ENDBRANCH   1   3
BRANCH   2  13
ATOM     13  C   UNL     1     107.356 105.164 107.841  1.00  0.00     0.027 C 
BRANCH  13  14
ATOM     14  C   UNL     1     107.034 104.866 109.312  1.00  0.00     0.004 C 
BRANCH  14  15
ATOM     15  C   UNL     1     106.171 105.940 110.007  1.00  0.00     0.000 C 
BRANCH  15  16
ATOM     16  C   UNL     1     104.650 105.716 109.908  1.00  0.00     0.000 C 
BRANCH  16  17
ATOM     17  C   UNL     1     104.130 104.470 110.651  1.00  0.00    -0.000 C 
BRANCH  17  18
ATOM     18  C   UNL     1     103.017 103.716 109.893  1.00  0.00    -0.000 C 
BRANCH  18  19
ATOM     19  C   UNL     1     102.501 104.499 108.676  1.00  0.00    -0.003 C 
ATOM     20  C   UNL     1     100.976 104.544 108.655  1.00  0.00     0.004 C 
ENDBRANCH  18  19
ENDBRANCH  17  18
ENDBRANCH  16  17
ENDBRANCH  15  16
ENDBRANCH  14  15
ENDBRANCH  13  14
ENDBRANCH   2  13
TORSDOF 15
ENDMDL
