MODEL 1
REMARK VINA RESULT:    -5.580      0.000      0.000
REMARK INTER + INTRA:          -6.950
REMARK INTER:                  -6.721
REMARK INTRA:                  -0.229
REMARK UNBOUND:                -0.229
REMARK SMILES O=c1c(O)c(-c2ccc(O)c(O)c2)oc2cc(O)cc(O)c12
REMARK SMILES IDX 5 1 3 2 2 3 1 4 22 5 20 6 19 7 17 8 16 9 15 10 14 11 6 12
REMARK SMILES IDX 7 13 8 14 9 15 13 16 11 17 10 18 12 20 4 22 21 24 18 26
REMARK H PARENT 10 19 12 21 4 23 21 25 18 27
REMARK Flexibility Score: inf
ROOT
ATOM      1  C   UNL     1      28.344  34.760  20.116  1.00  0.00     0.180 A 
ATOM      2  C   UNL     1      29.156  35.906  20.187  1.00  0.00     0.208 A 
ATOM      3  C   UNL     1      30.328  35.958  19.417  1.00  0.00     0.238 A 
ATOM      4  O   UNL     1      31.023  37.007  19.442  1.00  0.00    -0.285 OA
ATOM      5  C   UNL     1      30.683  34.858  18.598  1.00  0.00     0.111 A 
ATOM      6  C   UNL     1      31.869  34.786  17.807  1.00  0.00     0.134 A 
ATOM      7  C   UNL     1      32.053  33.705  16.935  1.00  0.00     0.093 A 
ATOM      8  C   UNL     1      31.124  32.663  16.875  1.00  0.00     0.123 A 
ATOM      9  C   UNL     1      29.994  32.696  17.687  1.00  0.00     0.094 A 
ATOM     10  C   UNL     1      29.765  33.777  18.540  1.00  0.00     0.146 A 
ATOM     11  O   UNL     1      28.669  33.774  19.290  1.00  0.00    -0.452 OA
ENDROOT
BRANCH   1  12
ATOM     12  C   UNL     1      27.106  34.623  20.917  1.00  0.00     0.025 A 
ATOM     13  C   UNL     1      25.968  35.362  20.562  1.00  0.00     0.016 A 
ATOM     14  C   UNL     1      24.786  35.232  21.291  1.00  0.00     0.051 A 
ATOM     15  C   UNL     1      24.708  34.352  22.377  1.00  0.00     0.157 A 
ATOM     16  C   UNL     1      27.026  33.722  21.992  1.00  0.00     0.062 A 
ATOM     17  C   UNL     1      25.842  33.583  22.728  1.00  0.00     0.158 A 
BRANCH  15  18
ATOM     18  O   UNL     1      23.498  34.275  23.069  1.00  0.00    -0.504 OA
ATOM     19  H   UNL     1      22.652  34.745  22.782  1.00  0.00     0.293 HD
ENDBRANCH  15  18
BRANCH  17  20
ATOM     20  O   UNL     1      25.835  32.670  23.785  1.00  0.00    -0.504 OA
ATOM     21  H   UNL     1      26.593  32.034  23.986  1.00  0.00     0.293 HD
ENDBRANCH  17  20
ENDBRANCH   1  12
BRANCH   2  22
ATOM     22  O   UNL     1      28.776  36.989  20.984  1.00  0.00    -0.502 OA
ATOM     23  H   UNL     1      28.941  37.950  20.712  1.00  0.00     0.293 HD
ENDBRANCH   2  22
BRANCH   6  24
ATOM     24  O   UNL     1      32.901  35.727  17.860  1.00  0.00    -0.507 OA
ATOM     25  H   UNL     1      33.884  35.501  17.910  1.00  0.00     0.293 HD
ENDBRANCH   6  24
BRANCH   8  26
ATOM     26  O   UNL     1      31.323  31.584  16.016  1.00  0.00    -0.508 OA
ATOM     27  H   UNL     1      30.923  30.673  16.208  1.00  0.00     0.293 HD
ENDBRANCH   8  26
TORSDOF 6
ENDMDL
MODEL 2
REMARK VINA RESULT:    -5.502      1.592      3.423
REMARK INTER + INTRA:          -6.857
REMARK INTER:                  -6.564
REMARK INTRA:                  -0.293
REMARK UNBOUND:                -0.229
REMARK SMILES O=c1c(O)c(-c2ccc(O)c(O)c2)oc2cc(O)cc(O)c12
REMARK SMILES IDX 5 1 3 2 2 3 1 4 22 5 20 6 19 7 17 8 16 9 15 10 14 11 6 12
REMARK SMILES IDX 7 13 8 14 9 15 13 16 11 17 10 18 12 20 4 22 21 24 18 26
REMARK H PARENT 10 19 12 21 4 23 21 25 18 27
REMARK Flexibility Score: inf
ROOT
ATOM      1  C   UNL     1      28.623  35.361  20.411  1.00  0.00     0.180 A 
ATOM      2  C   UNL     1      29.137  34.590  19.353  1.00  0.00     0.208 A 
ATOM      3  C   UNL     1      30.345  34.979  18.753  1.00  0.00     0.238 A 
ATOM      4  O   UNL     1      30.828  34.257  17.843  1.00  0.00    -0.285 OA
ATOM      5  C   UNL     1      31.016  36.140  19.207  1.00  0.00     0.111 A 
ATOM      6  C   UNL     1      32.225  36.649  18.645  1.00  0.00     0.134 A 
ATOM      7  C   UNL     1      32.870  37.731  19.258  1.00  0.00     0.093 A 
ATOM      8  C   UNL     1      32.314  38.362  20.374  1.00  0.00     0.123 A 
ATOM      9  C   UNL     1      31.103  37.910  20.893  1.00  0.00     0.094 A 
ATOM     10  C   UNL     1      30.455  36.811  20.325  1.00  0.00     0.146 A 
ATOM     11  O   UNL     1      29.308  36.406  20.857  1.00  0.00    -0.452 OA
ENDROOT
BRANCH   1  12
ATOM     12  C   UNL     1      27.342  35.028  21.077  1.00  0.00     0.025 A 
ATOM     13  C   UNL     1      26.169  35.689  20.685  1.00  0.00     0.016 A 
ATOM     14  C   UNL     1      24.949  35.377  21.284  1.00  0.00     0.051 A 
ATOM     15  C   UNL     1      24.870  34.390  22.273  1.00  0.00     0.157 A 
ATOM     16  C   UNL     1      27.264  34.021  22.053  1.00  0.00     0.062 A 
ATOM     17  C   UNL     1      26.042  33.698  22.658  1.00  0.00     0.158 A 
BRANCH  15  18
ATOM     18  O   UNL     1      23.620  34.130  22.839  1.00  0.00    -0.504 OA
ATOM     19  H   UNL     1      22.811  33.837  22.311  1.00  0.00     0.293 HD
ENDBRANCH  15  18
BRANCH  17  20
ATOM     20  O   UNL     1      26.039  32.688  23.622  1.00  0.00    -0.504 OA
ATOM     21  H   UNL     1      25.366  31.936  23.649  1.00  0.00     0.293 HD
ENDBRANCH  17  20
ENDBRANCH   1  12
BRANCH   2  22
ATOM     22  O   UNL     1      28.470  33.435  18.935  1.00  0.00    -0.502 OA
ATOM     23  H   UNL     1      27.466  33.404  18.804  1.00  0.00     0.293 HD
ENDBRANCH   2  22
BRANCH   6  24
ATOM     24  O   UNL     1      32.816  36.150  17.480  1.00  0.00    -0.507 OA
ATOM     25  H   UNL     1      33.798  35.942  17.377  1.00  0.00     0.293 HD
ENDBRANCH   6  24
BRANCH   8  26
ATOM     26  O   UNL     1      32.954  39.448  20.968  1.00  0.00    -0.508 OA
ATOM     27  H   UNL     1      32.506  39.995  21.694  1.00  0.00     0.293 HD
ENDBRANCH   8  26
TORSDOF 6
ENDMDL
MODEL 3
REMARK VINA RESULT:    -5.452      2.008      6.911
REMARK INTER + INTRA:          -6.797
REMARK INTER:                  -6.514
REMARK INTRA:                  -0.283
REMARK UNBOUND:                -0.229
REMARK SMILES O=c1c(O)c(-c2ccc(O)c(O)c2)oc2cc(O)cc(O)c12
REMARK SMILES IDX 5 1 3 2 2 3 1 4 22 5 20 6 19 7 17 8 16 9 15 10 14 11 6 12
REMARK SMILES IDX 7 13 8 14 9 15 13 16 11 17 10 18 12 20 4 22 21 24 18 26
REMARK H PARENT 10 19 12 21 4 23 21 25 18 27
REMARK Flexibility Score: inf
ROOT
ATOM      1  C   UNL     1      28.748  35.382  20.600  1.00  0.00     0.180 A 
ATOM      2  C   UNL     1      27.476  35.935  20.371  1.00  0.00     0.208 A 
ATOM      3  C   UNL     1      26.384  35.462  21.117  1.00  0.00     0.238 A 
ATOM      4  O   UNL     1      25.258  35.997  20.947  1.00  0.00    -0.285 OA
ATOM      5  C   UNL     1      26.576  34.433  22.070  1.00  0.00     0.111 A 
ATOM      6  C   UNL     1      25.533  33.850  22.853  1.00  0.00     0.134 A 
ATOM      7  C   UNL     1      25.858  32.930  23.858  1.00  0.00     0.093 A 
ATOM      8  C   UNL     1      27.178  32.523  24.064  1.00  0.00     0.123 A 
ATOM      9  C   UNL     1      28.194  33.042  23.265  1.00  0.00     0.094 A 
ATOM     10  C   UNL     1      27.907  33.988  22.278  1.00  0.00     0.146 A 
ATOM     11  O   UNL     1      28.907  34.464  21.546  1.00  0.00    -0.452 OA
ENDROOT
BRANCH   1  12
ATOM     12  C   UNL     1      29.942  35.811  19.835  1.00  0.00     0.025 A 
ATOM     13  C   UNL     1      30.383  35.036  18.753  1.00  0.00     0.016 A 
ATOM     14  C   UNL     1      31.492  35.433  18.006  1.00  0.00     0.051 A 
ATOM     15  C   UNL     1      32.175  36.616  18.312  1.00  0.00     0.157 A 
ATOM     16  C   UNL     1      30.609  37.010  20.131  1.00  0.00     0.062 A 
ATOM     17  C   UNL     1      31.723  37.419  19.386  1.00  0.00     0.158 A 
BRANCH  15  18
ATOM     18  O   UNL     1      33.282  36.952  17.531  1.00  0.00    -0.504 OA
ATOM     19  H   UNL     1      33.535  37.898  17.288  1.00  0.00     0.293 HD
ENDBRANCH  15  18
BRANCH  17  20
ATOM     20  O   UNL     1      32.338  38.622  19.738  1.00  0.00    -0.504 OA
ATOM     21  H   UNL     1      33.204  38.683  20.254  1.00  0.00     0.293 HD
ENDBRANCH  17  20
ENDBRANCH   1  12
BRANCH   2  22
ATOM     22  O   UNL     1      27.314  36.965  19.441  1.00  0.00    -0.502 OA
ATOM     23  H   UNL     1      26.822  37.822  19.659  1.00  0.00     0.293 HD
ENDBRANCH   2  22
BRANCH   6  24
ATOM     24  O   UNL     1      24.174  34.117  22.667  1.00  0.00    -0.507 OA
ATOM     25  H   UNL     1      23.795  34.669  21.912  1.00  0.00     0.293 HD
ENDBRANCH   6  24
BRANCH   8  26
ATOM     26  O   UNL     1      27.489  31.596  25.056  1.00  0.00    -0.508 OA
ATOM     27  H   UNL     1      26.997  31.581  25.941  1.00  0.00     0.293 HD
ENDBRANCH   8  26
TORSDOF 6
ENDMDL
MODEL 4
REMARK VINA RESULT:    -5.107      1.854      7.110
REMARK INTER + INTRA:          -6.381
REMARK INTER:                  -6.229
REMARK INTRA:                  -0.152
REMARK UNBOUND:                -0.229
REMARK SMILES O=c1c(O)c(-c2ccc(O)c(O)c2)oc2cc(O)cc(O)c12
REMARK SMILES IDX 5 1 3 2 2 3 1 4 22 5 20 6 19 7 17 8 16 9 15 10 14 11 6 12
REMARK SMILES IDX 7 13 8 14 9 15 13 16 11 17 10 18 12 20 4 22 21 24 18 26
REMARK H PARENT 10 19 12 21 4 23 21 25 18 27
REMARK Flexibility Score: inf
ROOT
ATOM      1  C   UNL     1      30.082  34.710  19.227  1.00  0.00     0.180 A 
ATOM      2  C   UNL     1      30.290  33.480  19.877  1.00  0.00     0.208 A 
ATOM      3  C   UNL     1      29.275  32.965  20.699  1.00  0.00     0.238 A 
ATOM      4  O   UNL     1      29.444  31.839  21.235  1.00  0.00    -0.285 OA
ATOM      5  C   UNL     1      28.073  33.693  20.874  1.00  0.00     0.111 A 
ATOM      6  C   UNL     1      26.995  33.285  21.716  1.00  0.00     0.134 A 
ATOM      7  C   UNL     1      25.800  34.017  21.711  1.00  0.00     0.093 A 
ATOM      8  C   UNL     1      25.670  35.178  20.945  1.00  0.00     0.123 A 
ATOM      9  C   UNL     1      26.739  35.617  20.167  1.00  0.00     0.094 A 
ATOM     10  C   UNL     1      27.930  34.888  20.123  1.00  0.00     0.146 A 
ATOM     11  O   UNL     1      28.919  35.336  19.360  1.00  0.00    -0.452 OA
ENDROOT
BRANCH   1  12
ATOM     12  C   UNL     1      31.116  35.329  18.365  1.00  0.00     0.025 A 
ATOM     13  C   UNL     1      31.481  34.699  17.166  1.00  0.00     0.016 A 
ATOM     14  C   UNL     1      32.437  35.275  16.329  1.00  0.00     0.051 A 
ATOM     15  C   UNL     1      33.036  36.495  16.661  1.00  0.00     0.157 A 
ATOM     16  C   UNL     1      31.698  36.565  18.691  1.00  0.00     0.062 A 
ATOM     17  C   UNL     1      32.656  37.152  17.855  1.00  0.00     0.158 A 
BRANCH  15  18
ATOM     18  O   UNL     1      33.991  37.014  15.785  1.00  0.00    -0.504 OA
ATOM     19  H   UNL     1      34.907  36.613  15.646  1.00  0.00     0.293 HD
ENDBRANCH  15  18
BRANCH  17  20
ATOM     20  O   UNL     1      33.194  38.381  18.243  1.00  0.00    -0.504 OA
ATOM     21  H   UNL     1      33.742  38.518  19.080  1.00  0.00     0.293 HD
ENDBRANCH  17  20
ENDBRANCH   1  12
BRANCH   2  22
ATOM     22  O   UNL     1      31.475  32.768  19.672  1.00  0.00    -0.502 OA
ATOM     23  H   UNL     1      31.959  32.291  20.423  1.00  0.00     0.293 HD
ENDBRANCH   2  22
BRANCH   6  24
ATOM     24  O   UNL     1      27.054  32.194  22.588  1.00  0.00    -0.507 OA
ATOM     25  H   UNL     1      26.872  32.240  23.580  1.00  0.00     0.293 HD
ENDBRANCH   6  24
BRANCH   8  26
ATOM     26  O   UNL     1      24.485  35.909  20.959  1.00  0.00    -0.508 OA
ATOM     27  H   UNL     1      24.091  36.297  20.110  1.00  0.00     0.293 HD
ENDBRANCH   8  26
TORSDOF 6
ENDMDL
MODEL 5
REMARK VINA RESULT:    -5.078      2.194      7.488
REMARK INTER + INTRA:          -6.345
REMARK INTER:                  -6.069
REMARK INTRA:                  -0.276
REMARK UNBOUND:                -0.229
REMARK SMILES O=c1c(O)c(-c2ccc(O)c(O)c2)oc2cc(O)cc(O)c12
REMARK SMILES IDX 5 1 3 2 2 3 1 4 22 5 20 6 19 7 17 8 16 9 15 10 14 11 6 12
REMARK SMILES IDX 7 13 8 14 9 15 13 16 11 17 10 18 12 20 4 22 21 24 18 26
REMARK H PARENT 10 19 12 21 4 23 21 25 18 27
REMARK Flexibility Score: inf
ROOT
ATOM      1  C   UNL     1      28.779  35.464  20.709  1.00  0.00     0.180 A 
ATOM      2  C   UNL     1      27.812  34.541  20.273  1.00  0.00     0.208 A 
ATOM      3  C   UNL     1      26.522  34.597  20.824  1.00  0.00     0.238 A 
ATOM      4  O   UNL     1      25.645  33.804  20.393  1.00  0.00    -0.285 OA
ATOM      5  C   UNL     1      26.220  35.563  21.814  1.00  0.00     0.111 A 
ATOM      6  C   UNL     1      24.957  35.684  22.470  1.00  0.00     0.134 A 
ATOM      7  C   UNL     1      24.731  36.760  23.338  1.00  0.00     0.093 A 
ATOM      8  C   UNL     1      25.742  37.680  23.623  1.00  0.00     0.123 A 
ATOM      9  C   UNL     1      26.995  37.536  23.034  1.00  0.00     0.094 A 
ATOM     10  C   UNL     1      27.241  36.494  22.137  1.00  0.00     0.146 A 
ATOM     11  O   UNL     1      28.447  36.399  21.590  1.00  0.00    -0.452 OA
ENDROOT
BRANCH   1  12
ATOM     12  C   UNL     1      30.167  35.451  20.192  1.00  0.00     0.025 A 
ATOM     13  C   UNL     1      31.061  34.468  20.641  1.00  0.00     0.016 A 
ATOM     14  C   UNL     1      32.367  34.425  20.152  1.00  0.00     0.051 A 
ATOM     15  C   UNL     1      32.804  35.350  19.196  1.00  0.00     0.157 A 
ATOM     16  C   UNL     1      30.594  36.367  19.216  1.00  0.00     0.062 A 
ATOM     17  C   UNL     1      31.903  36.330  18.717  1.00  0.00     0.158 A 
BRANCH  15  18
ATOM     18  O   UNL     1      34.125  35.257  18.754  1.00  0.00    -0.504 OA
ATOM     19  H   UNL     1      34.748  36.047  18.667  1.00  0.00     0.293 HD
ENDBRANCH  15  18
BRANCH  17  20
ATOM     20  O   UNL     1      32.259  37.272  17.750  1.00  0.00    -0.504 OA
ATOM     21  H   UNL     1      33.078  37.198  17.164  1.00  0.00     0.293 HD
ENDBRANCH  17  20
ENDBRANCH   1  12
BRANCH   2  22
ATOM     22  O   UNL     1      28.125  33.610  19.279  1.00  0.00    -0.502 OA
ATOM     23  H   UNL     1      27.926  32.622  19.377  1.00  0.00     0.293 HD
ENDBRANCH   2  22
BRANCH   6  24
ATOM     24  O   UNL     1      23.912  34.767  22.326  1.00  0.00    -0.507 OA
ATOM     25  H   UNL     1      23.037  34.810  22.826  1.00  0.00     0.293 HD
ENDBRANCH   6  24
BRANCH   8  26
ATOM     26  O   UNL     1      25.512  38.738  24.500  1.00  0.00    -0.508 OA
ATOM     27  H   UNL     1      25.278  39.664  24.164  1.00  0.00     0.293 HD
ENDBRANCH   8  26
TORSDOF 6
ENDMDL
MODEL 6
REMARK VINA RESULT:    -5.070      1.607      6.551
REMARK INTER + INTRA:          -6.337
REMARK INTER:                  -6.061
REMARK INTRA:                  -0.276
REMARK UNBOUND:                -0.229
REMARK SMILES O=c1c(O)c(-c2ccc(O)c(O)c2)oc2cc(O)cc(O)c12
REMARK SMILES IDX 5 1 3 2 2 3 1 4 22 5 20 6 19 7 17 8 16 9 15 10 14 11 6 12
REMARK SMILES IDX 7 13 8 14 9 15 13 16 11 17 10 18 12 20 4 22 21 24 18 26
REMARK H PARENT 10 19 12 21 4 23 21 25 18 27
REMARK Flexibility Score: inf
ROOT
ATOM      1  C   UNL     1      28.841  33.642  19.564  1.00  0.00     0.180 A 
ATOM      2  C   UNL     1      29.334  34.957  19.630  1.00  0.00     0.208 A 
ATOM      3  C   UNL     1      28.599  35.924  20.333  1.00  0.00     0.238 A 
ATOM      4  O   UNL     1      29.070  37.086  20.435  1.00  0.00    -0.285 OA
ATOM      5  C   UNL     1      27.373  35.569  20.948  1.00  0.00     0.111 A 
ATOM      6  C   UNL     1      26.526  36.478  21.651  1.00  0.00     0.134 A 
ATOM      7  C   UNL     1      25.402  35.989  22.330  1.00  0.00     0.093 A 
ATOM      8  C   UNL     1      25.061  34.635  22.276  1.00  0.00     0.123 A 
ATOM      9  C   UNL     1      25.848  33.752  21.542  1.00  0.00     0.094 A 
ATOM     10  C   UNL     1      26.995  34.203  20.885  1.00  0.00     0.146 A 
ATOM     11  O   UNL     1      27.723  33.325  20.205  1.00  0.00    -0.452 OA
ENDROOT
BRANCH   1  12
ATOM     12  C   UNL     1      29.548  32.573  18.820  1.00  0.00     0.025 A 
ATOM     13  C   UNL     1      30.201  31.555  19.530  1.00  0.00     0.016 A 
ATOM     14  C   UNL     1      30.855  30.528  18.849  1.00  0.00     0.051 A 
ATOM     15  C   UNL     1      30.859  30.486  17.450  1.00  0.00     0.157 A 
ATOM     16  C   UNL     1      29.530  32.523  17.417  1.00  0.00     0.062 A 
ATOM     17  C   UNL     1      30.181  31.494  16.724  1.00  0.00     0.158 A 
BRANCH  15  18
ATOM     18  O   UNL     1      31.538  29.436  16.830  1.00  0.00    -0.504 OA
ATOM     19  H   UNL     1      32.136  28.784  17.317  1.00  0.00     0.293 HD
ENDBRANCH  15  18
BRANCH  17  20
ATOM     20  O   UNL     1      30.123  31.509  15.329  1.00  0.00    -0.504 OA
ATOM     21  H   UNL     1      29.819  30.726  14.769  1.00  0.00     0.293 HD
ENDBRANCH  17  20
ENDBRANCH   1  12
BRANCH   2  22
ATOM     22  O   UNL     1      30.556  35.281  19.036  1.00  0.00    -0.502 OA
ATOM     23  H   UNL     1      30.674  36.090  18.440  1.00  0.00     0.293 HD
ENDBRANCH   2  22
BRANCH   6  24
ATOM     24  O   UNL     1      26.726  37.860  21.690  1.00  0.00    -0.507 OA
ATOM     25  H   UNL     1      26.206  38.532  21.146  1.00  0.00     0.293 HD
ENDBRANCH   6  24
BRANCH   8  26
ATOM     26  O   UNL     1      23.932  34.161  22.942  1.00  0.00    -0.508 OA
ATOM     27  H   UNL     1      23.040  34.068  22.471  1.00  0.00     0.293 HD
ENDBRANCH   8  26
TORSDOF 6
ENDMDL
MODEL 7
REMARK VINA RESULT:    -5.020      3.337      4.636
REMARK INTER + INTRA:          -6.276
REMARK INTER:                  -5.993
REMARK INTRA:                  -0.282
REMARK UNBOUND:                -0.229
REMARK SMILES O=c1c(O)c(-c2ccc(O)c(O)c2)oc2cc(O)cc(O)c12
REMARK SMILES IDX 5 1 3 2 2 3 1 4 22 5 20 6 19 7 17 8 16 9 15 10 14 11 6 12
REMARK SMILES IDX 7 13 8 14 9 15 13 16 11 17 10 18 12 20 4 22 21 24 18 26
REMARK H PARENT 10 19 12 21 4 23 21 25 18 27
REMARK Flexibility Score: inf
ROOT
ATOM      1  C   UNL     1      27.361  36.479  22.654  1.00  0.00     0.180 A 
ATOM      2  C   UNL     1      26.907  35.203  22.276  1.00  0.00     0.208 A 
ATOM      3  C   UNL     1      27.525  34.553  21.197  1.00  0.00     0.238 A 
ATOM      4  O   UNL     1      27.152  33.389  20.897  1.00  0.00    -0.285 OA
ATOM      5  C   UNL     1      28.579  35.192  20.499  1.00  0.00     0.111 A 
ATOM      6  C   UNL     1      29.250  34.643  19.365  1.00  0.00     0.134 A 
ATOM      7  C   UNL     1      30.365  35.305  18.835  1.00  0.00     0.093 A 
ATOM      8  C   UNL     1      30.791  36.529  19.357  1.00  0.00     0.123 A 
ATOM      9  C   UNL     1      30.105  37.101  20.425  1.00  0.00     0.094 A 
ATOM     10  C   UNL     1      29.012  36.447  20.998  1.00  0.00     0.146 A 
ATOM     11  O   UNL     1      28.393  37.024  22.022  1.00  0.00    -0.452 OA
ENDROOT
BRANCH   1  12
ATOM     12  C   UNL     1      26.742  37.237  23.765  1.00  0.00     0.025 A 
ATOM     13  C   UNL     1      25.508  37.873  23.564  1.00  0.00     0.016 A 
ATOM     14  C   UNL     1      24.897  38.575  24.604  1.00  0.00     0.051 A 
ATOM     15  C   UNL     1      25.496  38.645  25.867  1.00  0.00     0.157 A 
ATOM     16  C   UNL     1      27.334  37.286  25.038  1.00  0.00     0.062 A 
ATOM     17  C   UNL     1      26.728  37.987  26.089  1.00  0.00     0.158 A 
BRANCH  15  18
ATOM     18  O   UNL     1      24.837  39.370  26.862  1.00  0.00    -0.504 OA
ATOM     19  H   UNL     1      25.282  39.711  27.701  1.00  0.00     0.293 HD
ENDBRANCH  15  18
BRANCH  17  20
ATOM     20  O   UNL     1      27.375  37.994  27.326  1.00  0.00    -0.504 OA
ATOM     21  H   UNL     1      26.904  38.138  28.208  1.00  0.00     0.293 HD
ENDBRANCH  17  20
ENDBRANCH   1  12
BRANCH   2  22
ATOM     22  O   UNL     1      25.880  34.581  22.993  1.00  0.00    -0.502 OA
ATOM     23  H   UNL     1      25.618  33.616  22.839  1.00  0.00     0.293 HD
ENDBRANCH   2  22
BRANCH   6  24
ATOM     24  O   UNL     1      28.849  33.474  18.711  1.00  0.00    -0.507 OA
ATOM     25  H   UNL     1      28.407  33.445  17.804  1.00  0.00     0.293 HD
ENDBRANCH   6  24
BRANCH   8  26
ATOM     26  O   UNL     1      31.891  37.188  18.813  1.00  0.00    -0.508 OA
ATOM     27  H   UNL     1      31.910  38.197  18.717  1.00  0.00     0.293 HD
ENDBRANCH   8  26
TORSDOF 6
ENDMDL
MODEL 8
REMARK VINA RESULT:    -4.938      3.461      6.522
REMARK INTER + INTRA:          -6.178
REMARK INTER:                  -5.871
REMARK INTRA:                  -0.307
REMARK UNBOUND:                -0.229
REMARK SMILES O=c1c(O)c(-c2ccc(O)c(O)c2)oc2cc(O)cc(O)c12
REMARK SMILES IDX 5 1 3 2 2 3 1 4 22 5 20 6 19 7 17 8 16 9 15 10 14 11 6 12
REMARK SMILES IDX 7 13 8 14 9 15 13 16 11 17 10 18 12 20 4 22 21 24 18 26
REMARK H PARENT 10 19 12 21 4 23 21 25 18 27
REMARK Flexibility Score: inf
ROOT
ATOM      1  C   UNL     1      28.988  32.267  21.081  1.00  0.00     0.180 A 
ATOM      2  C   UNL     1      29.372  33.280  20.185  1.00  0.00     0.208 A 
ATOM      3  C   UNL     1      28.487  34.340  19.937  1.00  0.00     0.238 A 
ATOM      4  O   UNL     1      28.856  35.272  19.176  1.00  0.00    -0.285 OA
ATOM      5  C   UNL     1      27.223  34.367  20.575  1.00  0.00     0.111 A 
ATOM      6  C   UNL     1      26.231  35.372  20.366  1.00  0.00     0.134 A 
ATOM      7  C   UNL     1      25.070  35.369  21.149  1.00  0.00     0.093 A 
ATOM      8  C   UNL     1      24.836  34.360  22.087  1.00  0.00     0.123 A 
ATOM      9  C   UNL     1      25.771  33.342  22.255  1.00  0.00     0.094 A 
ATOM     10  C   UNL     1      26.955  33.338  21.514  1.00  0.00     0.146 A 
ATOM     11  O   UNL     1      27.824  32.354  21.713  1.00  0.00    -0.452 OA
ENDROOT
BRANCH   1  12
ATOM     12  C   UNL     1      29.857  31.104  21.374  1.00  0.00     0.025 A 
ATOM     13  C   UNL     1      30.565  31.059  22.583  1.00  0.00     0.016 A 
ATOM     14  C   UNL     1      31.374  29.963  22.888  1.00  0.00     0.051 A 
ATOM     15  C   UNL     1      31.481  28.885  22.002  1.00  0.00     0.157 A 
ATOM     16  C   UNL     1      29.945  30.014  20.492  1.00  0.00     0.062 A 
ATOM     17  C   UNL     1      30.751  28.908  20.790  1.00  0.00     0.158 A 
BRANCH  15  18
ATOM     18  O   UNL     1      32.313  27.824  22.363  1.00  0.00    -0.504 OA
ATOM     19  H   UNL     1      32.353  26.944  21.869  1.00  0.00     0.293 HD
ENDBRANCH  15  18
BRANCH  17  20
ATOM     20  O   UNL     1      30.791  27.862  19.866  1.00  0.00    -0.504 OA
ATOM     21  H   UNL     1      30.761  26.885  20.119  1.00  0.00     0.293 HD
ENDBRANCH  17  20
ENDBRANCH   1  12
BRANCH   2  22
ATOM     22  O   UNL     1      30.633  33.245  19.583  1.00  0.00    -0.502 OA
ATOM     23  H   UNL     1      31.264  32.460  19.686  1.00  0.00     0.293 HD
ENDBRANCH   2  22
BRANCH   6  24
ATOM     24  O   UNL     1      26.324  36.371  19.393  1.00  0.00    -0.507 OA
ATOM     25  H   UNL     1      26.823  37.241  19.508  1.00  0.00     0.293 HD
ENDBRANCH   6  24
BRANCH   8  26
ATOM     26  O   UNL     1      23.670  34.356  22.850  1.00  0.00    -0.508 OA
ATOM     27  H   UNL     1      23.023  35.135  22.832  1.00  0.00     0.293 HD
ENDBRANCH   8  26
TORSDOF 6
ENDMDL
MODEL 9
REMARK VINA RESULT:    -4.920      3.966      5.369
REMARK INTER + INTRA:          -6.155
REMARK INTER:                  -6.082
REMARK INTRA:                  -0.073
REMARK UNBOUND:                -0.229
REMARK SMILES O=c1c(O)c(-c2ccc(O)c(O)c2)oc2cc(O)cc(O)c12
REMARK SMILES IDX 5 1 3 2 2 3 1 4 22 5 20 6 19 7 17 8 16 9 15 10 14 11 6 12
REMARK SMILES IDX 7 13 8 14 9 15 13 16 11 17 10 18 12 20 4 22 21 24 18 26
REMARK H PARENT 10 19 12 21 4 23 21 25 18 27
REMARK Flexibility Score: inf
ROOT
ATOM      1  C   UNL     1      26.897  36.750  23.456  1.00  0.00     0.180 A 
ATOM      2  C   UNL     1      26.959  37.310  22.168  1.00  0.00     0.208 A 
ATOM      3  C   UNL     1      27.399  36.513  21.099  1.00  0.00     0.238 A 
ATOM      4  O   UNL     1      27.402  37.002  19.940  1.00  0.00    -0.285 OA
ATOM      5  C   UNL     1      27.785  35.171  21.334  1.00  0.00     0.111 A 
ATOM      6  C   UNL     1      28.286  34.285  20.333  1.00  0.00     0.134 A 
ATOM      7  C   UNL     1      28.514  32.940  20.653  1.00  0.00     0.093 A 
ATOM      8  C   UNL     1      28.322  32.467  21.953  1.00  0.00     0.123 A 
ATOM      9  C   UNL     1      27.892  33.339  22.950  1.00  0.00     0.094 A 
ATOM     10  C   UNL     1      27.622  34.676  22.654  1.00  0.00     0.146 A 
ATOM     11  O   UNL     1      27.204  35.471  23.632  1.00  0.00    -0.452 OA
ENDROOT
BRANCH   1  12
ATOM     12  C   UNL     1      26.467  37.536  24.635  1.00  0.00     0.025 A 
ATOM     13  C   UNL     1      27.352  37.707  25.710  1.00  0.00     0.016 A 
ATOM     14  C   UNL     1      26.975  38.461  26.822  1.00  0.00     0.051 A 
ATOM     15  C   UNL     1      25.716  39.070  26.879  1.00  0.00     0.157 A 
ATOM     16  C   UNL     1      25.212  38.165  24.679  1.00  0.00     0.062 A 
ATOM     17  C   UNL     1      24.825  38.925  25.790  1.00  0.00     0.158 A 
BRANCH  15  18
ATOM     18  O   UNL     1      25.398  39.804  28.023  1.00  0.00    -0.504 OA
ATOM     19  H   UNL     1      25.786  40.710  28.239  1.00  0.00     0.293 HD
ENDBRANCH  15  18
BRANCH  17  20
ATOM     20  O   UNL     1      23.562  39.521  25.765  1.00  0.00    -0.504 OA
ATOM     21  H   UNL     1      22.725  39.083  26.122  1.00  0.00     0.293 HD
ENDBRANCH  17  20
ENDBRANCH   1  12
BRANCH   2  22
ATOM     22  O   UNL     1      26.551  38.630  21.954  1.00  0.00    -0.502 OA
ATOM     23  H   UNL     1      26.931  39.203  21.211  1.00  0.00     0.293 HD
ENDBRANCH   2  22
BRANCH   6  24
ATOM     24  O   UNL     1      28.598  34.677  19.028  1.00  0.00    -0.507 OA
ATOM     25  H   UNL     1      28.321  35.553  18.610  1.00  0.00     0.293 HD
ENDBRANCH   6  24
BRANCH   8  26
ATOM     26  O   UNL     1      28.567  31.132  22.266  1.00  0.00    -0.508 OA
ATOM     27  H   UNL     1      28.379  30.389  21.603  1.00  0.00     0.293 HD
ENDBRANCH   8  26
TORSDOF 6
ENDMDL
