MODEL 1
REMARK VINA RESULT:    -6.087      0.000      0.000
REMARK INTER + INTRA:          -7.667
REMARK INTER:                  -7.333
REMARK INTRA:                  -0.334
REMARK UNBOUND:                -0.334
REMARK SMILES O=c1c(O)c(-c2ccc(O)c(O)c2)oc2cc(O)cc(O)c12
REMARK SMILES IDX 5 1 3 2 2 3 1 4 22 5 20 6 19 7 17 8 16 9 15 10 14 11 6 12
REMARK SMILES IDX 7 13 8 14 9 15 13 16 11 17 10 18 12 20 4 22 21 24 18 26
REMARK H PARENT 10 19 12 21 4 23 21 25 18 27
REMARK Flexibility Score: inf
ROOT
ATOM      1  C   UNL     1     141.426 108.415 139.007  1.00  0.00     0.180 A 
ATOM      2  C   UNL     1     141.170 109.793 138.886  1.00  0.00     0.208 A 
ATOM      3  C   UNL     1     142.252 110.687 138.858  1.00  0.00     0.238 A 
ATOM      4  O   UNL     1     142.018 111.914 138.696  1.00  0.00    -0.285 OA
ATOM      5  C   UNL     1     143.574 110.195 138.967  1.00  0.00     0.111 A 
ATOM      6  C   UNL     1     144.744 111.014 138.990  1.00  0.00     0.134 A 
ATOM      7  C   UNL     1     146.008 110.413 138.969  1.00  0.00     0.093 A 
ATOM      8  C   UNL     1     146.146 109.025 138.991  1.00  0.00     0.123 A 
ATOM      9  C   UNL     1     145.010 108.216 139.030  1.00  0.00     0.094 A 
ATOM     10  C   UNL     1     143.735 108.786 139.014  1.00  0.00     0.146 A 
ATOM     11  O   UNL     1     142.680 107.981 139.041  1.00  0.00    -0.452 OA
ENDROOT
BRANCH   1  12
ATOM     12  C   UNL     1     140.337 107.414 139.069  1.00  0.00     0.025 A 
ATOM     13  C   UNL     1     139.751 107.044 140.292  1.00  0.00     0.016 A 
ATOM     14  C   UNL     1     138.741 106.079 140.329  1.00  0.00     0.051 A 
ATOM     15  C   UNL     1     138.312 105.460 139.147  1.00  0.00     0.157 A 
ATOM     16  C   UNL     1     139.917 106.775 137.890  1.00  0.00     0.062 A 
ATOM     17  C   UNL     1     138.904 105.807 137.926  1.00  0.00     0.158 A 
BRANCH  15  18
ATOM     18  O   UNL     1     137.305 104.498 139.180  1.00  0.00    -0.504 OA
ATOM     19  H   UNL     1     136.514 104.537 138.547  1.00  0.00     0.293 HD
ENDBRANCH  15  18
BRANCH  17  20
ATOM     20  O   UNL     1     138.480 105.185 136.753  1.00  0.00    -0.504 OA
ATOM     21  H   UNL     1     138.485 104.178 136.655  1.00  0.00     0.293 HD
ENDBRANCH  17  20
ENDBRANCH   1  12
BRANCH   2  22
ATOM     22  O   UNL     1     139.856 110.255 138.759  1.00  0.00    -0.502 OA
ATOM     23  H   UNL     1     139.472 110.973 139.361  1.00  0.00     0.293 HD
ENDBRANCH   2  22
BRANCH   6  24
ATOM     24  O   UNL     1     144.718 112.410 139.061  1.00  0.00    -0.507 OA
ATOM     25  H   UNL     1     145.182 113.028 138.413  1.00  0.00     0.293 HD
ENDBRANCH   6  24
BRANCH   8  26
ATOM     26  O   UNL     1     147.421 108.462 138.985  1.00  0.00    -0.508 OA
ATOM     27  H   UNL     1     147.992 108.434 139.822  1.00  0.00     0.293 HD
ENDBRANCH   8  26
TORSDOF 6
ENDMDL
MODEL 2
REMARK VINA RESULT:    -6.044      3.510      5.187
REMARK INTER + INTRA:          -7.616
REMARK INTER:                  -7.356
REMARK INTRA:                  -0.260
REMARK UNBOUND:                -0.334
REMARK SMILES O=c1c(O)c(-c2ccc(O)c(O)c2)oc2cc(O)cc(O)c12
REMARK SMILES IDX 5 1 3 2 2 3 1 4 22 5 20 6 19 7 17 8 16 9 15 10 14 11 6 12
REMARK SMILES IDX 7 13 8 14 9 15 13 16 11 17 10 18 12 20 4 22 21 24 18 26
REMARK H PARENT 10 19 12 21 4 23 21 25 18 27
REMARK Flexibility Score: inf
ROOT
ATOM      1  C   UNL     1     142.415 112.908 139.208  1.00  0.00     0.180 A 
ATOM      2  C   UNL     1     141.840 113.842 140.088  1.00  0.00     0.208 A 
ATOM      3  C   UNL     1     142.539 115.025 140.379  1.00  0.00     0.238 A 
ATOM      4  O   UNL     1     141.995 115.881 141.125  1.00  0.00    -0.285 OA
ATOM      5  C   UNL     1     143.811 115.250 139.801  1.00  0.00     0.111 A 
ATOM      6  C   UNL     1     144.626 116.395 140.056  1.00  0.00     0.134 A 
ATOM      7  C   UNL     1     145.808 116.578 139.329  1.00  0.00     0.093 A 
ATOM      8  C   UNL     1     146.237 115.628 138.402  1.00  0.00     0.123 A 
ATOM      9  C   UNL     1     145.478 114.476 138.188  1.00  0.00     0.094 A 
ATOM     10  C   UNL     1     144.276 114.284 138.871  1.00  0.00     0.146 A 
ATOM     11  O   UNL     1     143.579 113.180 138.631  1.00  0.00    -0.452 OA
ENDROOT
BRANCH   1  12
ATOM     12  C   UNL     1     141.750 111.629 138.873  1.00  0.00     0.025 A 
ATOM     13  C   UNL     1     142.207 110.406 139.395  1.00  0.00     0.016 A 
ATOM     14  C   UNL     1     141.579 109.208 139.045  1.00  0.00     0.051 A 
ATOM     15  C   UNL     1     140.493 109.213 138.158  1.00  0.00     0.157 A 
ATOM     16  C   UNL     1     140.675 111.625 137.968  1.00  0.00     0.062 A 
ATOM     17  C   UNL     1     140.042 110.423 137.617  1.00  0.00     0.158 A 
BRANCH  15  18
ATOM     18  O   UNL     1     139.863 108.020 137.808  1.00  0.00    -0.504 OA
ATOM     19  H   UNL     1     139.156 107.601 138.400  1.00  0.00     0.293 HD
ENDBRANCH  15  18
BRANCH  17  20
ATOM     20  O   UNL     1     138.968 110.425 136.730  1.00  0.00    -0.504 OA
ATOM     21  H   UNL     1     138.257 109.704 136.757  1.00  0.00     0.293 HD
ENDBRANCH  17  20
ENDBRANCH   1  12
BRANCH   2  22
ATOM     22  O   UNL     1     140.573 113.608 140.632  1.00  0.00    -0.502 OA
ATOM     23  H   UNL     1     140.344 112.756 141.129  1.00  0.00     0.293 HD
ENDBRANCH   2  22
BRANCH   6  24
ATOM     24  O   UNL     1     144.335 117.358 141.027  1.00  0.00    -0.507 OA
ATOM     25  H   UNL     1     144.755 118.274 141.073  1.00  0.00     0.293 HD
ENDBRANCH   6  24
BRANCH   8  26
ATOM     26  O   UNL     1     147.426 115.835 137.707  1.00  0.00    -0.508 OA
ATOM     27  H   UNL     1     148.109 116.517 138.016  1.00  0.00     0.293 HD
ENDBRANCH   8  26
TORSDOF 6
ENDMDL
MODEL 3
REMARK VINA RESULT:    -5.963      1.532      3.186
REMARK INTER + INTRA:          -7.517
REMARK INTER:                  -7.208
REMARK INTRA:                  -0.309
REMARK UNBOUND:                -0.334
REMARK SMILES O=c1c(O)c(-c2ccc(O)c(O)c2)oc2cc(O)cc(O)c12
REMARK SMILES IDX 5 1 3 2 2 3 1 4 22 5 20 6 19 7 17 8 16 9 15 10 14 11 6 12
REMARK SMILES IDX 7 13 8 14 9 15 13 16 11 17 10 18 12 20 4 22 21 24 18 26
REMARK H PARENT 10 19 12 21 4 23 21 25 18 27
REMARK Flexibility Score: inf
ROOT
ATOM      1  C   UNL     1     140.709 107.811 139.112  1.00  0.00     0.180 A 
ATOM      2  C   UNL     1     142.067 107.471 139.248  1.00  0.00     0.208 A 
ATOM      3  C   UNL     1     143.032 108.489 139.207  1.00  0.00     0.238 A 
ATOM      4  O   UNL     1     144.241 108.184 139.383  1.00  0.00    -0.285 OA
ATOM      5  C   UNL     1     142.630 109.833 139.015  1.00  0.00     0.111 A 
ATOM      6  C   UNL     1     143.526 110.941 138.919  1.00  0.00     0.134 A 
ATOM      7  C   UNL     1     143.011 112.241 138.860  1.00  0.00     0.093 A 
ATOM      8  C   UNL     1     141.636 112.471 138.830  1.00  0.00     0.123 A 
ATOM      9  C   UNL     1     140.752 111.392 138.864  1.00  0.00     0.094 A 
ATOM     10  C   UNL     1     141.235 110.085 138.959  1.00  0.00     0.146 A 
ATOM     11  O   UNL     1     140.361 109.087 138.999  1.00  0.00    -0.452 OA
ENDROOT
BRANCH   1  12
ATOM     12  C   UNL     1     139.637 106.791 139.119  1.00  0.00     0.025 A 
ATOM     13  C   UNL     1     139.111 106.289 140.322  1.00  0.00     0.016 A 
ATOM     14  C   UNL     1     138.116 105.308 140.305  1.00  0.00     0.051 A 
ATOM     15  C   UNL     1     137.642 104.805 139.086  1.00  0.00     0.157 A 
ATOM     16  C   UNL     1     139.172 106.267 137.901  1.00  0.00     0.062 A 
ATOM     17  C   UNL     1     138.173 105.284 137.882  1.00  0.00     0.158 A 
BRANCH  15  18
ATOM     18  O   UNL     1     136.648 103.828 139.064  1.00  0.00    -0.504 OA
ATOM     19  H   UNL     1     136.068 103.680 138.247  1.00  0.00     0.293 HD
ENDBRANCH  15  18
BRANCH  17  20
ATOM     20  O   UNL     1     137.705 104.776 136.671  1.00  0.00    -0.504 OA
ATOM     21  H   UNL     1     137.014 104.037 136.638  1.00  0.00     0.293 HD
ENDBRANCH  17  20
ENDBRANCH   1  12
BRANCH   2  22
ATOM     22  O   UNL     1     142.440 106.139 139.457  1.00  0.00    -0.502 OA
ATOM     23  H   UNL     1     141.900 105.508 140.037  1.00  0.00     0.293 HD
ENDBRANCH   2  22
BRANCH   6  24
ATOM     24  O   UNL     1     144.916 110.816 138.848  1.00  0.00    -0.507 OA
ATOM     25  H   UNL     1     145.468 110.977 138.018  1.00  0.00     0.293 HD
ENDBRANCH   6  24
BRANCH   8  26
ATOM     26  O   UNL     1     141.160 113.779 138.756  1.00  0.00    -0.508 OA
ATOM     27  H   UNL     1     141.749 114.571 138.986  1.00  0.00     0.293 HD
ENDBRANCH   8  26
TORSDOF 6
ENDMDL
MODEL 4
REMARK VINA RESULT:    -5.847      1.617      1.823
REMARK INTER + INTRA:          -7.378
REMARK INTER:                  -7.194
REMARK INTRA:                  -0.184
REMARK UNBOUND:                -0.334
REMARK SMILES O=c1c(O)c(-c2ccc(O)c(O)c2)oc2cc(O)cc(O)c12
REMARK SMILES IDX 5 1 3 2 2 3 1 4 22 5 20 6 19 7 17 8 16 9 15 10 14 11 6 12
REMARK SMILES IDX 7 13 8 14 9 15 13 16 11 17 10 18 12 20 4 22 21 24 18 26
REMARK H PARENT 10 19 12 21 4 23 21 25 18 27
REMARK Flexibility Score: inf
ROOT
ATOM      1  C   UNL     1     141.284 109.485 139.029  1.00  0.00     0.180 A 
ATOM      2  C   UNL     1     140.755 110.638 138.424  1.00  0.00     0.208 A 
ATOM      3  C   UNL     1     141.506 111.825 138.445  1.00  0.00     0.238 A 
ATOM      4  O   UNL     1     141.050 112.839 137.855  1.00  0.00    -0.285 OA
ATOM      5  C   UNL     1     142.769 111.847 139.084  1.00  0.00     0.111 A 
ATOM      6  C   UNL     1     143.598 113.003 139.200  1.00  0.00     0.134 A 
ATOM      7  C   UNL     1     144.885 112.879 139.738  1.00  0.00     0.093 A 
ATOM      8  C   UNL     1     145.348 111.656 140.223  1.00  0.00     0.123 A 
ATOM      9  C   UNL     1     144.523 110.532 140.169  1.00  0.00     0.094 A 
ATOM     10  C   UNL     1     143.248 110.616 139.604  1.00  0.00     0.146 A 
ATOM     11  O   UNL     1     142.499 109.522 139.563  1.00  0.00    -0.452 OA
ENDROOT
BRANCH   1  12
ATOM     12  C   UNL     1     140.541 108.205 139.070  1.00  0.00     0.025 A 
ATOM     13  C   UNL     1     140.086 107.660 140.283  1.00  0.00     0.016 A 
ATOM     14  C   UNL     1     139.408 106.438 140.299  1.00  0.00     0.051 A 
ATOM     15  C   UNL     1     139.186 105.737 139.106  1.00  0.00     0.157 A 
ATOM     16  C   UNL     1     140.335 107.488 137.879  1.00  0.00     0.062 A 
ATOM     17  C   UNL     1     139.653 106.262 137.894  1.00  0.00     0.158 A 
BRANCH  15  18
ATOM     18  O   UNL     1     138.509 104.519 139.118  1.00  0.00    -0.504 OA
ATOM     19  H   UNL     1     138.004 104.186 138.305  1.00  0.00     0.293 HD
ENDBRANCH  15  18
BRANCH  17  20
ATOM     20  O   UNL     1     139.439 105.560 136.710  1.00  0.00    -0.504 OA
ATOM     21  H   UNL     1     138.509 105.283 136.419  1.00  0.00     0.293 HD
ENDBRANCH  17  20
ENDBRANCH   1  12
BRANCH   2  22
ATOM     22  O   UNL     1     139.515 110.589 137.780  1.00  0.00    -0.502 OA
ATOM     23  H   UNL     1     138.725 110.079 138.159  1.00  0.00     0.293 HD
ENDBRANCH   2  22
BRANCH   6  24
ATOM     24  O   UNL     1     143.197 114.291 138.831  1.00  0.00    -0.507 OA
ATOM     25  H   UNL     1     143.687 115.138 139.077  1.00  0.00     0.293 HD
ENDBRANCH   6  24
BRANCH   8  26
ATOM     26  O   UNL     1     146.629 111.573 140.765  1.00  0.00    -0.508 OA
ATOM     27  H   UNL     1     147.177 110.723 140.701  1.00  0.00     0.293 HD
ENDBRANCH   8  26
TORSDOF 6
ENDMDL
MODEL 5
REMARK VINA RESULT:    -5.788      2.807      7.231
REMARK INTER + INTRA:          -7.306
REMARK INTER:                  -7.008
REMARK INTRA:                  -0.299
REMARK UNBOUND:                -0.334
REMARK SMILES O=c1c(O)c(-c2ccc(O)c(O)c2)oc2cc(O)cc(O)c12
REMARK SMILES IDX 5 1 3 2 2 3 1 4 22 5 20 6 19 7 17 8 16 9 15 10 14 11 6 12
REMARK SMILES IDX 7 13 8 14 9 15 13 16 11 17 10 18 12 20 4 22 21 24 18 26
REMARK H PARENT 10 19 12 21 4 23 21 25 18 27
REMARK Flexibility Score: inf
ROOT
ATOM      1  C   UNL     1     142.604 112.233 139.062  1.00  0.00     0.180 A 
ATOM      2  C   UNL     1     141.368 112.165 138.396  1.00  0.00     0.208 A 
ATOM      3  C   UNL     1     140.800 110.907 138.140  1.00  0.00     0.238 A 
ATOM      4  O   UNL     1     139.668 110.855 137.591  1.00  0.00    -0.285 OA
ATOM      5  C   UNL     1     141.482 109.733 138.538  1.00  0.00     0.111 A 
ATOM      6  C   UNL     1     141.019 108.404 138.295  1.00  0.00     0.134 A 
ATOM      7  C   UNL     1     141.709 107.320 138.849  1.00  0.00     0.093 A 
ATOM      8  C   UNL     1     142.880 107.510 139.582  1.00  0.00     0.123 A 
ATOM      9  C   UNL     1     143.375 108.800 139.775  1.00  0.00     0.094 A 
ATOM     10  C   UNL     1     142.688 109.905 139.267  1.00  0.00     0.146 A 
ATOM     11  O   UNL     1     143.186 111.116 139.482  1.00  0.00    -0.452 OA
ENDROOT
BRANCH   1  12
ATOM     12  C   UNL     1     143.277 113.521 139.345  1.00  0.00     0.025 A 
ATOM     13  C   UNL     1     142.904 114.317 140.442  1.00  0.00     0.016 A 
ATOM     14  C   UNL     1     143.537 115.541 140.676  1.00  0.00     0.051 A 
ATOM     15  C   UNL     1     144.541 115.994 139.809  1.00  0.00     0.157 A 
ATOM     16  C   UNL     1     144.269 113.990 138.468  1.00  0.00     0.062 A 
ATOM     17  C   UNL     1     144.906 115.218 138.701  1.00  0.00     0.158 A 
BRANCH  15  18
ATOM     18  O   UNL     1     145.175 117.213 140.039  1.00  0.00    -0.504 OA
ATOM     19  H   UNL     1     145.677 117.696 139.304  1.00  0.00     0.293 HD
ENDBRANCH  15  18
BRANCH  17  20
ATOM     20  O   UNL     1     145.899 115.673 137.837  1.00  0.00    -0.504 OA
ATOM     21  H   UNL     1     146.036 116.661 137.659  1.00  0.00     0.293 HD
ENDBRANCH  17  20
ENDBRANCH   1  12
BRANCH   2  22
ATOM     22  O   UNL     1     140.702 113.339 138.030  1.00  0.00    -0.502 OA
ATOM     23  H   UNL     1     140.754 114.188 138.580  1.00  0.00     0.293 HD
ENDBRANCH   2  22
BRANCH   6  24
ATOM     24  O   UNL     1     139.911 108.098 137.499  1.00  0.00    -0.507 OA
ATOM     25  H   UNL     1     139.912 107.427 136.745  1.00  0.00     0.293 HD
ENDBRANCH   6  24
BRANCH   8  26
ATOM     26  O   UNL     1     143.550 106.406 140.106  1.00  0.00    -0.508 OA
ATOM     27  H   UNL     1     143.424 106.118 141.069  1.00  0.00     0.293 HD
ENDBRANCH   8  26
TORSDOF 6
ENDMDL
MODEL 6
REMARK VINA RESULT:    -5.754      4.627      9.615
REMARK INTER + INTRA:          -7.265
REMARK INTER:                  -7.147
REMARK INTRA:                  -0.118
REMARK UNBOUND:                -0.334
REMARK SMILES O=c1c(O)c(-c2ccc(O)c(O)c2)oc2cc(O)cc(O)c12
REMARK SMILES IDX 5 1 3 2 2 3 1 4 22 5 20 6 19 7 17 8 16 9 15 10 14 11 6 12
REMARK SMILES IDX 7 13 8 14 9 15 13 16 11 17 10 18 12 20 4 22 21 24 18 26
REMARK H PARENT 10 19 12 21 4 23 21 25 18 27
REMARK Flexibility Score: inf
ROOT
ATOM      1  C   UNL     1     145.204 114.986 139.162  1.00  0.00     0.180 A 
ATOM      2  C   UNL     1     144.431 115.840 139.968  1.00  0.00     0.208 A 
ATOM      3  C   UNL     1     143.142 115.434 140.351  1.00  0.00     0.238 A 
ATOM      4  O   UNL     1     142.476 116.180 141.117  1.00  0.00    -0.285 OA
ATOM      5  C   UNL     1     142.637 114.188 139.910  1.00  0.00     0.111 A 
ATOM      6  C   UNL     1     141.330 113.693 140.205  1.00  0.00     0.134 A 
ATOM      7  C   UNL     1     140.983 112.390 139.828  1.00  0.00     0.093 A 
ATOM      8  C   UNL     1     141.871 111.588 139.111  1.00  0.00     0.123 A 
ATOM      9  C   UNL     1     143.129 112.083 138.766  1.00  0.00     0.094 A 
ATOM     10  C   UNL     1     143.517 113.365 139.160  1.00  0.00     0.146 A 
ATOM     11  O   UNL     1     144.726 113.795 138.821  1.00  0.00    -0.452 OA
ENDROOT
BRANCH   1  12
ATOM     12  C   UNL     1     146.560 115.355 138.697  1.00  0.00     0.025 A 
ATOM     13  C   UNL     1     147.692 114.616 139.081  1.00  0.00     0.016 A 
ATOM     14  C   UNL     1     148.965 114.998 138.650  1.00  0.00     0.051 A 
ATOM     15  C   UNL     1     149.127 116.131 137.841  1.00  0.00     0.157 A 
ATOM     16  C   UNL     1     146.730 116.502 137.904  1.00  0.00     0.062 A 
ATOM     17  C   UNL     1     148.007 116.886 137.469  1.00  0.00     0.158 A 
BRANCH  15  18
ATOM     18  O   UNL     1     150.395 116.514 137.408  1.00  0.00    -0.504 OA
ATOM     19  H   UNL     1     150.519 117.166 136.643  1.00  0.00     0.293 HD
ENDBRANCH  15  18
BRANCH  17  20
ATOM     20  O   UNL     1     148.171 118.015 136.671  1.00  0.00    -0.504 OA
ATOM     21  H   UNL     1     147.475 118.288 135.988  1.00  0.00     0.293 HD
ENDBRANCH  17  20
ENDBRANCH   1  12
BRANCH   2  22
ATOM     22  O   UNL     1     144.957 117.058 140.409  1.00  0.00    -0.502 OA
ATOM     23  H   UNL     1     144.594 117.952 140.100  1.00  0.00     0.293 HD
ENDBRANCH   2  22
BRANCH   6  24
ATOM     24  O   UNL     1     140.335 114.446 140.836  1.00  0.00    -0.507 OA
ATOM     25  H   UNL     1     139.400 114.119 141.027  1.00  0.00     0.293 HD
ENDBRANCH   6  24
BRANCH   8  26
ATOM     26  O   UNL     1     141.486 110.302 138.739  1.00  0.00    -0.508 OA
ATOM     27  H   UNL     1     142.169 109.569 138.581  1.00  0.00     0.293 HD
ENDBRANCH   8  26
TORSDOF 6
ENDMDL
MODEL 7
REMARK VINA RESULT:    -5.606      2.421      7.097
REMARK INTER + INTRA:          -7.088
REMARK INTER:                  -6.823
REMARK INTRA:                  -0.265
REMARK UNBOUND:                -0.334
REMARK SMILES O=c1c(O)c(-c2ccc(O)c(O)c2)oc2cc(O)cc(O)c12
REMARK SMILES IDX 5 1 3 2 2 3 1 4 22 5 20 6 19 7 17 8 16 9 15 10 14 11 6 12
REMARK SMILES IDX 7 13 8 14 9 15 13 16 11 17 10 18 12 20 4 22 21 24 18 26
REMARK H PARENT 10 19 12 21 4 23 21 25 18 27
REMARK Flexibility Score: inf
ROOT
ATOM      1  C   UNL     1     143.171 110.841 139.441  1.00  0.00     0.180 A 
ATOM      2  C   UNL     1     144.136 110.013 140.041  1.00  0.00     0.208 A 
ATOM      3  C   UNL     1     143.937 108.623 140.040  1.00  0.00     0.238 A 
ATOM      4  O   UNL     1     144.831 107.884 140.530  1.00  0.00    -0.285 OA
ATOM      5  C   UNL     1     142.769 108.080 139.454  1.00  0.00     0.111 A 
ATOM      6  C   UNL     1     142.446 106.689 139.430  1.00  0.00     0.134 A 
ATOM      7  C   UNL     1     141.328 106.252 138.709  1.00  0.00     0.093 A 
ATOM      8  C   UNL     1     140.487 107.159 138.064  1.00  0.00     0.123 A 
ATOM      9  C   UNL     1     140.761 108.525 138.131  1.00  0.00     0.094 A 
ATOM     10  C   UNL     1     141.888 108.989 138.812  1.00  0.00     0.146 A 
ATOM     11  O   UNL     1     142.119 110.296 138.842  1.00  0.00    -0.452 OA
ENDROOT
BRANCH   1  12
ATOM     12  C   UNL     1     143.298 112.316 139.425  1.00  0.00     0.025 A 
ATOM     13  C   UNL     1     142.515 113.128 140.264  1.00  0.00     0.016 A 
ATOM     14  C   UNL     1     142.635 114.519 140.214  1.00  0.00     0.051 A 
ATOM     15  C   UNL     1     143.529 115.120 139.317  1.00  0.00     0.157 A 
ATOM     16  C   UNL     1     144.177 112.924 138.513  1.00  0.00     0.062 A 
ATOM     17  C   UNL     1     144.300 114.320 138.463  1.00  0.00     0.158 A 
BRANCH  15  18
ATOM     18  O   UNL     1     143.653 116.507 139.266  1.00  0.00    -0.504 OA
ATOM     19  H   UNL     1     143.744 117.062 140.108  1.00  0.00     0.293 HD
ENDBRANCH  15  18
BRANCH  17  20
ATOM     20  O   UNL     1     145.182 114.919 137.567  1.00  0.00    -0.504 OA
ATOM     21  H   UNL     1     145.555 115.847 137.730  1.00  0.00     0.293 HD
ENDBRANCH  17  20
ENDBRANCH   1  12
BRANCH   2  22
ATOM     22  O   UNL     1     145.293 110.570 140.596  1.00  0.00    -0.502 OA
ATOM     23  H   UNL     1     146.094 110.831 140.034  1.00  0.00     0.293 HD
ENDBRANCH   2  22
BRANCH   6  24
ATOM     24  O   UNL     1     143.167 105.709 140.118  1.00  0.00    -0.507 OA
ATOM     25  H   UNL     1     143.836 105.083 139.694  1.00  0.00     0.293 HD
ENDBRANCH   6  24
BRANCH   8  26
ATOM     26  O   UNL     1     139.376 106.689 137.368  1.00  0.00    -0.508 OA
ATOM     27  H   UNL     1     139.368 106.634 136.356  1.00  0.00     0.293 HD
ENDBRANCH   8  26
TORSDOF 6
ENDMDL
MODEL 8
REMARK VINA RESULT:    -5.520      3.354      5.495
REMARK INTER + INTRA:          -6.984
REMARK INTER:                  -6.660
REMARK INTRA:                  -0.324
REMARK UNBOUND:                -0.334
REMARK SMILES O=c1c(O)c(-c2ccc(O)c(O)c2)oc2cc(O)cc(O)c12
REMARK SMILES IDX 5 1 3 2 2 3 1 4 22 5 20 6 19 7 17 8 16 9 15 10 14 11 6 12
REMARK SMILES IDX 7 13 8 14 9 15 13 16 11 17 10 18 12 20 4 22 21 24 18 26
REMARK H PARENT 10 19 12 21 4 23 21 25 18 27
REMARK Flexibility Score: inf
ROOT
ATOM      1  C   UNL     1     143.329 109.907 139.951  1.00  0.00     0.180 A 
ATOM      2  C   UNL     1     142.661 108.775 140.450  1.00  0.00     0.208 A 
ATOM      3  C   UNL     1     143.345 107.550 140.506  1.00  0.00     0.238 A 
ATOM      4  O   UNL     1     142.759 106.553 141.004  1.00  0.00    -0.285 OA
ATOM      5  C   UNL     1     144.682 107.469 140.049  1.00  0.00     0.111 A 
ATOM      6  C   UNL     1     145.458 106.271 140.023  1.00  0.00     0.134 A 
ATOM      7  C   UNL     1     146.813 106.333 139.673  1.00  0.00     0.093 A 
ATOM      8  C   UNL     1     147.402 107.536 139.286  1.00  0.00     0.123 A 
ATOM      9  C   UNL     1     146.637 108.703 139.250  1.00  0.00     0.094 A 
ATOM     10  C   UNL     1     145.293 108.680 139.629  1.00  0.00     0.146 A 
ATOM     11  O   UNL     1     144.603 109.813 139.591  1.00  0.00    -0.452 OA
ENDROOT
BRANCH   1  12
ATOM     12  C   UNL     1     142.666 111.226 139.837  1.00  0.00     0.025 A 
ATOM     13  C   UNL     1     142.682 112.148 140.898  1.00  0.00     0.016 A 
ATOM     14  C   UNL     1     142.028 113.377 140.776  1.00  0.00     0.051 A 
ATOM     15  C   UNL     1     141.339 113.698 139.599  1.00  0.00     0.157 A 
ATOM     16  C   UNL     1     141.955 111.544 138.667  1.00  0.00     0.062 A 
ATOM     17  C   UNL     1     141.300 112.778 138.544  1.00  0.00     0.158 A 
BRANCH  15  18
ATOM     18  O   UNL     1     140.687 114.923 139.474  1.00  0.00    -0.504 OA
ATOM     19  H   UNL     1     139.690 114.978 139.301  1.00  0.00     0.293 HD
ENDBRANCH  15  18
BRANCH  17  20
ATOM     20  O   UNL     1     140.608 113.095 137.377  1.00  0.00    -0.504 OA
ATOM     21  H   UNL     1     141.067 113.108 136.475  1.00  0.00     0.293 HD
ENDBRANCH  17  20
ENDBRANCH   1  12
BRANCH   2  22
ATOM     22  O   UNL     1     141.347 108.883 140.915  1.00  0.00    -0.502 OA
ATOM     23  H   UNL     1     141.004 109.709 141.391  1.00  0.00     0.293 HD
ENDBRANCH   2  22
BRANCH   6  24
ATOM     24  O   UNL     1     144.944 105.002 140.303  1.00  0.00    -0.507 OA
ATOM     25  H   UNL     1     144.240 104.807 141.000  1.00  0.00     0.293 HD
ENDBRANCH   6  24
BRANCH   8  26
ATOM     26  O   UNL     1     148.749 107.558 138.929  1.00  0.00    -0.508 OA
ATOM     27  H   UNL     1     149.481 107.414 139.615  1.00  0.00     0.293 HD
ENDBRANCH   8  26
TORSDOF 6
ENDMDL
MODEL 9
REMARK VINA RESULT:    -4.214      2.795      4.302
REMARK INTER + INTRA:          -5.411
REMARK INTER:                  -5.174
REMARK INTRA:                  -0.236
REMARK UNBOUND:                -0.334
REMARK SMILES O=c1c(O)c(-c2ccc(O)c(O)c2)oc2cc(O)cc(O)c12
REMARK SMILES IDX 5 1 3 2 2 3 1 4 22 5 20 6 19 7 17 8 16 9 15 10 14 11 6 12
REMARK SMILES IDX 7 13 8 14 9 15 13 16 11 17 10 18 12 20 4 22 21 24 18 26
REMARK H PARENT 10 19 12 21 4 23 21 25 18 27
REMARK Flexibility Score: inf
ROOT
ATOM      1  C   UNL     1     141.908 111.171 139.265  1.00  0.00     0.180 A 
ATOM      2  C   UNL     1     141.047 111.885 140.116  1.00  0.00     0.208 A 
ATOM      3  C   UNL     1     141.335 113.229 140.405  1.00  0.00     0.238 A 
ATOM      4  O   UNL     1     140.531 113.878 141.125  1.00  0.00    -0.285 OA
ATOM      5  C   UNL     1     142.489 113.836 139.853  1.00  0.00     0.111 A 
ATOM      6  C   UNL     1     142.899 115.179 140.110  1.00  0.00     0.134 A 
ATOM      7  C   UNL     1     143.984 115.716 139.408  1.00  0.00     0.093 A 
ATOM      8  C   UNL     1     144.713 114.941 138.506  1.00  0.00     0.123 A 
ATOM      9  C   UNL     1     144.357 113.609 138.292  1.00  0.00     0.094 A 
ATOM     10  C   UNL     1     143.257 113.056 138.950  1.00  0.00     0.146 A 
ATOM     11  O   UNL     1     142.945 111.788 138.711  1.00  0.00    -0.452 OA
ENDROOT
BRANCH   1  12
ATOM     12  C   UNL     1     141.684 109.745 138.934  1.00  0.00     0.025 A 
ATOM     13  C   UNL     1     140.641 109.346 138.080  1.00  0.00     0.016 A 
ATOM     14  C   UNL     1     140.433 107.993 137.801  1.00  0.00     0.051 A 
ATOM     15  C   UNL     1     141.255 107.018 138.382  1.00  0.00     0.157 A 
ATOM     16  C   UNL     1     142.492 108.762 139.529  1.00  0.00     0.062 A 
ATOM     17  C   UNL     1     142.285 107.403 139.250  1.00  0.00     0.158 A 
BRANCH  15  18
ATOM     18  O   UNL     1     141.053 105.668 138.105  1.00  0.00    -0.504 OA
ATOM     19  H   UNL     1     141.590 104.945 138.570  1.00  0.00     0.293 HD
ENDBRANCH  15  18
BRANCH  17  20
ATOM     20  O   UNL     1     143.097 106.432 139.831  1.00  0.00    -0.504 OA
ATOM     21  H   UNL     1     144.105 106.530 139.859  1.00  0.00     0.293 HD
ENDBRANCH  17  20
ENDBRANCH   1  12
BRANCH   2  22
ATOM     22  O   UNL     1     139.902 111.272 140.634  1.00  0.00    -0.502 OA
ATOM     23  H   UNL     1     139.741 110.274 140.565  1.00  0.00     0.293 HD
ENDBRANCH   2  22
BRANCH   6  24
ATOM     24  O   UNL     1     142.297 116.011 141.059  1.00  0.00    -0.507 OA
ATOM     25  H   UNL     1     141.335 116.313 141.031  1.00  0.00     0.293 HD
ENDBRANCH   6  24
BRANCH   8  26
ATOM     26  O   UNL     1     145.797 115.504 137.836  1.00  0.00    -0.508 OA
ATOM     27  H   UNL     1     145.670 116.074 137.007  1.00  0.00     0.293 HD
ENDBRANCH   8  26
TORSDOF 6
ENDMDL
