MODEL 1
REMARK VINA RESULT:    -6.238      0.000      0.000
REMARK INTER + INTRA:          -7.565
REMARK INTER:                  -7.332
REMARK INTRA:                  -0.232
REMARK UNBOUND:                -0.232
REMARK SMILES O=c1c(O)c(-c2ccc(O)cc2)oc2cc(O)cc(O)c12
REMARK SMILES IDX 5 1 3 2 2 3 1 4 21 5 19 6 18 7 16 8 15 9 14 10 13 11 6 12
REMARK SMILES IDX 7 13 8 14 9 15 12 16 11 17 10 18 4 20 20 22 17 24
REMARK H PARENT 10 19 4 21 20 23 17 25
REMARK Flexibility Score: inf
ROOT
ATOM      1  C   UNL     1       8.669  -6.568   5.849  1.00  0.00     0.180 A 
ATOM      2  C   UNL     1       7.860  -7.690   6.094  1.00  0.00     0.208 A 
ATOM      3  C   UNL     1       7.708  -8.654   5.084  1.00  0.00     0.238 A 
ATOM      4  O   UNL     1       6.924  -9.617   5.282  1.00  0.00    -0.285 OA
ATOM      5  C   UNL     1       8.414  -8.513   3.863  1.00  0.00     0.111 A 
ATOM      6  C   UNL     1       8.370  -9.452   2.787  1.00  0.00     0.134 A 
ATOM      7  C   UNL     1       9.024  -9.154   1.586  1.00  0.00     0.093 A 
ATOM      8  C   UNL     1       9.773  -7.984   1.443  1.00  0.00     0.123 A 
ATOM      9  C   UNL     1       9.866  -7.088   2.505  1.00  0.00     0.094 A 
ATOM     10  C   UNL     1       9.193  -7.338   3.703  1.00  0.00     0.146 A 
ATOM     11  O   UNL     1       9.292  -6.446   4.682  1.00  0.00    -0.452 OA
ENDROOT
BRANCH   1  12
ATOM     12  C   UNL     1       8.866  -5.503   6.858  1.00  0.00     0.021 A 
ATOM     13  C   UNL     1       7.851  -4.574   7.152  1.00  0.00     0.016 A 
ATOM     14  C   UNL     1       8.070  -3.561   8.091  1.00  0.00     0.047 A 
ATOM     15  C   UNL     1       9.309  -3.456   8.737  1.00  0.00     0.115 A 
ATOM     16  C   UNL     1      10.112  -5.376   7.496  1.00  0.00     0.016 A 
ATOM     17  C   UNL     1      10.328  -4.364   8.435  1.00  0.00     0.047 A 
BRANCH  15  18
ATOM     18  O   UNL     1       9.537  -2.452   9.676  1.00  0.00    -0.508 OA
ATOM     19  H   UNL     1      10.454  -2.039   9.798  1.00  0.00     0.293 HD
ENDBRANCH  15  18
ENDBRANCH   1  12
BRANCH   2  20
ATOM     20  O   UNL     1       7.234  -7.849   7.333  1.00  0.00    -0.502 OA
ATOM     21  H   UNL     1       7.443  -7.257   8.128  1.00  0.00     0.293 HD
ENDBRANCH   2  20
BRANCH   6  22
ATOM     22  O   UNL     1       7.727 -10.691   2.854  1.00  0.00    -0.507 OA
ATOM     23  H   UNL     1       6.979 -10.920   3.491  1.00  0.00     0.293 HD
ENDBRANCH   6  22
BRANCH   8  24
ATOM     24  O   UNL     1      10.435  -7.704   0.249  1.00  0.00    -0.508 OA
ATOM     25  H   UNL     1      11.415  -7.926   0.122  1.00  0.00     0.293 HD
ENDBRANCH   8  24
TORSDOF 5
ENDMDL
MODEL 2
REMARK VINA RESULT:    -6.102      1.774      6.521
REMARK INTER + INTRA:          -7.404
REMARK INTER:                  -7.168
REMARK INTRA:                  -0.236
REMARK UNBOUND:                -0.232
REMARK SMILES O=c1c(O)c(-c2ccc(O)cc2)oc2cc(O)cc(O)c12
REMARK SMILES IDX 5 1 3 2 2 3 1 4 21 5 19 6 18 7 16 8 15 9 14 10 13 11 6 12
REMARK SMILES IDX 7 13 8 14 9 15 12 16 11 17 10 18 4 20 20 22 17 24
REMARK H PARENT 10 19 4 21 20 23 17 25
REMARK Flexibility Score: inf
ROOT
ATOM      1  C   UNL     1       8.700  -6.733   5.861  1.00  0.00     0.180 A 
ATOM      2  C   UNL     1       8.534  -7.803   6.757  1.00  0.00     0.208 A 
ATOM      3  C   UNL     1       8.613  -7.555   8.136  1.00  0.00     0.238 A 
ATOM      4  O   UNL     1       8.538  -8.528   8.929  1.00  0.00    -0.285 OA
ATOM      5  C   UNL     1       8.799  -6.231   8.605  1.00  0.00     0.111 A 
ATOM      6  C   UNL     1       8.849  -5.857   9.983  1.00  0.00     0.134 A 
ATOM      7  C   UNL     1       9.146  -4.532  10.327  1.00  0.00     0.093 A 
ATOM      8  C   UNL     1       9.329  -3.555   9.346  1.00  0.00     0.123 A 
ATOM      9  C   UNL     1       9.229  -3.900   8.000  1.00  0.00     0.094 A 
ATOM     10  C   UNL     1       8.973  -5.220   7.624  1.00  0.00     0.146 A 
ATOM     11  O   UNL     1       8.906  -5.508   6.329  1.00  0.00    -0.452 OA
ENDROOT
BRANCH   1  12
ATOM     12  C   UNL     1       8.645  -6.918   4.393  1.00  0.00     0.021 A 
ATOM     13  C   UNL     1       7.498  -6.575   3.654  1.00  0.00     0.016 A 
ATOM     14  C   UNL     1       7.460  -6.783   2.271  1.00  0.00     0.047 A 
ATOM     15  C   UNL     1       8.561  -7.348   1.614  1.00  0.00     0.115 A 
ATOM     16  C   UNL     1       9.734  -7.504   3.728  1.00  0.00     0.016 A 
ATOM     17  C   UNL     1       9.695  -7.710   2.346  1.00  0.00     0.047 A 
BRANCH  15  18
ATOM     18  O   UNL     1       8.534  -7.558   0.236  1.00  0.00    -0.508 OA
ATOM     19  H   UNL     1       9.246  -7.173  -0.372  1.00  0.00     0.293 HD
ENDBRANCH  15  18
ENDBRANCH   1  12
BRANCH   2  20
ATOM     20  O   UNL     1       8.274  -9.089   6.276  1.00  0.00    -0.502 OA
ATOM     21  H   UNL     1       8.974  -9.821   6.274  1.00  0.00     0.293 HD
ENDBRANCH   2  20
BRANCH   6  22
ATOM     22  O   UNL     1       8.593  -6.732  11.042  1.00  0.00    -0.507 OA
ATOM     23  H   UNL     1       9.300  -7.190  11.597  1.00  0.00     0.293 HD
ENDBRANCH   6  22
BRANCH   8  24
ATOM     24  O   UNL     1       9.607  -2.236   9.698  1.00  0.00    -0.508 OA
ATOM     25  H   UNL     1       9.150  -1.458   9.238  1.00  0.00     0.293 HD
ENDBRANCH   8  24
TORSDOF 5
ENDMDL
MODEL 3
REMARK VINA RESULT:    -6.074      1.781      6.598
REMARK INTER + INTRA:          -7.371
REMARK INTER:                  -7.106
REMARK INTRA:                  -0.266
REMARK UNBOUND:                -0.232
REMARK SMILES O=c1c(O)c(-c2ccc(O)cc2)oc2cc(O)cc(O)c12
REMARK SMILES IDX 5 1 3 2 2 3 1 4 21 5 19 6 18 7 16 8 15 9 14 10 13 11 6 12
REMARK SMILES IDX 7 13 8 14 9 15 12 16 11 17 10 18 4 20 20 22 17 24
REMARK H PARENT 10 19 4 21 20 23 17 25
REMARK Flexibility Score: inf
ROOT
ATOM      1  C   UNL     1       8.711  -6.809   5.907  1.00  0.00     0.180 A 
ATOM      2  C   UNL     1       8.515  -7.864   6.815  1.00  0.00     0.208 A 
ATOM      3  C   UNL     1       8.570  -7.596   8.192  1.00  0.00     0.238 A 
ATOM      4  O   UNL     1       8.468  -8.556   8.998  1.00  0.00    -0.285 OA
ATOM      5  C   UNL     1       8.761  -6.267   8.645  1.00  0.00     0.111 A 
ATOM      6  C   UNL     1       8.789  -5.873  10.018  1.00  0.00     0.134 A 
ATOM      7  C   UNL     1       9.094  -4.547  10.348  1.00  0.00     0.093 A 
ATOM      8  C   UNL     1       9.307  -3.587   9.357  1.00  0.00     0.123 A 
ATOM      9  C   UNL     1       9.229  -3.950   8.015  1.00  0.00     0.094 A 
ATOM     10  C   UNL     1       8.966  -5.273   7.653  1.00  0.00     0.146 A 
ATOM     11  O   UNL     1       8.921  -5.579   6.361  1.00  0.00    -0.452 OA
ENDROOT
BRANCH   1  12
ATOM     12  C   UNL     1       8.682  -7.015   4.441  1.00  0.00     0.021 A 
ATOM     13  C   UNL     1       9.784  -7.557   3.755  1.00  0.00     0.016 A 
ATOM     14  C   UNL     1       9.742  -7.718   2.367  1.00  0.00     0.047 A 
ATOM     15  C   UNL     1       8.605  -7.329   1.646  1.00  0.00     0.115 A 
ATOM     16  C   UNL     1       7.555  -6.607   3.708  1.00  0.00     0.016 A 
ATOM     17  C   UNL     1       7.515  -6.771   2.320  1.00  0.00     0.047 A 
BRANCH  15  18
ATOM     18  O   UNL     1       8.552  -7.486   0.263  1.00  0.00    -0.508 OA
ATOM     19  H   UNL     1       9.184  -8.112  -0.223  1.00  0.00     0.293 HD
ENDBRANCH  15  18
ENDBRANCH   1  12
BRANCH   2  20
ATOM     20  O   UNL     1       8.250  -9.154   6.348  1.00  0.00    -0.502 OA
ATOM     21  H   UNL     1       8.032  -9.347   5.378  1.00  0.00     0.293 HD
ENDBRANCH   2  20
BRANCH   6  22
ATOM     22  O   UNL     1       8.503  -6.729  11.084  1.00  0.00    -0.507 OA
ATOM     23  H   UNL     1       7.712  -6.636  11.704  1.00  0.00     0.293 HD
ENDBRANCH   6  22
BRANCH   8  24
ATOM     24  O   UNL     1       9.593  -2.266   9.695  1.00  0.00    -0.508 OA
ATOM     25  H   UNL     1      10.535  -1.968   9.919  1.00  0.00     0.293 HD
ENDBRANCH   8  24
TORSDOF 5
ENDMDL
MODEL 4
REMARK VINA RESULT:    -5.233      2.082      2.614
REMARK INTER + INTRA:          -6.384
REMARK INTER:                  -6.121
REMARK INTRA:                  -0.263
REMARK UNBOUND:                -0.232
REMARK SMILES O=c1c(O)c(-c2ccc(O)cc2)oc2cc(O)cc(O)c12
REMARK SMILES IDX 5 1 3 2 2 3 1 4 21 5 19 6 18 7 16 8 15 9 14 10 13 11 6 12
REMARK SMILES IDX 7 13 8 14 9 15 12 16 11 17 10 18 4 20 20 22 17 24
REMARK H PARENT 10 19 4 21 20 23 17 25
REMARK Flexibility Score: inf
ROOT
ATOM      1  C   UNL     1       8.622  -7.186   5.308  1.00  0.00     0.180 A 
ATOM      2  C   UNL     1       7.760  -6.482   4.450  1.00  0.00     0.208 A 
ATOM      3  C   UNL     1       7.722  -6.826   3.089  1.00  0.00     0.238 A 
ATOM      4  O   UNL     1       7.004  -6.144   2.314  1.00  0.00    -0.285 OA
ATOM      5  C   UNL     1       8.505  -7.907   2.613  1.00  0.00     0.111 A 
ATOM      6  C   UNL     1       8.512  -8.372   1.262  1.00  0.00     0.134 A 
ATOM      7  C   UNL     1       9.407  -9.380   0.885  1.00  0.00     0.093 A 
ATOM      8  C   UNL     1      10.249  -9.985   1.821  1.00  0.00     0.123 A 
ATOM      9  C   UNL     1      10.211  -9.576   3.152  1.00  0.00     0.094 A 
ATOM     10  C   UNL     1       9.357  -8.546   3.552  1.00  0.00     0.146 A 
ATOM     11  O   UNL     1       9.369  -8.174   4.826  1.00  0.00    -0.452 OA
ENDROOT
BRANCH   1  12
ATOM     12  C   UNL     1       8.728  -6.872   6.751  1.00  0.00     0.021 A 
ATOM     13  C   UNL     1       8.013  -7.607   7.714  1.00  0.00     0.016 A 
ATOM     14  C   UNL     1       8.109  -7.275   9.070  1.00  0.00     0.047 A 
ATOM     15  C   UNL     1       8.909  -6.199   9.476  1.00  0.00     0.115 A 
ATOM     16  C   UNL     1       9.510  -5.782   7.166  1.00  0.00     0.016 A 
ATOM     17  C   UNL     1       9.605  -5.453   8.521  1.00  0.00     0.047 A 
BRANCH  15  18
ATOM     18  O   UNL     1       9.012  -5.861  10.824  1.00  0.00    -0.508 OA
ATOM     19  H   UNL     1       9.682  -6.314  11.434  1.00  0.00     0.293 HD
ENDBRANCH  15  18
ENDBRANCH   1  12
BRANCH   2  20
ATOM     20  O   UNL     1       6.938  -5.470   4.954  1.00  0.00    -0.502 OA
ATOM     21  H   UNL     1       6.791  -5.333   5.946  1.00  0.00     0.293 HD
ENDBRANCH   2  20
BRANCH   6  22
ATOM     22  O   UNL     1       7.651  -7.901   0.268  1.00  0.00    -0.507 OA
ATOM     23  H   UNL     1       7.456  -8.376  -0.600  1.00  0.00     0.293 HD
ENDBRANCH   6  22
BRANCH   8  24
ATOM     24  O   UNL     1      11.124 -11.000   1.439  1.00  0.00    -0.508 OA
ATOM     25  H   UNL     1      11.596 -11.578   2.125  1.00  0.00     0.293 HD
ENDBRANCH   8  24
TORSDOF 5
ENDMDL
MODEL 5
REMARK VINA RESULT:    -5.192      2.730      6.911
REMARK INTER + INTRA:          -6.335
REMARK INTER:                  -6.084
REMARK INTRA:                  -0.251
REMARK UNBOUND:                -0.232
REMARK SMILES O=c1c(O)c(-c2ccc(O)cc2)oc2cc(O)cc(O)c12
REMARK SMILES IDX 5 1 3 2 2 3 1 4 21 5 19 6 18 7 16 8 15 9 14 10 13 11 6 12
REMARK SMILES IDX 7 13 8 14 9 15 12 16 11 17 10 18 4 20 20 22 17 24
REMARK H PARENT 10 19 4 21 20 23 17 25
REMARK Flexibility Score: inf
ROOT
ATOM      1  C   UNL     1       8.552  -8.839   5.307  1.00  0.00     0.180 A 
ATOM      2  C   UNL     1       7.492  -8.006   5.702  1.00  0.00     0.208 A 
ATOM      3  C   UNL     1       7.345  -7.687   7.061  1.00  0.00     0.238 A 
ATOM      4  O   UNL     1       6.352  -7.003   7.416  1.00  0.00    -0.285 OA
ATOM      5  C   UNL     1       8.295  -8.157   8.002  1.00  0.00     0.111 A 
ATOM      6  C   UNL     1       8.270  -7.858   9.399  1.00  0.00     0.134 A 
ATOM      7  C   UNL     1       9.201  -8.468  10.250  1.00  0.00     0.093 A 
ATOM      8  C   UNL     1      10.193  -9.312   9.748  1.00  0.00     0.123 A 
ATOM      9  C   UNL     1      10.258  -9.567   8.381  1.00  0.00     0.094 A 
ATOM     10  C   UNL     1       9.321  -9.005   7.510  1.00  0.00     0.146 A 
ATOM     11  O   UNL     1       9.408  -9.292   6.217  1.00  0.00    -0.452 OA
ENDROOT
BRANCH   1  12
ATOM     12  C   UNL     1       8.764  -9.231   3.895  1.00  0.00     0.021 A 
ATOM     13  C   UNL     1       9.344  -8.347   2.968  1.00  0.00     0.016 A 
ATOM     14  C   UNL     1       9.510  -8.732   1.633  1.00  0.00     0.047 A 
ATOM     15  C   UNL     1       9.086  -9.997   1.207  1.00  0.00     0.115 A 
ATOM     16  C   UNL     1       8.322 -10.490   3.454  1.00  0.00     0.016 A 
ATOM     17  C   UNL     1       8.490 -10.872   2.120  1.00  0.00     0.047 A 
BRANCH  15  18
ATOM     18  O   UNL     1       9.248 -10.390  -0.120  1.00  0.00    -0.508 OA
ATOM     19  H   UNL     1       9.548  -9.737  -0.833  1.00  0.00     0.293 HD
ENDBRANCH  15  18
ENDBRANCH   1  12
BRANCH   2  20
ATOM     20  O   UNL     1       6.611  -7.490   4.748  1.00  0.00    -0.502 OA
ATOM     21  H   UNL     1       5.872  -6.839   4.985  1.00  0.00     0.293 HD
ENDBRANCH   2  20
BRANCH   6  22
ATOM     22  O   UNL     1       7.380  -6.960   9.992  1.00  0.00    -0.507 OA
ATOM     23  H   UNL     1       6.561  -6.578   9.545  1.00  0.00     0.293 HD
ENDBRANCH   6  22
BRANCH   8  24
ATOM     24  O   UNL     1      11.125  -9.900  10.601  1.00  0.00    -0.508 OA
ATOM     25  H   UNL     1      10.849 -10.309  11.486  1.00  0.00     0.293 HD
ENDBRANCH   8  24
TORSDOF 5
ENDMDL
MODEL 6
REMARK VINA RESULT:    -4.758      2.093      6.816
REMARK INTER + INTRA:          -5.825
REMARK INTER:                  -5.656
REMARK INTRA:                  -0.169
REMARK UNBOUND:                -0.232
REMARK SMILES O=c1c(O)c(-c2ccc(O)cc2)oc2cc(O)cc(O)c12
REMARK SMILES IDX 5 1 3 2 2 3 1 4 21 5 19 6 18 7 16 8 15 9 14 10 13 11 6 12
REMARK SMILES IDX 7 13 8 14 9 15 12 16 11 17 10 18 4 20 20 22 17 24
REMARK H PARENT 10 19 4 21 20 23 17 25
REMARK Flexibility Score: inf
ROOT
ATOM      1  C   UNL     1       8.509  -7.720   4.128  1.00  0.00     0.180 A 
ATOM      2  C   UNL     1       7.461  -6.787   4.201  1.00  0.00     0.208 A 
ATOM      3  C   UNL     1       7.332  -5.996   5.354  1.00  0.00     0.238 A 
ATOM      4  O   UNL     1       6.349  -5.216   5.444  1.00  0.00    -0.285 OA
ATOM      5  C   UNL     1       8.286  -6.106   6.396  1.00  0.00     0.111 A 
ATOM      6  C   UNL     1       8.279  -5.323   7.590  1.00  0.00     0.134 A 
ATOM      7  C   UNL     1       9.212  -5.596   8.598  1.00  0.00     0.093 A 
ATOM      8  C   UNL     1      10.190  -6.577   8.430  1.00  0.00     0.123 A 
ATOM      9  C   UNL     1      10.238  -7.310   7.247  1.00  0.00     0.094 A 
ATOM     10  C   UNL     1       9.298  -7.089   6.238  1.00  0.00     0.146 A 
ATOM     11  O   UNL     1       9.369  -7.825   5.135  1.00  0.00    -0.452 OA
ENDROOT
BRANCH   1  12
ATOM     12  C   UNL     1       8.701  -8.599   2.953  1.00  0.00     0.021 A 
ATOM     13  C   UNL     1       8.519  -9.992   3.041  1.00  0.00     0.016 A 
ATOM     14  C   UNL     1       8.732 -10.804   1.923  1.00  0.00     0.047 A 
ATOM     15  C   UNL     1       9.142 -10.237   0.708  1.00  0.00     0.115 A 
ATOM     16  C   UNL     1       9.133  -8.043   1.737  1.00  0.00     0.016 A 
ATOM     17  C   UNL     1       9.343  -8.857   0.620  1.00  0.00     0.047 A 
BRANCH  15  18
ATOM     18  O   UNL     1       9.355 -11.038  -0.412  1.00  0.00    -0.508 OA
ATOM     19  H   UNL     1       8.626 -11.194  -1.098  1.00  0.00     0.293 HD
ENDBRANCH  15  18
ENDBRANCH   1  12
BRANCH   2  20
ATOM     20  O   UNL     1       6.575  -6.639   3.130  1.00  0.00    -0.502 OA
ATOM     21  H   UNL     1       6.576  -7.264   2.334  1.00  0.00     0.293 HD
ENDBRANCH   2  20
BRANCH   6  22
ATOM     22  O   UNL     1       7.404  -4.259   7.824  1.00  0.00    -0.507 OA
ATOM     23  H   UNL     1       7.545  -3.535   8.512  1.00  0.00     0.293 HD
ENDBRANCH   6  22
BRANCH   8  24
ATOM     24  O   UNL     1      11.125  -6.829   9.433  1.00  0.00    -0.508 OA
ATOM     25  H   UNL     1      10.893  -7.392  10.243  1.00  0.00     0.293 HD
ENDBRANCH   8  24
TORSDOF 5
ENDMDL
MODEL 7
REMARK VINA RESULT:    -4.629      2.680      6.668
REMARK INTER + INTRA:          -5.673
REMARK INTER:                  -5.419
REMARK INTRA:                  -0.254
REMARK UNBOUND:                -0.232
REMARK SMILES O=c1c(O)c(-c2ccc(O)cc2)oc2cc(O)cc(O)c12
REMARK SMILES IDX 5 1 3 2 2 3 1 4 21 5 19 6 18 7 16 8 15 9 14 10 13 11 6 12
REMARK SMILES IDX 7 13 8 14 9 15 12 16 11 17 10 18 4 20 20 22 17 24
REMARK H PARENT 10 19 4 21 20 23 17 25
REMARK Flexibility Score: inf
ROOT
ATOM      1  C   UNL     1       9.126  -7.357   5.885  1.00  0.00     0.180 A 
ATOM      2  C   UNL     1       9.616  -6.222   6.553  1.00  0.00     0.208 A 
ATOM      3  C   UNL     1       9.751  -6.258   7.950  1.00  0.00     0.238 A 
ATOM      4  O   UNL     1      10.119  -5.214   8.547  1.00  0.00    -0.285 OA
ATOM      5  C   UNL     1       9.449  -7.448   8.657  1.00  0.00     0.111 A 
ATOM      6  C   UNL     1       9.592  -7.612  10.069  1.00  0.00     0.134 A 
ATOM      7  C   UNL     1       9.160  -8.800  10.671  1.00  0.00     0.093 A 
ATOM      8  C   UNL     1       8.652  -9.854   9.908  1.00  0.00     0.123 A 
ATOM      9  C   UNL     1       8.559  -9.723   8.525  1.00  0.00     0.094 A 
ATOM     10  C   UNL     1       8.945  -8.536   7.898  1.00  0.00     0.146 A 
ATOM     11  O   UNL     1       8.820  -8.448   6.579  1.00  0.00    -0.452 OA
ENDROOT
BRANCH   1  12
ATOM     12  C   UNL     1       8.943  -7.390   4.417  1.00  0.00     0.021 A 
ATOM     13  C   UNL     1       7.854  -6.749   3.799  1.00  0.00     0.016 A 
ATOM     14  C   UNL     1       7.688  -6.816   2.412  1.00  0.00     0.047 A 
ATOM     15  C   UNL     1       8.600  -7.536   1.628  1.00  0.00     0.115 A 
ATOM     16  C   UNL     1       9.839  -8.127   3.625  1.00  0.00     0.016 A 
ATOM     17  C   UNL     1       9.672  -8.192   2.238  1.00  0.00     0.047 A 
BRANCH  15  18
ATOM     18  O   UNL     1       8.444  -7.608   0.245  1.00  0.00    -0.508 OA
ATOM     19  H   UNL     1       7.599  -7.285  -0.211  1.00  0.00     0.293 HD
ENDBRANCH  15  18
ENDBRANCH   1  12
BRANCH   2  20
ATOM     20  O   UNL     1       9.982  -5.084   5.829  1.00  0.00    -0.502 OA
ATOM     21  H   UNL     1      10.175  -5.110   4.835  1.00  0.00     0.293 HD
ENDBRANCH   2  20
BRANCH   6  22
ATOM     22  O   UNL     1      10.169  -6.660  10.914  1.00  0.00    -0.507 OA
ATOM     23  H   UNL     1      10.949  -6.832  11.530  1.00  0.00     0.293 HD
ENDBRANCH   6  22
BRANCH   8  24
ATOM     24  O   UNL     1       8.241 -11.038  10.516  1.00  0.00    -0.508 OA
ATOM     25  H   UNL     1       8.441 -11.231  11.490  1.00  0.00     0.293 HD
ENDBRANCH   8  24
TORSDOF 5
ENDMDL
MODEL 8
REMARK VINA RESULT:    -4.107      1.563      3.025
REMARK INTER + INTRA:          -5.060
REMARK INTER:                  -4.789
REMARK INTRA:                  -0.271
REMARK UNBOUND:                -0.232
REMARK SMILES O=c1c(O)c(-c2ccc(O)cc2)oc2cc(O)cc(O)c12
REMARK SMILES IDX 5 1 3 2 2 3 1 4 21 5 19 6 18 7 16 8 15 9 14 10 13 11 6 12
REMARK SMILES IDX 7 13 8 14 9 15 12 16 11 17 10 18 4 20 20 22 17 24
REMARK H PARENT 10 19 4 21 20 23 17 25
REMARK Flexibility Score: inf
ROOT
ATOM      1  C   UNL     1       9.071  -6.480   6.578  1.00  0.00     0.180 A 
ATOM      2  C   UNL     1      10.114  -6.393   5.640  1.00  0.00     0.208 A 
ATOM      3  C   UNL     1      10.149  -7.304   4.572  1.00  0.00     0.238 A 
ATOM      4  O   UNL     1      11.125  -7.268   3.780  1.00  0.00    -0.285 OA
ATOM      5  C   UNL     1       9.109  -8.254   4.422  1.00  0.00     0.111 A 
ATOM      6  C   UNL     1       9.018  -9.197   3.352  1.00  0.00     0.134 A 
ATOM      7  C   UNL     1       8.001 -10.159   3.367  1.00  0.00     0.093 A 
ATOM      8  C   UNL     1       7.035 -10.174   4.375  1.00  0.00     0.123 A 
ATOM      9  C   UNL     1       7.084  -9.225   5.393  1.00  0.00     0.094 A 
ATOM     10  C   UNL     1       8.108  -8.276   5.428  1.00  0.00     0.146 A 
ATOM     11  O   UNL     1       8.128  -7.403   6.429  1.00  0.00    -0.452 OA
ENDROOT
BRANCH   1  12
ATOM     12  C   UNL     1       8.975  -5.565   7.737  1.00  0.00     0.021 A 
ATOM     13  C   UNL     1       8.439  -4.271   7.607  1.00  0.00     0.016 A 
ATOM     14  C   UNL     1       8.382  -3.415   8.712  1.00  0.00     0.047 A 
ATOM     15  C   UNL     1       8.871  -3.837   9.955  1.00  0.00     0.115 A 
ATOM     16  C   UNL     1       9.483  -5.971   8.982  1.00  0.00     0.016 A 
ATOM     17  C   UNL     1       9.423  -5.114  10.086  1.00  0.00     0.047 A 
BRANCH  15  18
ATOM     18  O   UNL     1       8.818  -2.993  11.062  1.00  0.00    -0.508 OA
ATOM     19  H   UNL     1       9.182  -3.277  11.964  1.00  0.00     0.293 HD
ENDBRANCH  15  18
ENDBRANCH   1  12
BRANCH   2  20
ATOM     20  O   UNL     1      11.089  -5.399   5.762  1.00  0.00    -0.502 OA
ATOM     21  H   UNL     1      11.995  -5.467   5.316  1.00  0.00     0.293 HD
ENDBRANCH   2  20
BRANCH   6  22
ATOM     22  O   UNL     1       9.876  -9.215   2.250  1.00  0.00    -0.507 OA
ATOM     23  H   UNL     1      10.873  -9.067   2.291  1.00  0.00     0.293 HD
ENDBRANCH   6  22
BRANCH   8  24
ATOM     24  O   UNL     1       6.017 -11.125   4.371  1.00  0.00    -0.508 OA
ATOM     25  H   UNL     1       5.451 -11.292   3.547  1.00  0.00     0.293 HD
ENDBRANCH   8  24
TORSDOF 5
ENDMDL
MODEL 9
REMARK VINA RESULT:    -3.932      3.310      5.049
REMARK INTER + INTRA:          -4.855
REMARK INTER:                  -5.029
REMARK INTRA:                   0.174
REMARK UNBOUND:                -0.232
REMARK SMILES O=c1c(O)c(-c2ccc(O)cc2)oc2cc(O)cc(O)c12
REMARK SMILES IDX 5 1 3 2 2 3 1 4 21 5 19 6 18 7 16 8 15 9 14 10 13 11 6 12
REMARK SMILES IDX 7 13 8 14 9 15 12 16 11 17 10 18 4 20 20 22 17 24
REMARK H PARENT 10 19 4 21 20 23 17 25
REMARK Flexibility Score: inf
ROOT
ATOM      1  C   UNL     1       8.852  -7.974   6.614  1.00  0.00     0.180 A 
ATOM      2  C   UNL     1       9.605  -7.554   5.504  1.00  0.00     0.208 A 
ATOM      3  C   UNL     1       8.948  -6.931   4.431  1.00  0.00     0.238 A 
ATOM      4  O   UNL     1       9.616  -6.626   3.410  1.00  0.00    -0.285 OA
ATOM      5  C   UNL     1       7.555  -6.683   4.505  1.00  0.00     0.111 A 
ATOM      6  C   UNL     1       6.793  -6.019   3.496  1.00  0.00     0.134 A 
ATOM      7  C   UNL     1       5.402  -5.927   3.631  1.00  0.00     0.093 A 
ATOM      8  C   UNL     1       4.753  -6.415   4.767  1.00  0.00     0.123 A 
ATOM      9  C   UNL     1       5.494  -7.017   5.781  1.00  0.00     0.094 A 
ATOM     10  C   UNL     1       6.878  -7.159   5.658  1.00  0.00     0.146 A 
ATOM     11  O   UNL     1       7.542  -7.758   6.641  1.00  0.00    -0.452 OA
ENDROOT
BRANCH   1  12
ATOM     12  C   UNL     1       9.471  -8.650   7.776  1.00  0.00     0.021 A 
ATOM     13  C   UNL     1      10.508  -9.587   7.613  1.00  0.00     0.016 A 
ATOM     14  C   UNL     1      11.059 -10.232   8.725  1.00  0.00     0.047 A 
ATOM     15  C   UNL     1      10.573  -9.958  10.010  1.00  0.00     0.115 A 
ATOM     16  C   UNL     1       8.976  -8.399   9.067  1.00  0.00     0.016 A 
ATOM     17  C   UNL     1       9.530  -9.043  10.176  1.00  0.00     0.047 A 
BRANCH  15  18
ATOM     18  O   UNL     1      11.116 -10.594  11.125  1.00  0.00    -0.508 OA
ATOM     19  H   UNL     1      11.037 -11.595  11.255  1.00  0.00     0.293 HD
ENDBRANCH  15  18
ENDBRANCH   1  12
BRANCH   2  20
ATOM     20  O   UNL     1      10.990  -7.738   5.484  1.00  0.00    -0.502 OA
ATOM     21  H   UNL     1      11.617  -7.214   6.082  1.00  0.00     0.293 HD
ENDBRANCH   2  20
BRANCH   6  22
ATOM     22  O   UNL     1       7.349  -5.416   2.365  1.00  0.00    -0.507 OA
ATOM     23  H   UNL     1       6.821  -4.990   1.618  1.00  0.00     0.293 HD
ENDBRANCH   6  22
BRANCH   8  24
ATOM     24  O   UNL     1       3.371  -6.303   4.900  1.00  0.00    -0.508 OA
ATOM     25  H   UNL     1       2.953  -5.769   5.653  1.00  0.00     0.293 HD
ENDBRANCH   8  24
TORSDOF 5
ENDMDL
