MODEL 1
REMARK VINA RESULT:    -3.550      0.000      0.000
REMARK INTER + INTRA:         -10.071
REMARK INTER:                  -6.870
REMARK INTRA:                  -3.201
REMARK UNBOUND:                -3.201
REMARK SMILES CCCCCCCCCCCCCCCCCC(=O)[O-]
REMARK SMILES IDX 10 1 11 2 12 3 13 4 14 5 15 6 16 7 17 8 18 9 19 10 20 11
REMARK SMILES IDX 9 12 8 13 7 14 6 15 5 16 4 17 3 18 2 19 1 20
REMARK H PARENT
REMARK Flexibility Score: inf
ROOT
ATOM      1  C   UNL     1      21.980  21.889  15.579  1.00  0.00     0.000 C 
ENDROOT
BRANCH   1   2
ATOM      2  C   UNL     1      21.609  23.382  15.508  1.00  0.00     0.000 C 
BRANCH   2   3
ATOM      3  C   UNL     1      21.103  23.941  16.849  1.00  0.00     0.000 C 
BRANCH   3   4
ATOM      4  C   UNL     1      22.201  24.686  17.626  1.00  0.00     0.000 C 
BRANCH   4   5
ATOM      5  C   UNL     1      21.967  24.665  19.144  1.00  0.00     0.000 C 
BRANCH   5   6
ATOM      6  C   UNL     1      23.040  25.486  19.875  1.00  0.00     0.000 C 
BRANCH   6   7
ATOM      7  C   UNL     1      24.090  26.075  18.919  1.00  0.00     0.006 C 
BRANCH   7   8
ATOM      8  C   UNL     1      25.458  26.268  19.585  1.00  0.00     0.053 C 
BRANCH   8   9
ATOM      9  C   UNL     1      26.070  27.564  19.156  1.00  0.00     0.041 C 
ATOM     10  O   UNL     1      25.598  28.655  19.572  1.00  0.00    -0.550 OA
ATOM     11  O   UNL     1      27.128  27.570  18.256  1.00  0.00    -0.550 OA
ENDBRANCH   8   9
ENDBRANCH   7   8
ENDBRANCH   6   7
ENDBRANCH   5   6
ENDBRANCH   4   5
ENDBRANCH   3   4
ENDBRANCH   2   3
ENDBRANCH   1   2
BRANCH   1  12
ATOM     12  C   UNL     1      21.249  21.088  16.670  1.00  0.00     0.000 C 
BRANCH  12  13
ATOM     13  C   UNL     1      22.194  20.562  17.764  1.00  0.00    -0.000 C 
BRANCH  13  14
ATOM     14  C   UNL     1      23.648  21.030  17.577  1.00  0.00    -0.000 C 
BRANCH  14  15
ATOM     15  C   UNL     1      24.262  21.750  18.792  1.00  0.00    -0.000 C 
BRANCH  15  16
ATOM     16  C   UNL     1      25.408  22.703  18.411  1.00  0.00    -0.000 C 
BRANCH  16  17
ATOM     17  C   UNL     1      25.729  22.669  16.908  1.00  0.00    -0.000 C 
BRANCH  17  18
ATOM     18  C   UNL     1      25.523  24.030  16.225  1.00  0.00    -0.000 C 
BRANCH  18  19
ATOM     19  C   UNL     1      25.450  23.872  14.702  1.00  0.00    -0.003 C 
ATOM     20  C   UNL     1      25.529  22.404  14.294  1.00  0.00     0.004 C 
ENDBRANCH  18  19
ENDBRANCH  17  18
ENDBRANCH  16  17
ENDBRANCH  15  16
ENDBRANCH  14  15
ENDBRANCH  13  14
ENDBRANCH  12  13
ENDBRANCH   1  12
TORSDOF 16
ENDMDL
MODEL 2
REMARK VINA RESULT:    -3.505     17.349     20.152
REMARK INTER + INTRA:          -9.985
REMARK INTER:                  -7.854
REMARK INTRA:                  -2.131
REMARK UNBOUND:                -3.201
REMARK SMILES CCCCCCCCCCCCCCCCCC(=O)[O-]
REMARK SMILES IDX 10 1 11 2 12 3 13 4 14 5 15 6 16 7 17 8 18 9 19 10 20 11
REMARK SMILES IDX 9 12 8 13 7 14 6 15 5 16 4 17 3 18 2 19 1 20
REMARK H PARENT
REMARK Flexibility Score: inf
ROOT
ATOM      1  C   UNL     1      38.302  21.377   4.103  1.00  0.00     0.000 C 
ENDROOT
BRANCH   1   2
ATOM      2  C   UNL     1      39.741  21.132   3.612  1.00  0.00     0.000 C 
BRANCH   2   3
ATOM      3  C   UNL     1      40.807  21.550   4.639  1.00  0.00     0.000 C 
BRANCH   3   4
ATOM      4  C   UNL     1      40.194  21.966   5.986  1.00  0.00     0.000 C 
BRANCH   4   5
ATOM      5  C   UNL     1      41.048  21.528   7.185  1.00  0.00     0.000 C 
BRANCH   5   6
ATOM      6  C   UNL     1      40.795  20.052   7.527  1.00  0.00     0.000 C 
BRANCH   6   7
ATOM      7  C   UNL     1      39.574  19.473   6.794  1.00  0.00     0.006 C 
BRANCH   7   8
ATOM      8  C   UNL     1      38.605  18.748   7.736  1.00  0.00     0.053 C 
BRANCH   8   9
ATOM      9  C   UNL     1      37.382  19.577   7.966  1.00  0.00     0.041 C 
ATOM     10  O   UNL     1      36.359  19.064   8.493  1.00  0.00    -0.550 OA
ATOM     11  O   UNL     1      37.351  20.903   7.553  1.00  0.00    -0.550 OA
ENDBRANCH   8   9
ENDBRANCH   7   8
ENDBRANCH   6   7
ENDBRANCH   5   6
ENDBRANCH   4   5
ENDBRANCH   3   4
ENDBRANCH   2   3
ENDBRANCH   1   2
BRANCH   1  12
ATOM     12  C   UNL     1      37.347  20.182   3.941  1.00  0.00     0.000 C 
BRANCH  12  13
ATOM     13  C   UNL     1      35.894  20.607   3.663  1.00  0.00    -0.000 C 
BRANCH  13  14
ATOM     14  C   UNL     1      35.443  20.299   2.224  1.00  0.00    -0.000 C 
BRANCH  14  15
ATOM     15  C   UNL     1      36.240  21.023   1.123  1.00  0.00    -0.000 C 
BRANCH  15  16
ATOM     16  C   UNL     1      36.100  22.553   1.187  1.00  0.00    -0.000 C 
BRANCH  16  17
ATOM     17  C   UNL     1      37.448  23.278   1.036  1.00  0.00    -0.000 C 
BRANCH  17  18
ATOM     18  C   UNL     1      37.692  24.315   2.142  1.00  0.00    -0.000 C 
BRANCH  18  19
ATOM     19  C   UNL     1      39.192  24.585   2.317  1.00  0.00    -0.003 C 
ATOM     20  C   UNL     1      40.004  23.931   1.204  1.00  0.00     0.004 C 
ENDBRANCH  18  19
ENDBRANCH  17  18
ENDBRANCH  16  17
ENDBRANCH  15  16
ENDBRANCH  14  15
ENDBRANCH  13  14
ENDBRANCH  12  13
ENDBRANCH   1  12
TORSDOF 16
ENDMDL
MODEL 3
REMARK VINA RESULT:    -3.308     17.535     20.233
REMARK INTER + INTRA:          -9.603
REMARK INTER:                  -8.322
REMARK INTRA:                  -1.281
REMARK UNBOUND:                -3.201
REMARK SMILES CCCCCCCCCCCCCCCCCC(=O)[O-]
REMARK SMILES IDX 10 1 11 2 12 3 13 4 14 5 15 6 16 7 17 8 18 9 19 10 20 11
REMARK SMILES IDX 9 12 8 13 7 14 6 15 5 16 4 17 3 18 2 19 1 20
REMARK H PARENT
REMARK Flexibility Score: inf
ROOT
ATOM      1  C   UNL     1      36.254  22.611   1.048  1.00  0.00     0.000 C 
ENDROOT
BRANCH   1   2
ATOM      2  C   UNL     1      36.014  21.136   1.423  1.00  0.00     0.000 C 
BRANCH   2   3
ATOM      3  C   UNL     1      35.375  20.965   2.812  1.00  0.00     0.000 C 
BRANCH   3   4
ATOM      4  C   UNL     1      36.284  20.199   3.787  1.00  0.00     0.000 C 
BRANCH   4   5
ATOM      5  C   UNL     1      37.557  20.980   4.145  1.00  0.00     0.000 C 
BRANCH   5   6
ATOM      6  C   UNL     1      38.716  20.022   4.460  1.00  0.00     0.000 C 
BRANCH   6   7
ATOM      7  C   UNL     1      39.235  20.170   5.899  1.00  0.00     0.006 C 
BRANCH   7   8
ATOM      8  C   UNL     1      38.563  19.196   6.875  1.00  0.00     0.053 C 
BRANCH   8   9
ATOM      9  C   UNL     1      37.516  19.900   7.678  1.00  0.00     0.041 C 
ATOM     10  O   UNL     1      37.463  21.159   7.685  1.00  0.00    -0.550 OA
ATOM     11  O   UNL     1      36.629  19.170   8.459  1.00  0.00    -0.550 OA
ENDBRANCH   8   9
ENDBRANCH   7   8
ENDBRANCH   6   7
ENDBRANCH   5   6
ENDBRANCH   4   5
ENDBRANCH   3   4
ENDBRANCH   2   3
ENDBRANCH   1   2
BRANCH   1  12
ATOM     12  C   UNL     1      37.731  23.038   0.999  1.00  0.00     0.000 C 
BRANCH  12  13
ATOM     13  C   UNL     1      38.159  23.863   2.225  1.00  0.00    -0.000 C 
BRANCH  13  14
ATOM     14  C   UNL     1      37.768  25.348   2.116  1.00  0.00    -0.000 C 
BRANCH  14  15
ATOM     15  C   UNL     1      38.887  26.343   2.475  1.00  0.00    -0.000 C 
BRANCH  15  16
ATOM     16  C   UNL     1      38.912  27.577   1.557  1.00  0.00    -0.000 C 
BRANCH  16  17
ATOM     17  C   UNL     1      38.083  28.746   2.114  1.00  0.00    -0.000 C 
BRANCH  17  18
ATOM     18  C   UNL     1      36.729  28.905   1.406  1.00  0.00    -0.000 C 
BRANCH  18  19
ATOM     19  C   UNL     1      35.624  28.160   2.164  1.00  0.00    -0.003 C 
ATOM     20  C   UNL     1      34.505  27.725   1.223  1.00  0.00     0.004 C 
ENDBRANCH  18  19
ENDBRANCH  17  18
ENDBRANCH  16  17
ENDBRANCH  15  16
ENDBRANCH  14  15
ENDBRANCH  13  14
ENDBRANCH  12  13
ENDBRANCH   1  12
TORSDOF 16
ENDMDL
MODEL 4
REMARK VINA RESULT:    -3.289     18.512     20.279
REMARK INTER + INTRA:          -9.567
REMARK INTER:                  -7.796
REMARK INTRA:                  -1.771
REMARK UNBOUND:                -3.201
REMARK SMILES CCCCCCCCCCCCCCCCCC(=O)[O-]
REMARK SMILES IDX 10 1 11 2 12 3 13 4 14 5 15 6 16 7 17 8 18 9 19 10 20 11
REMARK SMILES IDX 9 12 8 13 7 14 6 15 5 16 4 17 3 18 2 19 1 20
REMARK H PARENT
REMARK Flexibility Score: inf
ROOT
ATOM      1  C   UNL     1      35.879  20.411   3.970  1.00  0.00     0.000 C 
ENDROOT
BRANCH   1   2
ATOM      2  C   UNL     1      37.361  20.098   4.249  1.00  0.00     0.000 C 
BRANCH   2   3
ATOM      3  C   UNL     1      38.281  21.314   4.046  1.00  0.00     0.000 C 
BRANCH   3   4
ATOM      4  C   UNL     1      39.704  20.911   3.627  1.00  0.00     0.000 C 
BRANCH   4   5
ATOM      5  C   UNL     1      40.745  21.197   4.719  1.00  0.00     0.000 C 
BRANCH   5   6
ATOM      6  C   UNL     1      40.160  22.108   5.809  1.00  0.00     0.000 C 
BRANCH   6   7
ATOM      7  C   UNL     1      40.266  21.495   7.214  1.00  0.00     0.006 C 
BRANCH   7   8
ATOM      8  C   UNL     1      40.228  19.962   7.198  1.00  0.00     0.053 C 
BRANCH   8   9
ATOM      9  C   UNL     1      38.840  19.471   7.461  1.00  0.00     0.041 C 
ATOM     10  O   UNL     1      38.589  18.237   7.435  1.00  0.00    -0.550 OA
ATOM     11  O   UNL     1      37.811  20.378   7.684  1.00  0.00    -0.550 OA
ENDBRANCH   8   9
ENDBRANCH   7   8
ENDBRANCH   6   7
ENDBRANCH   5   6
ENDBRANCH   4   5
ENDBRANCH   3   4
ENDBRANCH   2   3
ENDBRANCH   1   2
BRANCH   1  12
ATOM     12  C   UNL     1      35.452  20.279   2.497  1.00  0.00     0.000 C 
BRANCH  12  13
ATOM     13  C   UNL     1      35.225  21.638   1.813  1.00  0.00    -0.000 C 
BRANCH  13  14
ATOM     14  C   UNL     1      36.397  22.057   0.908  1.00  0.00    -0.000 C 
BRANCH  14  15
ATOM     15  C   UNL     1      36.725  23.562   0.922  1.00  0.00    -0.000 C 
BRANCH  15  16
ATOM     16  C   UNL     1      38.125  23.867   1.481  1.00  0.00    -0.000 C 
BRANCH  16  17
ATOM     17  C   UNL     1      38.147  25.120   2.370  1.00  0.00    -0.000 C 
BRANCH  17  18
ATOM     18  C   UNL     1      37.884  26.413   1.583  1.00  0.00    -0.000 C 
BRANCH  18  19
ATOM     19  C   UNL     1      37.229  27.473   2.476  1.00  0.00    -0.003 C 
ATOM     20  C   UNL     1      36.262  28.344   1.680  1.00  0.00     0.004 C 
ENDBRANCH  18  19
ENDBRANCH  17  18
ENDBRANCH  16  17
ENDBRANCH  15  16
ENDBRANCH  14  15
ENDBRANCH  13  14
ENDBRANCH  12  13
ENDBRANCH   1  12
TORSDOF 16
ENDMDL
MODEL 5
REMARK VINA RESULT:    -3.253     18.086     20.421
REMARK INTER + INTRA:          -9.496
REMARK INTER:                  -7.241
REMARK INTRA:                  -2.255
REMARK UNBOUND:                -3.201
REMARK SMILES CCCCCCCCCCCCCCCCCC(=O)[O-]
REMARK SMILES IDX 10 1 11 2 12 3 13 4 14 5 15 6 16 7 17 8 18 9 19 10 20 11
REMARK SMILES IDX 9 12 8 13 7 14 6 15 5 16 4 17 3 18 2 19 1 20
REMARK H PARENT
REMARK Flexibility Score: inf
ROOT
ATOM      1  C   UNL     1      40.457  21.244   6.767  1.00  0.00     0.000 C 
ENDROOT
BRANCH   1   2
ATOM      2  C   UNL     1      39.393  22.255   7.236  1.00  0.00     0.000 C 
BRANCH   2   3
ATOM      3  C   UNL     1      37.986  21.642   7.340  1.00  0.00     0.000 C 
BRANCH   3   4
ATOM      4  C   UNL     1      38.013  20.105   7.340  1.00  0.00     0.000 C 
BRANCH   4   5
ATOM      5  C   UNL     1      37.299  19.501   6.122  1.00  0.00     0.000 C 
BRANCH   5   6
ATOM      6  C   UNL     1      36.915  20.595   5.114  1.00  0.00     0.000 C 
BRANCH   6   7
ATOM      7  C   UNL     1      36.679  20.044   3.700  1.00  0.00     0.006 C 
BRANCH   7   8
ATOM      8  C   UNL     1      36.238  21.126   2.706  1.00  0.00     0.053 C 
BRANCH   8   9
ATOM      9  C   UNL     1      34.925  20.764   2.088  1.00  0.00     0.041 C 
ATOM     10  O   UNL     1      34.601  19.554   1.952  1.00  0.00    -0.550 OA
ATOM     11  O   UNL     1      34.079  21.760   1.616  1.00  0.00    -0.550 OA
ENDBRANCH   8   9
ENDBRANCH   7   8
ENDBRANCH   6   7
ENDBRANCH   5   6
ENDBRANCH   4   5
ENDBRANCH   3   4
ENDBRANCH   2   3
ENDBRANCH   1   2
BRANCH   1  12
ATOM     12  C   UNL     1      41.063  21.532   5.383  1.00  0.00     0.000 C 
BRANCH  12  13
ATOM     13  C   UNL     1      40.360  20.766   4.248  1.00  0.00    -0.000 C 
BRANCH  13  14
ATOM     14  C   UNL     1      40.001  21.663   3.051  1.00  0.00    -0.000 C 
BRANCH  14  15
ATOM     15  C   UNL     1      39.325  22.998   3.417  1.00  0.00    -0.000 C 
BRANCH  15  16
ATOM     16  C   UNL     1      39.259  23.982   2.236  1.00  0.00    -0.000 C 
BRANCH  16  17
ATOM     17  C   UNL     1      37.849  24.089   1.634  1.00  0.00    -0.000 C 
BRANCH  17  18
ATOM     18  C   UNL     1      37.358  25.541   1.524  1.00  0.00    -0.000 C 
BRANCH  18  19
ATOM     19  C   UNL     1      38.243  26.481   2.350  1.00  0.00    -0.003 C 
ATOM     20  C   UNL     1      37.579  27.842   2.537  1.00  0.00     0.004 C 
ENDBRANCH  18  19
ENDBRANCH  17  18
ENDBRANCH  16  17
ENDBRANCH  15  16
ENDBRANCH  14  15
ENDBRANCH  13  14
ENDBRANCH  12  13
ENDBRANCH   1  12
TORSDOF 16
ENDMDL
MODEL 6
REMARK VINA RESULT:    -3.212      2.769      5.259
REMARK INTER + INTRA:          -9.418
REMARK INTER:                  -6.702
REMARK INTRA:                  -2.716
REMARK UNBOUND:                -3.201
REMARK SMILES CCCCCCCCCCCCCCCCCC(=O)[O-]
REMARK SMILES IDX 10 1 11 2 12 3 13 4 14 5 15 6 16 7 17 8 18 9 19 10 20 11
REMARK SMILES IDX 9 12 8 13 7 14 6 15 5 16 4 17 3 18 2 19 1 20
REMARK H PARENT
REMARK Flexibility Score: inf
ROOT
ATOM      1  C   UNL     1      22.089  22.284  16.637  1.00  0.00     0.000 C 
ENDROOT
BRANCH   1   2
ATOM      2  C   UNL     1      23.051  21.203  17.164  1.00  0.00     0.000 C 
BRANCH   2   3
ATOM      3  C   UNL     1      23.637  21.540  18.545  1.00  0.00     0.000 C 
BRANCH   3   4
ATOM      4  C   UNL     1      25.117  21.952  18.472  1.00  0.00     0.000 C 
BRANCH   4   5
ATOM      5  C   UNL     1      25.314  23.471  18.582  1.00  0.00     0.000 C 
BRANCH   5   6
ATOM      6  C   UNL     1      25.245  24.133  17.197  1.00  0.00     0.000 C 
BRANCH   6   7
ATOM      7  C   UNL     1      25.963  23.316  16.112  1.00  0.00     0.006 C 
BRANCH   7   8
ATOM      8  C   UNL     1      25.646  23.805  14.693  1.00  0.00     0.053 C 
BRANCH   8   9
ATOM      9  C   UNL     1      25.151  22.674  13.849  1.00  0.00     0.041 C 
ATOM     10  O   UNL     1      25.968  21.880  13.310  1.00  0.00    -0.550 OA
ATOM     11  O   UNL     1      23.790  22.525  13.614  1.00  0.00    -0.550 OA
ENDBRANCH   8   9
ENDBRANCH   7   8
ENDBRANCH   6   7
ENDBRANCH   5   6
ENDBRANCH   4   5
ENDBRANCH   3   4
ENDBRANCH   2   3
ENDBRANCH   1   2
BRANCH   1  12
ATOM     12  C   UNL     1      21.448  23.169  17.720  1.00  0.00     0.000 C 
BRANCH  12  13
ATOM     13  C   UNL     1      21.364  24.650  17.313  1.00  0.00    -0.000 C 
BRANCH  13  14
ATOM     14  C   UNL     1      22.165  25.575  18.247  1.00  0.00    -0.000 C 
BRANCH  14  15
ATOM     15  C   UNL     1      22.091  25.213  19.742  1.00  0.00    -0.000 C 
BRANCH  15  16
ATOM     16  C   UNL     1      23.066  26.029  20.608  1.00  0.00    -0.000 C 
BRANCH  16  17
ATOM     17  C   UNL     1      23.011  27.534  20.302  1.00  0.00    -0.000 C 
BRANCH  17  18
ATOM     18  C   UNL     1      24.357  28.091  19.811  1.00  0.00    -0.000 C 
BRANCH  18  19
ATOM     19  C   UNL     1      25.409  26.979  19.724  1.00  0.00    -0.003 C 
ATOM     20  C   UNL     1      26.506  27.334  18.725  1.00  0.00     0.004 C 
ENDBRANCH  18  19
ENDBRANCH  17  18
ENDBRANCH  16  17
ENDBRANCH  15  16
ENDBRANCH  14  15
ENDBRANCH  13  14
ENDBRANCH  12  13
ENDBRANCH   1  12
TORSDOF 16
ENDMDL
MODEL 7
REMARK VINA RESULT:    -3.168     18.636     20.468
REMARK INTER + INTRA:          -9.333
REMARK INTER:                  -7.122
REMARK INTRA:                  -2.210
REMARK UNBOUND:                -3.201
REMARK SMILES CCCCCCCCCCCCCCCCCC(=O)[O-]
REMARK SMILES IDX 10 1 11 2 12 3 13 4 14 5 15 6 16 7 17 8 18 9 19 10 20 11
REMARK SMILES IDX 9 12 8 13 7 14 6 15 5 16 4 17 3 18 2 19 1 20
REMARK H PARENT
REMARK Flexibility Score: inf
ROOT
ATOM      1  C   UNL     1      40.619  21.608   7.261  1.00  0.00     0.000 C 
ENDROOT
BRANCH   1   2
ATOM      2  C   UNL     1      40.975  22.237   5.901  1.00  0.00     0.000 C 
BRANCH   2   3
ATOM      3  C   UNL     1      41.081  21.203   4.768  1.00  0.00     0.000 C 
BRANCH   3   4
ATOM      4  C   UNL     1      40.798  21.814   3.385  1.00  0.00     0.000 C 
BRANCH   4   5
ATOM      5  C   UNL     1      40.323  23.272   3.470  1.00  0.00     0.000 C 
BRANCH   5   6
ATOM      6  C   UNL     1      39.452  23.635   2.257  1.00  0.00     0.000 C 
BRANCH   6   7
ATOM      7  C   UNL     1      38.167  24.378   2.651  1.00  0.00     0.006 C 
BRANCH   7   8
ATOM      8  C   UNL     1      37.801  25.495   1.665  1.00  0.00     0.053 C 
BRANCH   8   9
ATOM      9  C   UNL     1      38.161  26.831   2.232  1.00  0.00     0.041 C 
ATOM     10  O   UNL     1      37.262  27.682   2.470  1.00  0.00    -0.550 OA
ATOM     11  O   UNL     1      39.493  27.159   2.453  1.00  0.00    -0.550 OA
ENDBRANCH   8   9
ENDBRANCH   7   8
ENDBRANCH   6   7
ENDBRANCH   5   6
ENDBRANCH   4   5
ENDBRANCH   3   4
ENDBRANCH   2   3
ENDBRANCH   1   2
BRANCH   1  12
ATOM     12  C   UNL     1      40.421  20.082   7.240  1.00  0.00     0.000 C 
BRANCH  12  13
ATOM     13  C   UNL     1      38.942  19.667   7.332  1.00  0.00    -0.000 C 
BRANCH  13  14
ATOM     14  C   UNL     1      38.363  19.207   5.983  1.00  0.00    -0.000 C 
BRANCH  14  15
ATOM     15  C   UNL     1      37.072  19.927   5.550  1.00  0.00    -0.000 C 
BRANCH  15  16
ATOM     16  C   UNL     1      37.332  21.102   4.590  1.00  0.00    -0.000 C 
BRANCH  16  17
ATOM     17  C   UNL     1      37.222  20.693   3.112  1.00  0.00    -0.000 C 
BRANCH  17  18
ATOM     18  C   UNL     1      36.262  21.590   2.316  1.00  0.00    -0.000 C 
BRANCH  18  19
ATOM     19  C   UNL     1      34.832  21.039   2.364  1.00  0.00    -0.003 C 
ATOM     20  C   UNL     1      34.818  19.524   2.190  1.00  0.00     0.004 C 
ENDBRANCH  18  19
ENDBRANCH  17  18
ENDBRANCH  16  17
ENDBRANCH  15  16
ENDBRANCH  14  15
ENDBRANCH  13  14
ENDBRANCH  12  13
ENDBRANCH   1  12
TORSDOF 16
ENDMDL
MODEL 8
REMARK VINA RESULT:    -3.133      2.997      6.065
REMARK INTER + INTRA:          -9.265
REMARK INTER:                  -6.658
REMARK INTRA:                  -2.608
REMARK UNBOUND:                -3.201
REMARK SMILES CCCCCCCCCCCCCCCCCC(=O)[O-]
REMARK SMILES IDX 10 1 11 2 12 3 13 4 14 5 15 6 16 7 17 8 18 9 19 10 20 11
REMARK SMILES IDX 9 12 8 13 7 14 6 15 5 16 4 17 3 18 2 19 1 20
REMARK H PARENT
REMARK Flexibility Score: inf
ROOT
ATOM      1  C   UNL     1      25.498  24.118  16.557  1.00  0.00     0.000 C 
ENDROOT
BRANCH   1   2
ATOM      2  C   UNL     1      25.722  22.603  16.717  1.00  0.00     0.000 C 
BRANCH   2   3
ATOM      3  C   UNL     1      25.759  22.152  18.187  1.00  0.00     0.000 C 
BRANCH   3   4
ATOM      4  C   UNL     1      24.568  21.253  18.556  1.00  0.00     0.000 C 
BRANCH   4   5
ATOM      5  C   UNL     1      23.572  21.087  17.398  1.00  0.00     0.000 C 
BRANCH   5   6
ATOM      6  C   UNL     1      22.173  21.574  17.805  1.00  0.00     0.000 C 
BRANCH   6   7
ATOM      7  C   UNL     1      21.314  21.987  16.600  1.00  0.00     0.006 C 
BRANCH   7   8
ATOM      8  C   UNL     1      21.958  23.102  15.766  1.00  0.00     0.053 C 
BRANCH   8   9
ATOM      9  C   UNL     1      22.138  22.656  14.350  1.00  0.00     0.041 C 
ATOM     10  O   UNL     1      23.294  22.557  13.859  1.00  0.00    -0.550 OA
ATOM     11  O   UNL     1      21.029  22.399  13.554  1.00  0.00    -0.550 OA
ENDBRANCH   8   9
ENDBRANCH   7   8
ENDBRANCH   6   7
ENDBRANCH   5   6
ENDBRANCH   4   5
ENDBRANCH   3   4
ENDBRANCH   2   3
ENDBRANCH   1   2
BRANCH   1  12
ATOM     12  C   UNL     1      25.256  24.883  17.870  1.00  0.00     0.000 C 
BRANCH  12  13
ATOM     13  C   UNL     1      23.778  25.254  18.085  1.00  0.00    -0.000 C 
BRANCH  13  14
ATOM     14  C   UNL     1      23.182  24.630  19.359  1.00  0.00    -0.000 C 
BRANCH  14  15
ATOM     15  C   UNL     1      22.349  25.591  20.227  1.00  0.00    -0.000 C 
BRANCH  15  16
ATOM     16  C   UNL     1      23.214  26.492  21.125  1.00  0.00    -0.000 C 
BRANCH  16  17
ATOM     17  C   UNL     1      22.822  27.976  21.027  1.00  0.00    -0.000 C 
BRANCH  17  18
ATOM     18  C   UNL     1      24.022  28.891  20.741  1.00  0.00    -0.000 C 
BRANCH  18  19
ATOM     19  C   UNL     1      24.576  28.642  19.333  1.00  0.00    -0.003 C 
ATOM     20  C   UNL     1      26.026  28.169  19.385  1.00  0.00     0.004 C 
ENDBRANCH  18  19
ENDBRANCH  17  18
ENDBRANCH  16  17
ENDBRANCH  15  16
ENDBRANCH  14  15
ENDBRANCH  13  14
ENDBRANCH  12  13
ENDBRANCH   1  12
TORSDOF 16
ENDMDL
MODEL 9
REMARK VINA RESULT:    -3.105      1.417      2.095
REMARK INTER + INTRA:          -9.211
REMARK INTER:                  -6.756
REMARK INTRA:                  -2.455
REMARK UNBOUND:                -3.201
REMARK SMILES CCCCCCCCCCCCCCCCCC(=O)[O-]
REMARK SMILES IDX 10 1 11 2 12 3 13 4 14 5 15 6 16 7 17 8 18 9 19 10 20 11
REMARK SMILES IDX 9 12 8 13 7 14 6 15 5 16 4 17 3 18 2 19 1 20
REMARK H PARENT
REMARK Flexibility Score: inf
ROOT
ATOM      1  C   UNL     1      21.753  22.960  17.587  1.00  0.00     0.000 C 
ENDROOT
BRANCH   1   2
ATOM      2  C   UNL     1      21.029  23.690  18.734  1.00  0.00     0.000 C 
BRANCH   2   3
ATOM      3  C   UNL     1      21.990  24.444  19.669  1.00  0.00     0.000 C 
BRANCH   3   4
ATOM      4  C   UNL     1      21.751  25.963  19.656  1.00  0.00     0.000 C 
BRANCH   4   5
ATOM      5  C   UNL     1      22.054  26.597  18.291  1.00  0.00     0.000 C 
BRANCH   5   6
ATOM      6  C   UNL     1      22.272  28.112  18.427  1.00  0.00     0.000 C 
BRANCH   6   7
ATOM      7  C   UNL     1      23.172  28.477  19.618  1.00  0.00     0.006 C 
BRANCH   7   8
ATOM      8  C   UNL     1      24.610  28.803  19.198  1.00  0.00     0.053 C 
BRANCH   8   9
ATOM      9  C   UNL     1      25.505  27.630  19.445  1.00  0.00     0.041 C 
ATOM     10  O   UNL     1      26.491  27.416  18.691  1.00  0.00    -0.550 OA
ATOM     11  O   UNL     1      25.223  26.743  20.476  1.00  0.00    -0.550 OA
ENDBRANCH   8   9
ENDBRANCH   7   8
ENDBRANCH   6   7
ENDBRANCH   5   6
ENDBRANCH   4   5
ENDBRANCH   3   4
ENDBRANCH   2   3
ENDBRANCH   1   2
BRANCH   1  12
ATOM     12  C   UNL     1      21.953  21.450  17.801  1.00  0.00     0.000 C 
BRANCH  12  13
ATOM     13  C   UNL     1      23.435  21.037  17.819  1.00  0.00    -0.000 C 
BRANCH  13  14
ATOM     14  C   UNL     1      24.225  21.686  18.969  1.00  0.00    -0.000 C 
BRANCH  14  15
ATOM     15  C   UNL     1      25.537  22.375  18.550  1.00  0.00    -0.000 C 
BRANCH  15  16
ATOM     16  C   UNL     1      25.417  23.907  18.481  1.00  0.00    -0.000 C 
BRANCH  16  17
ATOM     17  C   UNL     1      24.927  24.400  17.110  1.00  0.00    -0.000 C 
BRANCH  17  18
ATOM     18  C   UNL     1      25.731  23.807  15.943  1.00  0.00    -0.000 C 
BRANCH  18  19
ATOM     19  C   UNL     1      24.844  22.919  15.063  1.00  0.00    -0.003 C 
ATOM     20  C   UNL     1      25.512  22.625  13.723  1.00  0.00     0.004 C 
ENDBRANCH  18  19
ENDBRANCH  17  18
ENDBRANCH  16  17
ENDBRANCH  15  16
ENDBRANCH  14  15
ENDBRANCH  13  14
ENDBRANCH  12  13
ENDBRANCH   1  12
TORSDOF 16
ENDMDL
