MODEL 1
REMARK VINA RESULT:    -4.799      0.000      0.000
REMARK INTER + INTRA:          -9.072
REMARK INTER:                  -7.605
REMARK INTRA:                  -1.467
REMARK UNBOUND:                -1.467
REMARK SMILES CCCCCCCCCCCC(=O)[O-]
REMARK SMILES IDX 7 1 8 2 9 3 10 4 11 5 12 6 13 7 14 8 6 9 5 10 4 11 3 12 2 13
REMARK SMILES IDX 1 14
REMARK H PARENT
REMARK Flexibility Score: inf
ROOT
ATOM      1  C   UNL     1       4.312   7.520   9.881  1.00  0.00     0.000 C 
ENDROOT
BRANCH   1   2
ATOM      2  C   UNL     1       4.284   6.824  11.253  1.00  0.00     0.000 C 
BRANCH   2   3
ATOM      3  C   UNL     1       3.957   7.794  12.399  1.00  0.00     0.000 C 
BRANCH   3   4
ATOM      4  C   UNL     1       4.891   7.622  13.607  1.00  0.00     0.006 C 
BRANCH   4   5
ATOM      5  C   UNL     1       5.750   6.363  13.459  1.00  0.00     0.053 C 
BRANCH   5   6
ATOM      6  C   UNL     1       6.685   6.226  14.619  1.00  0.00     0.041 C 
ATOM      7  O   UNL     1       7.897   5.945  14.426  1.00  0.00    -0.550 OA
ATOM      8  O   UNL     1       6.208   6.359  15.916  1.00  0.00    -0.550 OA
ENDBRANCH   5   6
ENDBRANCH   4   5
ENDBRANCH   3   4
ENDBRANCH   2   3
ENDBRANCH   1   2
BRANCH   1   9
ATOM      9  C   UNL     1       5.110   8.836   9.890  1.00  0.00     0.000 C 
BRANCH   9  10
ATOM     10  C   UNL     1       6.627   8.684   9.676  1.00  0.00    -0.000 C 
BRANCH  10  11
ATOM     11  C   UNL     1       7.447   9.032  10.927  1.00  0.00    -0.000 C 
BRANCH  11  12
ATOM     12  C   UNL     1       8.262   7.823  11.404  1.00  0.00    -0.000 C 
BRANCH  12  13
ATOM     13  C   UNL     1       8.027   6.610  10.497  1.00  0.00    -0.003 C 
ATOM     14  C   UNL     1       9.311   5.806  10.309  1.00  0.00     0.004 C 
ENDBRANCH  12  13
ENDBRANCH  11  12
ENDBRANCH  10  11
ENDBRANCH   9  10
ENDBRANCH   1   9
TORSDOF 10
ENDMDL
MODEL 2
REMARK VINA RESULT:    -4.706      1.199      1.453
REMARK INTER + INTRA:          -8.925
REMARK INTER:                  -7.595
REMARK INTRA:                  -1.329
REMARK UNBOUND:                -1.467
REMARK SMILES CCCCCCCCCCCC(=O)[O-]
REMARK SMILES IDX 7 1 8 2 9 3 10 4 11 5 12 6 13 7 14 8 6 9 5 10 4 11 3 12 2 13
REMARK SMILES IDX 1 14
REMARK H PARENT
REMARK Flexibility Score: inf
ROOT
ATOM      1  C   UNL     1       4.619   7.509   9.912  1.00  0.00     0.000 C 
ENDROOT
BRANCH   1   2
ATOM      2  C   UNL     1       4.143   6.750  11.163  1.00  0.00     0.000 C 
BRANCH   2   3
ATOM      3  C   UNL     1       4.685   7.359  12.465  1.00  0.00     0.000 C 
BRANCH   3   4
ATOM      4  C   UNL     1       5.612   6.400  13.228  1.00  0.00     0.006 C 
BRANCH   4   5
ATOM      5  C   UNL     1       6.184   7.072  14.479  1.00  0.00     0.053 C 
BRANCH   5   6
ATOM      6  C   UNL     1       5.156   7.124  15.565  1.00  0.00     0.041 C 
ATOM      7  O   UNL     1       4.804   8.230  16.051  1.00  0.00    -0.550 OA
ATOM      8  O   UNL     1       4.624   5.946  16.075  1.00  0.00    -0.550 OA
ENDBRANCH   5   6
ENDBRANCH   4   5
ENDBRANCH   3   4
ENDBRANCH   2   3
ENDBRANCH   1   2
BRANCH   1   9
ATOM      9  C   UNL     1       5.369   8.810  10.249  1.00  0.00     0.000 C 
BRANCH   9  10
ATOM     10  C   UNL     1       6.857   8.829   9.854  1.00  0.00    -0.000 C 
BRANCH  10  11
ATOM     11  C   UNL     1       7.795   8.979  11.060  1.00  0.00    -0.000 C 
BRANCH  11  12
ATOM     12  C   UNL     1       8.480   7.647  11.392  1.00  0.00    -0.000 C 
BRANCH  12  13
ATOM     13  C   UNL     1       8.191   6.596  10.315  1.00  0.00    -0.003 C 
ATOM     14  C   UNL     1       9.323   5.576  10.222  1.00  0.00     0.004 C 
ENDBRANCH  12  13
ENDBRANCH  11  12
ENDBRANCH  10  11
ENDBRANCH   9  10
ENDBRANCH   1   9
TORSDOF 10
ENDMDL
MODEL 3
REMARK VINA RESULT:    -4.668      1.435      1.926
REMARK INTER + INTRA:          -8.864
REMARK INTER:                  -7.753
REMARK INTRA:                  -1.111
REMARK UNBOUND:                -1.467
REMARK SMILES CCCCCCCCCCCC(=O)[O-]
REMARK SMILES IDX 7 1 8 2 9 3 10 4 11 5 12 6 13 7 14 8 6 9 5 10 4 11 3 12 2 13
REMARK SMILES IDX 1 14
REMARK H PARENT
REMARK Flexibility Score: inf
ROOT
ATOM      1  C   UNL     1       3.943   6.709  11.298  1.00  0.00     0.000 C 
ENDROOT
BRANCH   1   2
ATOM      2  C   UNL     1       3.806   7.606  12.540  1.00  0.00     0.000 C 
BRANCH   2   3
ATOM      3  C   UNL     1       5.115   7.713  13.338  1.00  0.00     0.000 C 
BRANCH   3   4
ATOM      4  C   UNL     1       5.684   6.341  13.731  1.00  0.00     0.006 C 
BRANCH   4   5
ATOM      5  C   UNL     1       6.222   6.362  15.165  1.00  0.00     0.053 C 
BRANCH   5   6
ATOM      6  C   UNL     1       5.095   6.371  16.148  1.00  0.00     0.041 C 
ATOM      7  O   UNL     1       4.459   5.312  16.393  1.00  0.00    -0.550 OA
ATOM      8  O   UNL     1       4.713   7.560  16.757  1.00  0.00    -0.550 OA
ENDBRANCH   5   6
ENDBRANCH   4   5
ENDBRANCH   3   4
ENDBRANCH   2   3
ENDBRANCH   1   2
BRANCH   1   9
ATOM      9  C   UNL     1       3.970   7.506   9.981  1.00  0.00     0.000 C 
BRANCH   9  10
ATOM     10  C   UNL     1       5.374   7.892   9.479  1.00  0.00    -0.000 C 
BRANCH  10  11
ATOM     11  C   UNL     1       6.469   6.932   9.964  1.00  0.00    -0.000 C 
BRANCH  11  12
ATOM     12  C   UNL     1       7.613   7.699  10.639  1.00  0.00    -0.000 C 
BRANCH  12  13
ATOM     13  C   UNL     1       8.649   6.735  11.229  1.00  0.00    -0.003 C 
ATOM     14  C   UNL     1       9.098   5.708  10.192  1.00  0.00     0.004 C 
ENDBRANCH  12  13
ENDBRANCH  11  12
ENDBRANCH  10  11
ENDBRANCH   9  10
ENDBRANCH   1   9
TORSDOF 10
ENDMDL
MODEL 4
REMARK VINA RESULT:    -4.623      0.835      1.256
REMARK INTER + INTRA:          -8.792
REMARK INTER:                  -7.423
REMARK INTRA:                  -1.370
REMARK UNBOUND:                -1.467
REMARK SMILES CCCCCCCCCCCC(=O)[O-]
REMARK SMILES IDX 7 1 8 2 9 3 10 4 11 5 12 6 13 7 14 8 6 9 5 10 4 11 3 12 2 13
REMARK SMILES IDX 1 14
REMARK H PARENT
REMARK Flexibility Score: inf
ROOT
ATOM      1  C   UNL     1       5.337   7.464   9.787  1.00  0.00     0.000 C 
ENDROOT
BRANCH   1   2
ATOM      2  C   UNL     1       3.967   7.157  10.416  1.00  0.00     0.000 C 
BRANCH   2   3
ATOM      3  C   UNL     1       3.940   7.423  11.930  1.00  0.00     0.000 C 
BRANCH   3   4
ATOM      4  C   UNL     1       5.105   6.748  12.671  1.00  0.00     0.006 C 
BRANCH   4   5
ATOM      5  C   UNL     1       5.416   7.479  13.981  1.00  0.00     0.053 C 
BRANCH   5   6
ATOM      6  C   UNL     1       6.057   6.549  14.962  1.00  0.00     0.041 C 
ATOM      7  O   UNL     1       5.376   6.036  15.887  1.00  0.00    -0.550 OA
ATOM      8  O   UNL     1       7.420   6.289  14.884  1.00  0.00    -0.550 OA
ENDBRANCH   5   6
ENDBRANCH   4   5
ENDBRANCH   3   4
ENDBRANCH   2   3
ENDBRANCH   1   2
BRANCH   1   9
ATOM      9  C   UNL     1       5.648   8.970   9.729  1.00  0.00     0.000 C 
BRANCH   9  10
ATOM     10  C   UNL     1       6.946   9.399  10.436  1.00  0.00    -0.000 C 
BRANCH  10  11
ATOM     11  C   UNL     1       8.067   8.356  10.315  1.00  0.00    -0.000 C 
BRANCH  11  12
ATOM     12  C   UNL     1       8.411   7.758  11.685  1.00  0.00    -0.000 C 
BRANCH  12  13
ATOM     13  C   UNL     1       8.683   6.253  11.575  1.00  0.00    -0.003 C 
ATOM     14  C   UNL     1       8.883   5.834  10.121  1.00  0.00     0.004 C 
ENDBRANCH  12  13
ENDBRANCH  11  12
ENDBRANCH  10  11
ENDBRANCH   9  10
ENDBRANCH   1   9
TORSDOF 10
ENDMDL
MODEL 5
REMARK VINA RESULT:    -4.608      1.907      3.867
REMARK INTER + INTRA:          -8.770
REMARK INTER:                  -7.446
REMARK INTRA:                  -1.323
REMARK UNBOUND:                -1.467
REMARK SMILES CCCCCCCCCCCC(=O)[O-]
REMARK SMILES IDX 7 1 8 2 9 3 10 4 11 5 12 6 13 7 14 8 6 9 5 10 4 11 3 12 2 13
REMARK SMILES IDX 1 14
REMARK H PARENT
REMARK Flexibility Score: inf
ROOT
ATOM      1  C   UNL     1       4.942   7.890   9.542  1.00  0.00     0.000 C 
ENDROOT
BRANCH   1   2
ATOM      2  C   UNL     1       5.242   9.386   9.741  1.00  0.00     0.000 C 
BRANCH   2   3
ATOM      3  C   UNL     1       6.404   9.630  10.717  1.00  0.00     0.000 C 
BRANCH   3   4
ATOM      4  C   UNL     1       7.700   8.926  10.285  1.00  0.00     0.006 C 
BRANCH   4   5
ATOM      5  C   UNL     1       8.209   7.993  11.388  1.00  0.00     0.053 C 
BRANCH   5   6
ATOM      6  C   UNL     1       8.431   6.615  10.849  1.00  0.00     0.041 C 
ATOM      7  O   UNL     1       7.695   6.167   9.932  1.00  0.00    -0.550 OA
ATOM      8  O   UNL     1       9.420   5.807  11.395  1.00  0.00    -0.550 OA
ENDBRANCH   5   6
ENDBRANCH   4   5
ENDBRANCH   3   4
ENDBRANCH   2   3
ENDBRANCH   1   2
BRANCH   1   9
ATOM      9  C   UNL     1       4.003   7.318  10.619  1.00  0.00     0.000 C 
BRANCH   9  10
ATOM     10  C   UNL     1       4.706   6.718  11.851  1.00  0.00    -0.000 C 
BRANCH  10  11
ATOM     11  C   UNL     1       4.457   7.523  13.134  1.00  0.00    -0.000 C 
BRANCH  11  12
ATOM     12  C   UNL     1       5.652   7.417  14.090  1.00  0.00    -0.000 C 
BRANCH  12  13
ATOM     13  C   UNL     1       6.128   5.965  14.216  1.00  0.00    -0.003 C 
ATOM     14  C   UNL     1       7.636   5.897  14.438  1.00  0.00     0.004 C 
ENDBRANCH  12  13
ENDBRANCH  11  12
ENDBRANCH  10  11
ENDBRANCH   9  10
ENDBRANCH   1   9
TORSDOF 10
ENDMDL
MODEL 6
REMARK VINA RESULT:    -4.594      2.577      3.955
REMARK INTER + INTRA:          -8.748
REMARK INTER:                  -7.692
REMARK INTRA:                  -1.056
REMARK UNBOUND:                -1.467
REMARK SMILES CCCCCCCCCCCC(=O)[O-]
REMARK SMILES IDX 7 1 8 2 9 3 10 4 11 5 12 6 13 7 14 8 6 9 5 10 4 11 3 12 2 13
REMARK SMILES IDX 1 14
REMARK H PARENT
REMARK Flexibility Score: inf
ROOT
ATOM      1  C   UNL     1       5.291   7.444  14.811  1.00  0.00     0.000 C 
ENDROOT
BRANCH   1   2
ATOM      2  C   UNL     1       3.870   7.695  14.279  1.00  0.00     0.000 C 
BRANCH   2   3
ATOM      3  C   UNL     1       3.867   8.373  12.900  1.00  0.00     0.000 C 
BRANCH   3   4
ATOM      4  C   UNL     1       3.043   7.598  11.860  1.00  0.00     0.006 C 
BRANCH   4   5
ATOM      5  C   UNL     1       3.943   6.698  11.008  1.00  0.00     0.053 C 
BRANCH   5   6
ATOM      6  C   UNL     1       4.499   7.459   9.846  1.00  0.00     0.041 C 
ATOM      7  O   UNL     1       5.689   7.278   9.481  1.00  0.00    -0.550 OA
ATOM      8  O   UNL     1       3.716   8.406   9.197  1.00  0.00    -0.550 OA
ENDBRANCH   5   6
ENDBRANCH   4   5
ENDBRANCH   3   4
ENDBRANCH   2   3
ENDBRANCH   1   2
BRANCH   1   9
ATOM      9  C   UNL     1       6.010   6.293  14.083  1.00  0.00     0.000 C 
BRANCH   9  10
ATOM     10  C   UNL     1       7.423   6.626  13.568  1.00  0.00    -0.000 C 
BRANCH  10  11
ATOM     11  C   UNL     1       7.421   7.694  12.465  1.00  0.00    -0.000 C 
BRANCH  11  12
ATOM     12  C   UNL     1       8.583   7.476  11.487  1.00  0.00    -0.000 C 
BRANCH  12  13
ATOM     13  C   UNL     1       8.938   5.988  11.378  1.00  0.00    -0.003 C 
ATOM     14  C   UNL     1       9.215   5.593   9.930  1.00  0.00     0.004 C 
ENDBRANCH  12  13
ENDBRANCH  11  12
ENDBRANCH  10  11
ENDBRANCH   9  10
ENDBRANCH   1   9
TORSDOF 10
ENDMDL
MODEL 7
REMARK VINA RESULT:    -4.452      1.715      3.534
REMARK INTER + INTRA:          -8.522
REMARK INTER:                  -7.492
REMARK INTRA:                  -1.031
REMARK UNBOUND:                -1.467
REMARK SMILES CCCCCCCCCCCC(=O)[O-]
REMARK SMILES IDX 7 1 8 2 9 3 10 4 11 5 12 6 13 7 14 8 6 9 5 10 4 11 3 12 2 13
REMARK SMILES IDX 1 14
REMARK H PARENT
REMARK Flexibility Score: inf
ROOT
ATOM      1  C   UNL     1       8.259   6.449  11.886  1.00  0.00     0.000 C 
ENDROOT
BRANCH   1   2
ATOM      2  C   UNL     1       7.553   7.063  13.106  1.00  0.00     0.000 C 
BRANCH   2   3
ATOM      3  C   UNL     1       7.377   6.057  14.255  1.00  0.00     0.000 C 
BRANCH   3   4
ATOM      4  C   UNL     1       5.903   5.832  14.626  1.00  0.00     0.006 C 
BRANCH   4   5
ATOM      5  C   UNL     1       5.602   6.381  16.024  1.00  0.00     0.053 C 
BRANCH   5   6
ATOM      6  C   UNL     1       4.690   7.564  15.937  1.00  0.00     0.041 C 
ATOM      7  O   UNL     1       3.980   7.890  16.924  1.00  0.00    -0.550 OA
ATOM      8  O   UNL     1       4.586   8.276  14.749  1.00  0.00    -0.550 OA
ENDBRANCH   5   6
ENDBRANCH   4   5
ENDBRANCH   3   4
ENDBRANCH   2   3
ENDBRANCH   1   2
BRANCH   1   9
ATOM      9  C   UNL     1       8.307   7.401  10.677  1.00  0.00     0.000 C 
BRANCH   9  10
ATOM     10  C   UNL     1       7.653   8.777  10.901  1.00  0.00    -0.000 C 
BRANCH  10  11
ATOM     11  C   UNL     1       6.352   8.959  10.107  1.00  0.00    -0.000 C 
BRANCH  11  12
ATOM     12  C   UNL     1       5.783   7.604   9.667  1.00  0.00    -0.000 C 
BRANCH  12  13
ATOM     13  C   UNL     1       4.317   7.458  10.093  1.00  0.00    -0.003 C 
ATOM     14  C   UNL     1       4.201   6.718  11.423  1.00  0.00     0.004 C 
ENDBRANCH  12  13
ENDBRANCH  11  12
ENDBRANCH  10  11
ENDBRANCH   9  10
ENDBRANCH   1   9
TORSDOF 10
ENDMDL
MODEL 8
REMARK VINA RESULT:    -4.389      3.102      5.944
REMARK INTER + INTRA:          -8.421
REMARK INTER:                  -7.683
REMARK INTRA:                  -0.739
REMARK UNBOUND:                -1.467
REMARK SMILES CCCCCCCCCCCC(=O)[O-]
REMARK SMILES IDX 7 1 8 2 9 3 10 4 11 5 12 6 13 7 14 8 6 9 5 10 4 11 3 12 2 13
REMARK SMILES IDX 1 14
REMARK H PARENT
REMARK Flexibility Score: inf
ROOT
ATOM      1  C   UNL     1       7.434   6.660  14.126  1.00  0.00     0.000 C 
ENDROOT
BRANCH   1   2
ATOM      2  C   UNL     1       8.062   6.351  12.756  1.00  0.00     0.000 C 
BRANCH   2   3
ATOM      3  C   UNL     1       7.897   7.507  11.757  1.00  0.00     0.000 C 
BRANCH   3   4
ATOM      4  C   UNL     1       7.271   7.058  10.428  1.00  0.00     0.006 C 
BRANCH   4   5
ATOM      5  C   UNL     1       6.279   8.104   9.909  1.00  0.00     0.053 C 
BRANCH   5   6
ATOM      6  C   UNL     1       4.877   7.590  10.004  1.00  0.00     0.041 C 
ATOM      7  O   UNL     1       4.595   6.661  10.805  1.00  0.00    -0.550 OA
ATOM      8  O   UNL     1       3.892   8.104   9.170  1.00  0.00    -0.550 OA
ENDBRANCH   5   6
ENDBRANCH   4   5
ENDBRANCH   3   4
ENDBRANCH   2   3
ENDBRANCH   1   2
BRANCH   1   9
ATOM      9  C   UNL     1       6.014   6.083  14.280  1.00  0.00     0.000 C 
BRANCH   9  10
ATOM     10  C   UNL     1       4.889   7.130  14.375  1.00  0.00    -0.000 C 
BRANCH  10  11
ATOM     11  C   UNL     1       4.068   7.011  15.667  1.00  0.00    -0.000 C 
BRANCH  11  12
ATOM     12  C   UNL     1       4.728   6.035  16.649  1.00  0.00    -0.000 C 
BRANCH  12  13
ATOM     13  C   UNL     1       3.750   4.931  17.068  1.00  0.00    -0.003 C 
ATOM     14  C   UNL     1       2.322   5.464  17.154  1.00  0.00     0.004 C 
ENDBRANCH  12  13
ENDBRANCH  11  12
ENDBRANCH  10  11
ENDBRANCH   9  10
ENDBRANCH   1   9
TORSDOF 10
ENDMDL
MODEL 9
REMARK VINA RESULT:    -4.385      1.996      3.944
REMARK INTER + INTRA:          -8.416
REMARK INTER:                  -7.321
REMARK INTRA:                  -1.094
REMARK UNBOUND:                -1.467
REMARK SMILES CCCCCCCCCCCC(=O)[O-]
REMARK SMILES IDX 7 1 8 2 9 3 10 4 11 5 12 6 13 7 14 8 6 9 5 10 4 11 3 12 2 13
REMARK SMILES IDX 1 14
REMARK H PARENT
REMARK Flexibility Score: inf
ROOT
ATOM      1  C   UNL     1       2.787   7.491  11.506  1.00  0.00     0.000 C 
ENDROOT
BRANCH   1   2
ATOM      2  C   UNL     1       3.981   6.805  10.821  1.00  0.00     0.000 C 
BRANCH   2   3
ATOM      3  C   UNL     1       4.590   7.661   9.701  1.00  0.00     0.000 C 
BRANCH   3   4
ATOM      4  C   UNL     1       6.070   7.995   9.947  1.00  0.00     0.006 C 
BRANCH   4   5
ATOM      5  C   UNL     1       6.857   6.740  10.335  1.00  0.00     0.053 C 
BRANCH   5   6
ATOM      6  C   UNL     1       8.185   7.110  10.916  1.00  0.00     0.041 C 
ATOM      7  O   UNL     1       9.147   6.300  10.865  1.00  0.00    -0.550 OA
ATOM      8  O   UNL     1       8.346   8.331  11.558  1.00  0.00    -0.550 OA
ENDBRANCH   5   6
ENDBRANCH   4   5
ENDBRANCH   3   4
ENDBRANCH   2   3
ENDBRANCH   1   2
BRANCH   1   9
ATOM      9  C   UNL     1       3.121   8.009  12.917  1.00  0.00     0.000 C 
BRANCH   9  10
ATOM     10  C   UNL     1       4.565   7.751  13.385  1.00  0.00    -0.000 C 
BRANCH  10  11
ATOM     11  C   UNL     1       4.685   7.609  14.909  1.00  0.00    -0.000 C 
BRANCH  11  12
ATOM     12  C   UNL     1       5.397   6.303  15.285  1.00  0.00    -0.000 C 
BRANCH  12  13
ATOM     13  C   UNL     1       6.251   5.788  14.120  1.00  0.00    -0.003 C 
ATOM     14  C   UNL     1       7.740   5.918  14.429  1.00  0.00     0.004 C 
ENDBRANCH  12  13
ENDBRANCH  11  12
ENDBRANCH  10  11
ENDBRANCH   9  10
ENDBRANCH   1   9
TORSDOF 10
ENDMDL
