MODEL 1
REMARK VINA RESULT:    -3.843      0.000      0.000
REMARK INTER + INTRA:          -4.940
REMARK INTER:                  -4.630
REMARK INTRA:                  -0.310
REMARK UNBOUND:                -0.310
REMARK SMILES O=c1c(O)c(-c2ccc(O)c(O)c2)oc2cc(O)cc(O)c12
REMARK SMILES IDX 5 1 3 2 2 3 1 4 22 5 20 6 19 7 17 8 16 9 15 10 14 11 6 12
REMARK SMILES IDX 7 13 8 14 9 15 13 16 11 17 10 18 12 20 4 22 21 24 18 26
REMARK H PARENT 10 19 12 21 4 23 21 25 18 27
REMARK Flexibility Score: inf
ROOT
ATOM      1  C   UNL     1     122.620 124.958 136.116  1.00  0.00     0.180 A 
ATOM      2  C   UNL     1     123.474 123.845 135.986  1.00  0.00     0.208 A 
ATOM      3  C   UNL     1     123.668 123.284 134.714  1.00  0.00     0.238 A 
ATOM      4  O   UNL     1     124.438 122.294 134.583  1.00  0.00    -0.285 OA
ATOM      5  C   UNL     1     122.994 123.830 133.602  1.00  0.00     0.111 A 
ATOM      6  C   UNL     1     123.132 123.320 132.287  1.00  0.00     0.134 A 
ATOM      7  C   UNL     1     122.420 123.913 131.234  1.00  0.00     0.093 A 
ATOM      8  C   UNL     1     121.574 125.000 131.467  1.00  0.00     0.123 A 
ATOM      9  C   UNL     1     121.434 125.507 132.764  1.00  0.00     0.094 A 
ATOM     10  C   UNL     1     122.137 124.931 133.827  1.00  0.00     0.146 A 
ATOM     11  O   UNL     1     121.990 125.435 135.046  1.00  0.00    -0.452 OA
ENDROOT
BRANCH   1  12
ATOM     12  C   UNL     1     122.380 125.617 137.420  1.00  0.00     0.025 A 
ATOM     13  C   UNL     1     121.178 125.376 138.103  1.00  0.00     0.016 A 
ATOM     14  C   UNL     1     120.920 126.002 139.325  1.00  0.00     0.051 A 
ATOM     15  C   UNL     1     121.854 126.891 139.874  1.00  0.00     0.157 A 
ATOM     16  C   UNL     1     123.306 126.525 137.963  1.00  0.00     0.062 A 
ATOM     17  C   UNL     1     123.050 127.156 139.186  1.00  0.00     0.158 A 
BRANCH  15  18
ATOM     18  O   UNL     1     121.595 127.513 141.094  1.00  0.00    -0.504 OA
ATOM     19  H   UNL     1     122.247 128.173 141.504  1.00  0.00     0.293 HD
ENDBRANCH  15  18
BRANCH  17  20
ATOM     20  O   UNL     1     123.993 128.047 139.699  1.00  0.00    -0.504 OA
ATOM     21  H   UNL     1     124.615 128.576 139.100  1.00  0.00     0.293 HD
ENDBRANCH  17  20
ENDBRANCH   1  12
BRANCH   2  22
ATOM     22  O   UNL     1     124.091 123.293 137.112  1.00  0.00    -0.502 OA
ATOM     23  H   UNL     1     124.558 123.862 137.807  1.00  0.00     0.293 HD
ENDBRANCH   2  22
BRANCH   6  24
ATOM     24  O   UNL     1     123.967 122.235 132.021  1.00  0.00    -0.507 OA
ATOM     25  H   UNL     1     123.718 121.522 131.344  1.00  0.00     0.293 HD
ENDBRANCH   6  24
BRANCH   8  26
ATOM     26  O   UNL     1     120.877 125.569 130.404  1.00  0.00    -0.508 OA
ATOM     27  H   UNL     1     120.511 126.513 130.456  1.00  0.00     0.293 HD
ENDBRANCH   8  26
TORSDOF 6
ENDMDL
MODEL 2
REMARK VINA RESULT:    -3.805      6.649     12.054
REMARK INTER + INTRA:          -4.894
REMARK INTER:                  -4.564
REMARK INTRA:                  -0.330
REMARK UNBOUND:                -0.310
REMARK SMILES O=c1c(O)c(-c2ccc(O)c(O)c2)oc2cc(O)cc(O)c12
REMARK SMILES IDX 5 1 3 2 2 3 1 4 22 5 20 6 19 7 17 8 16 9 15 10 14 11 6 12
REMARK SMILES IDX 7 13 8 14 9 15 13 16 11 17 10 18 12 20 4 22 21 24 18 26
REMARK H PARENT 10 19 12 21 4 23 21 25 18 27
REMARK Flexibility Score: inf
ROOT
ATOM      1  C   UNL     1     121.724 126.229 125.488  1.00  0.00     0.180 A 
ATOM      2  C   UNL     1     121.587 127.609 125.243  1.00  0.00     0.208 A 
ATOM      3  C   UNL     1     121.354 128.471 126.325  1.00  0.00     0.238 A 
ATOM      4  O   UNL     1     121.240 129.710 126.119  1.00  0.00    -0.285 OA
ATOM      5  C   UNL     1     121.244 127.940 127.627  1.00  0.00     0.111 A 
ATOM      6  C   UNL     1     121.006 128.740 128.772  1.00  0.00     0.134 A 
ATOM      7  C   UNL     1     120.900 128.135 130.033  1.00  0.00     0.093 A 
ATOM      8  C   UNL     1     121.024 126.751 130.173  1.00  0.00     0.123 A 
ATOM      9  C   UNL     1     121.259 125.956 129.046  1.00  0.00     0.094 A 
ATOM     10  C   UNL     1     121.371 126.540 127.780  1.00  0.00     0.146 A 
ATOM     11  O   UNL     1     121.599 125.763 126.728  1.00  0.00    -0.452 OA
ENDROOT
BRANCH   1  12
ATOM     12  C   UNL     1     121.990 125.260 124.401  1.00  0.00     0.025 A 
ATOM     13  C   UNL     1     120.911 124.643 123.748  1.00  0.00     0.016 A 
ATOM     14  C   UNL     1     121.137 123.709 122.734  1.00  0.00     0.051 A 
ATOM     15  C   UNL     1     122.446 123.366 122.369  1.00  0.00     0.157 A 
ATOM     16  C   UNL     1     123.301 124.898 124.047  1.00  0.00     0.062 A 
ATOM     17  C   UNL     1     123.532 123.961 123.032  1.00  0.00     0.158 A 
BRANCH  15  18
ATOM     18  O   UNL     1     122.669 122.436 121.355  1.00  0.00    -0.504 OA
ATOM     19  H   UNL     1     123.583 122.317 120.934  1.00  0.00     0.293 HD
ENDBRANCH  15  18
BRANCH  17  20
ATOM     20  O   UNL     1     124.846 123.630 122.702  1.00  0.00    -0.504 OA
ATOM     21  H   UNL     1     125.635 123.950 123.250  1.00  0.00     0.293 HD
ENDBRANCH  17  20
ENDBRANCH   1  12
BRANCH   2  22
ATOM     22  O   UNL     1     121.651 128.104 123.937  1.00  0.00    -0.502 OA
ATOM     23  H   UNL     1     121.723 129.094 123.735  1.00  0.00     0.293 HD
ENDBRANCH   2  22
BRANCH   6  24
ATOM     24  O   UNL     1     120.875 130.125 128.666  1.00  0.00    -0.507 OA
ATOM     25  H   UNL     1     120.529 130.565 127.820  1.00  0.00     0.293 HD
ENDBRANCH   6  24
BRANCH   8  26
ATOM     26  O   UNL     1     120.913 126.175 131.436  1.00  0.00    -0.508 OA
ATOM     27  H   UNL     1     121.514 125.411 131.724  1.00  0.00     0.293 HD
ENDBRANCH   8  26
TORSDOF 6
ENDMDL
MODEL 3
REMARK VINA RESULT:    -3.571      5.017      8.641
REMARK INTER + INTRA:          -4.611
REMARK INTER:                  -4.619
REMARK INTRA:                   0.007
REMARK UNBOUND:                -0.310
REMARK SMILES O=c1c(O)c(-c2ccc(O)c(O)c2)oc2cc(O)cc(O)c12
REMARK SMILES IDX 5 1 3 2 2 3 1 4 22 5 20 6 19 7 17 8 16 9 15 10 14 11 6 12
REMARK SMILES IDX 7 13 8 14 9 15 13 16 11 17 10 18 12 20 4 22 21 24 18 26
REMARK H PARENT 10 19 12 21 4 23 21 25 18 27
REMARK Flexibility Score: inf
ROOT
ATOM      1  C   UNL     1     121.676 126.698 128.442  1.00  0.00     0.180 A 
ATOM      2  C   UNL     1     121.851 128.092 128.343  1.00  0.00     0.208 A 
ATOM      3  C   UNL     1     121.811 128.693 127.075  1.00  0.00     0.238 A 
ATOM      4  O   UNL     1     121.956 129.942 126.975  1.00  0.00    -0.285 OA
ATOM      5  C   UNL     1     121.616 127.892 125.931  1.00  0.00     0.111 A 
ATOM      6  C   UNL     1     121.568 128.419 124.617  1.00  0.00     0.134 A 
ATOM      7  C   UNL     1     121.379 127.555 123.528  1.00  0.00     0.093 A 
ATOM      8  C   UNL     1     121.242 126.179 123.725  1.00  0.00     0.123 A 
ATOM      9  C   UNL     1     121.289 125.653 125.021  1.00  0.00     0.094 A 
ATOM     10  C   UNL     1     121.474 126.498 126.120  1.00  0.00     0.146 A 
ATOM     11  O   UNL     1     121.510 125.974 127.339  1.00  0.00    -0.452 OA
ENDROOT
BRANCH   1  12
ATOM     12  C   UNL     1     121.686 125.995 129.745  1.00  0.00     0.025 A 
ATOM     13  C   UNL     1     120.875 126.465 130.789  1.00  0.00     0.016 A 
ATOM     14  C   UNL     1     120.885 125.831 132.034  1.00  0.00     0.051 A 
ATOM     15  C   UNL     1     121.716 124.725 132.257  1.00  0.00     0.157 A 
ATOM     16  C   UNL     1     122.535 124.899 129.978  1.00  0.00     0.062 A 
ATOM     17  C   UNL     1     122.548 124.261 131.225  1.00  0.00     0.158 A 
BRANCH  15  18
ATOM     18  O   UNL     1     121.722 124.093 133.499  1.00  0.00    -0.504 OA
ATOM     19  H   UNL     1     122.587 123.844 133.965  1.00  0.00     0.293 HD
ENDBRANCH  15  18
BRANCH  17  20
ATOM     20  O   UNL     1     123.399 123.172 131.420  1.00  0.00    -0.504 OA
ATOM     21  H   UNL     1     124.253 123.247 131.957  1.00  0.00     0.293 HD
ENDBRANCH  17  20
ENDBRANCH   1  12
BRANCH   2  22
ATOM     22  O   UNL     1     122.091 128.857 129.488  1.00  0.00    -0.502 OA
ATOM     23  H   UNL     1     122.497 128.462 130.328  1.00  0.00     0.293 HD
ENDBRANCH   2  22
BRANCH   6  24
ATOM     24  O   UNL     1     121.703 129.788 124.386  1.00  0.00    -0.507 OA
ATOM     25  H   UNL     1     122.309 130.368 124.956  1.00  0.00     0.293 HD
ENDBRANCH   6  24
BRANCH   8  26
ATOM     26  O   UNL     1     121.058 125.342 122.627  1.00  0.00    -0.508 OA
ATOM     27  H   UNL     1     121.415 125.585 121.710  1.00  0.00     0.293 HD
ENDBRANCH   8  26
TORSDOF 6
ENDMDL
MODEL 4
REMARK VINA RESULT:    -3.559      9.268     11.557
REMARK INTER + INTRA:          -4.598
REMARK INTER:                  -4.288
REMARK INTRA:                  -0.309
REMARK UNBOUND:                -0.310
REMARK SMILES O=c1c(O)c(-c2ccc(O)c(O)c2)oc2cc(O)cc(O)c12
REMARK SMILES IDX 5 1 3 2 2 3 1 4 22 5 20 6 19 7 17 8 16 9 15 10 14 11 6 12
REMARK SMILES IDX 7 13 8 14 9 15 13 16 11 17 10 18 12 20 4 22 21 24 18 26
REMARK H PARENT 10 19 12 21 4 23 21 25 18 27
REMARK Flexibility Score: inf
ROOT
ATOM      1  C   UNL     1     122.988 125.204 124.745  1.00  0.00     0.180 A 
ATOM      2  C   UNL     1     124.360 124.885 124.723  1.00  0.00     0.208 A 
ATOM      3  C   UNL     1     124.793 123.805 123.940  1.00  0.00     0.238 A 
ATOM      4  O   UNL     1     126.019 123.515 123.903  1.00  0.00    -0.285 OA
ATOM      5  C   UNL     1     123.850 123.052 123.209  1.00  0.00     0.111 A 
ATOM      6  C   UNL     1     124.203 121.945 122.399  1.00  0.00     0.134 A 
ATOM      7  C   UNL     1     123.204 121.241 121.710  1.00  0.00     0.093 A 
ATOM      8  C   UNL     1     121.863 121.618 121.816  1.00  0.00     0.123 A 
ATOM      9  C   UNL     1     121.509 122.710 122.615  1.00  0.00     0.094 A 
ATOM     10  C   UNL     1     122.490 123.427 123.308  1.00  0.00     0.146 A 
ATOM     11  O   UNL     1     122.127 124.462 124.055  1.00  0.00    -0.452 OA
ENDROOT
BRANCH   1  12
ATOM     12  C   UNL     1     122.458 126.341 125.532  1.00  0.00     0.025 A 
ATOM     13  C   UNL     1     122.166 126.161 126.893  1.00  0.00     0.016 A 
ATOM     14  C   UNL     1     121.645 127.213 127.650  1.00  0.00     0.051 A 
ATOM     15  C   UNL     1     121.393 128.456 127.054  1.00  0.00     0.157 A 
ATOM     16  C   UNL     1     122.185 127.583 124.932  1.00  0.00     0.062 A 
ATOM     17  C   UNL     1     121.661 128.639 125.687  1.00  0.00     0.158 A 
BRANCH  15  18
ATOM     18  O   UNL     1     120.875 129.504 127.813  1.00  0.00    -0.504 OA
ATOM     19  H   UNL     1     120.942 129.513 128.824  1.00  0.00     0.293 HD
ENDBRANCH  15  18
BRANCH  17  20
ATOM     20  O   UNL     1     121.407 129.860 125.061  1.00  0.00    -0.504 OA
ATOM     21  H   UNL     1     121.270 130.715 125.585  1.00  0.00     0.293 HD
ENDBRANCH  17  20
ENDBRANCH   1  12
BRANCH   2  22
ATOM     22  O   UNL     1     125.267 125.616 125.495  1.00  0.00    -0.502 OA
ATOM     23  H   UNL     1     124.989 126.114 126.332  1.00  0.00     0.293 HD
ENDBRANCH   2  22
BRANCH   6  24
ATOM     24  O   UNL     1     125.533 121.542 122.273  1.00  0.00    -0.507 OA
ATOM     25  H   UNL     1     126.237 121.804 122.954  1.00  0.00     0.293 HD
ENDBRANCH   6  24
BRANCH   8  26
ATOM     26  O   UNL     1     120.891 120.901 121.123  1.00  0.00    -0.508 OA
ATOM     27  H   UNL     1     119.979 120.719 121.526  1.00  0.00     0.293 HD
ENDBRANCH   8  26
TORSDOF 6
ENDMDL
MODEL 5
REMARK VINA RESULT:    -3.530     18.402     20.566
REMARK INTER + INTRA:          -4.563
REMARK INTER:                  -4.233
REMARK INTRA:                  -0.330
REMARK UNBOUND:                -0.310
REMARK SMILES O=c1c(O)c(-c2ccc(O)c(O)c2)oc2cc(O)cc(O)c12
REMARK SMILES IDX 5 1 3 2 2 3 1 4 22 5 20 6 19 7 17 8 16 9 15 10 14 11 6 12
REMARK SMILES IDX 7 13 8 14 9 15 13 16 11 17 10 18 12 20 4 22 21 24 18 26
REMARK H PARENT 10 19 12 21 4 23 21 25 18 27
REMARK Flexibility Score: inf
ROOT
ATOM      1  C   UNL     1     138.827 124.164 125.052  1.00  0.00     0.180 A 
ATOM      2  C   UNL     1     139.195 125.510 124.861  1.00  0.00     0.208 A 
ATOM      3  C   UNL     1     139.698 126.237 125.951  1.00  0.00     0.238 A 
ATOM      4  O   UNL     1     140.041 127.439 125.791  1.00  0.00    -0.285 OA
ATOM      5  C   UNL     1     139.807 125.615 127.213  1.00  0.00     0.111 A 
ATOM      6  C   UNL     1     140.300 126.278 128.363  1.00  0.00     0.134 A 
ATOM      7  C   UNL     1     140.369 125.593 129.585  1.00  0.00     0.093 A 
ATOM      8  C   UNL     1     139.953 124.263 129.681  1.00  0.00     0.123 A 
ATOM      9  C   UNL     1     139.466 123.603 128.548  1.00  0.00     0.094 A 
ATOM     10  C   UNL     1     139.391 124.267 127.320  1.00  0.00     0.146 A 
ATOM     11  O   UNL     1     138.929 123.616 126.260  1.00  0.00    -0.452 OA
ENDROOT
BRANCH   1  12
ATOM     12  C   UNL     1     138.306 123.327 123.947  1.00  0.00     0.025 A 
ATOM     13  C   UNL     1     136.919 123.189 123.780  1.00  0.00     0.016 A 
ATOM     14  C   UNL     1     136.405 122.388 122.758  1.00  0.00     0.051 A 
ATOM     15  C   UNL     1     137.270 121.700 121.897  1.00  0.00     0.157 A 
ATOM     16  C   UNL     1     139.171 122.619 123.094  1.00  0.00     0.062 A 
ATOM     17  C   UNL     1     138.660 121.813 122.070  1.00  0.00     0.158 A 
BRANCH  15  18
ATOM     18  O   UNL     1     136.754 120.902 120.876  1.00  0.00    -0.504 OA
ATOM     19  H   UNL     1     136.728 119.892 120.953  1.00  0.00     0.293 HD
ENDBRANCH  15  18
BRANCH  17  20
ATOM     20  O   UNL     1     139.547 121.129 121.239  1.00  0.00    -0.504 OA
ATOM     21  H   UNL     1     140.140 121.610 120.573  1.00  0.00     0.293 HD
ENDBRANCH  17  20
ENDBRANCH   1  12
BRANCH   2  22
ATOM     22  O   UNL     1     139.031 126.117 123.613  1.00  0.00    -0.502 OA
ATOM     23  H   UNL     1     139.805 126.525 123.103  1.00  0.00     0.293 HD
ENDBRANCH   2  22
BRANCH   6  24
ATOM     24  O   UNL     1     140.720 127.607 128.300  1.00  0.00    -0.507 OA
ATOM     25  H   UNL     1     141.465 127.959 128.891  1.00  0.00     0.293 HD
ENDBRANCH   6  24
BRANCH   8  26
ATOM     26  O   UNL     1     140.031 123.605 130.907  1.00  0.00    -0.508 OA
ATOM     27  H   UNL     1     140.067 124.116 131.780  1.00  0.00     0.293 HD
ENDBRANCH   8  26
TORSDOF 6
ENDMDL
MODEL 6
REMARK VINA RESULT:    -3.438      9.960     12.730
REMARK INTER + INTRA:          -4.451
REMARK INTER:                  -4.135
REMARK INTRA:                  -0.316
REMARK UNBOUND:                -0.310
REMARK SMILES O=c1c(O)c(-c2ccc(O)c(O)c2)oc2cc(O)cc(O)c12
REMARK SMILES IDX 5 1 3 2 2 3 1 4 22 5 20 6 19 7 17 8 16 9 15 10 14 11 6 12
REMARK SMILES IDX 7 13 8 14 9 15 13 16 11 17 10 18 12 20 4 22 21 24 18 26
REMARK H PARENT 10 19 12 21 4 23 21 25 18 27
REMARK Flexibility Score: inf
ROOT
ATOM      1  C   UNL     1     121.744 126.883 124.756  1.00  0.00     0.180 A 
ATOM      2  C   UNL     1     121.597 127.152 126.130  1.00  0.00     0.208 A 
ATOM      3  C   UNL     1     121.360 128.472 126.542  1.00  0.00     0.238 A 
ATOM      4  O   UNL     1     121.216 128.724 127.769  1.00  0.00    -0.285 OA
ATOM      5  C   UNL     1     121.294 129.501 125.579  1.00  0.00     0.111 A 
ATOM      6  C   UNL     1     121.064 130.858 125.911  1.00  0.00     0.134 A 
ATOM      7  C   UNL     1     121.021 131.825 124.895  1.00  0.00     0.093 A 
ATOM      8  C   UNL     1     121.206 131.464 123.559  1.00  0.00     0.123 A 
ATOM      9  C   UNL     1     121.434 130.124 123.225  1.00  0.00     0.094 A 
ATOM     10  C   UNL     1     121.478 129.145 124.223  1.00  0.00     0.146 A 
ATOM     11  O   UNL     1     121.691 127.881 123.878  1.00  0.00    -0.452 OA
ENDROOT
BRANCH   1  12
ATOM     12  C   UNL     1     121.977 125.514 124.243  1.00  0.00     0.025 A 
ATOM     13  C   UNL     1     120.882 124.729 123.849  1.00  0.00     0.016 A 
ATOM     14  C   UNL     1     121.075 123.427 123.381  1.00  0.00     0.051 A 
ATOM     15  C   UNL     1     122.365 122.884 123.316  1.00  0.00     0.157 A 
ATOM     16  C   UNL     1     123.268 124.959 124.196  1.00  0.00     0.062 A 
ATOM     17  C   UNL     1     123.465 123.653 123.730  1.00  0.00     0.158 A 
BRANCH  15  18
ATOM     18  O   UNL     1     122.555 121.585 122.848  1.00  0.00    -0.504 OA
ATOM     19  H   UNL     1     122.125 121.261 121.989  1.00  0.00     0.293 HD
ENDBRANCH  15  18
BRANCH  17  20
ATOM     20  O   UNL     1     124.761 123.137 123.691  1.00  0.00    -0.504 OA
ATOM     21  H   UNL     1     125.280 123.050 122.826  1.00  0.00     0.293 HD
ENDBRANCH  17  20
ENDBRANCH   1  12
BRANCH   2  22
ATOM     22  O   UNL     1     121.716 126.122 127.068  1.00  0.00    -0.502 OA
ATOM     23  H   UNL     1     121.222 125.243 126.973  1.00  0.00     0.293 HD
ENDBRANCH   2  22
BRANCH   6  24
ATOM     24  O   UNL     1     120.877 131.252 127.237  1.00  0.00    -0.507 OA
ATOM     25  H   UNL     1     120.145 130.853 127.814  1.00  0.00     0.293 HD
ENDBRANCH   6  24
BRANCH   8  26
ATOM     26  O   UNL     1     121.160 132.443 122.569  1.00  0.00    -0.508 OA
ATOM     27  H   UNL     1     121.350 133.416 122.778  1.00  0.00     0.293 HD
ENDBRANCH   8  26
TORSDOF 6
ENDMDL
MODEL 7
REMARK VINA RESULT:    -3.428      5.684     11.406
REMARK INTER + INTRA:          -4.439
REMARK INTER:                  -4.235
REMARK INTRA:                  -0.205
REMARK UNBOUND:                -0.310
REMARK SMILES O=c1c(O)c(-c2ccc(O)c(O)c2)oc2cc(O)cc(O)c12
REMARK SMILES IDX 5 1 3 2 2 3 1 4 22 5 20 6 19 7 17 8 16 9 15 10 14 11 6 12
REMARK SMILES IDX 7 13 8 14 9 15 13 16 11 17 10 18 12 20 4 22 21 24 18 26
REMARK H PARENT 10 19 12 21 4 23 21 25 18 27
REMARK Flexibility Score: inf
ROOT
ATOM      1  C   UNL     1     122.011 126.684 126.530  1.00  0.00     0.180 A 
ATOM      2  C   UNL     1     121.590 128.007 126.763  1.00  0.00     0.208 A 
ATOM      3  C   UNL     1     121.350 128.421 128.082  1.00  0.00     0.238 A 
ATOM      4  O   UNL     1     120.982 129.607 128.304  1.00  0.00    -0.285 OA
ATOM      5  C   UNL     1     121.516 127.504 129.141  1.00  0.00     0.111 A 
ATOM      6  C   UNL     1     121.290 127.840 130.498  1.00  0.00     0.134 A 
ATOM      7  C   UNL     1     121.469 126.868 131.494  1.00  0.00     0.093 A 
ATOM      8  C   UNL     1     121.864 125.571 131.161  1.00  0.00     0.123 A 
ATOM      9  C   UNL     1     122.089 125.234 129.822  1.00  0.00     0.094 A 
ATOM     10  C   UNL     1     121.918 126.189 128.815  1.00  0.00     0.146 A 
ATOM     11  O   UNL     1     122.143 125.843 127.552  1.00  0.00    -0.452 OA
ENDROOT
BRANCH   1  12
ATOM     12  C   UNL     1     122.303 126.179 125.169  1.00  0.00     0.025 A 
ATOM     13  C   UNL     1     123.414 126.677 124.471  1.00  0.00     0.016 A 
ATOM     14  C   UNL     1     123.697 126.232 123.178  1.00  0.00     0.051 A 
ATOM     15  C   UNL     1     122.863 125.292 122.557  1.00  0.00     0.157 A 
ATOM     16  C   UNL     1     121.456 125.252 124.535  1.00  0.00     0.062 A 
ATOM     17  C   UNL     1     121.735 124.805 123.238  1.00  0.00     0.158 A 
BRANCH  15  18
ATOM     18  O   UNL     1     123.148 124.848 121.267  1.00  0.00    -0.504 OA
ATOM     19  H   UNL     1     122.782 125.321 120.448  1.00  0.00     0.293 HD
ENDBRANCH  15  18
BRANCH  17  20
ATOM     20  O   UNL     1     120.877 123.880 122.641  1.00  0.00    -0.504 OA
ATOM     21  H   UNL     1     119.960 124.139 122.302  1.00  0.00     0.293 HD
ENDBRANCH  17  20
ENDBRANCH   1  12
BRANCH   2  22
ATOM     22  O   UNL     1     121.385 128.882 125.692  1.00  0.00    -0.502 OA
ATOM     23  H   UNL     1     122.047 129.610 125.452  1.00  0.00     0.293 HD
ENDBRANCH   2  22
BRANCH   6  24
ATOM     24  O   UNL     1     120.893 129.127 130.863  1.00  0.00    -0.507 OA
ATOM     25  H   UNL     1     120.721 129.378 131.830  1.00  0.00     0.293 HD
ENDBRANCH   6  24
BRANCH   8  26
ATOM     26  O   UNL     1     122.033 124.624 132.168  1.00  0.00    -0.508 OA
ATOM     27  H   UNL     1     121.271 124.028 132.469  1.00  0.00     0.293 HD
ENDBRANCH   8  26
TORSDOF 6
ENDMDL
MODEL 8
REMARK VINA RESULT:    -3.410      5.502     11.103
REMARK INTER + INTRA:          -4.417
REMARK INTER:                  -4.102
REMARK INTRA:                  -0.316
REMARK UNBOUND:                -0.310
REMARK SMILES O=c1c(O)c(-c2ccc(O)c(O)c2)oc2cc(O)cc(O)c12
REMARK SMILES IDX 5 1 3 2 2 3 1 4 22 5 20 6 19 7 17 8 16 9 15 10 14 11 6 12
REMARK SMILES IDX 7 13 8 14 9 15 13 16 11 17 10 18 12 20 4 22 21 24 18 26
REMARK H PARENT 10 19 12 21 4 23 21 25 18 27
REMARK Flexibility Score: inf
ROOT
ATOM      1  C   UNL     1     121.902 126.556 126.758  1.00  0.00     0.180 A 
ATOM      2  C   UNL     1     121.518 127.883 127.028  1.00  0.00     0.208 A 
ATOM      3  C   UNL     1     121.297 128.268 128.359  1.00  0.00     0.238 A 
ATOM      4  O   UNL     1     120.962 129.457 128.615  1.00  0.00    -0.285 OA
ATOM      5  C   UNL     1     121.444 127.319 129.392  1.00  0.00     0.111 A 
ATOM      6  C   UNL     1     121.235 127.625 130.759  1.00  0.00     0.134 A 
ATOM      7  C   UNL     1     121.393 126.622 131.728  1.00  0.00     0.093 A 
ATOM      8  C   UNL     1     121.751 125.324 131.359  1.00  0.00     0.123 A 
ATOM      9  C   UNL     1     121.959 125.017 130.010  1.00  0.00     0.094 A 
ATOM     10  C   UNL     1     121.809 126.002 129.029  1.00  0.00     0.146 A 
ATOM     11  O   UNL     1     122.016 125.685 127.757  1.00  0.00    -0.452 OA
ENDROOT
BRANCH   1  12
ATOM     12  C   UNL     1     122.172 126.079 125.382  1.00  0.00     0.025 A 
ATOM     13  C   UNL     1     121.108 125.623 124.589  1.00  0.00     0.016 A 
ATOM     14  C   UNL     1     121.340 125.149 123.296  1.00  0.00     0.051 A 
ATOM     15  C   UNL     1     122.644 125.110 122.781  1.00  0.00     0.157 A 
ATOM     16  C   UNL     1     123.481 126.020 124.871  1.00  0.00     0.062 A 
ATOM     17  C   UNL     1     123.718 125.544 123.576  1.00  0.00     0.158 A 
BRANCH  15  18
ATOM     18  O   UNL     1     122.873 124.639 121.490  1.00  0.00    -0.504 OA
ATOM     19  H   UNL     1     122.142 124.189 120.950  1.00  0.00     0.293 HD
ENDBRANCH  15  18
BRANCH  17  20
ATOM     20  O   UNL     1     125.029 125.504 123.098  1.00  0.00    -0.504 OA
ATOM     21  H   UNL     1     125.482 126.319 122.706  1.00  0.00     0.293 HD
ENDBRANCH  17  20
ENDBRANCH   1  12
BRANCH   2  22
ATOM     22  O   UNL     1     121.331 128.791 125.982  1.00  0.00    -0.502 OA
ATOM     23  H   UNL     1     121.944 129.584 125.836  1.00  0.00     0.293 HD
ENDBRANCH   2  22
BRANCH   6  24
ATOM     24  O   UNL     1     120.875 128.912 131.161  1.00  0.00    -0.507 OA
ATOM     25  H   UNL     1     121.488 129.484 131.731  1.00  0.00     0.293 HD
ENDBRANCH   6  24
BRANCH   8  26
ATOM     26  O   UNL     1     121.900 124.346 132.340  1.00  0.00    -0.508 OA
ATOM     27  H   UNL     1     121.550 123.405 132.207  1.00  0.00     0.293 HD
ENDBRANCH   8  26
TORSDOF 6
ENDMDL
