MODEL 1
REMARK VINA RESULT:     2.054      0.000      0.000
REMARK INTER + INTRA:           2.921
REMARK INTER:                   2.474
REMARK INTRA:                   0.446
REMARK UNBOUND:                 0.446
REMARK SMILES O=c1c(O)c(-c2ccc(O)c(O)c2)oc2cc(O)cc(O)c12
REMARK SMILES IDX 5 1 3 2 2 3 1 4 22 5 20 6 19 7 17 8 16 9 15 10 14 11 6 12
REMARK SMILES IDX 7 13 8 14 9 15 13 16 11 17 10 18 12 20 4 22 21 24 18 26
REMARK H PARENT 10 19 12 21 4 23 21 25 18 27
REMARK Flexibility Score: inf
ROOT
ATOM      1  C   UNL     1      15.561  28.180  40.133  1.00  0.00     0.180 A 
ATOM      2  C   UNL     1      14.321  28.391  39.507  1.00  0.00     0.208 A 
ATOM      3  C   UNL     1      14.260  28.410  38.105  1.00  0.00     0.238 A 
ATOM      4  O   UNL     1      13.155  28.654  37.551  1.00  0.00    -0.285 OA
ATOM      5  C   UNL     1      15.436  28.202  37.346  1.00  0.00     0.111 A 
ATOM      6  C   UNL     1      15.484  28.161  35.920  1.00  0.00     0.134 A 
ATOM      7  C   UNL     1      16.724  28.080  35.272  1.00  0.00     0.093 A 
ATOM      8  C   UNL     1      17.910  27.971  35.998  1.00  0.00     0.123 A 
ATOM      9  C   UNL     1      17.869  27.950  37.393  1.00  0.00     0.094 A 
ATOM     10  C   UNL     1      16.651  28.067  38.067  1.00  0.00     0.146 A 
ATOM     11  O   UNL     1      16.657  28.053  39.395  1.00  0.00    -0.452 OA
ENDROOT
BRANCH   1  12
ATOM     12  C   UNL     1      15.700  28.122  41.606  1.00  0.00     0.025 A 
ATOM     13  C   UNL     1      16.981  28.043  42.177  1.00  0.00     0.016 A 
ATOM     14  C   UNL     1      17.135  27.966  43.564  1.00  0.00     0.051 A 
ATOM     15  C   UNL     1      16.010  27.949  44.398  1.00  0.00     0.157 A 
ATOM     16  C   UNL     1      14.573  28.084  42.448  1.00  0.00     0.062 A 
ATOM     17  C   UNL     1      14.726  28.004  43.840  1.00  0.00     0.158 A 
BRANCH  15  18
ATOM     18  O   UNL     1      16.159  27.875  45.782  1.00  0.00    -0.504 OA
ATOM     19  H   UNL     1      15.981  27.016  46.289  1.00  0.00     0.293 HD
ENDBRANCH  15  18
BRANCH  17  20
ATOM     20  O   UNL     1      13.609  27.974  44.671  1.00  0.00    -0.504 OA
ATOM     21  H   UNL     1      12.674  28.112  44.309  1.00  0.00     0.293 HD
ENDBRANCH  17  20
ENDBRANCH   1  12
BRANCH   2  22
ATOM     22  O   UNL     1      13.174  28.616  40.275  1.00  0.00    -0.502 OA
ATOM     23  H   UNL     1      13.018  28.162  41.167  1.00  0.00     0.293 HD
ENDBRANCH   2  22
BRANCH   6  24
ATOM     24  O   UNL     1      14.352  28.169  35.100  1.00  0.00    -0.507 OA
ATOM     25  H   UNL     1      14.360  27.978  34.109  1.00  0.00     0.293 HD
ENDBRANCH   6  24
BRANCH   8  26
ATOM     26  O   UNL     1      19.123  27.877  35.321  1.00  0.00    -0.508 OA
ATOM     27  H   UNL     1      19.440  28.609  34.696  1.00  0.00     0.293 HD
ENDBRANCH   8  26
TORSDOF 6
ENDMDL
