MODEL 1
REMARK VINA RESULT:    -5.153      0.000      0.000
REMARK INTER + INTRA:         -12.665
REMARK INTER:                  -9.973
REMARK INTRA:                  -2.693
REMARK UNBOUND:                -2.693
REMARK SMILES CCCCCCCCCCCCCCCCCC(=O)[O-]
REMARK SMILES IDX 10 1 11 2 12 3 13 4 14 5 15 6 16 7 17 8 18 9 19 10 20 11
REMARK SMILES IDX 9 12 8 13 7 14 6 15 5 16 4 17 3 18 2 19 1 20
REMARK H PARENT
REMARK Flexibility Score: inf
ROOT
ATOM      1  C   UNL     1     103.297 -83.040  19.655  1.00  0.00     0.000 C 
ENDROOT
BRANCH   1   2
ATOM      2  C   UNL     1     104.622 -83.705  19.246  1.00  0.00     0.000 C 
BRANCH   2   3
ATOM      3  C   UNL     1     105.781 -82.699  19.119  1.00  0.00     0.000 C 
BRANCH   3   4
ATOM      4  C   UNL     1     105.351 -81.226  18.966  1.00  0.00     0.000 C 
BRANCH   4   5
ATOM      5  C   UNL     1     105.751 -80.301  20.133  1.00  0.00     0.000 C 
BRANCH   5   6
ATOM      6  C   UNL     1     106.995 -80.749  20.920  1.00  0.00     0.000 C 
BRANCH   6   7
ATOM      7  C   UNL     1     107.396 -79.754  22.019  1.00  0.00     0.006 C 
BRANCH   7   8
ATOM      8  C   UNL     1     108.784 -79.165  21.745  1.00  0.00     0.053 C 
BRANCH   8   9
ATOM      9  C   UNL     1     108.664 -77.818  21.106  1.00  0.00     0.041 C 
ATOM     10  O   UNL     1     107.751 -77.026  21.461  1.00  0.00    -0.550 OA
ATOM     11  O   UNL     1     109.591 -77.417  20.152  1.00  0.00    -0.550 OA
ENDBRANCH   8   9
ENDBRANCH   7   8
ENDBRANCH   6   7
ENDBRANCH   5   6
ENDBRANCH   4   5
ENDBRANCH   3   4
ENDBRANCH   2   3
ENDBRANCH   1   2
BRANCH   1  12
ATOM     12  C   UNL     1     102.496 -83.892  20.653  1.00  0.00     0.000 C 
BRANCH  12  13
ATOM     13  C   UNL     1     102.899 -83.619  22.113  1.00  0.00    -0.000 C 
BRANCH  13  14
ATOM     14  C   UNL     1     103.449 -82.198  22.319  1.00  0.00    -0.000 C 
BRANCH  14  15
ATOM     15  C   UNL     1     104.677 -82.165  23.240  1.00  0.00    -0.000 C 
BRANCH  15  16
ATOM     16  C   UNL     1     105.543 -83.417  23.044  1.00  0.00    -0.000 C 
BRANCH  16  17
ATOM     17  C   UNL     1     106.465 -83.643  24.252  1.00  0.00    -0.000 C 
BRANCH  17  18
ATOM     18  C   UNL     1     107.555 -82.565  24.384  1.00  0.00    -0.000 C 
BRANCH  18  19
ATOM     19  C   UNL     1     108.825 -82.822  23.552  1.00  0.00    -0.003 C 
ATOM     20  C   UNL     1     110.010 -81.960  23.987  1.00  0.00     0.004 C 
ENDBRANCH  18  19
ENDBRANCH  17  18
ENDBRANCH  16  17
ENDBRANCH  15  16
ENDBRANCH  14  15
ENDBRANCH  13  14
ENDBRANCH  12  13
ENDBRANCH   1  12
TORSDOF 16
ENDMDL
MODEL 2
REMARK VINA RESULT:    -5.133      2.117      4.653
REMARK INTER + INTRA:         -12.626
REMARK INTER:                 -10.261
REMARK INTRA:                  -2.366
REMARK UNBOUND:                -2.693
REMARK SMILES CCCCCCCCCCCCCCCCCC(=O)[O-]
REMARK SMILES IDX 10 1 11 2 12 3 13 4 14 5 15 6 16 7 17 8 18 9 19 10 20 11
REMARK SMILES IDX 9 12 8 13 7 14 6 15 5 16 4 17 3 18 2 19 1 20
REMARK H PARENT
REMARK Flexibility Score: inf
ROOT
ATOM      1  C   UNL     1     104.536 -82.285  23.203  1.00  0.00     0.000 C 
ENDROOT
BRANCH   1   2
ATOM      2  C   UNL     1     105.188 -83.679  23.209  1.00  0.00     0.000 C 
BRANCH   2   3
ATOM      3  C   UNL     1     106.395 -83.769  24.161  1.00  0.00     0.000 C 
BRANCH   3   4
ATOM      4  C   UNL     1     107.742 -83.334  23.550  1.00  0.00     0.000 C 
BRANCH   4   5
ATOM      5  C   UNL     1     108.288 -81.985  24.059  1.00  0.00     0.000 C 
BRANCH   5   6
ATOM      6  C   UNL     1     109.819 -81.914  24.200  1.00  0.00     0.000 C 
BRANCH   6   7
ATOM      7  C   UNL     1     110.558 -82.558  23.017  1.00  0.00     0.006 C 
BRANCH   7   8
ATOM      8  C   UNL     1     110.663 -81.582  21.840  1.00  0.00     0.053 C 
BRANCH   8   9
ATOM      9  C   UNL     1     112.046 -81.593  21.272  1.00  0.00     0.041 C 
ATOM     10  O   UNL     1     112.823 -80.624  21.477  1.00  0.00    -0.550 OA
ATOM     11  O   UNL     1     112.494 -82.695  20.555  1.00  0.00    -0.550 OA
ENDBRANCH   8   9
ENDBRANCH   7   8
ENDBRANCH   6   7
ENDBRANCH   5   6
ENDBRANCH   4   5
ENDBRANCH   3   4
ENDBRANCH   2   3
ENDBRANCH   1   2
BRANCH   1  12
ATOM     12  C   UNL     1     103.431 -82.159  22.141  1.00  0.00     0.000 C 
BRANCH  12  13
ATOM     13  C   UNL     1     103.367 -83.385  21.213  1.00  0.00    -0.000 C 
BRANCH  13  14
ATOM     14  C   UNL     1     103.562 -83.017  19.733  1.00  0.00    -0.000 C 
BRANCH  14  15
ATOM     15  C   UNL     1     104.983 -83.312  19.230  1.00  0.00    -0.000 C 
BRANCH  15  16
ATOM     16  C   UNL     1     105.773 -82.012  19.029  1.00  0.00    -0.000 C 
BRANCH  16  17
ATOM     17  C   UNL     1     106.729 -81.761  20.206  1.00  0.00    -0.000 C 
BRANCH  17  18
ATOM     18  C   UNL     1     106.519 -80.386  20.865  1.00  0.00    -0.000 C 
BRANCH  18  19
ATOM     19  C   UNL     1     105.368 -79.552  20.270  1.00  0.00    -0.003 C 
ATOM     20  C   UNL     1     105.724 -78.074  20.106  1.00  0.00     0.004 C 
ENDBRANCH  18  19
ENDBRANCH  17  18
ENDBRANCH  16  17
ENDBRANCH  15  16
ENDBRANCH  14  15
ENDBRANCH  13  14
ENDBRANCH  12  13
ENDBRANCH   1  12
TORSDOF 16
ENDMDL
MODEL 3
REMARK VINA RESULT:    -5.117      2.009      4.526
REMARK INTER + INTRA:         -12.596
REMARK INTER:                 -10.076
REMARK INTRA:                  -2.519
REMARK UNBOUND:                -2.693
REMARK SMILES CCCCCCCCCCCCCCCCCC(=O)[O-]
REMARK SMILES IDX 10 1 11 2 12 3 13 4 14 5 15 6 16 7 17 8 18 9 19 10 20 11
REMARK SMILES IDX 9 12 8 13 7 14 6 15 5 16 4 17 3 18 2 19 1 20
REMARK H PARENT
REMARK Flexibility Score: inf
ROOT
ATOM      1  C   UNL     1     102.772 -83.349  21.025  1.00  0.00     0.000 C 
ENDROOT
BRANCH   1   2
ATOM      2  C   UNL     1     102.988 -82.228  22.056  1.00  0.00     0.000 C 
BRANCH   2   3
ATOM      3  C   UNL     1     104.163 -82.513  23.010  1.00  0.00     0.000 C 
BRANCH   3   4
ATOM      4  C   UNL     1     104.776 -83.923  22.886  1.00  0.00     0.000 C 
BRANCH   4   5
ATOM      5  C   UNL     1     106.116 -84.124  23.622  1.00  0.00     0.000 C 
BRANCH   5   6
ATOM      6  C   UNL     1     106.468 -83.027  24.641  1.00  0.00     0.000 C 
BRANCH   6   7
ATOM      7  C   UNL     1     107.650 -82.154  24.196  1.00  0.00     0.006 C 
BRANCH   7   8
ATOM      8  C   UNL     1     108.742 -83.005  23.538  1.00  0.00     0.053 C 
BRANCH   8   9
ATOM      9  C   UNL     1     110.032 -82.251  23.482  1.00  0.00     0.041 C 
ATOM     10  O   UNL     1     110.972 -82.656  22.748  1.00  0.00    -0.550 OA
ATOM     11  O   UNL     1     110.180 -81.073  24.203  1.00  0.00    -0.550 OA
ENDBRANCH   8   9
ENDBRANCH   7   8
ENDBRANCH   6   7
ENDBRANCH   5   6
ENDBRANCH   4   5
ENDBRANCH   3   4
ENDBRANCH   2   3
ENDBRANCH   1   2
BRANCH   1  12
ATOM     12  C   UNL     1     103.337 -82.989  19.640  1.00  0.00     0.000 C 
BRANCH  12  13
ATOM     13  C   UNL     1     104.466 -83.939  19.202  1.00  0.00    -0.000 C 
BRANCH  13  14
ATOM     14  C   UNL     1     105.733 -83.188  18.763  1.00  0.00    -0.000 C 
BRANCH  14  15
ATOM     15  C   UNL     1     105.736 -81.718  19.209  1.00  0.00    -0.000 C 
BRANCH  15  16
ATOM     16  C   UNL     1     106.659 -81.515  20.417  1.00  0.00    -0.000 C 
BRANCH  16  17
ATOM     17  C   UNL     1     106.279 -80.243  21.192  1.00  0.00    -0.000 C 
BRANCH  17  18
ATOM     18  C   UNL     1     107.504 -79.414  21.618  1.00  0.00    -0.000 C 
BRANCH  18  19
ATOM     19  C   UNL     1     107.444 -77.924  21.233  1.00  0.00    -0.003 C 
ATOM     20  C   UNL     1     106.308 -77.603  20.260  1.00  0.00     0.004 C 
ENDBRANCH  18  19
ENDBRANCH  17  18
ENDBRANCH  16  17
ENDBRANCH  15  16
ENDBRANCH  14  15
ENDBRANCH  13  14
ENDBRANCH  12  13
ENDBRANCH   1  12
TORSDOF 16
ENDMDL
MODEL 4
REMARK VINA RESULT:    -5.097      1.024      4.429
REMARK INTER + INTRA:         -12.557
REMARK INTER:                 -10.336
REMARK INTRA:                  -2.221
REMARK UNBOUND:                -2.693
REMARK SMILES CCCCCCCCCCCCCCCCCC(=O)[O-]
REMARK SMILES IDX 10 1 11 2 12 3 13 4 14 5 15 6 16 7 17 8 18 9 19 10 20 11
REMARK SMILES IDX 9 12 8 13 7 14 6 15 5 16 4 17 3 18 2 19 1 20
REMARK H PARENT
REMARK Flexibility Score: inf
ROOT
ATOM      1  C   UNL     1     105.635 -81.615  23.240  1.00  0.00     0.000 C 
ENDROOT
BRANCH   1   2
ATOM      2  C   UNL     1     106.270 -81.489  24.635  1.00  0.00     0.000 C 
BRANCH   2   3
ATOM      3  C   UNL     1     107.206 -82.665  24.972  1.00  0.00     0.000 C 
BRANCH   3   4
ATOM      4  C   UNL     1     107.810 -83.388  23.752  1.00  0.00     0.000 C 
BRANCH   4   5
ATOM      5  C   UNL     1     109.194 -82.877  23.304  1.00  0.00     0.000 C 
BRANCH   5   6
ATOM      6  C   UNL     1     109.780 -81.748  24.169  1.00  0.00     0.000 C 
BRANCH   6   7
ATOM      7  C   UNL     1     110.118 -80.488  23.357  1.00  0.00     0.006 C 
BRANCH   7   8
ATOM      8  C   UNL     1     109.021 -80.186  22.331  1.00  0.00     0.053 C 
BRANCH   8   9
ATOM      9  C   UNL     1     109.453 -79.094  21.406  1.00  0.00     0.041 C 
ATOM     10  O   UNL     1     110.597 -79.123  20.882  1.00  0.00    -0.550 OA
ATOM     11  O   UNL     1     108.575 -78.067  21.086  1.00  0.00    -0.550 OA
ENDBRANCH   8   9
ENDBRANCH   7   8
ENDBRANCH   6   7
ENDBRANCH   5   6
ENDBRANCH   4   5
ENDBRANCH   3   4
ENDBRANCH   2   3
ENDBRANCH   1   2
BRANCH   1  12
ATOM     12  C   UNL     1     104.251 -82.285  23.283  1.00  0.00     0.000 C 
BRANCH  12  13
ATOM     13  C   UNL     1     103.430 -82.017  22.009  1.00  0.00    -0.000 C 
BRANCH  13  14
ATOM     14  C   UNL     1     103.205 -83.288  21.174  1.00  0.00    -0.000 C 
BRANCH  14  15
ATOM     15  C   UNL     1     103.456 -83.064  19.675  1.00  0.00    -0.000 C 
BRANCH  15  16
ATOM     16  C   UNL     1     104.728 -83.791  19.219  1.00  0.00    -0.000 C 
BRANCH  16  17
ATOM     17  C   UNL     1     105.756 -82.798  18.652  1.00  0.00    -0.000 C 
BRANCH  17  18
ATOM     18  C   UNL     1     105.310 -81.331  18.790  1.00  0.00    -0.000 C 
BRANCH  18  19
ATOM     19  C   UNL     1     106.026 -80.538  19.898  1.00  0.00    -0.003 C 
ATOM     20  C   UNL     1     105.334 -79.215  20.230  1.00  0.00     0.004 C 
ENDBRANCH  18  19
ENDBRANCH  17  18
ENDBRANCH  16  17
ENDBRANCH  15  16
ENDBRANCH  14  15
ENDBRANCH  13  14
ENDBRANCH  12  13
ENDBRANCH   1  12
TORSDOF 16
ENDMDL
MODEL 5
REMARK VINA RESULT:    -5.027      9.312     12.130
REMARK INTER + INTRA:         -12.422
REMARK INTER:                 -10.118
REMARK INTRA:                  -2.304
REMARK UNBOUND:                -2.693
REMARK SMILES CCCCCCCCCCCCCCCCCC(=O)[O-]
REMARK SMILES IDX 10 1 11 2 12 3 13 4 14 5 15 6 16 7 17 8 18 9 19 10 20 11
REMARK SMILES IDX 9 12 8 13 7 14 6 15 5 16 4 17 3 18 2 19 1 20
REMARK H PARENT
REMARK Flexibility Score: inf
ROOT
ATOM      1  C   UNL     1     118.373 -79.652  21.142  1.00  0.00     0.000 C 
ENDROOT
BRANCH   1   2
ATOM      2  C   UNL     1     118.019 -79.232  22.579  1.00  0.00     0.000 C 
BRANCH   2   3
ATOM      3  C   UNL     1     116.985 -78.092  22.629  1.00  0.00     0.000 C 
BRANCH   3   4
ATOM      4  C   UNL     1     116.111 -78.061  23.900  1.00  0.00     0.000 C 
BRANCH   4   5
ATOM      5  C   UNL     1     115.054 -76.939  23.942  1.00  0.00     0.000 C 
BRANCH   5   6
ATOM      6  C   UNL     1     115.616 -75.512  23.824  1.00  0.00     0.000 C 
BRANCH   6   7
ATOM      7  C   UNL     1     116.559 -75.144  24.979  1.00  0.00     0.006 C 
BRANCH   7   8
ATOM      8  C   UNL     1     117.974 -74.860  24.462  1.00  0.00     0.053 C 
BRANCH   8   9
ATOM      9  C   UNL     1     118.989 -75.584  25.288  1.00  0.00     0.041 C 
ATOM     10  O   UNL     1     119.485 -75.034  26.307  1.00  0.00    -0.550 OA
ATOM     11  O   UNL     1     119.353 -76.883  24.961  1.00  0.00    -0.550 OA
ENDBRANCH   8   9
ENDBRANCH   7   8
ENDBRANCH   6   7
ENDBRANCH   5   6
ENDBRANCH   4   5
ENDBRANCH   3   4
ENDBRANCH   2   3
ENDBRANCH   1   2
BRANCH   1  12
ATOM     12  C   UNL     1     119.183 -80.959  21.096  1.00  0.00     0.000 C 
BRANCH  12  13
ATOM     13  C   UNL     1     119.258 -81.651  22.468  1.00  0.00    -0.000 C 
BRANCH  13  14
ATOM     14  C   UNL     1     118.317 -82.862  22.571  1.00  0.00    -0.000 C 
BRANCH  14  15
ATOM     15  C   UNL     1     117.749 -83.290  21.210  1.00  0.00    -0.000 C 
BRANCH  15  16
ATOM     16  C   UNL     1     116.217 -83.370  21.257  1.00  0.00    -0.000 C 
BRANCH  16  17
ATOM     17  C   UNL     1     115.615 -82.068  21.809  1.00  0.00    -0.000 C 
BRANCH  17  18
ATOM     18  C   UNL     1     114.575 -81.442  20.862  1.00  0.00    -0.000 C 
BRANCH  18  19
ATOM     19  C   UNL     1     114.993 -80.097  20.239  1.00  0.00    -0.003 C 
ATOM     20  C   UNL     1     114.065 -78.944  20.627  1.00  0.00     0.004 C 
ENDBRANCH  18  19
ENDBRANCH  17  18
ENDBRANCH  16  17
ENDBRANCH  15  16
ENDBRANCH  14  15
ENDBRANCH  13  14
ENDBRANCH  12  13
ENDBRANCH   1  12
TORSDOF 16
ENDMDL
MODEL 6
REMARK VINA RESULT:    -5.024      7.409     10.366
REMARK INTER + INTRA:         -12.417
REMARK INTER:                  -9.973
REMARK INTRA:                  -2.444
REMARK UNBOUND:                -2.693
REMARK SMILES CCCCCCCCCCCCCCCCCC(=O)[O-]
REMARK SMILES IDX 10 1 11 2 12 3 13 4 14 5 15 6 16 7 17 8 18 9 19 10 20 11
REMARK SMILES IDX 9 12 8 13 7 14 6 15 5 16 4 17 3 18 2 19 1 20
REMARK H PARENT
REMARK Flexibility Score: inf
ROOT
ATOM      1  C   UNL     1     111.883 -81.425  21.945  1.00  0.00     0.000 C 
ENDROOT
BRANCH   1   2
ATOM      2  C   UNL     1     112.419 -82.855  21.761  1.00  0.00     0.000 C 
BRANCH   2   3
ATOM      3  C   UNL     1     113.106 -83.064  20.399  1.00  0.00     0.000 C 
BRANCH   3   4
ATOM      4  C   UNL     1     114.443 -83.831  20.453  1.00  0.00     0.000 C 
BRANCH   4   5
ATOM      5  C   UNL     1     115.432 -83.350  21.533  1.00  0.00     0.000 C 
BRANCH   5   6
ATOM      6  C   UNL     1     116.914 -83.381  21.118  1.00  0.00     0.000 C 
BRANCH   6   7
ATOM      7  C   UNL     1     117.856 -82.896  22.229  1.00  0.00     0.006 C 
BRANCH   7   8
ATOM      8  C   UNL     1     118.853 -81.864  21.691  1.00  0.00     0.053 C 
BRANCH   8   9
ATOM      9  C   UNL     1     119.538 -81.159  22.819  1.00  0.00     0.041 C 
ATOM     10  O   UNL     1     119.488 -81.631  23.985  1.00  0.00    -0.550 OA
ATOM     11  O   UNL     1     120.271 -80.005  22.573  1.00  0.00    -0.550 OA
ENDBRANCH   8   9
ENDBRANCH   7   8
ENDBRANCH   6   7
ENDBRANCH   5   6
ENDBRANCH   4   5
ENDBRANCH   3   4
ENDBRANCH   2   3
ENDBRANCH   1   2
BRANCH   1  12
ATOM     12  C   UNL     1     112.116 -80.547  20.704  1.00  0.00     0.000 C 
BRANCH  12  13
ATOM     13  C   UNL     1     113.015 -79.334  21.003  1.00  0.00    -0.000 C 
BRANCH  13  14
ATOM     14  C   UNL     1     114.177 -79.200  20.006  1.00  0.00    -0.000 C 
BRANCH  14  15
ATOM     15  C   UNL     1     115.418 -80.001  20.429  1.00  0.00    -0.000 C 
BRANCH  15  16
ATOM     16  C   UNL     1     115.827 -79.657  21.868  1.00  0.00    -0.000 C 
BRANCH  16  17
ATOM     17  C   UNL     1     116.912 -78.569  21.887  1.00  0.00    -0.000 C 
BRANCH  17  18
ATOM     18  C   UNL     1     116.579 -77.409  22.842  1.00  0.00    -0.000 C 
BRANCH  18  19
ATOM     19  C   UNL     1     115.205 -76.753  22.611  1.00  0.00    -0.003 C 
ATOM     20  C   UNL     1     114.658 -76.055  23.857  1.00  0.00     0.004 C 
ENDBRANCH  18  19
ENDBRANCH  17  18
ENDBRANCH  16  17
ENDBRANCH  15  16
ENDBRANCH  14  15
ENDBRANCH  13  14
ENDBRANCH  12  13
ENDBRANCH   1  12
TORSDOF 16
ENDMDL
MODEL 7
REMARK VINA RESULT:    -4.968      6.188     10.117
REMARK INTER + INTRA:         -12.309
REMARK INTER:                 -10.169
REMARK INTRA:                  -2.140
REMARK UNBOUND:                -2.693
REMARK SMILES CCCCCCCCCCCCCCCCCC(=O)[O-]
REMARK SMILES IDX 10 1 11 2 12 3 13 4 14 5 15 6 16 7 17 8 18 9 19 10 20 11
REMARK SMILES IDX 9 12 8 13 7 14 6 15 5 16 4 17 3 18 2 19 1 20
REMARK H PARENT
REMARK Flexibility Score: inf
ROOT
ATOM      1  C   UNL     1     117.664 -83.022  21.673  1.00  0.00     0.000 C 
ENDROOT
BRANCH   1   2
ATOM      2  C   UNL     1     116.157 -82.780  21.866  1.00  0.00     0.000 C 
BRANCH   2   3
ATOM      3  C   UNL     1     115.323 -83.206  20.644  1.00  0.00     0.000 C 
BRANCH   3   4
ATOM      4  C   UNL     1     113.883 -83.659  20.963  1.00  0.00     0.000 C 
BRANCH   4   5
ATOM      5  C   UNL     1     112.792 -82.596  20.721  1.00  0.00     0.000 C 
BRANCH   5   6
ATOM      6  C   UNL     1     111.797 -82.411  21.880  1.00  0.00     0.000 C 
BRANCH   6   7
ATOM      7  C   UNL     1     110.737 -81.338  21.591  1.00  0.00     0.006 C 
BRANCH   7   8
ATOM      8  C   UNL     1     110.492 -80.463  22.824  1.00  0.00     0.053 C 
BRANCH   8   9
ATOM      9  C   UNL     1     109.690 -81.205  23.845  1.00  0.00     0.041 C 
ATOM     10  O   UNL     1     108.531 -81.611  23.567  1.00  0.00    -0.550 OA
ATOM     11  O   UNL     1     110.241 -81.492  25.087  1.00  0.00    -0.550 OA
ENDBRANCH   8   9
ENDBRANCH   7   8
ENDBRANCH   6   7
ENDBRANCH   5   6
ENDBRANCH   4   5
ENDBRANCH   3   4
ENDBRANCH   2   3
ENDBRANCH   1   2
BRANCH   1  12
ATOM     12  C   UNL     1     118.519 -81.876  22.240  1.00  0.00     0.000 C 
BRANCH  12  13
ATOM     13  C   UNL     1     119.069 -80.954  21.138  1.00  0.00    -0.000 C 
BRANCH  13  14
ATOM     14  C   UNL     1     118.118 -79.791  20.811  1.00  0.00    -0.000 C 
BRANCH  14  15
ATOM     15  C   UNL     1     117.616 -79.064  22.068  1.00  0.00    -0.000 C 
BRANCH  15  16
ATOM     16  C   UNL     1     116.285 -78.352  21.794  1.00  0.00    -0.000 C 
BRANCH  16  17
ATOM     17  C   UNL     1     115.117 -79.351  21.793  1.00  0.00    -0.000 C 
BRANCH  17  18
ATOM     18  C   UNL     1     114.513 -79.564  20.394  1.00  0.00    -0.000 C 
BRANCH  18  19
ATOM     19  C   UNL     1     113.326 -78.643  20.053  1.00  0.00    -0.003 C 
ATOM     20  C   UNL     1     112.733 -77.954  21.282  1.00  0.00     0.004 C 
ENDBRANCH  18  19
ENDBRANCH  17  18
ENDBRANCH  16  17
ENDBRANCH  15  16
ENDBRANCH  14  15
ENDBRANCH  13  14
ENDBRANCH  12  13
ENDBRANCH   1  12
TORSDOF 16
ENDMDL
MODEL 8
REMARK VINA RESULT:    -4.967      7.621     10.811
REMARK INTER + INTRA:         -12.307
REMARK INTER:                  -9.883
REMARK INTRA:                  -2.423
REMARK UNBOUND:                -2.693
REMARK SMILES CCCCCCCCCCCCCCCCCC(=O)[O-]
REMARK SMILES IDX 10 1 11 2 12 3 13 4 14 5 15 6 16 7 17 8 18 9 19 10 20 11
REMARK SMILES IDX 9 12 8 13 7 14 6 15 5 16 4 17 3 18 2 19 1 20
REMARK H PARENT
REMARK Flexibility Score: inf
ROOT
ATOM      1  C   UNL     1     114.628 -80.885  20.936  1.00  0.00     0.000 C 
ENDROOT
BRANCH   1   2
ATOM      2  C   UNL     1     115.638 -80.016  20.168  1.00  0.00     0.000 C 
BRANCH   2   3
ATOM      3  C   UNL     1     116.672 -79.346  21.091  1.00  0.00     0.000 C 
BRANCH   3   4
ATOM      4  C   UNL     1     116.123 -78.882  22.456  1.00  0.00     0.000 C 
BRANCH   4   5
ATOM      5  C   UNL     1     116.195 -77.363  22.710  1.00  0.00     0.000 C 
BRANCH   5   6
ATOM      6  C   UNL     1     114.846 -76.626  22.629  1.00  0.00     0.000 C 
BRANCH   6   7
ATOM      7  C   UNL     1     113.672 -77.562  22.311  1.00  0.00     0.006 C 
BRANCH   7   8
ATOM      8  C   UNL     1     112.874 -77.051  21.106  1.00  0.00     0.053 C 
BRANCH   8   9
ATOM      9  C   UNL     1     112.122 -78.172  20.461  1.00  0.00     0.041 C 
ATOM     10  O   UNL     1     112.440 -78.568  19.309  1.00  0.00    -0.550 OA
ATOM     11  O   UNL     1     111.100 -78.811  21.151  1.00  0.00    -0.550 OA
ENDBRANCH   8   9
ENDBRANCH   7   8
ENDBRANCH   6   7
ENDBRANCH   5   6
ENDBRANCH   4   5
ENDBRANCH   3   4
ENDBRANCH   2   3
ENDBRANCH   1   2
BRANCH   1  12
ATOM     12  C   UNL     1     114.968 -82.384  20.863  1.00  0.00     0.000 C 
BRANCH  12  13
ATOM     13  C   UNL     1     116.011 -82.800  21.917  1.00  0.00    -0.000 C 
BRANCH  13  14
ATOM     14  C   UNL     1     117.283 -83.391  21.287  1.00  0.00    -0.000 C 
BRANCH  14  15
ATOM     15  C   UNL     1     118.532 -82.540  21.564  1.00  0.00    -0.000 C 
BRANCH  15  16
ATOM     16  C   UNL     1     119.189 -82.948  22.890  1.00  0.00    -0.000 C 
BRANCH  16  17
ATOM     17  C   UNL     1     120.094 -81.827  23.424  1.00  0.00    -0.000 C 
BRANCH  17  18
ATOM     18  C   UNL     1     120.085 -80.574  22.530  1.00  0.00    -0.000 C 
BRANCH  18  19
ATOM     19  C   UNL     1     119.775 -79.257  23.264  1.00  0.00    -0.003 C 
ATOM     20  C   UNL     1     119.074 -79.471  24.606  1.00  0.00     0.004 C 
ENDBRANCH  18  19
ENDBRANCH  17  18
ENDBRANCH  16  17
ENDBRANCH  15  16
ENDBRANCH  14  15
ENDBRANCH  13  14
ENDBRANCH  12  13
ENDBRANCH   1  12
TORSDOF 16
ENDMDL
MODEL 9
REMARK VINA RESULT:    -4.940      8.096     11.208
REMARK INTER + INTRA:         -12.253
REMARK INTER:                  -9.665
REMARK INTRA:                  -2.588
REMARK UNBOUND:                -2.693
REMARK SMILES CCCCCCCCCCCCCCCCCC(=O)[O-]
REMARK SMILES IDX 10 1 11 2 12 3 13 4 14 5 15 6 16 7 17 8 18 9 19 10 20 11
REMARK SMILES IDX 9 12 8 13 7 14 6 15 5 16 4 17 3 18 2 19 1 20
REMARK H PARENT
REMARK Flexibility Score: inf
ROOT
ATOM      1  C   UNL     1     115.148 -82.560  20.757  1.00  0.00     0.000 C 
ENDROOT
BRANCH   1   2
ATOM      2  C   UNL     1     116.187 -82.905  21.838  1.00  0.00     0.000 C 
BRANCH   2   3
ATOM      3  C   UNL     1     117.556 -83.289  21.248  1.00  0.00     0.000 C 
BRANCH   3   4
ATOM      4  C   UNL     1     118.763 -82.559  21.872  1.00  0.00     0.000 C 
BRANCH   4   5
ATOM      5  C   UNL     1     118.796 -81.034  21.645  1.00  0.00     0.000 C 
BRANCH   5   6
ATOM      6  C   UNL     1     119.824 -80.272  22.500  1.00  0.00     0.000 C 
BRANCH   6   7
ATOM      7  C   UNL     1     119.257 -78.980  23.105  1.00  0.00     0.006 C 
BRANCH   7   8
ATOM      8  C   UNL     1     118.805 -79.203  24.552  1.00  0.00     0.053 C 
BRANCH   8   9
ATOM      9  C   UNL     1     118.121 -77.983  25.082  1.00  0.00     0.041 C 
ATOM     10  O   UNL     1     118.587 -76.839  24.840  1.00  0.00    -0.550 OA
ATOM     11  O   UNL     1     116.941 -78.107  25.804  1.00  0.00    -0.550 OA
ENDBRANCH   8   9
ENDBRANCH   7   8
ENDBRANCH   6   7
ENDBRANCH   5   6
ENDBRANCH   4   5
ENDBRANCH   3   4
ENDBRANCH   2   3
ENDBRANCH   1   2
BRANCH   1  12
ATOM     12  C   UNL     1     114.591 -81.134  20.913  1.00  0.00     0.000 C 
BRANCH  12  13
ATOM     13  C   UNL     1     115.486 -80.079  20.238  1.00  0.00    -0.000 C 
BRANCH  13  14
ATOM     14  C   UNL     1     115.947 -78.984  21.214  1.00  0.00    -0.000 C 
BRANCH  14  15
ATOM     15  C   UNL     1     115.486 -79.243  22.656  1.00  0.00    -0.000 C 
BRANCH  15  16
ATOM     16  C   UNL     1     114.495 -78.166  23.116  1.00  0.00    -0.000 C 
BRANCH  16  17
ATOM     17  C   UNL     1     114.347 -77.065  22.053  1.00  0.00    -0.000 C 
BRANCH  17  18
ATOM     18  C   UNL     1     112.904 -76.922  21.537  1.00  0.00    -0.000 C 
BRANCH  18  19
ATOM     19  C   UNL     1     112.242 -78.239  21.092  1.00  0.00    -0.003 C 
ATOM     20  C   UNL     1     112.294 -78.454  19.579  1.00  0.00     0.004 C 
ENDBRANCH  18  19
ENDBRANCH  17  18
ENDBRANCH  16  17
ENDBRANCH  15  16
ENDBRANCH  14  15
ENDBRANCH  13  14
ENDBRANCH  12  13
ENDBRANCH   1  12
TORSDOF 16
ENDMDL
