MODEL 1
REMARK VINA RESULT:    -5.794      0.000      0.000
REMARK INTER + INTRA:         -13.076
REMARK INTER:                 -11.214
REMARK INTRA:                  -1.862
REMARK UNBOUND:                -1.862
REMARK SMILES CCCCCCCCCCCCCCCCCC(=O)[O-]
REMARK SMILES IDX 10 1 11 2 12 3 13 4 14 5 15 6 16 7 17 8 18 9 19 10 20 11
REMARK SMILES IDX 9 12 8 13 7 14 6 15 5 16 4 17 3 18 2 19 1 20
REMARK H PARENT
REMARK Flexibility Score: inf
ROOT
ATOM      1  C   UNL     1      60.875 151.846   2.327  1.00  0.00     0.000 C 
ENDROOT
BRANCH   1   2
ATOM      2  C   UNL     1      61.241 153.023   1.407  1.00  0.00     0.000 C 
BRANCH   2   3
ATOM      3  C   UNL     1      60.008 153.728   0.823  1.00  0.00     0.000 C 
BRANCH   3   4
ATOM      4  C   UNL     1      58.807 153.599   1.769  1.00  0.00     0.000 C 
BRANCH   4   5
ATOM      5  C   UNL     1      58.112 154.944   2.034  1.00  0.00     0.000 C 
BRANCH   5   6
ATOM      6  C   UNL     1      58.171 155.360   3.514  1.00  0.00     0.000 C 
BRANCH   6   7
ATOM      7  C   UNL     1      58.932 154.348   4.383  1.00  0.00     0.006 C 
BRANCH   7   8
ATOM      8  C   UNL     1      59.326 154.924   5.750  1.00  0.00     0.053 C 
BRANCH   8   9
ATOM      9  C   UNL     1      60.440 154.127   6.354  1.00  0.00     0.041 C 
ATOM     10  O   UNL     1      60.321 152.882   6.502  1.00  0.00    -0.550 OA
ATOM     11  O   UNL     1      61.597 154.764   6.786  1.00  0.00    -0.550 OA
ENDBRANCH   8   9
ENDBRANCH   7   8
ENDBRANCH   6   7
ENDBRANCH   5   6
ENDBRANCH   4   5
ENDBRANCH   3   4
ENDBRANCH   2   3
ENDBRANCH   1   2
BRANCH   1  12
ATOM     12  C   UNL     1      61.804 151.658   3.543  1.00  0.00     0.000 C 
BRANCH  12  13
ATOM     13  C   UNL     1      63.300 151.578   3.172  1.00  0.00    -0.000 C 
BRANCH  13  14
ATOM     14  C   UNL     1      64.188 152.329   4.181  1.00  0.00    -0.000 C 
BRANCH  14  15
ATOM     15  C   UNL     1      65.009 151.380   5.067  1.00  0.00    -0.000 C 
BRANCH  15  16
ATOM     16  C   UNL     1      65.044 149.948   4.510  1.00  0.00    -0.000 C 
BRANCH  16  17
ATOM     17  C   UNL     1      64.581 148.936   5.567  1.00  0.00    -0.000 C 
BRANCH  17  18
ATOM     18  C   UNL     1      63.293 149.371   6.284  1.00  0.00    -0.000 C 
BRANCH  18  19
ATOM     19  C   UNL     1      62.030 148.772   5.650  1.00  0.00    -0.003 C 
ATOM     20  C   UNL     1      62.233 147.299   5.307  1.00  0.00     0.004 C 
ENDBRANCH  18  19
ENDBRANCH  17  18
ENDBRANCH  16  17
ENDBRANCH  15  16
ENDBRANCH  14  15
ENDBRANCH  13  14
ENDBRANCH  12  13
ENDBRANCH   1  12
TORSDOF 16
ENDMDL
MODEL 2
REMARK VINA RESULT:    -5.580      2.074      6.572
REMARK INTER + INTRA:         -12.661
REMARK INTER:                 -10.441
REMARK INTRA:                  -2.220
REMARK UNBOUND:                -1.862
REMARK SMILES CCCCCCCCCCCCCCCCCC(=O)[O-]
REMARK SMILES IDX 10 1 11 2 12 3 13 4 14 5 15 6 16 7 17 8 18 9 19 10 20 11
REMARK SMILES IDX 9 12 8 13 7 14 6 15 5 16 4 17 3 18 2 19 1 20
REMARK H PARENT
REMARK Flexibility Score: inf
ROOT
ATOM      1  C   UNL     1      63.126 151.538   3.372  1.00  0.00     0.000 C 
ENDROOT
BRANCH   1   2
ATOM      2  C   UNL     1      64.432 151.374   4.169  1.00  0.00     0.000 C 
BRANCH   2   3
ATOM      3  C   UNL     1      65.071 149.989   3.986  1.00  0.00     0.000 C 
BRANCH   3   4
ATOM      4  C   UNL     1      65.235 149.282   5.338  1.00  0.00     0.000 C 
BRANCH   4   5
ATOM      5  C   UNL     1      63.895 149.058   6.057  1.00  0.00     0.000 C 
BRANCH   5   6
ATOM      6  C   UNL     1      63.026 147.989   5.371  1.00  0.00     0.000 C 
BRANCH   6   7
ATOM      7  C   UNL     1      61.523 148.275   5.502  1.00  0.00     0.006 C 
BRANCH   7   8
ATOM      8  C   UNL     1      61.133 148.734   6.914  1.00  0.00     0.053 C 
BRANCH   8   9
ATOM      9  C   UNL     1      59.845 148.099   7.334  1.00  0.00     0.041 C 
ATOM     10  O   UNL     1      58.760 148.727   7.217  1.00  0.00    -0.550 OA
ATOM     11  O   UNL     1      59.845 146.824   7.888  1.00  0.00    -0.550 OA
ENDBRANCH   8   9
ENDBRANCH   7   8
ENDBRANCH   6   7
ENDBRANCH   5   6
ENDBRANCH   4   5
ENDBRANCH   3   4
ENDBRANCH   2   3
ENDBRANCH   1   2
BRANCH   1  12
ATOM     12  C   UNL     1      61.843 151.552   4.226  1.00  0.00     0.000 C 
BRANCH  12  13
ATOM     13  C   UNL     1      62.035 152.176   5.625  1.00  0.00    -0.000 C 
BRANCH  13  14
ATOM     14  C   UNL     1      60.693 152.487   6.310  1.00  0.00    -0.000 C 
BRANCH  14  15
ATOM     15  C   UNL     1      60.042 153.772   5.777  1.00  0.00    -0.000 C 
BRANCH  15  16
ATOM     16  C   UNL     1      58.766 153.489   4.970  1.00  0.00    -0.000 C 
BRANCH  16  17
ATOM     17  C   UNL     1      58.862 154.090   3.561  1.00  0.00    -0.000 C 
BRANCH  17  18
ATOM     18  C   UNL     1      59.055 153.023   2.471  1.00  0.00    -0.000 C 
BRANCH  18  19
ATOM     19  C   UNL     1      60.226 153.340   1.530  1.00  0.00    -0.003 C 
ATOM     20  C   UNL     1      59.748 154.098   0.295  1.00  0.00     0.004 C 
ENDBRANCH  18  19
ENDBRANCH  17  18
ENDBRANCH  16  17
ENDBRANCH  15  16
ENDBRANCH  14  15
ENDBRANCH  13  14
ENDBRANCH  12  13
ENDBRANCH   1  12
TORSDOF 16
ENDMDL
MODEL 3
REMARK VINA RESULT:    -5.544      1.802      6.371
REMARK INTER + INTRA:         -12.592
REMARK INTER:                 -10.531
REMARK INTRA:                  -2.060
REMARK UNBOUND:                -1.862
REMARK SMILES CCCCCCCCCCCCCCCCCC(=O)[O-]
REMARK SMILES IDX 10 1 11 2 12 3 13 4 14 5 15 6 16 7 17 8 18 9 19 10 20 11
REMARK SMILES IDX 9 12 8 13 7 14 6 15 5 16 4 17 3 18 2 19 1 20
REMARK H PARENT
REMARK Flexibility Score: inf
ROOT
ATOM      1  C   UNL     1      61.924 151.641   3.617  1.00  0.00     0.000 C 
ENDROOT
BRANCH   1   2
ATOM      2  C   UNL     1      63.394 151.812   3.199  1.00  0.00     0.000 C 
BRANCH   2   3
ATOM      3  C   UNL     1      64.379 151.424   4.312  1.00  0.00     0.000 C 
BRANCH   3   4
ATOM      4  C   UNL     1      64.921 150.005   4.089  1.00  0.00     0.000 C 
BRANCH   4   5
ATOM      5  C   UNL     1      64.964 149.177   5.383  1.00  0.00     0.000 C 
BRANCH   5   6
ATOM      6  C   UNL     1      63.659 149.274   6.193  1.00  0.00     0.000 C 
BRANCH   6   7
ATOM      7  C   UNL     1      62.603 148.257   5.738  1.00  0.00     0.006 C 
BRANCH   7   8
ATOM      8  C   UNL     1      61.208 148.880   5.594  1.00  0.00     0.053 C 
BRANCH   8   9
ATOM      9  C   UNL     1      60.370 148.574   6.795  1.00  0.00     0.041 C 
ATOM     10  O   UNL     1      60.858 147.932   7.762  1.00  0.00    -0.550 OA
ATOM     11  O   UNL     1      59.038 148.968   6.834  1.00  0.00    -0.550 OA
ENDBRANCH   8   9
ENDBRANCH   7   8
ENDBRANCH   6   7
ENDBRANCH   5   6
ENDBRANCH   4   5
ENDBRANCH   3   4
ENDBRANCH   2   3
ENDBRANCH   1   2
BRANCH   1  12
ATOM     12  C   UNL     1      60.902 151.798   2.473  1.00  0.00     0.000 C 
BRANCH  12  13
ATOM     13  C   UNL     1      61.293 152.872   1.435  1.00  0.00    -0.000 C 
BRANCH  13  14
ATOM     14  C   UNL     1      60.090 153.733   1.011  1.00  0.00    -0.000 C 
BRANCH  14  15
ATOM     15  C   UNL     1      58.867 153.524   1.917  1.00  0.00    -0.000 C 
BRANCH  15  16
ATOM     16  C   UNL     1      58.260 154.853   2.393  1.00  0.00    -0.000 C 
BRANCH  16  17
ATOM     17  C   UNL     1      58.406 155.011   3.912  1.00  0.00    -0.000 C 
BRANCH  17  18
ATOM     18  C   UNL     1      58.745 153.688   4.618  1.00  0.00    -0.000 C 
BRANCH  18  19
ATOM     19  C   UNL     1      59.781 153.861   5.737  1.00  0.00    -0.003 C 
ATOM     20  C   UNL     1      59.968 152.564   6.518  1.00  0.00     0.004 C 
ENDBRANCH  18  19
ENDBRANCH  17  18
ENDBRANCH  16  17
ENDBRANCH  15  16
ENDBRANCH  14  15
ENDBRANCH  13  14
ENDBRANCH  12  13
ENDBRANCH   1  12
TORSDOF 16
ENDMDL
MODEL 4
REMARK VINA RESULT:    -5.540      1.720      6.976
REMARK INTER + INTRA:         -12.584
REMARK INTER:                 -11.227
REMARK INTRA:                  -1.357
REMARK UNBOUND:                -1.862
REMARK SMILES CCCCCCCCCCCCCCCCCC(=O)[O-]
REMARK SMILES IDX 10 1 11 2 12 3 13 4 14 5 15 6 16 7 17 8 18 9 19 10 20 11
REMARK SMILES IDX 9 12 8 13 7 14 6 15 5 16 4 17 3 18 2 19 1 20
REMARK H PARENT
REMARK Flexibility Score: inf
ROOT
ATOM      1  C   UNL     1      61.594 151.857   2.098  1.00  0.00     0.000 C 
ENDROOT
BRANCH   1   2
ATOM      2  C   UNL     1      62.315 151.817   3.456  1.00  0.00     0.000 C 
BRANCH   2   3
ATOM      3  C   UNL     1      63.799 151.439   3.332  1.00  0.00     0.000 C 
BRANCH   3   4
ATOM      4  C   UNL     1      64.633 152.147   4.409  1.00  0.00     0.000 C 
BRANCH   4   5
ATOM      5  C   UNL     1      65.182 151.177   5.467  1.00  0.00     0.000 C 
BRANCH   5   6
ATOM      6  C   UNL     1      64.926 149.702   5.109  1.00  0.00     0.000 C 
BRANCH   6   7
ATOM      7  C   UNL     1      63.973 149.011   6.095  1.00  0.00     0.006 C 
BRANCH   7   8
ATOM      8  C   UNL     1      62.978 148.077   5.394  1.00  0.00     0.053 C 
BRANCH   8   9
ATOM      9  C   UNL     1      61.589 148.316   5.898  1.00  0.00     0.041 C 
ATOM     10  O   UNL     1      61.059 149.452   5.781  1.00  0.00    -0.550 OA
ATOM     11  O   UNL     1      60.891 147.293   6.528  1.00  0.00    -0.550 OA
ENDBRANCH   8   9
ENDBRANCH   7   8
ENDBRANCH   6   7
ENDBRANCH   5   6
ENDBRANCH   4   5
ENDBRANCH   3   4
ENDBRANCH   2   3
ENDBRANCH   1   2
BRANCH   1  12
ATOM     12  C   UNL     1      60.365 152.786   2.042  1.00  0.00     0.000 C 
BRANCH  12  13
ATOM     13  C   UNL     1      60.336 153.702   0.799  1.00  0.00    -0.000 C 
BRANCH  13  14
ATOM     14  C   UNL     1      59.011 154.476   0.682  1.00  0.00    -0.000 C 
BRANCH  14  15
ATOM     15  C   UNL     1      58.193 154.447   1.982  1.00  0.00    -0.000 C 
BRANCH  15  16
ATOM     16  C   UNL     1      58.076 155.835   2.629  1.00  0.00    -0.000 C 
BRANCH  16  17
ATOM     17  C   UNL     1      57.892 155.719   4.149  1.00  0.00    -0.000 C 
BRANCH  17  18
ATOM     18  C   UNL     1      58.962 154.839   4.813  1.00  0.00    -0.000 C 
BRANCH  18  19
ATOM     19  C   UNL     1      59.713 155.565   5.938  1.00  0.00    -0.003 C 
ATOM     20  C   UNL     1      59.406 157.059   5.928  1.00  0.00     0.004 C 
ENDBRANCH  18  19
ENDBRANCH  17  18
ENDBRANCH  16  17
ENDBRANCH  15  16
ENDBRANCH  14  15
ENDBRANCH  13  14
ENDBRANCH  12  13
ENDBRANCH   1  12
TORSDOF 16
ENDMDL
MODEL 5
REMARK VINA RESULT:    -5.496      2.252      6.016
REMARK INTER + INTRA:         -12.499
REMARK INTER:                 -10.122
REMARK INTRA:                  -2.377
REMARK UNBOUND:                -1.862
REMARK SMILES CCCCCCCCCCCCCCCCCC(=O)[O-]
REMARK SMILES IDX 10 1 11 2 12 3 13 4 14 5 15 6 16 7 17 8 18 9 19 10 20 11
REMARK SMILES IDX 9 12 8 13 7 14 6 15 5 16 4 17 3 18 2 19 1 20
REMARK H PARENT
REMARK Flexibility Score: inf
ROOT
ATOM      1  C   UNL     1      61.699 151.858   2.929  1.00  0.00     0.000 C 
ENDROOT
BRANCH   1   2
ATOM      2  C   UNL     1      63.189 151.484   3.007  1.00  0.00     0.000 C 
BRANCH   2   3
ATOM      3  C   UNL     1      63.971 152.357   3.999  1.00  0.00     0.000 C 
BRANCH   3   4
ATOM      4  C   UNL     1      65.028 151.527   4.740  1.00  0.00     0.000 C 
BRANCH   4   5
ATOM      5  C   UNL     1      64.998 150.041   4.347  1.00  0.00     0.000 C 
BRANCH   5   6
ATOM      6  C   UNL     1      64.749 149.114   5.549  1.00  0.00     0.000 C 
BRANCH   6   7
ATOM      7  C   UNL     1      63.441 149.440   6.285  1.00  0.00     0.006 C 
BRANCH   7   8
ATOM      8  C   UNL     1      62.197 149.087   5.458  1.00  0.00     0.053 C 
BRANCH   8   9
ATOM      9  C   UNL     1      61.674 147.740   5.848  1.00  0.00     0.041 C 
ATOM     10  O   UNL     1      62.083 146.706   5.258  1.00  0.00    -0.550 OA
ATOM     11  O   UNL     1      60.706 147.628   6.839  1.00  0.00    -0.550 OA
ENDBRANCH   8   9
ENDBRANCH   7   8
ENDBRANCH   6   7
ENDBRANCH   5   6
ENDBRANCH   4   5
ENDBRANCH   3   4
ENDBRANCH   2   3
ENDBRANCH   1   2
BRANCH   1  12
ATOM     12  C   UNL     1      61.284 152.608   1.648  1.00  0.00     0.000 C 
BRANCH  12  13
ATOM     13  C   UNL     1      59.954 153.380   1.784  1.00  0.00    -0.000 C 
BRANCH  13  14
ATOM     14  C   UNL     1      59.187 152.990   3.060  1.00  0.00    -0.000 C 
BRANCH  14  15
ATOM     15  C   UNL     1      58.839 154.205   3.934  1.00  0.00    -0.000 C 
BRANCH  15  16
ATOM     16  C   UNL     1      58.922 153.886   5.435  1.00  0.00    -0.000 C 
BRANCH  16  17
ATOM     17  C   UNL     1      59.695 152.582   5.678  1.00  0.00    -0.000 C 
BRANCH  17  18
ATOM     18  C   UNL     1      61.062 152.815   6.342  1.00  0.00    -0.000 C 
BRANCH  18  19
ATOM     19  C   UNL     1      61.198 152.092   7.689  1.00  0.00    -0.003 C 
ATOM     20  C   UNL     1      60.117 151.028   7.853  1.00  0.00     0.004 C 
ENDBRANCH  18  19
ENDBRANCH  17  18
ENDBRANCH  16  17
ENDBRANCH  15  16
ENDBRANCH  14  15
ENDBRANCH  13  14
ENDBRANCH  12  13
ENDBRANCH   1  12
TORSDOF 16
ENDMDL
MODEL 6
REMARK VINA RESULT:    -5.471      2.123      4.266
REMARK INTER + INTRA:         -12.451
REMARK INTER:                 -10.660
REMARK INTRA:                  -1.791
REMARK UNBOUND:                -1.862
REMARK SMILES CCCCCCCCCCCCCCCCCC(=O)[O-]
REMARK SMILES IDX 10 1 11 2 12 3 13 4 14 5 15 6 16 7 17 8 18 9 19 10 20 11
REMARK SMILES IDX 9 12 8 13 7 14 6 15 5 16 4 17 3 18 2 19 1 20
REMARK H PARENT
REMARK Flexibility Score: inf
ROOT
ATOM      1  C   UNL     1      65.180 150.300   4.098  1.00  0.00     0.000 C 
ENDROOT
BRANCH   1   2
ATOM      2  C   UNL     1      64.178 151.379   4.544  1.00  0.00     0.000 C 
BRANCH   2   3
ATOM      3  C   UNL     1      63.304 151.893   3.391  1.00  0.00     0.000 C 
BRANCH   3   4
ATOM      4  C   UNL     1      61.833 151.515   3.613  1.00  0.00     0.000 C 
BRANCH   4   5
ATOM      5  C   UNL     1      61.004 151.575   2.320  1.00  0.00     0.000 C 
BRANCH   5   6
ATOM      6  C   UNL     1      61.163 152.912   1.575  1.00  0.00     0.000 C 
BRANCH   6   7
ATOM      7  C   UNL     1      59.825 153.635   1.365  1.00  0.00     0.006 C 
BRANCH   7   8
ATOM      8  C   UNL     1      58.775 153.246   2.414  1.00  0.00     0.053 C 
BRANCH   8   9
ATOM      9  C   UNL     1      58.785 154.219   3.551  1.00  0.00     0.041 C 
ATOM     10  O   UNL     1      58.182 155.320   3.449  1.00  0.00    -0.550 OA
ATOM     11  O   UNL     1      59.489 153.926   4.713  1.00  0.00    -0.550 OA
ENDBRANCH   8   9
ENDBRANCH   7   8
ENDBRANCH   6   7
ENDBRANCH   5   6
ENDBRANCH   4   5
ENDBRANCH   3   4
ENDBRANCH   2   3
ENDBRANCH   1   2
BRANCH   1  12
ATOM     12  C   UNL     1      64.951 148.906   4.717  1.00  0.00     0.000 C 
BRANCH  12  13
ATOM     13  C   UNL     1      63.796 148.864   5.739  1.00  0.00    -0.000 C 
BRANCH  13  14
ATOM     14  C   UNL     1      62.704 147.856   5.339  1.00  0.00    -0.000 C 
BRANCH  14  15
ATOM     15  C   UNL     1      61.291 148.346   5.687  1.00  0.00    -0.000 C 
BRANCH  15  16
ATOM     16  C   UNL     1      61.300 149.411   6.795  1.00  0.00    -0.000 C 
BRANCH  16  17
ATOM     17  C   UNL     1      60.724 148.849   8.102  1.00  0.00    -0.000 C 
BRANCH  17  18
ATOM     18  C   UNL     1      59.592 147.836   7.867  1.00  0.00    -0.000 C 
BRANCH  18  19
ATOM     19  C   UNL     1      59.694 146.609   8.782  1.00  0.00    -0.003 C 
ATOM     20  C   UNL     1      59.496 145.318   7.993  1.00  0.00     0.004 C 
ENDBRANCH  18  19
ENDBRANCH  17  18
ENDBRANCH  16  17
ENDBRANCH  15  16
ENDBRANCH  14  15
ENDBRANCH  13  14
ENDBRANCH  12  13
ENDBRANCH   1  12
TORSDOF 16
ENDMDL
MODEL 7
REMARK VINA RESULT:    -5.430      1.894      4.226
REMARK INTER + INTRA:         -12.371
REMARK INTER:                 -10.196
REMARK INTRA:                  -2.175
REMARK UNBOUND:                -1.862
REMARK SMILES CCCCCCCCCCCCCCCCCC(=O)[O-]
REMARK SMILES IDX 10 1 11 2 12 3 13 4 14 5 15 6 16 7 17 8 18 9 19 10 20 11
REMARK SMILES IDX 9 12 8 13 7 14 6 15 5 16 4 17 3 18 2 19 1 20
REMARK H PARENT
REMARK Flexibility Score: inf
ROOT
ATOM      1  C   UNL     1      58.663 153.427   2.001  1.00  0.00     0.000 C 
ENDROOT
BRANCH   1   2
ATOM      2  C   UNL     1      58.653 154.321   3.253  1.00  0.00     0.000 C 
BRANCH   2   3
ATOM      3  C   UNL     1      58.855 153.527   4.553  1.00  0.00     0.000 C 
BRANCH   3   4
ATOM      4  C   UNL     1      59.715 154.319   5.547  1.00  0.00     0.000 C 
BRANCH   4   5
ATOM      5  C   UNL     1      59.973 153.550   6.852  1.00  0.00     0.000 C 
BRANCH   5   6
ATOM      6  C   UNL     1      61.271 152.724   6.806  1.00  0.00     0.000 C 
BRANCH   6   7
ATOM      7  C   UNL     1      61.131 151.363   7.504  1.00  0.00     0.006 C 
BRANCH   7   8
ATOM      8  C   UNL     1      62.186 150.352   7.038  1.00  0.00     0.053 C 
BRANCH   8   9
ATOM      9  C   UNL     1      61.531 149.101   6.541  1.00  0.00     0.041 C 
ATOM     10  O   UNL     1      61.477 148.861   5.306  1.00  0.00    -0.550 OA
ATOM     11  O   UNL     1      60.948 148.216   7.440  1.00  0.00    -0.550 OA
ENDBRANCH   8   9
ENDBRANCH   7   8
ENDBRANCH   6   7
ENDBRANCH   5   6
ENDBRANCH   4   5
ENDBRANCH   3   4
ENDBRANCH   2   3
ENDBRANCH   1   2
BRANCH   1  12
ATOM     12  C   UNL     1      59.750 153.775   0.964  1.00  0.00     0.000 C 
BRANCH  12  13
ATOM     13  C   UNL     1      61.153 153.251   1.338  1.00  0.00    -0.000 C 
BRANCH  13  14
ATOM     14  C   UNL     1      61.090 151.888   2.051  1.00  0.00    -0.000 C 
BRANCH  14  15
ATOM     15  C   UNL     1      61.868 151.880   3.376  1.00  0.00    -0.000 C 
BRANCH  15  16
ATOM     16  C   UNL     1      63.361 151.574   3.173  1.00  0.00    -0.000 C 
BRANCH  16  17
ATOM     17  C   UNL     1      64.222 152.347   4.182  1.00  0.00    -0.000 C 
BRANCH  17  18
ATOM     18  C   UNL     1      65.052 151.422   5.087  1.00  0.00    -0.000 C 
BRANCH  18  19
ATOM     19  C   UNL     1      65.143 149.988   4.546  1.00  0.00    -0.003 C 
ATOM     20  C   UNL     1      65.266 148.979   5.684  1.00  0.00     0.004 C 
ENDBRANCH  18  19
ENDBRANCH  17  18
ENDBRANCH  16  17
ENDBRANCH  15  16
ENDBRANCH  14  15
ENDBRANCH  13  14
ENDBRANCH  12  13
ENDBRANCH   1  12
TORSDOF 16
ENDMDL
MODEL 8
REMARK VINA RESULT:    -5.409      1.329      5.302
REMARK INTER + INTRA:         -12.330
REMARK INTER:                  -9.917
REMARK INTRA:                  -2.413
REMARK UNBOUND:                -1.862
REMARK SMILES CCCCCCCCCCCCCCCCCC(=O)[O-]
REMARK SMILES IDX 10 1 11 2 12 3 13 4 14 5 15 6 16 7 17 8 18 9 19 10 20 11
REMARK SMILES IDX 9 12 8 13 7 14 6 15 5 16 4 17 3 18 2 19 1 20
REMARK H PARENT
REMARK Flexibility Score: inf
ROOT
ATOM      1  C   UNL     1      65.101 149.141   5.098  1.00  0.00     0.000 C 
ENDROOT
BRANCH   1   2
ATOM      2  C   UNL     1      63.919 149.196   6.082  1.00  0.00     0.000 C 
BRANCH   2   3
ATOM      3  C   UNL     1      62.642 148.561   5.514  1.00  0.00     0.000 C 
BRANCH   3   4
ATOM      4  C   UNL     1      61.394 149.154   6.183  1.00  0.00     0.000 C 
BRANCH   4   5
ATOM      5  C   UNL     1      61.725 150.331   7.116  1.00  0.00     0.000 C 
BRANCH   5   6
ATOM      6  C   UNL     1      60.661 151.442   7.068  1.00  0.00     0.000 C 
BRANCH   6   7
ATOM      7  C   UNL     1      61.277 152.849   7.047  1.00  0.00     0.006 C 
BRANCH   7   8
ATOM      8  C   UNL     1      60.459 153.836   6.203  1.00  0.00     0.053 C 
BRANCH   8   9
ATOM      9  C   UNL     1      60.334 155.150   6.908  1.00  0.00     0.041 C 
ATOM     10  O   UNL     1      60.058 156.194   6.260  1.00  0.00    -0.550 OA
ATOM     11  O   UNL     1      60.555 155.229   8.278  1.00  0.00    -0.550 OA
ENDBRANCH   8   9
ENDBRANCH   7   8
ENDBRANCH   6   7
ENDBRANCH   5   6
ENDBRANCH   4   5
ENDBRANCH   3   4
ENDBRANCH   2   3
ENDBRANCH   1   2
BRANCH   1  12
ATOM     12  C   UNL     1      65.018 150.142   3.928  1.00  0.00     0.000 C 
BRANCH  12  13
ATOM     13  C   UNL     1      65.023 151.620   4.375  1.00  0.00    -0.000 C 
BRANCH  13  14
ATOM     14  C   UNL     1      63.615 152.241   4.336  1.00  0.00    -0.000 C 
BRANCH  14  15
ATOM     15  C   UNL     1      62.829 151.842   3.078  1.00  0.00    -0.000 C 
BRANCH  15  16
ATOM     16  C   UNL     1      61.359 151.520   3.386  1.00  0.00    -0.000 C 
BRANCH  16  17
ATOM     17  C   UNL     1      60.417 152.449   2.607  1.00  0.00    -0.000 C 
BRANCH  17  18
ATOM     18  C   UNL     1      61.070 153.034   1.344  1.00  0.00    -0.000 C 
BRANCH  18  19
ATOM     19  C   UNL     1      60.119 153.940   0.550  1.00  0.00    -0.003 C 
ATOM     20  C   UNL     1      58.822 154.182   1.318  1.00  0.00     0.004 C 
ENDBRANCH  18  19
ENDBRANCH  17  18
ENDBRANCH  16  17
ENDBRANCH  15  16
ENDBRANCH  14  15
ENDBRANCH  13  14
ENDBRANCH  12  13
ENDBRANCH   1  12
TORSDOF 16
ENDMDL
MODEL 9
REMARK VINA RESULT:    -5.392      2.326      5.723
REMARK INTER + INTRA:         -12.296
REMARK INTER:                 -10.031
REMARK INTRA:                  -2.265
REMARK UNBOUND:                -1.862
REMARK SMILES CCCCCCCCCCCCCCCCCC(=O)[O-]
REMARK SMILES IDX 10 1 11 2 12 3 13 4 14 5 15 6 16 7 17 8 18 9 19 10 20 11
REMARK SMILES IDX 9 12 8 13 7 14 6 15 5 16 4 17 3 18 2 19 1 20
REMARK H PARENT
REMARK Flexibility Score: inf
ROOT
ATOM      1  C   UNL     1      64.358 148.874   5.732  1.00  0.00     0.000 C 
ENDROOT
BRANCH   1   2
ATOM      2  C   UNL     1      65.009 149.859   4.745  1.00  0.00     0.000 C 
BRANCH   2   3
ATOM      3  C   UNL     1      65.025 151.302   5.269  1.00  0.00     0.000 C 
BRANCH   3   4
ATOM      4  C   UNL     1      64.412 152.262   4.240  1.00  0.00     0.000 C 
BRANCH   4   5
ATOM      5  C   UNL     1      63.477 151.551   3.249  1.00  0.00     0.000 C 
BRANCH   5   6
ATOM      6  C   UNL     1      61.992 151.711   3.617  1.00  0.00     0.000 C 
BRANCH   6   7
ATOM      7  C   UNL     1      61.072 151.691   2.387  1.00  0.00     0.006 C 
BRANCH   7   8
ATOM      8  C   UNL     1      60.049 152.834   2.398  1.00  0.00     0.053 C 
BRANCH   8   9
ATOM      9  C   UNL     1      60.164 153.653   1.151  1.00  0.00     0.041 C 
ATOM     10  O   UNL     1      61.277 153.779   0.576  1.00  0.00    -0.550 OA
ATOM     11  O   UNL     1      59.049 154.307   0.642  1.00  0.00    -0.550 OA
ENDBRANCH   8   9
ENDBRANCH   7   8
ENDBRANCH   6   7
ENDBRANCH   5   6
ENDBRANCH   4   5
ENDBRANCH   3   4
ENDBRANCH   2   3
ENDBRANCH   1   2
BRANCH   1  12
ATOM     12  C   UNL     1      62.945 148.399   5.338  1.00  0.00     0.000 C 
BRANCH  12  13
ATOM     13  C   UNL     1      61.832 148.923   6.271  1.00  0.00    -0.000 C 
BRANCH  13  14
ATOM     14  C   UNL     1      62.335 150.045   7.198  1.00  0.00    -0.000 C 
BRANCH  14  15
ATOM     15  C   UNL     1      61.190 150.766   7.925  1.00  0.00    -0.000 C 
BRANCH  15  16
ATOM     16  C   UNL     1      60.659 151.969   7.130  1.00  0.00    -0.000 C 
BRANCH  16  17
ATOM     17  C   UNL     1      59.199 151.748   6.710  1.00  0.00    -0.000 C 
BRANCH  17  18
ATOM     18  C   UNL     1      58.723 152.763   5.658  1.00  0.00    -0.000 C 
BRANCH  18  19
ATOM     19  C   UNL     1      59.306 154.165   5.879  1.00  0.00    -0.003 C 
ATOM     20  C   UNL     1      58.718 155.167   4.890  1.00  0.00     0.004 C 
ENDBRANCH  18  19
ENDBRANCH  17  18
ENDBRANCH  16  17
ENDBRANCH  15  16
ENDBRANCH  14  15
ENDBRANCH  13  14
ENDBRANCH  12  13
ENDBRANCH   1  12
TORSDOF 16
ENDMDL
