MODEL 1
REMARK VINA RESULT:    -5.268      0.000      0.000
REMARK INTER + INTRA:         -11.827
REMARK INTER:                 -10.196
REMARK INTRA:                  -1.631
REMARK UNBOUND:                -1.631
REMARK SMILES CCCCCCCCCCCCCCCCCC(=O)[O-]
REMARK SMILES IDX 10 1 11 2 12 3 13 4 14 5 15 6 16 7 17 8 18 9 19 10 20 11
REMARK SMILES IDX 9 12 8 13 7 14 6 15 5 16 4 17 3 18 2 19 1 20
REMARK H PARENT
REMARK Flexibility Score: inf
ROOT
ATOM      1  C   UNL     1     -23.517 -23.246  40.697  1.00  0.00     0.000 C 
ENDROOT
BRANCH   1   2
ATOM      2  C   UNL     1     -22.110 -23.734  41.077  1.00  0.00     0.000 C 
BRANCH   2   3
ATOM      3  C   UNL     1     -21.183 -23.876  39.860  1.00  0.00     0.000 C 
BRANCH   3   4
ATOM      4  C   UNL     1     -20.276 -25.105  40.003  1.00  0.00     0.000 C 
BRANCH   4   5
ATOM      5  C   UNL     1     -21.089 -26.404  39.921  1.00  0.00     0.000 C 
BRANCH   5   6
ATOM      6  C   UNL     1     -21.117 -26.989  38.491  1.00  0.00     0.000 C 
BRANCH   6   7
ATOM      7  C   UNL     1     -22.146 -28.119  38.309  1.00  0.00     0.006 C 
BRANCH   7   8
ATOM      8  C   UNL     1     -22.802 -28.583  39.617  1.00  0.00     0.053 C 
BRANCH   8   9
ATOM      9  C   UNL     1     -24.107 -29.279  39.372  1.00  0.00     0.041 C 
ATOM     10  O   UNL     1     -24.681 -29.893  40.309  1.00  0.00    -0.550 OA
ATOM     11  O   UNL     1     -24.677 -29.268  38.106  1.00  0.00    -0.550 OA
ENDBRANCH   8   9
ENDBRANCH   7   8
ENDBRANCH   6   7
ENDBRANCH   5   6
ENDBRANCH   4   5
ENDBRANCH   3   4
ENDBRANCH   2   3
ENDBRANCH   1   2
BRANCH   1  12
ATOM     12  C   UNL     1     -24.622 -24.209  41.161  1.00  0.00     0.000 C 
BRANCH  12  13
ATOM     13  C   UNL     1     -24.067 -25.469  41.845  1.00  0.00    -0.000 C 
BRANCH  13  14
ATOM     14  C   UNL     1     -25.162 -26.449  42.320  1.00  0.00    -0.000 C 
BRANCH  14  15
ATOM     15  C   UNL     1     -26.126 -26.836  41.185  1.00  0.00    -0.000 C 
BRANCH  15  16
ATOM     16  C   UNL     1     -27.579 -26.431  41.476  1.00  0.00    -0.000 C 
BRANCH  16  17
ATOM     17  C   UNL     1     -27.696 -25.441  42.644  1.00  0.00    -0.000 C 
BRANCH  17  18
ATOM     18  C   UNL     1     -29.158 -25.048  42.886  1.00  0.00    -0.000 C 
BRANCH  18  19
ATOM     19  C   UNL     1     -30.039 -26.288  43.073  1.00  0.00    -0.003 C 
ATOM     20  C   UNL     1     -31.149 -26.339  42.027  1.00  0.00     0.004 C 
ENDBRANCH  18  19
ENDBRANCH  17  18
ENDBRANCH  16  17
ENDBRANCH  15  16
ENDBRANCH  14  15
ENDBRANCH  13  14
ENDBRANCH  12  13
ENDBRANCH   1  12
TORSDOF 16
ENDMDL
MODEL 2
REMARK VINA RESULT:    -5.153      1.153      2.189
REMARK INTER + INTRA:         -11.604
REMARK INTER:                  -9.772
REMARK INTRA:                  -1.833
REMARK UNBOUND:                -1.631
REMARK SMILES CCCCCCCCCCCCCCCCCC(=O)[O-]
REMARK SMILES IDX 10 1 11 2 12 3 13 4 14 5 15 6 16 7 17 8 18 9 19 10 20 11
REMARK SMILES IDX 9 12 8 13 7 14 6 15 5 16 4 17 3 18 2 19 1 20
REMARK H PARENT
REMARK Flexibility Score: inf
ROOT
ATOM      1  C   UNL     1     -21.235 -23.866  40.448  1.00  0.00     0.000 C 
ENDROOT
BRANCH   1   2
ATOM      2  C   UNL     1     -21.070 -24.664  39.145  1.00  0.00     0.000 C 
BRANCH   2   3
ATOM      3  C   UNL     1     -20.740 -26.143  39.394  1.00  0.00     0.000 C 
BRANCH   3   4
ATOM      4  C   UNL     1     -21.082 -26.995  38.165  1.00  0.00     0.000 C 
BRANCH   4   5
ATOM      5  C   UNL     1     -22.049 -28.130  38.531  1.00  0.00     0.000 C 
BRANCH   5   6
ATOM      6  C   UNL     1     -22.573 -28.009  39.979  1.00  0.00     0.000 C 
BRANCH   6   7
ATOM      7  C   UNL     1     -22.873 -29.367  40.640  1.00  0.00     0.006 C 
BRANCH   7   8
ATOM      8  C   UNL     1     -24.352 -29.570  41.004  1.00  0.00     0.053 C 
BRANCH   8   9
ATOM      9  C   UNL     1     -25.227 -29.609  39.788  1.00  0.00     0.041 C 
ATOM     10  O   UNL     1     -26.059 -28.689  39.579  1.00  0.00    -0.550 OA
ATOM     11  O   UNL     1     -25.138 -30.671  38.898  1.00  0.00    -0.550 OA
ENDBRANCH   8   9
ENDBRANCH   7   8
ENDBRANCH   6   7
ENDBRANCH   5   6
ENDBRANCH   4   5
ENDBRANCH   3   4
ENDBRANCH   2   3
ENDBRANCH   1   2
BRANCH   1  12
ATOM     12  C   UNL     1     -22.446 -24.330  41.275  1.00  0.00     0.000 C 
BRANCH  12  13
ATOM     13  C   UNL     1     -23.768 -23.704  40.802  1.00  0.00    -0.000 C 
BRANCH  13  14
ATOM     14  C   UNL     1     -25.018 -24.317  41.470  1.00  0.00    -0.000 C 
BRANCH  14  15
ATOM     15  C   UNL     1     -24.977 -25.855  41.474  1.00  0.00    -0.000 C 
BRANCH  15  16
ATOM     16  C   UNL     1     -26.083 -26.476  42.339  1.00  0.00    -0.000 C 
BRANCH  16  17
ATOM     17  C   UNL     1     -27.068 -25.430  42.883  1.00  0.00    -0.000 C 
BRANCH  17  18
ATOM     18  C   UNL     1     -28.518 -25.899  42.708  1.00  0.00    -0.000 C 
BRANCH  18  19
ATOM     19  C   UNL     1     -29.492 -24.717  42.776  1.00  0.00    -0.003 C 
ATOM     20  C   UNL     1     -28.748 -23.387  42.722  1.00  0.00     0.004 C 
ENDBRANCH  18  19
ENDBRANCH  17  18
ENDBRANCH  16  17
ENDBRANCH  15  16
ENDBRANCH  14  15
ENDBRANCH  13  14
ENDBRANCH  12  13
ENDBRANCH   1  12
TORSDOF 16
ENDMDL
MODEL 3
REMARK VINA RESULT:    -5.107      1.685      3.204
REMARK INTER + INTRA:         -11.515
REMARK INTER:                  -9.594
REMARK INTRA:                  -1.921
REMARK UNBOUND:                -1.631
REMARK SMILES CCCCCCCCCCCCCCCCCC(=O)[O-]
REMARK SMILES IDX 10 1 11 2 12 3 13 4 14 5 15 6 16 7 17 8 18 9 19 10 20 11
REMARK SMILES IDX 9 12 8 13 7 14 6 15 5 16 4 17 3 18 2 19 1 20
REMARK H PARENT
REMARK Flexibility Score: inf
ROOT
ATOM      1  C   UNL     1     -21.362 -24.014  38.803  1.00  0.00     0.000 C 
ENDROOT
BRANCH   1   2
ATOM      2  C   UNL     1     -20.209 -24.664  39.583  1.00  0.00     0.000 C 
BRANCH   2   3
ATOM      3  C   UNL     1     -20.354 -26.189  39.694  1.00  0.00     0.000 C 
BRANCH   3   4
ATOM      4  C   UNL     1     -20.735 -26.803  38.340  1.00  0.00     0.000 C 
BRANCH   4   5
ATOM      5  C   UNL     1     -21.842 -27.854  38.501  1.00  0.00     0.000 C 
BRANCH   5   6
ATOM      6  C   UNL     1     -22.434 -27.867  39.927  1.00  0.00     0.000 C 
BRANCH   6   7
ATOM      7  C   UNL     1     -22.828 -29.272  40.417  1.00  0.00     0.006 C 
BRANCH   7   8
ATOM      8  C   UNL     1     -24.220 -29.341  41.063  1.00  0.00     0.053 C 
BRANCH   8   9
ATOM      9  C   UNL     1     -25.313 -29.310  40.038  1.00  0.00     0.041 C 
ATOM     10  O   UNL     1     -25.470 -30.280  39.252  1.00  0.00    -0.550 OA
ATOM     11  O   UNL     1     -26.143 -28.201  39.936  1.00  0.00    -0.550 OA
ENDBRANCH   8   9
ENDBRANCH   7   8
ENDBRANCH   6   7
ENDBRANCH   5   6
ENDBRANCH   4   5
ENDBRANCH   3   4
ENDBRANCH   2   3
ENDBRANCH   1   2
BRANCH   1  12
ATOM     12  C   UNL     1     -21.678 -22.591  39.293  1.00  0.00     0.000 C 
BRANCH  12  13
ATOM     13  C   UNL     1     -23.168 -22.233  39.166  1.00  0.00    -0.000 C 
BRANCH  13  14
ATOM     14  C   UNL     1     -24.036 -22.773  40.323  1.00  0.00    -0.000 C 
BRANCH  14  15
ATOM     15  C   UNL     1     -23.186 -23.419  41.432  1.00  0.00    -0.000 C 
BRANCH  15  16
ATOM     16  C   UNL     1     -23.398 -24.937  41.533  1.00  0.00    -0.000 C 
BRANCH  16  17
ATOM     17  C   UNL     1     -24.878 -25.337  41.440  1.00  0.00    -0.000 C 
BRANCH  17  18
ATOM     18  C   UNL     1     -25.314 -26.122  42.683  1.00  0.00    -0.000 C 
BRANCH  18  19
ATOM     19  C   UNL     1     -26.758 -25.784  43.071  1.00  0.00    -0.003 C 
ATOM     20  C   UNL     1     -27.235 -24.517  42.367  1.00  0.00     0.004 C 
ENDBRANCH  18  19
ENDBRANCH  17  18
ENDBRANCH  16  17
ENDBRANCH  15  16
ENDBRANCH  14  15
ENDBRANCH  13  14
ENDBRANCH  12  13
ENDBRANCH   1  12
TORSDOF 16
ENDMDL
MODEL 4
REMARK VINA RESULT:    -5.037      2.538      6.049
REMARK INTER + INTRA:         -11.380
REMARK INTER:                  -9.679
REMARK INTRA:                  -1.700
REMARK UNBOUND:                -1.631
REMARK SMILES CCCCCCCCCCCCCCCCCC(=O)[O-]
REMARK SMILES IDX 10 1 11 2 12 3 13 4 14 5 15 6 16 7 17 8 18 9 19 10 20 11
REMARK SMILES IDX 9 12 8 13 7 14 6 15 5 16 4 17 3 18 2 19 1 20
REMARK H PARENT
REMARK Flexibility Score: inf
ROOT
ATOM      1  C   UNL     1     -22.247 -24.013  41.310  1.00  0.00     0.000 C 
ENDROOT
BRANCH   1   2
ATOM      2  C   UNL     1     -23.556 -23.232  41.112  1.00  0.00     0.000 C 
BRANCH   2   3
ATOM      3  C   UNL     1     -24.798 -24.135  41.162  1.00  0.00     0.000 C 
BRANCH   3   4
ATOM      4  C   UNL     1     -24.415 -25.573  41.535  1.00  0.00     0.000 C 
BRANCH   4   5
ATOM      5  C   UNL     1     -25.530 -26.250  42.344  1.00  0.00     0.000 C 
BRANCH   5   6
ATOM      6  C   UNL     1     -26.720 -25.301  42.608  1.00  0.00     0.000 C 
BRANCH   6   7
ATOM      7  C   UNL     1     -28.087 -26.010  42.597  1.00  0.00     0.006 C 
BRANCH   7   8
ATOM      8  C   UNL     1     -29.287 -25.053  42.636  1.00  0.00     0.053 C 
BRANCH   8   9
ATOM      9  C   UNL     1     -30.349 -25.447  41.654  1.00  0.00     0.041 C 
ATOM     10  O   UNL     1     -30.082 -26.252  40.725  1.00  0.00    -0.550 OA
ATOM     11  O   UNL     1     -31.625 -24.909  41.752  1.00  0.00    -0.550 OA
ENDBRANCH   8   9
ENDBRANCH   7   8
ENDBRANCH   6   7
ENDBRANCH   5   6
ENDBRANCH   4   5
ENDBRANCH   3   4
ENDBRANCH   2   3
ENDBRANCH   1   2
BRANCH   1  12
ATOM     12  C   UNL     1     -21.307 -23.907  40.098  1.00  0.00     0.000 C 
BRANCH  12  13
ATOM     13  C   UNL     1     -20.392 -25.133  39.944  1.00  0.00    -0.000 C 
BRANCH  13  14
ATOM     14  C   UNL     1     -21.131 -26.480  40.090  1.00  0.00    -0.000 C 
BRANCH  14  15
ATOM     15  C   UNL     1     -21.376 -27.157  38.730  1.00  0.00    -0.000 C 
BRANCH  15  16
ATOM     16  C   UNL     1     -22.373 -28.322  38.818  1.00  0.00    -0.000 C 
BRANCH  16  17
ATOM     17  C   UNL     1     -22.712 -28.704  40.266  1.00  0.00    -0.000 C 
BRANCH  17  18
ATOM     18  C   UNL     1     -24.187 -29.105  40.397  1.00  0.00    -0.000 C 
BRANCH  18  19
ATOM     19  C   UNL     1     -24.846 -29.237  39.019  1.00  0.00    -0.003 C 
ATOM     20  C   UNL     1     -25.829 -30.404  38.988  1.00  0.00     0.004 C 
ENDBRANCH  18  19
ENDBRANCH  17  18
ENDBRANCH  16  17
ENDBRANCH  15  16
ENDBRANCH  14  15
ENDBRANCH  13  14
ENDBRANCH  12  13
ENDBRANCH   1  12
TORSDOF 16
ENDMDL
MODEL 5
REMARK VINA RESULT:    -4.996      3.260      5.178
REMARK INTER + INTRA:         -11.300
REMARK INTER:                  -9.446
REMARK INTRA:                  -1.854
REMARK UNBOUND:                -1.631
REMARK SMILES CCCCCCCCCCCCCCCCCC(=O)[O-]
REMARK SMILES IDX 10 1 11 2 12 3 13 4 14 5 15 6 16 7 17 8 18 9 19 10 20 11
REMARK SMILES IDX 9 12 8 13 7 14 6 15 5 16 4 17 3 18 2 19 1 20
REMARK H PARENT
REMARK Flexibility Score: inf
ROOT
ATOM      1  C   UNL     1     -22.341 -28.115  38.923  1.00  0.00     0.000 C 
ENDROOT
BRANCH   1   2
ATOM      2  C   UNL     1     -21.558 -27.181  39.858  1.00  0.00     0.000 C 
BRANCH   2   3
ATOM      3  C   UNL     1     -20.842 -26.051  39.102  1.00  0.00     0.000 C 
BRANCH   3   4
ATOM      4  C   UNL     1     -20.464 -24.909  40.054  1.00  0.00     0.000 C 
BRANCH   4   5
ATOM      5  C   UNL     1     -21.652 -24.515  40.943  1.00  0.00     0.000 C 
BRANCH   5   6
ATOM      6  C   UNL     1     -22.037 -23.027  40.782  1.00  0.00     0.000 C 
BRANCH   6   7
ATOM      7  C   UNL     1     -23.315 -22.809  39.952  1.00  0.00     0.006 C 
BRANCH   7   8
ATOM      8  C   UNL     1     -24.118 -21.564  40.359  1.00  0.00     0.053 C 
BRANCH   8   9
ATOM      9  C   UNL     1     -23.884 -20.418  39.422  1.00  0.00     0.041 C 
ATOM     10  O   UNL     1     -22.872 -20.409  38.675  1.00  0.00    -0.550 OA
ATOM     11  O   UNL     1     -24.772 -19.351  39.389  1.00  0.00    -0.550 OA
ENDBRANCH   8   9
ENDBRANCH   7   8
ENDBRANCH   6   7
ENDBRANCH   5   6
ENDBRANCH   4   5
ENDBRANCH   3   4
ENDBRANCH   2   3
ENDBRANCH   1   2
BRANCH   1  12
ATOM     12  C   UNL     1     -23.150 -29.175  39.689  1.00  0.00     0.000 C 
BRANCH  12  13
ATOM     13  C   UNL     1     -24.664 -29.061  39.448  1.00  0.00    -0.000 C 
BRANCH  13  14
ATOM     14  C   UNL     1     -25.430 -28.401  40.614  1.00  0.00    -0.000 C 
BRANCH  14  15
ATOM     15  C   UNL     1     -24.510 -28.091  41.809  1.00  0.00    -0.000 C 
BRANCH  15  16
ATOM     16  C   UNL     1     -24.878 -26.777  42.515  1.00  0.00    -0.000 C 
BRANCH  16  17
ATOM     17  C   UNL     1     -24.946 -25.584  41.551  1.00  0.00    -0.000 C 
BRANCH  17  18
ATOM     18  C   UNL     1     -26.332 -24.927  41.587  1.00  0.00    -0.000 C 
BRANCH  18  19
ATOM     19  C   UNL     1     -27.092 -25.315  42.860  1.00  0.00    -0.003 C 
ATOM     20  C   UNL     1     -28.410 -26.006  42.527  1.00  0.00     0.004 C 
ENDBRANCH  18  19
ENDBRANCH  17  18
ENDBRANCH  16  17
ENDBRANCH  15  16
ENDBRANCH  14  15
ENDBRANCH  13  14
ENDBRANCH  12  13
ENDBRANCH   1  12
TORSDOF 16
ENDMDL
MODEL 6
REMARK VINA RESULT:    -4.995      3.439      5.871
REMARK INTER + INTRA:         -11.298
REMARK INTER:                  -9.488
REMARK INTRA:                  -1.811
REMARK UNBOUND:                -1.631
REMARK SMILES CCCCCCCCCCCCCCCCCC(=O)[O-]
REMARK SMILES IDX 10 1 11 2 12 3 13 4 14 5 15 6 16 7 17 8 18 9 19 10 20 11
REMARK SMILES IDX 9 12 8 13 7 14 6 15 5 16 4 17 3 18 2 19 1 20
REMARK H PARENT
REMARK Flexibility Score: inf
ROOT
ATOM      1  C   UNL     1     -25.360 -28.611  40.534  1.00  0.00     0.000 C 
ENDROOT
BRANCH   1   2
ATOM      2  C   UNL     1     -24.121 -29.141  41.274  1.00  0.00     0.000 C 
BRANCH   2   3
ATOM      3  C   UNL     1     -22.907 -29.312  40.349  1.00  0.00     0.000 C 
BRANCH   3   4
ATOM      4  C   UNL     1     -23.275 -28.986  38.896  1.00  0.00     0.000 C 
BRANCH   4   5
ATOM      5  C   UNL     1     -22.244 -28.040  38.264  1.00  0.00     0.000 C 
BRANCH   5   6
ATOM      6  C   UNL     1     -21.564 -27.131  39.311  1.00  0.00     0.000 C 
BRANCH   6   7
ATOM      7  C   UNL     1     -20.237 -26.519  38.825  1.00  0.00     0.006 C 
BRANCH   7   8
ATOM      8  C   UNL     1     -19.668 -25.440  39.759  1.00  0.00     0.053 C 
BRANCH   8   9
ATOM      9  C   UNL     1     -18.366 -24.895  39.255  1.00  0.00     0.041 C 
ATOM     10  O   UNL     1     -17.402 -25.670  39.026  1.00  0.00    -0.550 OA
ATOM     11  O   UNL     1     -18.211 -23.528  39.060  1.00  0.00    -0.550 OA
ENDBRANCH   8   9
ENDBRANCH   7   8
ENDBRANCH   6   7
ENDBRANCH   5   6
ENDBRANCH   4   5
ENDBRANCH   3   4
ENDBRANCH   2   3
ENDBRANCH   1   2
BRANCH   1  12
ATOM     12  C   UNL     1     -25.788 -27.218  41.023  1.00  0.00     0.000 C 
BRANCH  12  13
ATOM     13  C   UNL     1     -24.707 -26.522  41.865  1.00  0.00    -0.000 C 
BRANCH  13  14
ATOM     14  C   UNL     1     -24.454 -25.054  41.458  1.00  0.00    -0.000 C 
BRANCH  14  15
ATOM     15  C   UNL     1     -22.954 -24.708  41.439  1.00  0.00    -0.000 C 
BRANCH  15  16
ATOM     16  C   UNL     1     -22.636 -23.491  40.558  1.00  0.00    -0.000 C 
BRANCH  16  17
ATOM     17  C   UNL     1     -22.686 -22.167  41.334  1.00  0.00    -0.000 C 
BRANCH  17  18
ATOM     18  C   UNL     1     -23.918 -21.344  40.937  1.00  0.00    -0.000 C 
BRANCH  18  19
ATOM     19  C   UNL     1     -23.971 -21.129  39.420  1.00  0.00    -0.003 C 
ATOM     20  C   UNL     1     -23.699 -19.672  39.060  1.00  0.00     0.004 C 
ENDBRANCH  18  19
ENDBRANCH  17  18
ENDBRANCH  16  17
ENDBRANCH  15  16
ENDBRANCH  14  15
ENDBRANCH  13  14
ENDBRANCH  12  13
ENDBRANCH   1  12
TORSDOF 16
ENDMDL
MODEL 7
REMARK VINA RESULT:    -4.992      2.374      6.307
REMARK INTER + INTRA:         -11.291
REMARK INTER:                  -9.789
REMARK INTRA:                  -1.502
REMARK UNBOUND:                -1.631
REMARK SMILES CCCCCCCCCCCCCCCCCC(=O)[O-]
REMARK SMILES IDX 10 1 11 2 12 3 13 4 14 5 15 6 16 7 17 8 18 9 19 10 20 11
REMARK SMILES IDX 9 12 8 13 7 14 6 15 5 16 4 17 3 18 2 19 1 20
REMARK H PARENT
REMARK Flexibility Score: inf
ROOT
ATOM      1  C   UNL     1     -22.197 -28.133  39.861  1.00  0.00     0.000 C 
ENDROOT
BRANCH   1   2
ATOM      2  C   UNL     1     -22.985 -29.431  40.098  1.00  0.00     0.000 C 
BRANCH   2   3
ATOM      3  C   UNL     1     -24.124 -29.255  41.113  1.00  0.00     0.000 C 
BRANCH   3   4
ATOM      4  C   UNL     1     -25.482 -29.167  40.403  1.00  0.00     0.000 C 
BRANCH   4   5
ATOM      5  C   UNL     1     -26.073 -27.755  40.514  1.00  0.00     0.000 C 
BRANCH   5   6
ATOM      6  C   UNL     1     -25.311 -26.879  41.534  1.00  0.00     0.000 C 
BRANCH   6   7
ATOM      7  C   UNL     1     -25.972 -25.511  41.785  1.00  0.00     0.006 C 
BRANCH   7   8
ATOM      8  C   UNL     1     -26.871 -25.472  43.030  1.00  0.00     0.053 C 
BRANCH   8   9
ATOM      9  C   UNL     1     -28.326 -25.481  42.669  1.00  0.00     0.041 C 
ATOM     10  O   UNL     1     -28.899 -26.564  42.383  1.00  0.00    -0.550 OA
ATOM     11  O   UNL     1     -29.042 -24.292  42.628  1.00  0.00    -0.550 OA
ENDBRANCH   8   9
ENDBRANCH   7   8
ENDBRANCH   6   7
ENDBRANCH   5   6
ENDBRANCH   4   5
ENDBRANCH   3   4
ENDBRANCH   2   3
ENDBRANCH   1   2
BRANCH   1  12
ATOM     12  C   UNL     1     -21.941 -27.862  38.369  1.00  0.00     0.000 C 
BRANCH  12  13
ATOM     13  C   UNL     1     -21.111 -26.592  38.126  1.00  0.00    -0.000 C 
BRANCH  13  14
ATOM     14  C   UNL     1     -20.022 -26.349  39.194  1.00  0.00    -0.000 C 
BRANCH  14  15
ATOM     15  C   UNL     1     -20.248 -25.035  39.962  1.00  0.00    -0.000 C 
BRANCH  15  16
ATOM     16  C   UNL     1     -21.498 -24.278  39.489  1.00  0.00    -0.000 C 
BRANCH  16  17
ATOM     17  C   UNL     1     -21.620 -22.883  40.118  1.00  0.00    -0.000 C 
BRANCH  17  18
ATOM     18  C   UNL     1     -22.957 -22.728  40.855  1.00  0.00    -0.000 C 
BRANCH  18  19
ATOM     19  C   UNL     1     -24.033 -22.151  39.929  1.00  0.00    -0.003 C 
ATOM     20  C   UNL     1     -25.407 -22.186  40.591  1.00  0.00     0.004 C 
ENDBRANCH  18  19
ENDBRANCH  17  18
ENDBRANCH  16  17
ENDBRANCH  15  16
ENDBRANCH  14  15
ENDBRANCH  13  14
ENDBRANCH  12  13
ENDBRANCH   1  12
TORSDOF 16
ENDMDL
MODEL 8
REMARK VINA RESULT:    -4.957      3.518      5.635
REMARK INTER + INTRA:         -11.225
REMARK INTER:                  -9.220
REMARK INTRA:                  -2.005
REMARK UNBOUND:                -1.631
REMARK SMILES CCCCCCCCCCCCCCCCCC(=O)[O-]
REMARK SMILES IDX 10 1 11 2 12 3 13 4 14 5 15 6 16 7 17 8 18 9 19 10 20 11
REMARK SMILES IDX 9 12 8 13 7 14 6 15 5 16 4 17 3 18 2 19 1 20
REMARK H PARENT
REMARK Flexibility Score: inf
ROOT
ATOM      1  C   UNL     1     -21.320 -26.224  39.833  1.00  0.00     0.000 C 
ENDROOT
BRANCH   1   2
ATOM      2  C   UNL     1     -20.617 -24.858  39.796  1.00  0.00     0.000 C 
BRANCH   2   3
ATOM      3  C   UNL     1     -21.371 -23.782  40.592  1.00  0.00     0.000 C 
BRANCH   3   4
ATOM      4  C   UNL     1     -22.594 -24.381  41.299  1.00  0.00     0.000 C 
BRANCH   4   5
ATOM      5  C   UNL     1     -23.869 -23.598  40.954  1.00  0.00     0.000 C 
BRANCH   5   6
ATOM      6  C   UNL     1     -23.572 -22.330  40.125  1.00  0.00     0.000 C 
BRANCH   6   7
ATOM      7  C   UNL     1     -24.838 -21.585  39.664  1.00  0.00     0.006 C 
BRANCH   7   8
ATOM      8  C   UNL     1     -26.058 -21.809  40.571  1.00  0.00     0.053 C 
BRANCH   8   9
ATOM      9  C   UNL     1     -26.510 -20.537  41.223  1.00  0.00     0.041 C 
ATOM     10  O   UNL     1     -25.727 -19.556  41.305  1.00  0.00    -0.550 OA
ATOM     11  O   UNL     1     -27.788 -20.444  41.761  1.00  0.00    -0.550 OA
ENDBRANCH   8   9
ENDBRANCH   7   8
ENDBRANCH   6   7
ENDBRANCH   5   6
ENDBRANCH   4   5
ENDBRANCH   3   4
ENDBRANCH   2   3
ENDBRANCH   1   2
BRANCH   1  12
ATOM     12  C   UNL     1     -21.114 -27.029  38.539  1.00  0.00     0.000 C 
BRANCH  12  13
ATOM     13  C   UNL     1     -22.140 -28.162  38.371  1.00  0.00    -0.000 C 
BRANCH  13  14
ATOM     14  C   UNL     1     -22.815 -28.588  39.693  1.00  0.00    -0.000 C 
BRANCH  14  15
ATOM     15  C   UNL     1     -24.305 -28.920  39.501  1.00  0.00    -0.000 C 
BRANCH  15  16
ATOM     16  C   UNL     1     -25.173 -28.458  40.682  1.00  0.00    -0.000 C 
BRANCH  16  17
ATOM     17  C   UNL     1     -24.390 -27.617  41.700  1.00  0.00    -0.000 C 
BRANCH  17  18
ATOM     18  C   UNL     1     -25.320 -26.653  42.447  1.00  0.00    -0.000 C 
BRANCH  18  19
ATOM     19  C   UNL     1     -26.423 -26.124  41.523  1.00  0.00    -0.003 C 
ATOM     20  C   UNL     1     -27.157 -24.947  42.158  1.00  0.00     0.004 C 
ENDBRANCH  18  19
ENDBRANCH  17  18
ENDBRANCH  16  17
ENDBRANCH  15  16
ENDBRANCH  14  15
ENDBRANCH  13  14
ENDBRANCH  12  13
ENDBRANCH   1  12
TORSDOF 16
ENDMDL
MODEL 9
REMARK VINA RESULT:    -4.944      1.722      3.422
REMARK INTER + INTRA:         -11.199
REMARK INTER:                  -9.303
REMARK INTRA:                  -1.896
REMARK UNBOUND:                -1.631
REMARK SMILES CCCCCCCCCCCCCCCCCC(=O)[O-]
REMARK SMILES IDX 10 1 11 2 12 3 13 4 14 5 15 6 16 7 17 8 18 9 19 10 20 11
REMARK SMILES IDX 9 12 8 13 7 14 6 15 5 16 4 17 3 18 2 19 1 20
REMARK H PARENT
REMARK Flexibility Score: inf
ROOT
ATOM      1  C   UNL     1     -22.060 -23.951  41.375  1.00  0.00     0.000 C 
ENDROOT
BRANCH   1   2
ATOM      2  C   UNL     1     -21.536 -24.617  40.093  1.00  0.00     0.000 C 
BRANCH   2   3
ATOM      3  C   UNL     1     -21.079 -26.066  40.324  1.00  0.00     0.000 C 
BRANCH   3   4
ATOM      4  C   UNL     1     -21.536 -26.974  39.175  1.00  0.00     0.000 C 
BRANCH   4   5
ATOM      5  C   UNL     1     -22.256 -28.220  39.709  1.00  0.00     0.000 C 
BRANCH   5   6
ATOM      6  C   UNL     1     -23.439 -27.861  40.635  1.00  0.00     0.000 C 
BRANCH   6   7
ATOM      7  C   UNL     1     -24.367 -29.052  40.937  1.00  0.00     0.006 C 
BRANCH   7   8
ATOM      8  C   UNL     1     -25.632 -29.095  40.066  1.00  0.00     0.053 C 
BRANCH   8   9
ATOM      9  C   UNL     1     -25.470 -30.011  38.891  1.00  0.00     0.041 C 
ATOM     10  O   UNL     1     -24.882 -29.610  37.853  1.00  0.00    -0.550 OA
ATOM     11  O   UNL     1     -25.988 -31.299  38.933  1.00  0.00    -0.550 OA
ENDBRANCH   8   9
ENDBRANCH   7   8
ENDBRANCH   6   7
ENDBRANCH   5   6
ENDBRANCH   4   5
ENDBRANCH   3   4
ENDBRANCH   2   3
ENDBRANCH   1   2
BRANCH   1  12
ATOM     12  C   UNL     1     -22.472 -22.486  41.152  1.00  0.00     0.000 C 
BRANCH  12  13
ATOM     13  C   UNL     1     -22.797 -22.174  39.682  1.00  0.00    -0.000 C 
BRANCH  13  14
ATOM     14  C   UNL     1     -24.185 -21.531  39.477  1.00  0.00    -0.000 C 
BRANCH  14  15
ATOM     15  C   UNL     1     -25.013 -21.514  40.774  1.00  0.00    -0.000 C 
BRANCH  15  16
ATOM     16  C   UNL     1     -26.413 -22.120  40.592  1.00  0.00    -0.000 C 
BRANCH  16  17
ATOM     17  C   UNL     1     -26.667 -23.317  41.520  1.00  0.00    -0.000 C 
BRANCH  17  18
ATOM     18  C   UNL     1     -25.636 -24.427  41.278  1.00  0.00    -0.000 C 
BRANCH  18  19
ATOM     19  C   UNL     1     -25.955 -25.668  42.119  1.00  0.00    -0.003 C 
ATOM     20  C   UNL     1     -27.163 -25.428  43.020  1.00  0.00     0.004 C 
ENDBRANCH  18  19
ENDBRANCH  17  18
ENDBRANCH  16  17
ENDBRANCH  15  16
ENDBRANCH  14  15
ENDBRANCH  13  14
ENDBRANCH  12  13
ENDBRANCH   1  12
TORSDOF 16
ENDMDL
