MODEL 1
REMARK VINA RESULT:    -4.501      0.000      0.000
REMARK INTER + INTRA:          -8.613
REMARK INTER:                  -7.133
REMARK INTRA:                  -1.480
REMARK UNBOUND:                -1.480
REMARK SMILES CCCCCCCCCCCC(=O)[O-]
REMARK SMILES IDX 7 1 8 2 9 3 10 4 11 5 12 6 13 7 14 8 6 9 5 10 4 11 3 12 2 13
REMARK SMILES IDX 1 14
REMARK H PARENT
REMARK Flexibility Score: inf
ROOT
ATOM      1  C   UNL     1     -12.997 -28.711 -31.085  1.00  0.00     0.000 C 
ENDROOT
BRANCH   1   2
ATOM      2  C   UNL     1     -13.223 -28.146 -32.496  1.00  0.00     0.000 C 
BRANCH   2   3
ATOM      3  C   UNL     1     -12.122 -28.560 -33.489  1.00  0.00     0.000 C 
BRANCH   3   4
ATOM      4  C   UNL     1     -12.315 -27.976 -34.904  1.00  0.00     0.006 C 
BRANCH   4   5
ATOM      5  C   UNL     1     -13.216 -26.735 -34.903  1.00  0.00     0.053 C 
BRANCH   5   6
ATOM      6  C   UNL     1     -12.638 -25.666 -35.775  1.00  0.00     0.041 C 
ATOM      7  O   UNL     1     -13.387 -24.982 -36.521  1.00  0.00    -0.550 OA
ATOM      8  O   UNL     1     -11.264 -25.460 -35.803  1.00  0.00    -0.550 OA
ENDBRANCH   5   6
ENDBRANCH   4   5
ENDBRANCH   3   4
ENDBRANCH   2   3
ENDBRANCH   1   2
BRANCH   1   9
ATOM      9  C   UNL     1     -11.629 -28.320 -30.505  1.00  0.00     0.000 C 
BRANCH   9  10
ATOM     10  C   UNL     1     -11.489 -26.804 -30.292  1.00  0.00    -0.000 C 
BRANCH  10  11
ATOM     11  C   UNL     1     -10.277 -26.252 -31.052  1.00  0.00    -0.000 C 
BRANCH  11  12
ATOM     12  C   UNL     1     -10.720 -25.440 -32.279  1.00  0.00    -0.000 C 
BRANCH  12  13
ATOM     13  C   UNL     1     -12.040 -24.690 -32.045  1.00  0.00    -0.003 C 
ATOM     14  C   UNL     1     -12.114 -23.369 -32.811  1.00  0.00     0.004 C 
ENDBRANCH  12  13
ENDBRANCH  11  12
ENDBRANCH  10  11
ENDBRANCH   9  10
ENDBRANCH   1   9
TORSDOF 10
ENDMDL
MODEL 2
REMARK VINA RESULT:    -4.392      1.837      3.798
REMARK INTER + INTRA:          -8.441
REMARK INTER:                  -7.165
REMARK INTRA:                  -1.276
REMARK UNBOUND:                -1.480
REMARK SMILES CCCCCCCCCCCC(=O)[O-]
REMARK SMILES IDX 7 1 8 2 9 3 10 4 11 5 12 6 13 7 14 8 6 9 5 10 4 11 3 12 2 13
REMARK SMILES IDX 1 14
REMARK H PARENT
REMARK Flexibility Score: inf
ROOT
ATOM      1  C   UNL     1     -12.928 -28.704 -31.269  1.00  0.00     0.000 C 
ENDROOT
BRANCH   1   2
ATOM      2  C   UNL     1     -12.079 -27.841 -30.322  1.00  0.00     0.000 C 
BRANCH   2   3
ATOM      3  C   UNL     1     -10.718 -27.452 -30.927  1.00  0.00     0.000 C 
BRANCH   3   4
ATOM      4  C   UNL     1     -10.445 -25.934 -30.905  1.00  0.00     0.006 C 
BRANCH   4   5
ATOM      5  C   UNL     1     -10.806 -25.259 -32.234  1.00  0.00     0.053 C 
BRANCH   5   6
ATOM      6  C   UNL     1     -12.037 -24.422 -32.080  1.00  0.00     0.041 C 
ATOM      7  O   UNL     1     -12.317 -23.544 -32.937  1.00  0.00    -0.550 OA
ATOM      8  O   UNL     1     -12.847 -24.578 -30.963  1.00  0.00    -0.550 OA
ENDBRANCH   5   6
ENDBRANCH   4   5
ENDBRANCH   3   4
ENDBRANCH   2   3
ENDBRANCH   1   2
BRANCH   1   9
ATOM      9  C   UNL     1     -12.581 -28.473 -32.748  1.00  0.00     0.000 C 
BRANCH   9  10
ATOM     10  C   UNL     1     -13.612 -27.587 -33.465  1.00  0.00    -0.000 C 
BRANCH  10  11
ATOM     11  C   UNL     1     -13.274 -27.444 -34.954  1.00  0.00    -0.000 C 
BRANCH  11  12
ATOM     12  C   UNL     1     -11.810 -27.019 -35.147  1.00  0.00    -0.000 C 
BRANCH  12  13
ATOM     13  C   UNL     1     -11.679 -25.646 -35.824  1.00  0.00    -0.003 C 
ATOM     14  C   UNL     1     -13.031 -25.028 -36.177  1.00  0.00     0.004 C 
ENDBRANCH  12  13
ENDBRANCH  11  12
ENDBRANCH  10  11
ENDBRANCH   9  10
ENDBRANCH   1   9
TORSDOF 10
ENDMDL
MODEL 3
REMARK VINA RESULT:    -4.251      1.120      1.430
REMARK INTER + INTRA:          -8.216
REMARK INTER:                  -6.989
REMARK INTRA:                  -1.226
REMARK UNBOUND:                -1.480
REMARK SMILES CCCCCCCCCCCC(=O)[O-]
REMARK SMILES IDX 7 1 8 2 9 3 10 4 11 5 12 6 13 7 14 8 6 9 5 10 4 11 3 12 2 13
REMARK SMILES IDX 1 14
REMARK H PARENT
REMARK Flexibility Score: inf
ROOT
ATOM      1  C   UNL     1     -12.995 -28.622 -32.053  1.00  0.00     0.000 C 
ENDROOT
BRANCH   1   2
ATOM      2  C   UNL     1     -13.385 -27.435 -32.947  1.00  0.00     0.000 C 
BRANCH   2   3
ATOM      3  C   UNL     1     -13.411 -27.798 -34.443  1.00  0.00     0.000 C 
BRANCH   3   4
ATOM      4  C   UNL     1     -12.134 -27.380 -35.201  1.00  0.00     0.006 C 
BRANCH   4   5
ATOM      5  C   UNL     1     -11.659 -25.975 -34.811  1.00  0.00     0.053 C 
BRANCH   5   6
ATOM      6  C   UNL     1     -12.522 -24.933 -35.450  1.00  0.00     0.041 C 
ATOM      7  O   UNL     1     -12.641 -23.797 -34.921  1.00  0.00    -0.550 OA
ATOM      8  O   UNL     1     -13.235 -25.234 -36.604  1.00  0.00    -0.550 OA
ENDBRANCH   5   6
ENDBRANCH   4   5
ENDBRANCH   3   4
ENDBRANCH   2   3
ENDBRANCH   1   2
BRANCH   1   9
ATOM      9  C   UNL     1     -12.630 -28.190 -30.624  1.00  0.00     0.000 C 
BRANCH   9  10
ATOM     10  C   UNL     1     -11.115 -28.045 -30.419  1.00  0.00    -0.000 C 
BRANCH  10  11
ATOM     11  C   UNL     1     -10.736 -26.589 -30.126  1.00  0.00    -0.000 C 
BRANCH  11  12
ATOM     12  C   UNL     1     -10.138 -25.914 -31.370  1.00  0.00    -0.000 C 
BRANCH  12  13
ATOM     13  C   UNL     1     -10.761 -24.538 -31.652  1.00  0.00    -0.003 C 
ATOM     14  C   UNL     1     -12.256 -24.490 -31.340  1.00  0.00     0.004 C 
ENDBRANCH  12  13
ENDBRANCH  11  12
ENDBRANCH  10  11
ENDBRANCH   9  10
ENDBRANCH   1   9
TORSDOF 10
ENDMDL
MODEL 4
REMARK VINA RESULT:    -4.195      2.430      4.207
REMARK INTER + INTRA:          -8.127
REMARK INTER:                  -7.039
REMARK INTRA:                  -1.089
REMARK UNBOUND:                -1.480
REMARK SMILES CCCCCCCCCCCC(=O)[O-]
REMARK SMILES IDX 7 1 8 2 9 3 10 4 11 5 12 6 13 7 14 8 6 9 5 10 4 11 3 12 2 13
REMARK SMILES IDX 1 14
REMARK H PARENT
REMARK Flexibility Score: inf
ROOT
ATOM      1  C   UNL     1     -12.258 -25.279 -32.020  1.00  0.00     0.000 C 
ENDROOT
BRANCH   1   2
ATOM      2  C   UNL     1     -12.249 -24.100 -33.006  1.00  0.00     0.000 C 
BRANCH   2   3
ATOM      3  C   UNL     1     -12.258 -24.552 -34.477  1.00  0.00     0.000 C 
BRANCH   3   4
ATOM      4  C   UNL     1     -12.621 -23.425 -35.467  1.00  0.00     0.006 C 
BRANCH   4   5
ATOM      5  C   UNL     1     -13.160 -22.178 -34.755  1.00  0.00     0.053 C 
BRANCH   5   6
ATOM      6  C   UNL     1     -12.851 -20.947 -35.549  1.00  0.00     0.041 C 
ATOM      7  O   UNL     1     -13.738 -20.071 -35.730  1.00  0.00    -0.550 OA
ATOM      8  O   UNL     1     -11.600 -20.792 -36.132  1.00  0.00    -0.550 OA
ENDBRANCH   5   6
ENDBRANCH   4   5
ENDBRANCH   3   4
ENDBRANCH   2   3
ENDBRANCH   1   2
BRANCH   1   9
ATOM      9  C   UNL     1     -11.177 -26.324 -32.340  1.00  0.00     0.000 C 
BRANCH   9  10
ATOM     10  C   UNL     1     -11.620 -27.755 -31.999  1.00  0.00    -0.000 C 
BRANCH  10  11
ATOM     11  C   UNL     1     -12.624 -28.280 -33.032  1.00  0.00    -0.000 C 
BRANCH  11  12
ATOM     12  C   UNL     1     -12.053 -28.181 -34.455  1.00  0.00    -0.000 C 
BRANCH  12  13
ATOM     13  C   UNL     1     -13.133 -27.879 -35.505  1.00  0.00    -0.003 C 
ATOM     14  C   UNL     1     -14.461 -27.450 -34.881  1.00  0.00     0.004 C 
ENDBRANCH  12  13
ENDBRANCH  11  12
ENDBRANCH  10  11
ENDBRANCH   9  10
ENDBRANCH   1   9
TORSDOF 10
ENDMDL
MODEL 5
REMARK VINA RESULT:    -4.183      3.034      4.876
REMARK INTER + INTRA:          -8.108
REMARK INTER:                  -7.425
REMARK INTRA:                  -0.684
REMARK UNBOUND:                -1.480
REMARK SMILES CCCCCCCCCCCC(=O)[O-]
REMARK SMILES IDX 7 1 8 2 9 3 10 4 11 5 12 6 13 7 14 8 6 9 5 10 4 11 3 12 2 13
REMARK SMILES IDX 1 14
REMARK H PARENT
REMARK Flexibility Score: inf
ROOT
ATOM      1  C   UNL     1     -11.287 -26.059 -33.604  1.00  0.00     0.000 C 
ENDROOT
BRANCH   1   2
ATOM      2  C   UNL     1     -11.528 -27.332 -34.432  1.00  0.00     0.000 C 
BRANCH   2   3
ATOM      3  C   UNL     1     -12.058 -28.502 -33.585  1.00  0.00     0.000 C 
BRANCH   3   4
ATOM      4  C   UNL     1     -13.193 -28.102 -32.619  1.00  0.00     0.006 C 
BRANCH   4   5
ATOM      5  C   UNL     1     -13.029 -28.738 -31.233  1.00  0.00     0.053 C 
BRANCH   5   6
ATOM      6  C   UNL     1     -12.065 -27.950 -30.404  1.00  0.00     0.041 C 
ATOM      7  O   UNL     1     -11.004 -28.485 -29.987  1.00  0.00    -0.550 OA
ATOM      8  O   UNL     1     -12.362 -26.640 -30.050  1.00  0.00    -0.550 OA
ENDBRANCH   5   6
ENDBRANCH   4   5
ENDBRANCH   3   4
ENDBRANCH   2   3
ENDBRANCH   1   2
BRANCH   1   9
ATOM      9  C   UNL     1     -12.249 -24.921 -33.977  1.00  0.00     0.000 C 
BRANCH   9  10
ATOM     10  C   UNL     1     -12.387 -24.738 -35.496  1.00  0.00    -0.000 C 
BRANCH  10  11
ATOM     11  C   UNL     1     -12.711 -23.281 -35.847  1.00  0.00    -0.000 C 
BRANCH  11  12
ATOM     12  C   UNL     1     -12.756 -22.407 -34.584  1.00  0.00    -0.000 C 
BRANCH  12  13
ATOM     13  C   UNL     1     -13.642 -21.163 -34.759  1.00  0.00    -0.003 C 
ATOM     14  C   UNL     1     -13.108 -20.201 -35.820  1.00  0.00     0.004 C 
ENDBRANCH  12  13
ENDBRANCH  11  12
ENDBRANCH  10  11
ENDBRANCH   9  10
ENDBRANCH   1   9
TORSDOF 10
ENDMDL
MODEL 6
REMARK VINA RESULT:    -4.180      1.316      3.474
REMARK INTER + INTRA:          -8.104
REMARK INTER:                  -7.010
REMARK INTRA:                  -1.094
REMARK UNBOUND:                -1.480
REMARK SMILES CCCCCCCCCCCC(=O)[O-]
REMARK SMILES IDX 7 1 8 2 9 3 10 4 11 5 12 6 13 7 14 8 6 9 5 10 4 11 3 12 2 13
REMARK SMILES IDX 1 14
REMARK H PARENT
REMARK Flexibility Score: inf
ROOT
ATOM      1  C   UNL     1     -11.832 -26.395 -31.023  1.00  0.00     0.000 C 
ENDROOT
BRANCH   1   2
ATOM      2  C   UNL     1     -12.602 -25.080 -31.219  1.00  0.00     0.000 C 
BRANCH   2   3
ATOM      3  C   UNL     1     -11.754 -23.988 -31.896  1.00  0.00     0.000 C 
BRANCH   3   4
ATOM      4  C   UNL     1     -12.336 -23.499 -33.239  1.00  0.00     0.006 C 
BRANCH   4   5
ATOM      5  C   UNL     1     -12.279 -24.581 -34.325  1.00  0.00     0.053 C 
BRANCH   5   6
ATOM      6  C   UNL     1     -12.694 -24.018 -35.648  1.00  0.00     0.041 C 
ATOM      7  O   UNL     1     -13.101 -24.782 -36.562  1.00  0.00    -0.550 OA
ATOM      8  O   UNL     1     -12.581 -22.655 -35.889  1.00  0.00    -0.550 OA
ENDBRANCH   5   6
ENDBRANCH   4   5
ENDBRANCH   3   4
ENDBRANCH   2   3
ENDBRANCH   1   2
BRANCH   1   9
ATOM      9  C   UNL     1     -12.751 -27.565 -30.637  1.00  0.00     0.000 C 
BRANCH   9  10
ATOM     10  C   UNL     1     -12.975 -28.547 -31.797  1.00  0.00    -0.000 C 
BRANCH  10  11
ATOM     11  C   UNL     1     -11.961 -28.310 -32.922  1.00  0.00    -0.000 C 
BRANCH  11  12
ATOM     12  C   UNL     1     -12.656 -28.283 -34.292  1.00  0.00    -0.000 C 
BRANCH  12  13
ATOM     13  C   UNL     1     -14.046 -27.631 -34.236  1.00  0.00    -0.003 C 
ATOM     14  C   UNL     1     -14.755 -27.632 -35.590  1.00  0.00     0.004 C 
ENDBRANCH  12  13
ENDBRANCH  11  12
ENDBRANCH  10  11
ENDBRANCH   9  10
ENDBRANCH   1   9
TORSDOF 10
ENDMDL
MODEL 7
REMARK VINA RESULT:    -4.150      2.151      4.104
REMARK INTER + INTRA:          -8.057
REMARK INTER:                  -7.219
REMARK INTRA:                  -0.838
REMARK UNBOUND:                -1.480
REMARK SMILES CCCCCCCCCCCC(=O)[O-]
REMARK SMILES IDX 7 1 8 2 9 3 10 4 11 5 12 6 13 7 14 8 6 9 5 10 4 11 3 12 2 13
REMARK SMILES IDX 1 14
REMARK H PARENT
REMARK Flexibility Score: inf
ROOT
ATOM      1  C   UNL     1     -12.036 -28.532 -33.744  1.00  0.00     0.000 C 
ENDROOT
BRANCH   1   2
ATOM      2  C   UNL     1     -13.105 -28.118 -32.720  1.00  0.00     0.000 C 
BRANCH   2   3
ATOM      3  C   UNL     1     -12.791 -28.614 -31.297  1.00  0.00     0.000 C 
BRANCH   3   4
ATOM      4  C   UNL     1     -11.965 -27.613 -30.463  1.00  0.00     0.006 C 
BRANCH   4   5
ATOM      5  C   UNL     1     -12.092 -26.176 -30.985  1.00  0.00     0.053 C 
BRANCH   5   6
ATOM      6  C   UNL     1     -10.746 -25.625 -31.336  1.00  0.00     0.041 C 
ATOM      7  O   UNL     1      -9.726 -26.363 -31.286  1.00  0.00    -0.550 OA
ATOM      8  O   UNL     1     -10.609 -24.283 -31.668  1.00  0.00    -0.550 OA
ENDBRANCH   5   6
ENDBRANCH   4   5
ENDBRANCH   3   4
ENDBRANCH   2   3
ENDBRANCH   1   2
BRANCH   1   9
ATOM      9  C   UNL     1     -12.137 -27.738 -35.056  1.00  0.00     0.000 C 
BRANCH   9  10
ATOM     10  C   UNL     1     -11.314 -26.442 -35.027  1.00  0.00    -0.000 C 
BRANCH  10  11
ATOM     11  C   UNL     1     -12.187 -25.244 -34.633  1.00  0.00    -0.000 C 
BRANCH  11  12
ATOM     12  C   UNL     1     -12.735 -24.529 -35.878  1.00  0.00    -0.000 C 
BRANCH  12  13
ATOM     13  C   UNL     1     -12.519 -23.008 -35.827  1.00  0.00    -0.003 C 
ATOM     14  C   UNL     1     -12.806 -22.416 -34.447  1.00  0.00     0.004 C 
ENDBRANCH  12  13
ENDBRANCH  11  12
ENDBRANCH  10  11
ENDBRANCH   9  10
ENDBRANCH   1   9
TORSDOF 10
ENDMDL
MODEL 8
REMARK VINA RESULT:    -4.061      2.388      4.091
REMARK INTER + INTRA:          -7.915
REMARK INTER:                  -6.861
REMARK INTRA:                  -1.054
REMARK UNBOUND:                -1.480
REMARK SMILES CCCCCCCCCCCC(=O)[O-]
REMARK SMILES IDX 7 1 8 2 9 3 10 4 11 5 12 6 13 7 14 8 6 9 5 10 4 11 3 12 2 13
REMARK SMILES IDX 1 14
REMARK H PARENT
REMARK Flexibility Score: inf
ROOT
ATOM      1  C   UNL     1     -13.426 -26.960 -35.497  1.00  0.00     0.000 C 
ENDROOT
BRANCH   1   2
ATOM      2  C   UNL     1     -12.486 -25.746 -35.443  1.00  0.00     0.000 C 
BRANCH   2   3
ATOM      3  C   UNL     1     -13.026 -24.538 -36.229  1.00  0.00     0.000 C 
BRANCH   3   4
ATOM      4  C   UNL     1     -12.302 -23.215 -35.903  1.00  0.00     0.006 C 
BRANCH   4   5
ATOM      5  C   UNL     1     -12.960 -22.464 -34.738  1.00  0.00     0.053 C 
BRANCH   5   6
ATOM      6  C   UNL     1     -13.339 -21.078 -35.155  1.00  0.00     0.041 C 
ATOM      7  O   UNL     1     -12.628 -20.449 -35.983  1.00  0.00    -0.550 OA
ATOM      8  O   UNL     1     -14.448 -20.461 -34.591  1.00  0.00    -0.550 OA
ENDBRANCH   5   6
ENDBRANCH   4   5
ENDBRANCH   3   4
ENDBRANCH   2   3
ENDBRANCH   1   2
BRANCH   1   9
ATOM      9  C   UNL     1     -13.745 -27.522 -34.102  1.00  0.00     0.000 C 
BRANCH   9  10
ATOM     10  C   UNL     1     -12.546 -28.242 -33.467  1.00  0.00    -0.000 C 
BRANCH  10  11
ATOM     11  C   UNL     1     -12.151 -27.586 -32.138  1.00  0.00    -0.000 C 
BRANCH  11  12
ATOM     12  C   UNL     1     -13.077 -26.404 -31.811  1.00  0.00    -0.000 C 
BRANCH  12  13
ATOM     13  C   UNL     1     -12.360 -25.049 -31.906  1.00  0.00    -0.003 C 
ATOM     14  C   UNL     1     -10.856 -25.191 -32.139  1.00  0.00     0.004 C 
ENDBRANCH  12  13
ENDBRANCH  11  12
ENDBRANCH  10  11
ENDBRANCH   9  10
ENDBRANCH   1   9
TORSDOF 10
ENDMDL
MODEL 9
REMARK VINA RESULT:    -3.973      3.031      5.356
REMARK INTER + INTRA:          -7.775
REMARK INTER:                  -6.869
REMARK INTRA:                  -0.906
REMARK UNBOUND:                -1.480
REMARK SMILES CCCCCCCCCCCC(=O)[O-]
REMARK SMILES IDX 7 1 8 2 9 3 10 4 11 5 12 6 13 7 14 8 6 9 5 10 4 11 3 12 2 13
REMARK SMILES IDX 1 14
REMARK H PARENT
REMARK Flexibility Score: inf
ROOT
ATOM      1  C   UNL     1     -12.349 -25.205 -35.876  1.00  0.00     0.000 C 
ENDROOT
BRANCH   1   2
ATOM      2  C   UNL     1     -12.622 -23.692 -35.873  1.00  0.00     0.000 C 
BRANCH   2   3
ATOM      3  C   UNL     1     -12.810 -23.123 -34.456  1.00  0.00     0.000 C 
BRANCH   3   4
ATOM      4  C   UNL     1     -12.518 -21.611 -34.354  1.00  0.00     0.006 C 
BRANCH   4   5
ATOM      5  C   UNL     1     -13.161 -20.817 -35.498  1.00  0.00     0.053 C 
BRANCH   5   6
ATOM      6  C   UNL     1     -12.162 -19.894 -36.122  1.00  0.00     0.041 C 
ATOM      7  O   UNL     1     -10.938 -20.009 -35.850  1.00  0.00    -0.550 OA
ATOM      8  O   UNL     1     -12.589 -18.875 -36.964  1.00  0.00    -0.550 OA
ENDBRANCH   5   6
ENDBRANCH   4   5
ENDBRANCH   3   4
ENDBRANCH   2   3
ENDBRANCH   1   2
BRANCH   1   9
ATOM      9  C   UNL     1     -13.641 -26.038 -35.882  1.00  0.00     0.000 C 
BRANCH   9  10
ATOM     10  C   UNL     1     -13.400 -27.503 -35.488  1.00  0.00    -0.000 C 
BRANCH  10  11
ATOM     11  C   UNL     1     -13.612 -27.710 -33.983  1.00  0.00    -0.000 C 
BRANCH  11  12
ATOM     12  C   UNL     1     -12.317 -28.182 -33.304  1.00  0.00    -0.000 C 
BRANCH  12  13
ATOM     13  C   UNL     1     -11.666 -27.084 -32.449  1.00  0.00    -0.003 C 
ATOM     14  C   UNL     1     -12.636 -25.958 -32.092  1.00  0.00     0.004 C 
ENDBRANCH  12  13
ENDBRANCH  11  12
ENDBRANCH  10  11
ENDBRANCH   9  10
ENDBRANCH   1   9
TORSDOF 10
ENDMDL
