MODEL 1
REMARK VINA RESULT:    -5.005      0.000      0.000
REMARK INTER + INTRA:          -8.909
REMARK INTER:                  -7.931
REMARK INTRA:                  -0.978
REMARK UNBOUND:                -0.978
REMARK SMILES CCCCCCCCCCCC(=O)[O-]
REMARK SMILES IDX 7 1 8 2 9 3 10 4 11 5 12 6 13 7 14 8 6 9 5 10 4 11 3 12 2 13
REMARK SMILES IDX 1 14
REMARK H PARENT
REMARK Flexibility Score: inf
ROOT
ATOM      1  C   UNL     1      20.688   8.431  11.741  1.00  0.00     0.000 C 
ENDROOT
BRANCH   1   2
ATOM      2  C   UNL     1      21.680   7.279  11.978  1.00  0.00     0.000 C 
BRANCH   2   3
ATOM      3  C   UNL     1      23.045   7.516  11.308  1.00  0.00     0.000 C 
BRANCH   3   4
ATOM      4  C   UNL     1      23.001   8.346  10.012  1.00  0.00     0.006 C 
BRANCH   4   5
ATOM      5  C   UNL     1      23.477   9.791  10.209  1.00  0.00     0.053 C 
BRANCH   5   6
ATOM      6  C   UNL     1      24.712   9.823  11.054  1.00  0.00     0.041 C 
ATOM      7  O   UNL     1      25.793   9.352  10.613  1.00  0.00    -0.550 OA
ATOM      8  O   UNL     1      24.681  10.416  12.309  1.00  0.00    -0.550 OA
ENDBRANCH   5   6
ENDBRANCH   4   5
ENDBRANCH   3   4
ENDBRANCH   2   3
ENDBRANCH   1   2
BRANCH   1   9
ATOM      9  C   UNL     1      19.449   7.988  10.946  1.00  0.00     0.000 C 
BRANCH   9  10
ATOM     10  C   UNL     1      19.215   6.468  11.018  1.00  0.00    -0.000 C 
BRANCH  10  11
ATOM     11  C   UNL     1      19.278   5.793   9.638  1.00  0.00    -0.000 C 
BRANCH  11  12
ATOM     12  C   UNL     1      20.113   6.594   8.624  1.00  0.00    -0.000 C 
BRANCH  12  13
ATOM     13  C   UNL     1      19.298   7.009   7.389  1.00  0.00    -0.003 C 
ATOM     14  C   UNL     1      19.324   8.517   7.139  1.00  0.00     0.004 C 
ENDBRANCH  12  13
ENDBRANCH  11  12
ENDBRANCH  10  11
ENDBRANCH   9  10
ENDBRANCH   1   9
TORSDOF 10
ENDMDL
MODEL 2
REMARK VINA RESULT:    -4.947      1.395      1.886
REMARK INTER + INTRA:          -8.817
REMARK INTER:                  -7.854
REMARK INTRA:                  -0.963
REMARK UNBOUND:                -0.978
REMARK SMILES CCCCCCCCCCCC(=O)[O-]
REMARK SMILES IDX 7 1 8 2 9 3 10 4 11 5 12 6 13 7 14 8 6 9 5 10 4 11 3 12 2 13
REMARK SMILES IDX 1 14
REMARK H PARENT
REMARK Flexibility Score: inf
ROOT
ATOM      1  C   UNL     1      21.747   7.183  11.737  1.00  0.00     0.000 C 
ENDROOT
BRANCH   1   2
ATOM      2  C   UNL     1      22.767   7.333  12.880  1.00  0.00     0.000 C 
BRANCH   2   3
ATOM      3  C   UNL     1      23.286   8.773  13.033  1.00  0.00     0.000 C 
BRANCH   3   4
ATOM      4  C   UNL     1      24.507   9.124  12.163  1.00  0.00     0.006 C 
BRANCH   4   5
ATOM      5  C   UNL     1      24.155  10.022  10.971  1.00  0.00     0.053 C 
BRANCH   5   6
ATOM      6  C   UNL     1      23.812   9.192   9.774  1.00  0.00     0.041 C 
ATOM      7  O   UNL     1      24.529   8.205   9.463  1.00  0.00    -0.550 OA
ATOM      8  O   UNL     1      22.675   9.479   9.031  1.00  0.00    -0.550 OA
ENDBRANCH   5   6
ENDBRANCH   4   5
ENDBRANCH   3   4
ENDBRANCH   2   3
ENDBRANCH   1   2
BRANCH   1   9
ATOM      9  C   UNL     1      20.675   8.285  11.755  1.00  0.00     0.000 C 
BRANCH   9  10
ATOM     10  C   UNL     1      19.387   7.866  11.022  1.00  0.00    -0.000 C 
BRANCH  10  11
ATOM     11  C   UNL     1      19.354   6.365  10.694  1.00  0.00    -0.000 C 
BRANCH  11  12
ATOM     12  C   UNL     1      19.238   6.090   9.185  1.00  0.00    -0.000 C 
BRANCH  12  13
ATOM     13  C   UNL     1      20.096   7.051   8.346  1.00  0.00    -0.003 C 
ATOM     14  C   UNL     1      19.304   7.735   7.231  1.00  0.00     0.004 C 
ENDBRANCH  12  13
ENDBRANCH  11  12
ENDBRANCH  10  11
ENDBRANCH   9  10
ENDBRANCH   1   9
TORSDOF 10
ENDMDL
MODEL 3
REMARK VINA RESULT:    -4.813      1.336      1.856
REMARK INTER + INTRA:          -8.605
REMARK INTER:                  -7.668
REMARK INTRA:                  -0.937
REMARK UNBOUND:                -0.978
REMARK SMILES CCCCCCCCCCCC(=O)[O-]
REMARK SMILES IDX 7 1 8 2 9 3 10 4 11 5 12 6 13 7 14 8 6 9 5 10 4 11 3 12 2 13
REMARK SMILES IDX 1 14
REMARK H PARENT
REMARK Flexibility Score: inf
ROOT
ATOM      1  C   UNL     1      21.799   7.099  11.881  1.00  0.00     0.000 C 
ENDROOT
BRANCH   1   2
ATOM      2  C   UNL     1      23.004   7.315  12.813  1.00  0.00     0.000 C 
BRANCH   2   3
ATOM      3  C   UNL     1      24.351   7.026  12.127  1.00  0.00     0.000 C 
BRANCH   3   4
ATOM      4  C   UNL     1      24.315   7.035  10.587  1.00  0.00     0.006 C 
BRANCH   4   5
ATOM      5  C   UNL     1      24.910   8.313   9.982  1.00  0.00     0.053 C 
BRANCH   5   6
ATOM      6  C   UNL     1      23.918   9.431  10.045  1.00  0.00     0.041 C 
ATOM      7  O   UNL     1      24.005  10.304  10.948  1.00  0.00    -0.550 OA
ATOM      8  O   UNL     1      22.928   9.537   9.077  1.00  0.00    -0.550 OA
ENDBRANCH   5   6
ENDBRANCH   4   5
ENDBRANCH   3   4
ENDBRANCH   2   3
ENDBRANCH   1   2
BRANCH   1   9
ATOM      9  C   UNL     1      20.853   8.311  11.849  1.00  0.00     0.000 C 
BRANCH   9  10
ATOM     10  C   UNL     1      19.608   8.064  10.977  1.00  0.00    -0.000 C 
BRANCH  10  11
ATOM     11  C   UNL     1      19.278   6.570  10.827  1.00  0.00    -0.000 C 
BRANCH  11  12
ATOM     12  C   UNL     1      19.417   6.075   9.377  1.00  0.00    -0.000 C 
BRANCH  12  13
ATOM     13  C   UNL     1      20.129   7.095   8.474  1.00  0.00    -0.003 C 
ATOM     14  C   UNL     1      19.260   7.563   7.306  1.00  0.00     0.004 C 
ENDBRANCH  12  13
ENDBRANCH  11  12
ENDBRANCH  10  11
ENDBRANCH   9  10
ENDBRANCH   1   9
TORSDOF 10
ENDMDL
MODEL 4
REMARK VINA RESULT:    -4.809      1.558      1.856
REMARK INTER + INTRA:          -8.599
REMARK INTER:                  -7.424
REMARK INTRA:                  -1.174
REMARK UNBOUND:                -0.978
REMARK SMILES CCCCCCCCCCCC(=O)[O-]
REMARK SMILES IDX 7 1 8 2 9 3 10 4 11 5 12 6 13 7 14 8 6 9 5 10 4 11 3 12 2 13
REMARK SMILES IDX 1 14
REMARK H PARENT
REMARK Flexibility Score: inf
ROOT
ATOM      1  C   UNL     1      20.661   8.217  11.453  1.00  0.00     0.000 C 
ENDROOT
BRANCH   1   2
ATOM      2  C   UNL     1      21.331   9.028  10.331  1.00  0.00     0.000 C 
BRANCH   2   3
ATOM      3  C   UNL     1      22.614   8.366   9.797  1.00  0.00     0.000 C 
BRANCH   3   4
ATOM      4  C   UNL     1      23.924   9.088  10.166  1.00  0.00     0.006 C 
BRANCH   4   5
ATOM      5  C   UNL     1      24.436   8.721  11.565  1.00  0.00     0.053 C 
BRANCH   5   6
ATOM      6  C   UNL     1      24.434   7.236  11.749  1.00  0.00     0.041 C 
ATOM      7  O   UNL     1      25.232   6.516  11.093  1.00  0.00    -0.550 OA
ATOM      8  O   UNL     1      23.585   6.651  12.680  1.00  0.00    -0.550 OA
ENDBRANCH   5   6
ENDBRANCH   4   5
ENDBRANCH   3   4
ENDBRANCH   2   3
ENDBRANCH   1   2
BRANCH   1   9
ATOM      9  C   UNL     1      19.195   7.875  11.139  1.00  0.00     0.000 C 
BRANCH   9  10
ATOM     10  C   UNL     1      18.953   6.358  11.035  1.00  0.00    -0.000 C 
BRANCH  10  11
ATOM     11  C   UNL     1      19.520   5.755   9.740  1.00  0.00    -0.000 C 
BRANCH  11  12
ATOM     12  C   UNL     1      18.873   6.349   8.476  1.00  0.00    -0.000 C 
BRANCH  12  13
ATOM     13  C   UNL     1      19.886   7.095   7.593  1.00  0.00    -0.003 C 
ATOM     14  C   UNL     1      19.292   8.339   6.930  1.00  0.00     0.004 C 
ENDBRANCH  12  13
ENDBRANCH  11  12
ENDBRANCH  10  11
ENDBRANCH   9  10
ENDBRANCH   1   9
TORSDOF 10
ENDMDL
MODEL 5
REMARK VINA RESULT:    -4.649      1.675      2.175
REMARK INTER + INTRA:          -8.345
REMARK INTER:                  -7.330
REMARK INTRA:                  -1.015
REMARK UNBOUND:                -0.978
REMARK SMILES CCCCCCCCCCCC(=O)[O-]
REMARK SMILES IDX 7 1 8 2 9 3 10 4 11 5 12 6 13 7 14 8 6 9 5 10 4 11 3 12 2 13
REMARK SMILES IDX 1 14
REMARK H PARENT
REMARK Flexibility Score: inf
ROOT
ATOM      1  C   UNL     1      19.586   7.989  11.004  1.00  0.00     0.000 C 
ENDROOT
BRANCH   1   2
ATOM      2  C   UNL     1      20.959   8.365  11.589  1.00  0.00     0.000 C 
BRANCH   2   3
ATOM      3  C   UNL     1      21.884   9.039  10.559  1.00  0.00     0.000 C 
BRANCH   3   4
ATOM      4  C   UNL     1      22.932   8.111   9.918  1.00  0.00     0.006 C 
BRANCH   4   5
ATOM      5  C   UNL     1      24.326   8.262  10.541  1.00  0.00     0.053 C 
BRANCH   5   6
ATOM      6  C   UNL     1      25.187   7.092  10.183  1.00  0.00     0.041 C 
ATOM      7  O   UNL     1      25.346   6.149  11.001  1.00  0.00    -0.550 OA
ATOM      8  O   UNL     1      25.776   7.020   8.927  1.00  0.00    -0.550 OA
ENDBRANCH   5   6
ENDBRANCH   4   5
ENDBRANCH   3   4
ENDBRANCH   2   3
ENDBRANCH   1   2
BRANCH   1   9
ATOM      9  C   UNL     1      19.265   6.494  11.168  1.00  0.00     0.000 C 
BRANCH   9  10
ATOM     10  C   UNL     1      19.149   5.765   9.817  1.00  0.00    -0.000 C 
BRANCH  10  11
ATOM     11  C   UNL     1      19.977   6.436   8.709  1.00  0.00    -0.000 C 
BRANCH  11  12
ATOM     12  C   UNL     1      19.128   6.822   7.486  1.00  0.00    -0.000 C 
BRANCH  12  13
ATOM     13  C   UNL     1      19.107   8.339   7.239  1.00  0.00    -0.003 C 
ATOM     14  C   UNL     1      20.468   8.889   6.809  1.00  0.00     0.004 C 
ENDBRANCH  12  13
ENDBRANCH  11  12
ENDBRANCH  10  11
ENDBRANCH   9  10
ENDBRANCH   1   9
TORSDOF 10
ENDMDL
MODEL 6
REMARK VINA RESULT:    -4.471      2.462      3.314
REMARK INTER + INTRA:          -8.063
REMARK INTER:                  -6.821
REMARK INTRA:                  -1.242
REMARK UNBOUND:                -0.978
REMARK SMILES CCCCCCCCCCCC(=O)[O-]
REMARK SMILES IDX 7 1 8 2 9 3 10 4 11 5 12 6 13 7 14 8 6 9 5 10 4 11 3 12 2 13
REMARK SMILES IDX 1 14
REMARK H PARENT
REMARK Flexibility Score: inf
ROOT
ATOM      1  C   UNL     1      23.258   9.544  10.138  1.00  0.00     0.000 C 
ENDROOT
BRANCH   1   2
ATOM      2  C   UNL     1      24.218   8.434   9.677  1.00  0.00     0.000 C 
BRANCH   2   3
ATOM      3  C   UNL     1      24.552   7.429  10.794  1.00  0.00     0.000 C 
BRANCH   3   4
ATOM      4  C   UNL     1      24.070   7.831  12.200  1.00  0.00     0.006 C 
BRANCH   4   5
ATOM      5  C   UNL     1      23.201   6.756  12.865  1.00  0.00     0.053 C 
BRANCH   5   6
ATOM      6  C   UNL     1      24.059   5.690  13.469  1.00  0.00     0.041 C 
ATOM      7  O   UNL     1      23.648   4.502  13.522  1.00  0.00    -0.550 OA
ATOM      8  O   UNL     1      25.332   6.000  13.929  1.00  0.00    -0.550 OA
ENDBRANCH   5   6
ENDBRANCH   4   5
ENDBRANCH   3   4
ENDBRANCH   2   3
ENDBRANCH   1   2
BRANCH   1   9
ATOM      9  C   UNL     1      21.840   9.372   9.570  1.00  0.00     0.000 C 
BRANCH   9  10
ATOM     10  C   UNL     1      20.883   8.695  10.568  1.00  0.00    -0.000 C 
BRANCH  10  11
ATOM     11  C   UNL     1      20.622   7.218  10.230  1.00  0.00    -0.000 C 
BRANCH  11  12
ATOM     12  C   UNL     1      20.699   6.934   8.720  1.00  0.00    -0.000 C 
BRANCH  12  13
ATOM     13  C   UNL     1      19.340   7.098   8.020  1.00  0.00    -0.003 C 
ATOM     14  C   UNL     1      19.351   8.188   6.949  1.00  0.00     0.004 C 
ENDBRANCH  12  13
ENDBRANCH  11  12
ENDBRANCH  10  11
ENDBRANCH   9  10
ENDBRANCH   1   9
TORSDOF 10
ENDMDL
MODEL 7
REMARK VINA RESULT:    -4.353      1.694      2.917
REMARK INTER + INTRA:          -7.876
REMARK INTER:                  -6.706
REMARK INTRA:                  -1.170
REMARK UNBOUND:                -0.978
REMARK SMILES CCCCCCCCCCCC(=O)[O-]
REMARK SMILES IDX 7 1 8 2 9 3 10 4 11 5 12 6 13 7 14 8 6 9 5 10 4 11 3 12 2 13
REMARK SMILES IDX 1 14
REMARK H PARENT
REMARK Flexibility Score: inf
ROOT
ATOM      1  C   UNL     1      22.218   9.048  10.197  1.00  0.00     0.000 C 
ENDROOT
BRANCH   1   2
ATOM      2  C   UNL     1      21.303   8.675  11.377  1.00  0.00     0.000 C 
BRANCH   2   3
ATOM      3  C   UNL     1      21.823   7.470  12.181  1.00  0.00     0.000 C 
BRANCH   3   4
ATOM      4  C   UNL     1      23.348   7.264  12.135  1.00  0.00     0.006 C 
BRANCH   4   5
ATOM      5  C   UNL     1      24.030   7.538  13.482  1.00  0.00     0.053 C 
BRANCH   5   6
ATOM      6  C   UNL     1      23.829   8.964  13.888  1.00  0.00     0.041 C 
ATOM      7  O   UNL     1      24.276   9.896  13.169  1.00  0.00    -0.550 OA
ATOM      8  O   UNL     1      23.106   9.265  15.035  1.00  0.00    -0.550 OA
ENDBRANCH   5   6
ENDBRANCH   4   5
ENDBRANCH   3   4
ENDBRANCH   2   3
ENDBRANCH   1   2
BRANCH   1   9
ATOM      9  C   UNL     1      21.516   8.899   8.837  1.00  0.00     0.000 C 
BRANCH   9  10
ATOM     10  C   UNL     1      20.091   8.332   8.968  1.00  0.00    -0.000 C 
BRANCH  10  11
ATOM     11  C   UNL     1      19.833   7.152   8.018  1.00  0.00    -0.000 C 
BRANCH  11  12
ATOM     12  C   UNL     1      18.922   6.079   8.639  1.00  0.00    -0.000 C 
BRANCH  12  13
ATOM     13  C   UNL     1      19.494   5.507   9.946  1.00  0.00    -0.003 C 
ATOM     14  C   UNL     1      18.591   5.763  11.152  1.00  0.00     0.004 C 
ENDBRANCH  12  13
ENDBRANCH  11  12
ENDBRANCH  10  11
ENDBRANCH   9  10
ENDBRANCH   1   9
TORSDOF 10
ENDMDL
MODEL 8
REMARK VINA RESULT:    -4.331      3.386      4.089
REMARK INTER + INTRA:          -7.841
REMARK INTER:                  -7.171
REMARK INTRA:                  -0.670
REMARK UNBOUND:                -0.978
REMARK SMILES CCCCCCCCCCCC(=O)[O-]
REMARK SMILES IDX 7 1 8 2 9 3 10 4 11 5 12 6 13 7 14 8 6 9 5 10 4 11 3 12 2 13
REMARK SMILES IDX 1 14
REMARK H PARENT
REMARK Flexibility Score: inf
ROOT
ATOM      1  C   UNL     1      22.319   8.683  11.508  1.00  0.00     0.000 C 
ENDROOT
BRANCH   1   2
ATOM      2  C   UNL     1      23.086   7.350  11.546  1.00  0.00     0.000 C 
BRANCH   2   3
ATOM      3  C   UNL     1      23.074   6.692  12.938  1.00  0.00     0.000 C 
BRANCH   3   4
ATOM      4  C   UNL     1      24.245   5.732  13.217  1.00  0.00     0.006 C 
BRANCH   4   5
ATOM      5  C   UNL     1      23.789   4.373  13.762  1.00  0.00     0.053 C 
BRANCH   5   6
ATOM      6  C   UNL     1      24.738   3.296  13.340  1.00  0.00     0.041 C 
ATOM      7  O   UNL     1      25.808   3.592  12.748  1.00  0.00    -0.550 OA
ATOM      8  O   UNL     1      24.462   1.969  13.642  1.00  0.00    -0.550 OA
ENDBRANCH   5   6
ENDBRANCH   4   5
ENDBRANCH   3   4
ENDBRANCH   2   3
ENDBRANCH   1   2
BRANCH   1   9
ATOM      9  C   UNL     1      21.026   8.595  10.679  1.00  0.00     0.000 C 
BRANCH   9  10
ATOM     10  C   UNL     1      20.014   7.597  11.271  1.00  0.00    -0.000 C 
BRANCH  10  11
ATOM     11  C   UNL     1      19.647   6.473  10.289  1.00  0.00    -0.000 C 
BRANCH  11  12
ATOM     12  C   UNL     1      20.236   6.697   8.885  1.00  0.00    -0.000 C 
BRANCH  12  13
ATOM     13  C   UNL     1      19.154   6.998   7.835  1.00  0.00    -0.003 C 
ATOM     14  C   UNL     1      19.447   8.262   7.026  1.00  0.00     0.004 C 
ENDBRANCH  12  13
ENDBRANCH  11  12
ENDBRANCH  10  11
ENDBRANCH   9  10
ENDBRANCH   1   9
TORSDOF 10
ENDMDL
MODEL 9
REMARK VINA RESULT:    -4.284      1.448      2.744
REMARK INTER + INTRA:          -7.767
REMARK INTER:                  -6.640
REMARK INTRA:                  -1.128
REMARK UNBOUND:                -0.978
REMARK SMILES CCCCCCCCCCCC(=O)[O-]
REMARK SMILES IDX 7 1 8 2 9 3 10 4 11 5 12 6 13 7 14 8 6 9 5 10 4 11 3 12 2 13
REMARK SMILES IDX 1 14
REMARK H PARENT
REMARK Flexibility Score: inf
ROOT
ATOM      1  C   UNL     1      22.196   6.962  12.095  1.00  0.00     0.000 C 
ENDROOT
BRANCH   1   2
ATOM      2  C   UNL     1      23.422   6.904  13.023  1.00  0.00     0.000 C 
BRANCH   2   3
ATOM      3  C   UNL     1      23.707   8.245  13.722  1.00  0.00     0.000 C 
BRANCH   3   4
ATOM      4  C   UNL     1      25.139   8.784  13.544  1.00  0.00     0.006 C 
BRANCH   4   5
ATOM      5  C   UNL     1      25.676   8.595  12.119  1.00  0.00     0.053 C 
BRANCH   5   6
ATOM      6  C   UNL     1      25.028   9.567  11.184  1.00  0.00     0.041 C 
ATOM      7  O   UNL     1      24.993  10.793  11.470  1.00  0.00    -0.550 OA
ATOM      8  O   UNL     1      24.507   9.127   9.974  1.00  0.00    -0.550 OA
ENDBRANCH   5   6
ENDBRANCH   4   5
ENDBRANCH   3   4
ENDBRANCH   2   3
ENDBRANCH   1   2
BRANCH   1   9
ATOM      9  C   UNL     1      21.562   8.362  12.041  1.00  0.00     0.000 C 
BRANCH   9  10
ATOM     10  C   UNL     1      21.083   8.738  10.627  1.00  0.00    -0.000 C 
BRANCH  10  11
ATOM     11  C   UNL     1      19.681   8.192  10.311  1.00  0.00    -0.000 C 
BRANCH  11  12
ATOM     12  C   UNL     1      19.688   7.172   9.160  1.00  0.00    -0.000 C 
BRANCH  12  13
ATOM     13  C   UNL     1      19.387   5.743   9.639  1.00  0.00    -0.003 C 
ATOM     14  C   UNL     1      18.774   5.702  11.040  1.00  0.00     0.004 C 
ENDBRANCH  12  13
ENDBRANCH  11  12
ENDBRANCH  10  11
ENDBRANCH   9  10
ENDBRANCH   1   9
TORSDOF 10
ENDMDL
