MODEL 1
REMARK VINA RESULT:    -4.172      0.000      0.000
REMARK INTER + INTRA:          -9.704
REMARK INTER:                  -7.586
REMARK INTRA:                  -2.118
REMARK UNBOUND:                -2.118
REMARK SMILES CCCCCCCCCCCCCCCC(=O)[O-]
REMARK SMILES IDX 9 1 10 2 11 3 12 4 13 5 14 6 15 7 16 8 17 9 18 10 8 11 7 12
REMARK SMILES IDX 6 13 5 14 4 15 3 16 2 17 1 18
REMARK H PARENT
REMARK Flexibility Score: inf
ROOT
ATOM      1  C   UNL     1     164.701 177.945 180.764  1.00  0.00     0.000 C 
ENDROOT
BRANCH   1   2
ATOM      2  C   UNL     1     164.260 179.376 181.106  1.00  0.00     0.000 C 
BRANCH   2   3
ATOM      3  C   UNL     1     162.919 179.416 181.856  1.00  0.00     0.000 C 
BRANCH   3   4
ATOM      4  C   UNL     1     161.796 180.059 181.023  1.00  0.00     0.000 C 
BRANCH   4   5
ATOM      5  C   UNL     1     162.135 180.123 179.525  1.00  0.00     0.000 C 
BRANCH   5   6
ATOM      6  C   UNL     1     161.442 179.017 178.716  1.00  0.00     0.006 C 
BRANCH   6   7
ATOM      7  C   UNL     1     162.375 178.462 177.635  1.00  0.00     0.053 C 
BRANCH   7   8
ATOM      8  C   UNL     1     161.773 177.253 176.990  1.00  0.00     0.041 C 
ATOM      9  O   UNL     1     160.662 176.810 177.388  1.00  0.00    -0.550 OA
ATOM     10  O   UNL     1     162.417 176.640 175.923  1.00  0.00    -0.550 OA
ENDBRANCH   7   8
ENDBRANCH   6   7
ENDBRANCH   5   6
ENDBRANCH   4   5
ENDBRANCH   3   4
ENDBRANCH   2   3
ENDBRANCH   1   2
BRANCH   1  11
ATOM     11  C   UNL     1     163.826 176.912 181.484  1.00  0.00     0.000 C 
BRANCH  11  12
ATOM     12  C   UNL     1     162.979 176.112 180.483  1.00  0.00    -0.000 C 
BRANCH  12  13
ATOM     13  C   UNL     1     161.490 176.061 180.890  1.00  0.00    -0.000 C 
BRANCH  13  14
ATOM     14  C   UNL     1     160.818 174.710 180.593  1.00  0.00    -0.000 C 
BRANCH  14  15
ATOM     15  C   UNL     1     160.593 173.867 181.859  1.00  0.00    -0.000 C 
BRANCH  15  16
ATOM     16  C   UNL     1     161.430 172.575 181.878  1.00  0.00    -0.000 C 
BRANCH  16  17
ATOM     17  C   UNL     1     162.507 172.510 182.974  1.00  0.00    -0.003 C 
ATOM     18  C   UNL     1     163.779 173.277 182.614  1.00  0.00     0.004 C 
ENDBRANCH  16  17
ENDBRANCH  15  16
ENDBRANCH  14  15
ENDBRANCH  13  14
ENDBRANCH  12  13
ENDBRANCH  11  12
ENDBRANCH   1  11
TORSDOF 14
ENDMDL
MODEL 2
REMARK VINA RESULT:    -4.080      2.720      5.956
REMARK INTER + INTRA:          -9.537
REMARK INTER:                  -7.320
REMARK INTRA:                  -2.217
REMARK UNBOUND:                -2.118
REMARK SMILES CCCCCCCCCCCCCCCC(=O)[O-]
REMARK SMILES IDX 9 1 10 2 11 3 12 4 13 5 14 6 15 7 16 8 17 9 18 10 8 11 7 12
REMARK SMILES IDX 6 13 5 14 4 15 3 16 2 17 1 18
REMARK H PARENT
REMARK Flexibility Score: inf
ROOT
ATOM      1  C   UNL     1     164.069 176.867 181.361  1.00  0.00     0.000 C 
ENDROOT
BRANCH   1   2
ATOM      2  C   UNL     1     163.049 175.825 180.876  1.00  0.00     0.000 C 
BRANCH   2   3
ATOM      3  C   UNL     1     161.596 176.262 181.126  1.00  0.00     0.000 C 
BRANCH   3   4
ATOM      4  C   UNL     1     160.617 175.075 181.139  1.00  0.00     0.000 C 
BRANCH   4   5
ATOM      5  C   UNL     1     161.228 173.799 180.539  1.00  0.00     0.000 C 
BRANCH   5   6
ATOM      6  C   UNL     1     160.994 172.562 181.419  1.00  0.00     0.006 C 
BRANCH   6   7
ATOM      7  C   UNL     1     161.627 172.747 182.802  1.00  0.00     0.053 C 
BRANCH   7   8
ATOM      8  C   UNL     1     163.095 172.463 182.750  1.00  0.00     0.041 C 
ATOM      9  O   UNL     1     163.920 173.315 183.174  1.00  0.00    -0.550 OA
ATOM     10  O   UNL     1     163.551 171.242 182.269  1.00  0.00    -0.550 OA
ENDBRANCH   7   8
ENDBRANCH   6   7
ENDBRANCH   5   6
ENDBRANCH   4   5
ENDBRANCH   3   4
ENDBRANCH   2   3
ENDBRANCH   1   2
BRANCH   1  11
ATOM     11  C   UNL     1     163.379 178.189 181.715  1.00  0.00     0.000 C 
BRANCH  11  12
ATOM     12  C   UNL     1     164.152 179.385 181.141  1.00  0.00    -0.000 C 
BRANCH  12  13
ATOM     13  C   UNL     1     163.690 179.745 179.711  1.00  0.00    -0.000 C 
BRANCH  13  14
ATOM     14  C   UNL     1     162.179 180.006 179.601  1.00  0.00    -0.000 C 
BRANCH  14  15
ATOM     15  C   UNL     1     161.487 179.078 178.589  1.00  0.00    -0.000 C 
BRANCH  15  16
ATOM     16  C   UNL     1     162.453 178.069 177.941  1.00  0.00    -0.000 C 
BRANCH  16  17
ATOM     17  C   UNL     1     161.823 177.151 176.879  1.00  0.00    -0.003 C 
ATOM     18  C   UNL     1     161.461 175.768 177.419  1.00  0.00     0.004 C 
ENDBRANCH  16  17
ENDBRANCH  15  16
ENDBRANCH  14  15
ENDBRANCH  13  14
ENDBRANCH  12  13
ENDBRANCH  11  12
ENDBRANCH   1  11
TORSDOF 14
ENDMDL
MODEL 3
REMARK VINA RESULT:    -3.943      1.959      4.797
REMARK INTER + INTRA:          -9.288
REMARK INTER:                  -6.931
REMARK INTRA:                  -2.357
REMARK UNBOUND:                -2.118
REMARK SMILES CCCCCCCCCCCCCCCC(=O)[O-]
REMARK SMILES IDX 9 1 10 2 11 3 12 4 13 5 14 6 15 7 16 8 17 9 18 10 8 11 7 12
REMARK SMILES IDX 6 13 5 14 4 15 3 16 2 17 1 18
REMARK H PARENT
REMARK Flexibility Score: inf
ROOT
ATOM      1  C   UNL     1     163.954 179.609 181.112  1.00  0.00     0.000 C 
ENDROOT
BRANCH   1   2
ATOM      2  C   UNL     1     164.523 178.230 181.481  1.00  0.00     0.000 C 
BRANCH   2   3
ATOM      3  C   UNL     1     164.967 177.427 180.247  1.00  0.00     0.000 C 
BRANCH   3   4
ATOM      4  C   UNL     1     164.065 176.209 179.980  1.00  0.00     0.000 C 
BRANCH   4   5
ATOM      5  C   UNL     1     163.027 175.989 181.091  1.00  0.00     0.000 C 
BRANCH   5   6
ATOM      6  C   UNL     1     161.594 176.298 180.629  1.00  0.00     0.006 C 
BRANCH   6   7
ATOM      7  C   UNL     1     160.609 175.253 181.161  1.00  0.00     0.053 C 
BRANCH   7   8
ATOM      8  C   UNL     1     160.520 174.089 180.224  1.00  0.00     0.041 C 
ATOM      9  O   UNL     1     160.997 172.971 180.556  1.00  0.00    -0.550 OA
ATOM     10  O   UNL     1     159.875 174.229 179.002  1.00  0.00    -0.550 OA
ENDBRANCH   7   8
ENDBRANCH   6   7
ENDBRANCH   5   6
ENDBRANCH   4   5
ENDBRANCH   3   4
ENDBRANCH   2   3
ENDBRANCH   1   2
BRANCH   1  11
ATOM     11  C   UNL     1     162.546 179.797 181.688  1.00  0.00     0.000 C 
BRANCH  11  12
ATOM     12  C   UNL     1     161.525 180.066 180.573  1.00  0.00    -0.000 C 
BRANCH  12  13
ATOM     13  C   UNL     1     162.155 179.954 179.167  1.00  0.00    -0.000 C 
BRANCH  13  14
ATOM     14  C   UNL     1     161.435 178.953 178.250  1.00  0.00    -0.000 C 
BRANCH  14  15
ATOM     15  C   UNL     1     162.410 178.076 177.446  1.00  0.00    -0.000 C 
BRANCH  15  16
ATOM     16  C   UNL     1     161.699 176.990 176.619  1.00  0.00    -0.000 C 
BRANCH  16  17
ATOM     17  C   UNL     1     162.614 175.881 176.071  1.00  0.00    -0.003 C 
ATOM     18  C   UNL     1     162.725 174.677 177.005  1.00  0.00     0.004 C 
ENDBRANCH  16  17
ENDBRANCH  15  16
ENDBRANCH  14  15
ENDBRANCH  13  14
ENDBRANCH  12  13
ENDBRANCH  11  12
ENDBRANCH   1  11
TORSDOF 14
ENDMDL
MODEL 4
REMARK VINA RESULT:    -3.920      1.873      5.168
REMARK INTER + INTRA:          -9.246
REMARK INTER:                  -6.912
REMARK INTRA:                  -2.334
REMARK UNBOUND:                -2.118
REMARK SMILES CCCCCCCCCCCCCCCC(=O)[O-]
REMARK SMILES IDX 9 1 10 2 11 3 12 4 13 5 14 6 15 7 16 8 17 9 18 10 8 11 7 12
REMARK SMILES IDX 6 13 5 14 4 15 3 16 2 17 1 18
REMARK H PARENT
REMARK Flexibility Score: inf
ROOT
ATOM      1  C   UNL     1     166.807 176.977 179.053  1.00  0.00     0.000 C 
ENDROOT
BRANCH   1   2
ATOM      2  C   UNL     1     166.366 176.388 180.402  1.00  0.00     0.000 C 
BRANCH   2   3
ATOM      3  C   UNL     1     165.116 175.502 180.277  1.00  0.00     0.000 C 
BRANCH   3   4
ATOM      4  C   UNL     1     164.218 175.569 181.525  1.00  0.00     0.000 C 
BRANCH   4   5
ATOM      5  C   UNL     1     162.878 174.843 181.327  1.00  0.00     0.000 C 
BRANCH   5   6
ATOM      6  C   UNL     1     161.700 175.815 181.156  1.00  0.00     0.006 C 
BRANCH   6   7
ATOM      7  C   UNL     1     160.398 175.055 180.886  1.00  0.00     0.053 C 
BRANCH   7   8
ATOM      8  C   UNL     1     160.464 174.350 179.568  1.00  0.00     0.041 C 
ATOM      9  O   UNL     1     160.693 174.999 178.513  1.00  0.00    -0.550 OA
ATOM     10  O   UNL     1     160.314 172.970 179.509  1.00  0.00    -0.550 OA
ENDBRANCH   7   8
ENDBRANCH   6   7
ENDBRANCH   5   6
ENDBRANCH   4   5
ENDBRANCH   3   4
ENDBRANCH   2   3
ENDBRANCH   1   2
BRANCH   1  11
ATOM     11  C   UNL     1     166.552 178.488 179.001  1.00  0.00     0.000 C 
BRANCH  11  12
ATOM     12  C   UNL     1     166.373 179.066 180.412  1.00  0.00    -0.000 C 
BRANCH  12  13
ATOM     13  C   UNL     1     165.038 179.827 180.565  1.00  0.00    -0.000 C 
BRANCH  13  14
ATOM     14  C   UNL     1     164.064 179.165 181.554  1.00  0.00    -0.000 C 
BRANCH  14  15
ATOM     15  C   UNL     1     162.591 179.463 181.226  1.00  0.00    -0.000 C 
BRANCH  15  16
ATOM     16  C   UNL     1     162.364 179.811 179.743  1.00  0.00    -0.000 C 
BRANCH  16  17
ATOM     17  C   UNL     1     161.810 178.664 178.880  1.00  0.00    -0.003 C 
ATOM     18  C   UNL     1     162.904 177.807 178.245  1.00  0.00     0.004 C 
ENDBRANCH  16  17
ENDBRANCH  15  16
ENDBRANCH  14  15
ENDBRANCH  13  14
ENDBRANCH  12  13
ENDBRANCH  11  12
ENDBRANCH   1  11
TORSDOF 14
ENDMDL
MODEL 5
REMARK VINA RESULT:    -3.895      2.413      5.989
REMARK INTER + INTRA:          -9.200
REMARK INTER:                  -7.117
REMARK INTRA:                  -2.084
REMARK UNBOUND:                -2.118
REMARK SMILES CCCCCCCCCCCCCCCC(=O)[O-]
REMARK SMILES IDX 9 1 10 2 11 3 12 4 13 5 14 6 15 7 16 8 17 9 18 10 8 11 7 12
REMARK SMILES IDX 6 13 5 14 4 15 3 16 2 17 1 18
REMARK H PARENT
REMARK Flexibility Score: inf
ROOT
ATOM      1  C   UNL     1     162.113 176.220 179.176  1.00  0.00     0.000 C 
ENDROOT
BRANCH   1   2
ATOM      2  C   UNL     1     161.646 176.414 180.626  1.00  0.00     0.000 C 
BRANCH   2   3
ATOM      3  C   UNL     1     160.672 175.315 181.083  1.00  0.00     0.000 C 
BRANCH   3   4
ATOM      4  C   UNL     1     160.644 174.115 180.121  1.00  0.00     0.000 C 
BRANCH   4   5
ATOM      5  C   UNL     1     160.949 172.785 180.827  1.00  0.00     0.000 C 
BRANCH   5   6
ATOM      6  C   UNL     1     161.390 172.980 182.286  1.00  0.00     0.006 C 
BRANCH   6   7
ATOM      7  C   UNL     1     162.756 172.332 182.536  1.00  0.00     0.053 C 
BRANCH   7   8
ATOM      8  C   UNL     1     163.852 173.184 181.978  1.00  0.00     0.041 C 
ATOM      9  O   UNL     1     164.554 172.766 181.019  1.00  0.00    -0.550 OA
ATOM     10  O   UNL     1     164.073 174.456 182.491  1.00  0.00    -0.550 OA
ENDBRANCH   7   8
ENDBRANCH   6   7
ENDBRANCH   5   6
ENDBRANCH   4   5
ENDBRANCH   3   4
ENDBRANCH   2   3
ENDBRANCH   1   2
BRANCH   1  11
ATOM     11  C   UNL     1     162.400 177.568 178.504  1.00  0.00     0.000 C 
BRANCH  11  12
ATOM     12  C   UNL     1     161.483 178.667 179.059  1.00  0.00    -0.000 C 
BRANCH  12  13
ATOM     13  C   UNL     1     162.283 179.858 179.630  1.00  0.00    -0.000 C 
BRANCH  13  14
ATOM     14  C   UNL     1     162.449 179.810 181.158  1.00  0.00    -0.000 C 
BRANCH  14  15
ATOM     15  C   UNL     1     163.829 179.284 181.589  1.00  0.00    -0.000 C 
BRANCH  15  16
ATOM     16  C   UNL     1     164.954 179.678 180.615  1.00  0.00    -0.000 C 
BRANCH  16  17
ATOM     17  C   UNL     1     165.792 178.506 180.076  1.00  0.00    -0.003 C 
ATOM     18  C   UNL     1     165.375 177.154 180.653  1.00  0.00     0.004 C 
ENDBRANCH  16  17
ENDBRANCH  15  16
ENDBRANCH  14  15
ENDBRANCH  13  14
ENDBRANCH  12  13
ENDBRANCH  11  12
ENDBRANCH   1  11
TORSDOF 14
ENDMDL
MODEL 6
REMARK VINA RESULT:    -3.834     11.758     14.088
REMARK INTER + INTRA:          -9.090
REMARK INTER:                  -7.139
REMARK INTRA:                  -1.952
REMARK UNBOUND:                -2.118
REMARK SMILES CCCCCCCCCCCCCCCC(=O)[O-]
REMARK SMILES IDX 9 1 10 2 11 3 12 4 13 5 14 6 15 7 16 8 17 9 18 10 8 11 7 12
REMARK SMILES IDX 6 13 5 14 4 15 3 16 2 17 1 18
REMARK H PARENT
REMARK Flexibility Score: inf
ROOT
ATOM      1  C   UNL     1     176.561 180.125 179.104  1.00  0.00     0.000 C 
ENDROOT
BRANCH   1   2
ATOM      2  C   UNL     1     177.536 179.604 180.171  1.00  0.00     0.000 C 
BRANCH   2   3
ATOM      3  C   UNL     1     176.813 179.071 181.419  1.00  0.00     0.000 C 
BRANCH   3   4
ATOM      4  C   UNL     1     176.837 177.535 181.504  1.00  0.00     0.000 C 
BRANCH   4   5
ATOM      5  C   UNL     1     177.847 176.906 180.531  1.00  0.00     0.000 C 
BRANCH   5   6
ATOM      6  C   UNL     1     177.217 175.818 179.648  1.00  0.00     0.006 C 
BRANCH   6   7
ATOM      7  C   UNL     1     176.689 174.659 180.500  1.00  0.00     0.053 C 
BRANCH   7   8
ATOM      8  C   UNL     1     177.681 173.539 180.538  1.00  0.00     0.041 C 
ATOM      9  O   UNL     1     178.509 173.395 179.599  1.00  0.00    -0.550 OA
ATOM     10  O   UNL     1     177.718 172.679 181.628  1.00  0.00    -0.550 OA
ENDBRANCH   7   8
ENDBRANCH   6   7
ENDBRANCH   5   6
ENDBRANCH   4   5
ENDBRANCH   3   4
ENDBRANCH   2   3
ENDBRANCH   1   2
BRANCH   1  11
ATOM     11  C   UNL     1     176.487 179.167 177.909  1.00  0.00     0.000 C 
BRANCH  11  12
ATOM     12  C   UNL     1     175.072 178.594 177.748  1.00  0.00    -0.000 C 
BRANCH  12  13
ATOM     13  C   UNL     1     174.158 178.956 178.939  1.00  0.00    -0.000 C 
BRANCH  13  14
ATOM     14  C   UNL     1     173.497 177.735 179.600  1.00  0.00    -0.000 C 
BRANCH  14  15
ATOM     15  C   UNL     1     172.912 178.054 180.986  1.00  0.00    -0.000 C 
BRANCH  15  16
ATOM     16  C   UNL     1     171.892 179.206 180.957  1.00  0.00    -0.000 C 
BRANCH  16  17
ATOM     17  C   UNL     1     170.640 178.992 181.825  1.00  0.00    -0.003 C 
ATOM     18  C   UNL     1     170.453 177.540 182.262  1.00  0.00     0.004 C 
ENDBRANCH  16  17
ENDBRANCH  15  16
ENDBRANCH  14  15
ENDBRANCH  13  14
ENDBRANCH  12  13
ENDBRANCH  11  12
ENDBRANCH   1  11
TORSDOF 14
ENDMDL
MODEL 7
REMARK VINA RESULT:    -3.825      2.585      3.783
REMARK INTER + INTRA:          -9.073
REMARK INTER:                  -7.267
REMARK INTRA:                  -1.806
REMARK UNBOUND:                -2.118
REMARK SMILES CCCCCCCCCCCCCCCC(=O)[O-]
REMARK SMILES IDX 9 1 10 2 11 3 12 4 13 5 14 6 15 7 16 8 17 9 18 10 8 11 7 12
REMARK SMILES IDX 6 13 5 14 4 15 3 16 2 17 1 18
REMARK H PARENT
REMARK Flexibility Score: inf
ROOT
ATOM      1  C   UNL     1     162.242 179.119 178.328  1.00  0.00     0.000 C 
ENDROOT
BRANCH   1   2
ATOM      2  C   UNL     1     161.824 180.125 179.411  1.00  0.00     0.000 C 
BRANCH   2   3
ATOM      3  C   UNL     1     161.786 179.497 180.814  1.00  0.00     0.000 C 
BRANCH   3   4
ATOM      4  C   UNL     1     163.074 179.759 181.613  1.00  0.00     0.000 C 
BRANCH   4   5
ATOM      5  C   UNL     1     164.211 178.799 181.231  1.00  0.00     0.000 C 
BRANCH   5   6
ATOM      6  C   UNL     1     165.317 179.489 180.416  1.00  0.00     0.006 C 
BRANCH   6   7
ATOM      7  C   UNL     1     165.825 178.574 179.298  1.00  0.00     0.053 C 
BRANCH   7   8
ATOM      8  C   UNL     1     167.306 178.387 179.404  1.00  0.00     0.041 C 
ATOM      9  O   UNL     1     168.047 179.362 179.699  1.00  0.00    -0.550 OA
ATOM     10  O   UNL     1     167.864 177.129 179.216  1.00  0.00    -0.550 OA
ENDBRANCH   7   8
ENDBRANCH   6   7
ENDBRANCH   5   6
ENDBRANCH   4   5
ENDBRANCH   3   4
ENDBRANCH   2   3
ENDBRANCH   1   2
BRANCH   1  11
ATOM     11  C   UNL     1     161.520 177.779 178.512  1.00  0.00     0.000 C 
BRANCH  11  12
ATOM     12  C   UNL     1     162.515 176.609 178.491  1.00  0.00    -0.000 C 
BRANCH  12  13
ATOM     13  C   UNL     1     162.580 175.876 179.849  1.00  0.00    -0.000 C 
BRANCH  13  14
ATOM     14  C   UNL     1     161.396 176.194 180.776  1.00  0.00    -0.000 C 
BRANCH  14  15
ATOM     15  C   UNL     1     160.470 174.986 180.994  1.00  0.00    -0.000 C 
BRANCH  15  16
ATOM     16  C   UNL     1     160.976 173.708 180.301  1.00  0.00    -0.000 C 
BRANCH  16  17
ATOM     17  C   UNL     1     160.917 172.432 181.159  1.00  0.00    -0.003 C 
ATOM     18  C   UNL     1     161.051 172.708 182.655  1.00  0.00     0.004 C 
ENDBRANCH  16  17
ENDBRANCH  15  16
ENDBRANCH  14  15
ENDBRANCH  13  14
ENDBRANCH  12  13
ENDBRANCH  11  12
ENDBRANCH   1  11
TORSDOF 14
ENDMDL
MODEL 8
REMARK VINA RESULT:    -3.821      9.636     12.280
REMARK INTER + INTRA:          -9.066
REMARK INTER:                  -7.228
REMARK INTRA:                  -1.838
REMARK UNBOUND:                -2.118
REMARK SMILES CCCCCCCCCCCCCCCC(=O)[O-]
REMARK SMILES IDX 9 1 10 2 11 3 12 4 13 5 14 6 15 7 16 8 17 9 18 10 8 11 7 12
REMARK SMILES IDX 6 13 5 14 4 15 3 16 2 17 1 18
REMARK H PARENT
REMARK Flexibility Score: inf
ROOT
ATOM      1  C   UNL     1     176.272 178.954 181.903  1.00  0.00     0.000 C 
ENDROOT
BRANCH   1   2
ATOM      2  C   UNL     1     175.615 177.801 181.128  1.00  0.00     0.000 C 
BRANCH   2   3
ATOM      3  C   UNL     1     174.084 177.927 181.073  1.00  0.00     0.000 C 
BRANCH   3   4
ATOM      4  C   UNL     1     173.610 179.390 181.125  1.00  0.00     0.000 C 
BRANCH   4   5
ATOM      5  C   UNL     1     172.079 179.516 181.066  1.00  0.00     0.000 C 
BRANCH   5   6
ATOM      6  C   UNL     1     171.364 178.226 181.495  1.00  0.00     0.006 C 
BRANCH   6   7
ATOM      7  C   UNL     1     169.913 178.512 181.897  1.00  0.00     0.053 C 
BRANCH   7   8
ATOM      8  C   UNL     1     168.983 178.199 180.766  1.00  0.00     0.041 C 
ATOM      9  O   UNL     1     168.868 179.000 179.801  1.00  0.00    -0.550 OA
ATOM     10  O   UNL     1     168.275 177.004 180.759  1.00  0.00    -0.550 OA
ENDBRANCH   7   8
ENDBRANCH   6   7
ENDBRANCH   5   6
ENDBRANCH   4   5
ENDBRANCH   3   4
ENDBRANCH   2   3
ENDBRANCH   1   2
BRANCH   1  11
ATOM     11  C   UNL     1     177.129 179.824 180.975  1.00  0.00     0.000 C 
BRANCH  11  12
ATOM     12  C   UNL     1     177.443 179.089 179.664  1.00  0.00    -0.000 C 
BRANCH  12  13
ATOM     13  C   UNL     1     177.015 179.903 178.423  1.00  0.00    -0.000 C 
BRANCH  13  14
ATOM     14  C   UNL     1     175.526 179.752 178.073  1.00  0.00    -0.000 C 
BRANCH  14  15
ATOM     15  C   UNL     1     175.277 178.712 176.969  1.00  0.00    -0.000 C 
BRANCH  15  16
ATOM     16  C   UNL     1     173.829 178.724 176.446  1.00  0.00    -0.000 C 
BRANCH  16  17
ATOM     17  C   UNL     1     172.752 178.405 177.498  1.00  0.00    -0.003 C 
ATOM     18  C   UNL     1     171.579 179.383 177.472  1.00  0.00     0.004 C 
ENDBRANCH  16  17
ENDBRANCH  15  16
ENDBRANCH  14  15
ENDBRANCH  13  14
ENDBRANCH  12  13
ENDBRANCH  11  12
ENDBRANCH   1  11
TORSDOF 14
ENDMDL
MODEL 9
REMARK VINA RESULT:    -3.775     10.960     13.562
REMARK INTER + INTRA:          -8.983
REMARK INTER:                  -6.880
REMARK INTRA:                  -2.103
REMARK UNBOUND:                -2.118
REMARK SMILES CCCCCCCCCCCCCCCC(=O)[O-]
REMARK SMILES IDX 9 1 10 2 11 3 12 4 13 5 14 6 15 7 16 8 17 9 18 10 8 11 7 12
REMARK SMILES IDX 6 13 5 14 4 15 3 16 2 17 1 18
REMARK H PARENT
REMARK Flexibility Score: inf
ROOT
ATOM      1  C   UNL     1     177.483 177.280 180.771  1.00  0.00     0.000 C 
ENDROOT
BRANCH   1   2
ATOM      2  C   UNL     1     176.307 176.312 180.571  1.00  0.00     0.000 C 
BRANCH   2   3
ATOM      3  C   UNL     1     175.161 176.567 181.564  1.00  0.00     0.000 C 
BRANCH   3   4
ATOM      4  C   UNL     1     173.813 176.805 180.861  1.00  0.00     0.000 C 
BRANCH   4   5
ATOM      5  C   UNL     1     173.980 177.236 179.396  1.00  0.00     0.000 C 
BRANCH   5   6
ATOM      6  C   UNL     1     173.291 178.576 179.093  1.00  0.00     0.006 C 
BRANCH   6   7
ATOM      7  C   UNL     1     172.403 179.012 180.263  1.00  0.00     0.053 C 
BRANCH   7   8
ATOM      8  C   UNL     1     171.035 179.377 179.777  1.00  0.00     0.041 C 
ATOM      9  O   UNL     1     170.899 180.125 178.772  1.00  0.00    -0.550 OA
ATOM     10  O   UNL     1     169.912 178.859 180.408  1.00  0.00    -0.550 OA
ENDBRANCH   7   8
ENDBRANCH   6   7
ENDBRANCH   5   6
ENDBRANCH   4   5
ENDBRANCH   3   4
ENDBRANCH   2   3
ENDBRANCH   1   2
BRANCH   1  11
ATOM     11  C   UNL     1     177.027 178.566 181.471  1.00  0.00     0.000 C 
BRANCH  11  12
ATOM     12  C   UNL     1     177.406 179.806 180.649  1.00  0.00    -0.000 C 
BRANCH  12  13
ATOM     13  C   UNL     1     176.468 180.012 179.439  1.00  0.00    -0.000 C 
BRANCH  13  14
ATOM     14  C   UNL     1     177.163 179.818 178.082  1.00  0.00    -0.000 C 
BRANCH  14  15
ATOM     15  C   UNL     1     176.776 178.496 177.399  1.00  0.00    -0.000 C 
BRANCH  15  16
ATOM     16  C   UNL     1     176.668 178.619 175.868  1.00  0.00    -0.000 C 
BRANCH  16  17
ATOM     17  C   UNL     1     175.277 178.314 175.285  1.00  0.00    -0.003 C 
ATOM     18  C   UNL     1     174.721 176.964 175.733  1.00  0.00     0.004 C 
ENDBRANCH  16  17
ENDBRANCH  15  16
ENDBRANCH  14  15
ENDBRANCH  13  14
ENDBRANCH  12  13
ENDBRANCH  11  12
ENDBRANCH   1  11
TORSDOF 14
ENDMDL
