MODEL 1
REMARK VINA RESULT:    -4.443      0.000      0.000
REMARK INTER + INTRA:          -8.183
REMARK INTER:                  -7.561
REMARK INTRA:                  -0.622
REMARK UNBOUND:                -0.622
REMARK SMILES CCCCCCCCCCCCCC(=O)[O-]
REMARK SMILES IDX 8 1 9 2 10 3 11 4 12 5 13 6 14 7 15 8 16 9 7 10 6 11 5 12
REMARK SMILES IDX 4 13 3 14 2 15 1 16
REMARK H PARENT
REMARK Flexibility Score: inf
ROOT
ATOM      1  C   UNL     1      46.856   1.675  19.847  1.00  0.00     0.000 C 
ENDROOT
BRANCH   1   2
ATOM      2  C   UNL     1      48.080   1.045  20.529  1.00  0.00     0.000 C 
BRANCH   2   3
ATOM      3  C   UNL     1      49.279   2.014  20.648  1.00  0.00     0.000 C 
BRANCH   3   4
ATOM      4  C   UNL     1      50.383   1.500  21.592  1.00  0.00     0.000 C 
BRANCH   4   5
ATOM      5  C   UNL     1      51.676   2.340  21.547  1.00  0.00     0.006 C 
BRANCH   5   6
ATOM      6  C   UNL     1      52.726   1.818  20.553  1.00  0.00     0.053 C 
BRANCH   6   7
ATOM      7  C   UNL     1      53.458   2.935  19.874  1.00  0.00     0.041 C 
ATOM      8  O   UNL     1      54.692   3.094  20.067  1.00  0.00    -0.550 OA
ATOM      9  O   UNL     1      52.778   3.790  19.016  1.00  0.00    -0.550 OA
ENDBRANCH   6   7
ENDBRANCH   5   6
ENDBRANCH   4   5
ENDBRANCH   3   4
ENDBRANCH   2   3
ENDBRANCH   1   2
BRANCH   1  10
ATOM     10  C   UNL     1      46.023   2.540  20.808  1.00  0.00     0.000 C 
BRANCH  10  11
ATOM     11  C   UNL     1      44.933   3.347  20.071  1.00  0.00    -0.000 C 
BRANCH  11  12
ATOM     12  C   UNL     1      43.498   2.866  20.364  1.00  0.00    -0.000 C 
BRANCH  12  13
ATOM     13  C   UNL     1      43.361   1.921  21.569  1.00  0.00    -0.000 C 
BRANCH  13  14
ATOM     14  C   UNL     1      43.067   0.468  21.157  1.00  0.00    -0.000 C 
BRANCH  14  15
ATOM     15  C   UNL     1      43.181  -0.511  22.335  1.00  0.00    -0.003 C 
ATOM     16  C   UNL     1      43.279   0.195  23.687  1.00  0.00     0.004 C 
ENDBRANCH  14  15
ENDBRANCH  13  14
ENDBRANCH  12  13
ENDBRANCH  11  12
ENDBRANCH  10  11
ENDBRANCH   1  10
TORSDOF 12
ENDMDL
MODEL 2
REMARK VINA RESULT:    -4.426      4.093      6.863
REMARK INTER + INTRA:          -8.153
REMARK INTER:                  -6.854
REMARK INTRA:                  -1.299
REMARK UNBOUND:                -0.622
REMARK SMILES CCCCCCCCCCCCCC(=O)[O-]
REMARK SMILES IDX 8 1 9 2 10 3 11 4 12 5 13 6 14 7 15 8 16 9 7 10 6 11 5 12
REMARK SMILES IDX 4 13 3 14 2 15 1 16
REMARK H PARENT
REMARK Flexibility Score: inf
ROOT
ATOM      1  C   UNL     1      49.787   4.245  21.968  1.00  0.00     0.000 C 
ENDROOT
BRANCH   1   2
ATOM      2  C   UNL     1      49.438   4.715  23.389  1.00  0.00     0.000 C 
BRANCH   2   3
ATOM      3  C   UNL     1      49.634   6.235  23.594  1.00  0.00     0.000 C 
BRANCH   3   4
ATOM      4  C   UNL     1      48.874   7.089  22.562  1.00  0.00     0.000 C 
BRANCH   4   5
ATOM      5  C   UNL     1      49.797   7.934  21.659  1.00  0.00     0.006 C 
BRANCH   5   6
ATOM      6  C   UNL     1      49.812   7.488  20.188  1.00  0.00     0.053 C 
BRANCH   6   7
ATOM      7  C   UNL     1      50.962   8.081  19.434  1.00  0.00     0.041 C 
ATOM      8  O   UNL     1      50.964   9.305  19.142  1.00  0.00    -0.550 OA
ATOM      9  O   UNL     1      52.039   7.283  19.068  1.00  0.00    -0.550 OA
ENDBRANCH   6   7
ENDBRANCH   5   6
ENDBRANCH   4   5
ENDBRANCH   3   4
ENDBRANCH   2   3
ENDBRANCH   1   2
BRANCH   1  10
ATOM     10  C   UNL     1      48.770   3.234  21.413  1.00  0.00     0.000 C 
BRANCH  10  11
ATOM     11  C   UNL     1      49.439   1.913  20.976  1.00  0.00    -0.000 C 
BRANCH  11  12
ATOM     12  C   UNL     1      50.534   1.421  21.943  1.00  0.00    -0.000 C 
BRANCH  12  13
ATOM     13  C   UNL     1      51.876   1.066  21.281  1.00  0.00    -0.000 C 
BRANCH  13  14
ATOM     14  C   UNL     1      52.690   2.309  20.880  1.00  0.00    -0.000 C 
BRANCH  14  15
ATOM     15  C   UNL     1      52.736   2.514  19.358  1.00  0.00    -0.003 C 
ATOM     16  C   UNL     1      51.933   3.730  18.898  1.00  0.00     0.004 C 
ENDBRANCH  14  15
ENDBRANCH  13  14
ENDBRANCH  12  13
ENDBRANCH  11  12
ENDBRANCH  10  11
ENDBRANCH   1  10
TORSDOF 12
ENDMDL
MODEL 3
REMARK VINA RESULT:    -4.346      1.893      3.378
REMARK INTER + INTRA:          -8.017
REMARK INTER:                  -6.153
REMARK INTRA:                  -1.864
REMARK UNBOUND:                -0.622
REMARK SMILES CCCCCCCCCCCCCC(=O)[O-]
REMARK SMILES IDX 8 1 9 2 10 3 11 4 12 5 13 6 14 7 15 8 16 9 7 10 6 11 5 12
REMARK SMILES IDX 4 13 3 14 2 15 1 16
REMARK H PARENT
REMARK Flexibility Score: inf
ROOT
ATOM      1  C   UNL     1      48.078   1.212  23.547  1.00  0.00     0.000 C 
ENDROOT
BRANCH   1   2
ATOM      2  C   UNL     1      49.174   2.289  23.548  1.00  0.00     0.000 C 
BRANCH   2   3
ATOM      3  C   UNL     1      48.730   3.612  22.882  1.00  0.00     0.000 C 
BRANCH   3   4
ATOM      4  C   UNL     1      49.597   4.001  21.670  1.00  0.00     0.000 C 
BRANCH   4   5
ATOM      5  C   UNL     1      50.734   3.000  21.376  1.00  0.00     0.006 C 
BRANCH   5   6
ATOM      6  C   UNL     1      50.876   2.635  19.889  1.00  0.00     0.053 C 
BRANCH   6   7
ATOM      7  C   UNL     1      52.064   3.297  19.260  1.00  0.00     0.041 C 
ATOM      8  O   UNL     1      51.906   4.265  18.472  1.00  0.00    -0.550 OA
ATOM      9  O   UNL     1      53.346   2.851  19.557  1.00  0.00    -0.550 OA
ENDBRANCH   6   7
ENDBRANCH   5   6
ENDBRANCH   4   5
ENDBRANCH   3   4
ENDBRANCH   2   3
ENDBRANCH   1   2
BRANCH   1  10
ATOM     10  C   UNL     1      48.490  -0.050  22.770  1.00  0.00     0.000 C 
BRANCH  10  11
ATOM     11  C   UNL     1      48.307   0.118  21.246  1.00  0.00    -0.000 C 
BRANCH  11  12
ATOM     12  C   UNL     1      46.964   0.762  20.848  1.00  0.00    -0.000 C 
BRANCH  12  13
ATOM     13  C   UNL     1      47.077   1.983  19.919  1.00  0.00    -0.000 C 
BRANCH  13  14
ATOM     14  C   UNL     1      45.928   2.988  20.112  1.00  0.00    -0.000 C 
BRANCH  14  15
ATOM     15  C   UNL     1      44.790   2.420  20.973  1.00  0.00    -0.003 C 
ATOM     16  C   UNL     1      43.419   2.970  20.583  1.00  0.00     0.004 C 
ENDBRANCH  14  15
ENDBRANCH  13  14
ENDBRANCH  12  13
ENDBRANCH  11  12
ENDBRANCH  10  11
ENDBRANCH   1  10
TORSDOF 12
ENDMDL
MODEL 4
REMARK VINA RESULT:    -4.324      1.544      1.840
REMARK INTER + INTRA:          -7.979
REMARK INTER:                  -6.632
REMARK INTRA:                  -1.347
REMARK UNBOUND:                -0.622
REMARK SMILES CCCCCCCCCCCCCC(=O)[O-]
REMARK SMILES IDX 8 1 9 2 10 3 11 4 12 5 13 6 14 7 15 8 16 9 7 10 6 11 5 12
REMARK SMILES IDX 4 13 3 14 2 15 1 16
REMARK H PARENT
REMARK Flexibility Score: inf
ROOT
ATOM      1  C   UNL     1      46.024   2.693  20.238  1.00  0.00     0.000 C 
ENDROOT
BRANCH   1   2
ATOM      2  C   UNL     1      47.376   3.119  20.832  1.00  0.00     0.000 C 
BRANCH   2   3
ATOM      3  C   UNL     1      48.490   2.066  20.628  1.00  0.00     0.000 C 
BRANCH   3   4
ATOM      4  C   UNL     1      49.528   2.054  21.766  1.00  0.00     0.000 C 
BRANCH   4   5
ATOM      5  C   UNL     1      50.936   2.508  21.325  1.00  0.00     0.006 C 
BRANCH   5   6
ATOM      6  C   UNL     1      51.109   2.613  19.801  1.00  0.00     0.053 C 
BRANCH   6   7
ATOM      7  C   UNL     1      52.540   2.448  19.387  1.00  0.00     0.041 C 
ATOM      8  O   UNL     1      52.969   1.320  19.029  1.00  0.00    -0.550 OA
ATOM      9  O   UNL     1      53.393   3.544  19.385  1.00  0.00    -0.550 OA
ENDBRANCH   6   7
ENDBRANCH   5   6
ENDBRANCH   4   5
ENDBRANCH   3   4
ENDBRANCH   2   3
ENDBRANCH   1   2
BRANCH   1  10
ATOM     10  C   UNL     1      44.840   3.456  20.857  1.00  0.00     0.000 C 
BRANCH  10  11
ATOM     11  C   UNL     1      43.495   2.741  20.612  1.00  0.00    -0.000 C 
BRANCH  11  12
ATOM     12  C   UNL     1      43.514   1.240  20.961  1.00  0.00    -0.000 C 
BRANCH  12  13
ATOM     13  C   UNL     1      43.478   0.920  22.465  1.00  0.00    -0.000 C 
BRANCH  13  14
ATOM     14  C   UNL     1      44.377  -0.270  22.843  1.00  0.00    -0.000 C 
BRANCH  14  15
ATOM     15  C   UNL     1      45.864   0.114  22.903  1.00  0.00    -0.003 C 
ATOM     16  C   UNL     1      46.130   1.319  23.804  1.00  0.00     0.004 C 
ENDBRANCH  14  15
ENDBRANCH  13  14
ENDBRANCH  12  13
ENDBRANCH  11  12
ENDBRANCH  10  11
ENDBRANCH   1  10
TORSDOF 12
ENDMDL
MODEL 5
REMARK VINA RESULT:    -4.307      4.905      7.333
REMARK INTER + INTRA:          -7.951
REMARK INTER:                  -6.760
REMARK INTRA:                  -1.191
REMARK UNBOUND:                -0.622
REMARK SMILES CCCCCCCCCCCCCC(=O)[O-]
REMARK SMILES IDX 8 1 9 2 10 3 11 4 12 5 13 6 14 7 15 8 16 9 7 10 6 11 5 12
REMARK SMILES IDX 4 13 3 14 2 15 1 16
REMARK H PARENT
REMARK Flexibility Score: inf
ROOT
ATOM      1  C   UNL     1      52.504   5.959  18.335  1.00  0.00     0.000 C 
ENDROOT
BRANCH   1   2
ATOM      2  C   UNL     1      51.496   7.110  18.198  1.00  0.00     0.000 C 
BRANCH   2   3
ATOM      3  C   UNL     1      51.274   7.887  19.517  1.00  0.00     0.000 C 
BRANCH   3   4
ATOM      4  C   UNL     1      49.830   7.785  20.044  1.00  0.00     0.000 C 
BRANCH   4   5
ATOM      5  C   UNL     1      49.632   6.674  21.096  1.00  0.00     0.006 C 
BRANCH   5   6
ATOM      6  C   UNL     1      48.609   7.023  22.189  1.00  0.00     0.053 C 
BRANCH   6   7
ATOM      7  C   UNL     1      48.932   8.320  22.865  1.00  0.00     0.041 C 
ATOM      8  O   UNL     1      49.944   8.412  23.608  1.00  0.00    -0.550 OA
ATOM      9  O   UNL     1      48.122   9.430  22.661  1.00  0.00    -0.550 OA
ENDBRANCH   6   7
ENDBRANCH   5   6
ENDBRANCH   4   5
ENDBRANCH   3   4
ENDBRANCH   2   3
ENDBRANCH   1   2
BRANCH   1  10
ATOM     10  C   UNL     1      51.849   4.653  18.815  1.00  0.00     0.000 C 
BRANCH  10  11
ATOM     11  C   UNL     1      52.892   3.596  19.235  1.00  0.00    -0.000 C 
BRANCH  11  12
ATOM     12  C   UNL     1      52.304   2.186  19.440  1.00  0.00    -0.000 C 
BRANCH  12  13
ATOM     13  C   UNL     1      51.507   1.996  20.742  1.00  0.00    -0.000 C 
BRANCH  13  14
ATOM     14  C   UNL     1      49.988   2.121  20.535  1.00  0.00    -0.000 C 
BRANCH  14  15
ATOM     15  C   UNL     1      49.318   2.987  21.613  1.00  0.00    -0.003 C 
ATOM     16  C   UNL     1      50.267   3.357  22.752  1.00  0.00     0.004 C 
ENDBRANCH  14  15
ENDBRANCH  13  14
ENDBRANCH  12  13
ENDBRANCH  11  12
ENDBRANCH  10  11
ENDBRANCH   1  10
TORSDOF 12
ENDMDL
MODEL 6
REMARK VINA RESULT:    -4.304      3.809      8.064
REMARK INTER + INTRA:          -7.946
REMARK INTER:                  -7.145
REMARK INTRA:                  -0.801
REMARK UNBOUND:                -0.622
REMARK SMILES CCCCCCCCCCCCCC(=O)[O-]
REMARK SMILES IDX 8 1 9 2 10 3 11 4 12 5 13 6 14 7 15 8 16 9 7 10 6 11 5 12
REMARK SMILES IDX 4 13 3 14 2 15 1 16
REMARK H PARENT
REMARK Flexibility Score: inf
ROOT
ATOM      1  C   UNL     1      46.974   2.109  19.942  1.00  0.00     0.000 C 
ENDROOT
BRANCH   1   2
ATOM      2  C   UNL     1      45.984   2.834  20.868  1.00  0.00     0.000 C 
BRANCH   2   3
ATOM      3  C   UNL     1      44.726   3.348  20.131  1.00  0.00     0.000 C 
BRANCH   3   4
ATOM      4  C   UNL     1      43.430   2.648  20.584  1.00  0.00     0.000 C 
BRANCH   4   5
ATOM      5  C   UNL     1      43.634   1.174  20.992  1.00  0.00     0.006 C 
BRANCH   5   6
ATOM      6  C   UNL     1      43.113   0.838  22.399  1.00  0.00     0.053 C 
BRANCH   6   7
ATOM      7  C   UNL     1      44.073  -0.024  23.160  1.00  0.00     0.041 C 
ATOM      8  O   UNL     1      45.199  -0.303  22.672  1.00  0.00    -0.550 OA
ATOM      9  O   UNL     1      43.727  -0.508  24.416  1.00  0.00    -0.550 OA
ENDBRANCH   6   7
ENDBRANCH   5   6
ENDBRANCH   4   5
ENDBRANCH   3   4
ENDBRANCH   2   3
ENDBRANCH   1   2
BRANCH   1  10
ATOM     10  C   UNL     1      47.749   0.993  20.664  1.00  0.00     0.000 C 
BRANCH  10  11
ATOM     11  C   UNL     1      48.960   1.538  21.449  1.00  0.00    -0.000 C 
BRANCH  11  12
ATOM     12  C   UNL     1      50.175   1.880  20.563  1.00  0.00    -0.000 C 
BRANCH  12  13
ATOM     13  C   UNL     1      50.652   3.340  20.647  1.00  0.00    -0.000 C 
BRANCH  13  14
ATOM     14  C   UNL     1      51.508   3.757  19.439  1.00  0.00    -0.000 C 
BRANCH  14  15
ATOM     15  C   UNL     1      52.594   2.724  19.104  1.00  0.00    -0.003 C 
ATOM     16  C   UNL     1      53.710   2.675  20.147  1.00  0.00     0.004 C 
ENDBRANCH  14  15
ENDBRANCH  13  14
ENDBRANCH  12  13
ENDBRANCH  11  12
ENDBRANCH  10  11
ENDBRANCH   1  10
TORSDOF 12
ENDMDL
MODEL 7
REMARK VINA RESULT:    -4.290      4.694      7.055
REMARK INTER + INTRA:          -7.922
REMARK INTER:                  -6.909
REMARK INTRA:                  -1.013
REMARK UNBOUND:                -0.622
REMARK SMILES CCCCCCCCCCCCCC(=O)[O-]
REMARK SMILES IDX 8 1 9 2 10 3 11 4 12 5 13 6 14 7 15 8 16 9 7 10 6 11 5 12
REMARK SMILES IDX 4 13 3 14 2 15 1 16
REMARK H PARENT
REMARK Flexibility Score: inf
ROOT
ATOM      1  C   UNL     1      48.868   6.934  22.960  1.00  0.00     0.000 C 
ENDROOT
BRANCH   1   2
ATOM      2  C   UNL     1      48.514   5.612  22.260  1.00  0.00     0.000 C 
BRANCH   2   3
ATOM      3  C   UNL     1      49.582   4.511  22.460  1.00  0.00     0.000 C 
BRANCH   3   4
ATOM      4  C   UNL     1      49.646   3.510  21.292  1.00  0.00     0.000 C 
BRANCH   4   5
ATOM      5  C   UNL     1      50.731   3.846  20.248  1.00  0.00     0.006 C 
BRANCH   5   6
ATOM      6  C   UNL     1      51.545   2.628  19.778  1.00  0.00     0.053 C 
BRANCH   6   7
ATOM      7  C   UNL     1      52.725   2.368  20.664  1.00  0.00     0.041 C 
ATOM      8  O   UNL     1      52.561   1.865  21.806  1.00  0.00    -0.550 OA
ATOM      9  O   UNL     1      54.007   2.668  20.220  1.00  0.00    -0.550 OA
ENDBRANCH   6   7
ENDBRANCH   5   6
ENDBRANCH   4   5
ENDBRANCH   3   4
ENDBRANCH   2   3
ENDBRANCH   1   2
BRANCH   1  10
ATOM     10  C   UNL     1      49.315   8.025  21.972  1.00  0.00     0.000 C 
BRANCH  10  11
ATOM     11  C   UNL     1      49.329   7.520  20.514  1.00  0.00    -0.000 C 
BRANCH  11  12
ATOM     12  C   UNL     1      50.732   7.497  19.876  1.00  0.00    -0.000 C 
BRANCH  12  13
ATOM     13  C   UNL     1      50.919   8.445  18.679  1.00  0.00    -0.000 C 
BRANCH  13  14
ATOM     14  C   UNL     1      49.635   8.618  17.850  1.00  0.00    -0.000 C 
BRANCH  14  15
ATOM     15  C   UNL     1      49.834   8.235  16.375  1.00  0.00    -0.003 C 
ATOM     16  C   UNL     1      50.660   6.962  16.197  1.00  0.00     0.004 C 
ENDBRANCH  14  15
ENDBRANCH  13  14
ENDBRANCH  12  13
ENDBRANCH  11  12
ENDBRANCH  10  11
ENDBRANCH   1  10
TORSDOF 12
ENDMDL
MODEL 8
REMARK VINA RESULT:    -4.278      6.769      8.096
REMARK INTER + INTRA:          -7.901
REMARK INTER:                  -6.627
REMARK INTRA:                  -1.274
REMARK UNBOUND:                -0.622
REMARK SMILES CCCCCCCCCCCCCC(=O)[O-]
REMARK SMILES IDX 8 1 9 2 10 3 11 4 12 5 13 6 14 7 15 8 16 9 7 10 6 11 5 12
REMARK SMILES IDX 4 13 3 14 2 15 1 16
REMARK H PARENT
REMARK Flexibility Score: inf
ROOT
ATOM      1  C   UNL     1      50.282   6.010  25.313  1.00  0.00     0.000 C 
ENDROOT
BRANCH   1   2
ATOM      2  C   UNL     1      50.588   7.412  24.763  1.00  0.00     0.000 C 
BRANCH   2   3
ATOM      3  C   UNL     1      49.809   7.743  23.469  1.00  0.00     0.000 C 
BRANCH   3   4
ATOM      4  C   UNL     1      49.458   6.495  22.637  1.00  0.00     0.000 C 
BRANCH   4   5
ATOM      5  C   UNL     1      49.215   6.796  21.143  1.00  0.00     0.006 C 
BRANCH   5   6
ATOM      6  C   UNL     1      49.552   8.239  20.733  1.00  0.00     0.053 C 
BRANCH   6   7
ATOM      7  C   UNL     1      50.696   8.294  19.767  1.00  0.00     0.041 C 
ATOM      8  O   UNL     1      51.586   7.404  19.788  1.00  0.00    -0.550 OA
ATOM      9  O   UNL     1      50.769   9.321  18.834  1.00  0.00    -0.550 OA
ENDBRANCH   6   7
ENDBRANCH   5   6
ENDBRANCH   4   5
ENDBRANCH   3   4
ENDBRANCH   2   3
ENDBRANCH   1   2
BRANCH   1  10
ATOM     10  C   UNL     1      50.348   5.950  26.849  1.00  0.00     0.000 C 
BRANCH  10  11
ATOM     11  C   UNL     1      48.959   6.118  27.500  1.00  0.00    -0.000 C 
BRANCH  11  12
ATOM     12  C   UNL     1      48.706   7.528  28.072  1.00  0.00    -0.000 C 
BRANCH  12  13
ATOM     13  C   UNL     1      47.384   8.181  27.633  1.00  0.00    -0.000 C 
BRANCH  13  14
ATOM     14  C   UNL     1      47.149   8.088  26.115  1.00  0.00    -0.000 C 
BRANCH  14  15
ATOM     15  C   UNL     1      46.456   9.337  25.551  1.00  0.00    -0.003 C 
ATOM     16  C   UNL     1      47.329  10.104  24.558  1.00  0.00     0.004 C 
ENDBRANCH  14  15
ENDBRANCH  13  14
ENDBRANCH  12  13
ENDBRANCH  11  12
ENDBRANCH  10  11
ENDBRANCH   1  10
TORSDOF 12
ENDMDL
MODEL 9
REMARK VINA RESULT:    -4.205      6.078      7.721
REMARK INTER + INTRA:          -7.777
REMARK INTER:                  -6.317
REMARK INTRA:                  -1.460
REMARK UNBOUND:                -0.622
REMARK SMILES CCCCCCCCCCCCCC(=O)[O-]
REMARK SMILES IDX 8 1 9 2 10 3 11 4 12 5 13 6 14 7 15 8 16 9 7 10 6 11 5 12
REMARK SMILES IDX 4 13 3 14 2 15 1 16
REMARK H PARENT
REMARK Flexibility Score: inf
ROOT
ATOM      1  C   UNL     1      49.767   4.821  23.613  1.00  0.00     0.000 C 
ENDROOT
BRANCH   1   2
ATOM      2  C   UNL     1      48.733   5.448  22.665  1.00  0.00     0.000 C 
BRANCH   2   3
ATOM      3  C   UNL     1      49.343   5.922  21.325  1.00  0.00     0.000 C 
BRANCH   3   4
ATOM      4  C   UNL     1      48.910   7.347  20.933  1.00  0.00     0.000 C 
BRANCH   4   5
ATOM      5  C   UNL     1      50.092   8.292  20.633  1.00  0.00     0.006 C 
BRANCH   5   6
ATOM      6  C   UNL     1      49.992   9.007  19.276  1.00  0.00     0.053 C 
BRANCH   6   7
ATOM      7  C   UNL     1      50.497   8.152  18.154  1.00  0.00     0.041 C 
ATOM      8  O   UNL     1      50.032   8.292  16.992  1.00  0.00    -0.550 OA
ATOM      9  O   UNL     1      51.490   7.209  18.391  1.00  0.00    -0.550 OA
ENDBRANCH   6   7
ENDBRANCH   5   6
ENDBRANCH   4   5
ENDBRANCH   3   4
ENDBRANCH   2   3
ENDBRANCH   1   2
BRANCH   1  10
ATOM     10  C   UNL     1      49.655   5.360  25.049  1.00  0.00     0.000 C 
BRANCH  10  11
ATOM     11  C   UNL     1      50.673   6.485  25.331  1.00  0.00    -0.000 C 
BRANCH  11  12
ATOM     12  C   UNL     1      50.026   7.861  25.586  1.00  0.00    -0.000 C 
BRANCH  12  13
ATOM     13  C   UNL     1      50.061   8.828  24.390  1.00  0.00    -0.000 C 
BRANCH  13  14
ATOM     14  C   UNL     1      48.660   9.302  23.965  1.00  0.00    -0.000 C 
BRANCH  14  15
ATOM     15  C   UNL     1      47.592   9.000  25.026  1.00  0.00    -0.003 C 
ATOM     16  C   UNL     1      46.189   9.427  24.595  1.00  0.00     0.004 C 
ENDBRANCH  14  15
ENDBRANCH  13  14
ENDBRANCH  12  13
ENDBRANCH  11  12
ENDBRANCH  10  11
ENDBRANCH   1  10
TORSDOF 12
ENDMDL
