MODEL 1
REMARK VINA RESULT:    -3.238      0.000      0.000
REMARK INTER + INTRA:          -3.347
REMARK INTER:                  -3.806
REMARK INTRA:                   0.459
REMARK UNBOUND:                 0.459
REMARK SMILES O=c1c(O)c(-c2ccc(O)cc2)oc2cc(O)cc(O)c12
REMARK SMILES IDX 5 1 3 2 2 3 1 4 21 5 19 6 18 7 16 8 15 9 14 10 13 11 6 12
REMARK SMILES IDX 7 13 8 14 9 15 12 16 11 17 10 18 4 20 20 22 17 24
REMARK H PARENT 10 19 4 21 20 23 17 25
REMARK Flexibility Score: inf
ROOT
ATOM      1  C   UNL     1      20.290 -17.285   1.489  1.00  0.00     0.180 A 
ATOM      2  C   UNL     1      20.553 -15.996   0.994  1.00  0.00     0.208 A 
ATOM      3  C   UNL     1      20.688 -14.932   1.902  1.00  0.00     0.238 A 
ATOM      4  O   UNL     1      20.870 -13.772   1.450  1.00  0.00    -0.285 OA
ATOM      5  C   UNL     1      20.574 -15.174   3.292  1.00  0.00     0.111 A 
ATOM      6  C   UNL     1      20.731 -14.179   4.303  1.00  0.00     0.134 A 
ATOM      7  C   UNL     1      20.467 -14.505   5.639  1.00  0.00     0.093 A 
ATOM      8  C   UNL     1      20.116 -15.801   6.009  1.00  0.00     0.123 A 
ATOM      9  C   UNL     1      20.016 -16.797   5.035  1.00  0.00     0.094 A 
ATOM     10  C   UNL     1      20.238 -16.495   3.689  1.00  0.00     0.146 A 
ATOM     11  O   UNL     1      20.123 -17.467   2.793  1.00  0.00    -0.452 OA
ENDROOT
BRANCH   1  12
ATOM     12  C   UNL     1      20.161 -18.460   0.597  1.00  0.00     0.021 A 
ATOM     13  C   UNL     1      19.992 -18.311  -0.791  1.00  0.00     0.016 A 
ATOM     14  C   UNL     1      19.896 -19.437  -1.617  1.00  0.00     0.047 A 
ATOM     15  C   UNL     1      19.982 -20.720  -1.070  1.00  0.00     0.115 A 
ATOM     16  C   UNL     1      20.268 -19.753   1.137  1.00  0.00     0.016 A 
ATOM     17  C   UNL     1      20.172 -20.877   0.310  1.00  0.00     0.047 A 
BRANCH  15  18
ATOM     18  O   UNL     1      19.885 -21.832  -1.903  1.00  0.00    -0.508 OA
ATOM     19  H   UNL     1      19.694 -22.756  -1.533  1.00  0.00     0.293 HD
ENDBRANCH  15  18
ENDBRANCH   1  12
BRANCH   2  20
ATOM     20  O   UNL     1      20.641 -15.775  -0.383  1.00  0.00    -0.502 OA
ATOM     21  H   UNL     1      20.941 -16.494  -1.031  1.00  0.00     0.293 HD
ENDBRANCH   2  20
BRANCH   6  22
ATOM     22  O   UNL     1      21.169 -12.875   4.053  1.00  0.00    -0.507 OA
ATOM     23  H   UNL     1      22.130 -12.573   4.097  1.00  0.00     0.293 HD
ENDBRANCH   6  22
BRANCH   8  24
ATOM     24  O   UNL     1      19.875 -16.093   7.349  1.00  0.00    -0.508 OA
ATOM     25  H   UNL     1      20.319 -15.569   8.095  1.00  0.00     0.293 HD
ENDBRANCH   8  24
TORSDOF 5
ENDMDL
MODEL 2
REMARK VINA RESULT:    -3.042      1.475      6.532
REMARK INTER + INTRA:          -3.116
REMARK INTER:                  -3.283
REMARK INTRA:                   0.167
REMARK UNBOUND:                 0.459
REMARK SMILES O=c1c(O)c(-c2ccc(O)cc2)oc2cc(O)cc(O)c12
REMARK SMILES IDX 5 1 3 2 2 3 1 4 21 5 19 6 18 7 16 8 15 9 14 10 13 11 6 12
REMARK SMILES IDX 7 13 8 14 9 15 12 16 11 17 10 18 4 20 20 22 17 24
REMARK H PARENT 10 19 4 21 20 23 17 25
REMARK Flexibility Score: inf
ROOT
ATOM      1  C   UNL     1      20.455 -15.439   2.837  1.00  0.00     0.180 A 
ATOM      2  C   UNL     1      20.470 -14.726   1.626  1.00  0.00     0.208 A 
ATOM      3  C   UNL     1      20.361 -15.434   0.418  1.00  0.00     0.238 A 
ATOM      4  O   UNL     1      20.429 -14.796  -0.664  1.00  0.00    -0.285 OA
ATOM      5  C   UNL     1      20.223 -16.843   0.436  1.00  0.00     0.111 A 
ATOM      6  C   UNL     1      20.066 -17.658  -0.725  1.00  0.00     0.134 A 
ATOM      7  C   UNL     1      20.070 -19.052  -0.596  1.00  0.00     0.093 A 
ATOM      8  C   UNL     1      20.160 -19.660   0.655  1.00  0.00     0.123 A 
ATOM      9  C   UNL     1      20.254 -18.872   1.804  1.00  0.00     0.094 A 
ATOM     10  C   UNL     1      20.290 -17.478   1.704  1.00  0.00     0.146 A 
ATOM     11  O   UNL     1      20.391 -16.765   2.819  1.00  0.00    -0.452 OA
ENDROOT
BRANCH   1  12
ATOM     12  C   UNL     1      20.539 -14.762   4.151  1.00  0.00     0.021 A 
ATOM     13  C   UNL     1      19.888 -13.537   4.387  1.00  0.00     0.016 A 
ATOM     14  C   UNL     1      19.962 -12.928   5.645  1.00  0.00     0.047 A 
ATOM     15  C   UNL     1      20.673 -13.538   6.682  1.00  0.00     0.115 A 
ATOM     16  C   UNL     1      21.235 -15.379   5.205  1.00  0.00     0.016 A 
ATOM     17  C   UNL     1      21.308 -14.768   6.460  1.00  0.00     0.047 A 
BRANCH  15  18
ATOM     18  O   UNL     1      20.740 -12.920   7.928  1.00  0.00    -0.508 OA
ATOM     19  H   UNL     1      20.906 -13.451   8.775  1.00  0.00     0.293 HD
ENDBRANCH  15  18
ENDBRANCH   1  12
BRANCH   2  20
ATOM     20  O   UNL     1      20.629 -13.338   1.629  1.00  0.00    -0.502 OA
ATOM     21  H   UNL     1      20.004 -12.720   2.134  1.00  0.00     0.293 HD
ENDBRANCH   2  20
BRANCH   6  22
ATOM     22  O   UNL     1      19.875 -17.150  -2.013  1.00  0.00    -0.507 OA
ATOM     23  H   UNL     1      20.380 -16.370  -2.405  1.00  0.00     0.293 HD
ENDBRANCH   6  22
BRANCH   8  24
ATOM     24  O   UNL     1      20.145 -21.049   0.747  1.00  0.00    -0.508 OA
ATOM     25  H   UNL     1      20.918 -21.612   0.411  1.00  0.00     0.293 HD
ENDBRANCH   8  24
TORSDOF 5
ENDMDL
MODEL 3
REMARK VINA RESULT:    -2.597      2.326      7.193
REMARK INTER + INTRA:          -2.593
REMARK INTER:                  -2.526
REMARK INTRA:                  -0.067
REMARK UNBOUND:                 0.459
REMARK SMILES O=c1c(O)c(-c2ccc(O)cc2)oc2cc(O)cc(O)c12
REMARK SMILES IDX 5 1 3 2 2 3 1 4 21 5 19 6 18 7 16 8 15 9 14 10 13 11 6 12
REMARK SMILES IDX 7 13 8 14 9 15 12 16 11 17 10 18 4 20 20 22 17 24
REMARK H PARENT 10 19 4 21 20 23 17 25
REMARK Flexibility Score: inf
ROOT
ATOM      1  C   UNL     1      20.871 -15.110   3.951  1.00  0.00     0.180 A 
ATOM      2  C   UNL     1      20.609 -16.484   3.812  1.00  0.00     0.208 A 
ATOM      3  C   UNL     1      20.300 -16.994   2.540  1.00  0.00     0.238 A 
ATOM      4  O   UNL     1      20.014 -18.214   2.432  1.00  0.00    -0.285 OA
ATOM      5  C   UNL     1      20.271 -16.127   1.422  1.00  0.00     0.111 A 
ATOM      6  C   UNL     1      20.008 -16.541   0.082  1.00  0.00     0.134 A 
ATOM      7  C   UNL     1      19.875 -15.577  -0.925  1.00  0.00     0.093 A 
ATOM      8  C   UNL     1      20.060 -14.222  -0.655  1.00  0.00     0.123 A 
ATOM      9  C   UNL     1      20.377 -13.810   0.641  1.00  0.00     0.094 A 
ATOM     10  C   UNL     1      20.479 -14.745   1.674  1.00  0.00     0.146 A 
ATOM     11  O   UNL     1      20.772 -14.312   2.895  1.00  0.00    -0.452 OA
ENDROOT
BRANCH   1  12
ATOM     12  C   UNL     1      21.230 -14.504   5.253  1.00  0.00     0.021 A 
ATOM     13  C   UNL     1      20.430 -13.511   5.846  1.00  0.00     0.016 A 
ATOM     14  C   UNL     1      20.777 -12.971   7.088  1.00  0.00     0.047 A 
ATOM     15  C   UNL     1      21.917 -13.423   7.759  1.00  0.00     0.115 A 
ATOM     16  C   UNL     1      22.364 -14.969   5.943  1.00  0.00     0.016 A 
ATOM     17  C   UNL     1      22.709 -14.427   7.185  1.00  0.00     0.047 A 
BRANCH  15  18
ATOM     18  O   UNL     1      22.252 -12.875   8.995  1.00  0.00    -0.508 OA
ATOM     19  H   UNL     1      22.066 -11.903   9.212  1.00  0.00     0.293 HD
ENDBRANCH  15  18
ENDBRANCH   1  12
BRANCH   2  20
ATOM     20  O   UNL     1      20.622 -17.320   4.933  1.00  0.00    -0.502 OA
ATOM     21  H   UNL     1      20.967 -18.272   4.898  1.00  0.00     0.293 HD
ENDBRANCH   2  20
BRANCH   6  22
ATOM     22  O   UNL     1      19.897 -17.877  -0.314  1.00  0.00    -0.507 OA
ATOM     23  H   UNL     1      19.984 -18.204  -1.264  1.00  0.00     0.293 HD
ENDBRANCH   6  22
BRANCH   8  24
ATOM     24  O   UNL     1      19.936 -13.292  -1.684  1.00  0.00    -0.508 OA
ATOM     25  H   UNL     1      20.614 -13.239  -2.436  1.00  0.00     0.293 HD
ENDBRANCH   8  24
TORSDOF 5
ENDMDL
MODEL 4
REMARK VINA RESULT:    -1.807      1.849      6.736
REMARK INTER + INTRA:          -1.664
REMARK INTER:                  -2.198
REMARK INTRA:                   0.534
REMARK UNBOUND:                 0.459
REMARK SMILES O=c1c(O)c(-c2ccc(O)cc2)oc2cc(O)cc(O)c12
REMARK SMILES IDX 5 1 3 2 2 3 1 4 21 5 19 6 18 7 16 8 15 9 14 10 13 11 6 12
REMARK SMILES IDX 7 13 8 14 9 15 12 16 11 17 10 18 4 20 20 22 17 24
REMARK H PARENT 10 19 4 21 20 23 17 25
REMARK Flexibility Score: inf
ROOT
ATOM      1  C   UNL     1      21.345 -15.117   3.623  1.00  0.00     0.180 A 
ATOM      2  C   UNL     1      21.316 -14.216   2.545  1.00  0.00     0.208 A 
ATOM      3  C   UNL     1      20.940 -14.685   1.276  1.00  0.00     0.238 A 
ATOM      4  O   UNL     1      20.968 -13.886   0.304  1.00  0.00    -0.285 OA
ATOM      5  C   UNL     1      20.582 -16.044   1.104  1.00  0.00     0.111 A 
ATOM      6  C   UNL     1      20.148 -16.618  -0.128  1.00  0.00     0.134 A 
ATOM      7  C   UNL     1      19.946 -18.002  -0.212  1.00  0.00     0.093 A 
ATOM      8  C   UNL     1      20.099 -18.821   0.905  1.00  0.00     0.123 A 
ATOM      9  C   UNL     1      20.467 -18.262   2.131  1.00  0.00     0.094 A 
ATOM     10  C   UNL     1      20.711 -16.890   2.237  1.00  0.00     0.146 A 
ATOM     11  O   UNL     1      21.068 -16.399   3.417  1.00  0.00    -0.452 OA
ENDROOT
BRANCH   1  12
ATOM     12  C   UNL     1      21.705 -14.692   4.995  1.00  0.00     0.021 A 
ATOM     13  C   UNL     1      22.014 -15.631   5.996  1.00  0.00     0.016 A 
ATOM     14  C   UNL     1      22.375 -15.204   7.279  1.00  0.00     0.047 A 
ATOM     15  C   UNL     1      22.445 -13.840   7.573  1.00  0.00     0.115 A 
ATOM     16  C   UNL     1      21.798 -13.321   5.293  1.00  0.00     0.016 A 
ATOM     17  C   UNL     1      22.158 -12.898   6.576  1.00  0.00     0.047 A 
BRANCH  15  18
ATOM     18  O   UNL     1      22.804 -13.429   8.855  1.00  0.00    -0.508 OA
ATOM     19  H   UNL     1      22.207 -12.821   9.403  1.00  0.00     0.293 HD
ENDBRANCH  15  18
ENDBRANCH   1  12
BRANCH   2  20
ATOM     20  O   UNL     1      21.693 -12.883   2.732  1.00  0.00    -0.502 OA
ATOM     21  H   UNL     1      22.649 -12.567   2.618  1.00  0.00     0.293 HD
ENDBRANCH   2  20
BRANCH   6  22
ATOM     22  O   UNL     1      19.875 -15.876  -1.281  1.00  0.00    -0.507 OA
ATOM     23  H   UNL     1      20.545 -15.298  -1.765  1.00  0.00     0.293 HD
ENDBRANCH   6  22
BRANCH   8  24
ATOM     24  O   UNL     1      19.875 -20.191   0.789  1.00  0.00    -0.508 OA
ATOM     25  H   UNL     1      19.282 -20.572   0.061  1.00  0.00     0.293 HD
ENDBRANCH   8  24
TORSDOF 5
ENDMDL
MODEL 5
REMARK VINA RESULT:    -1.708      2.554      3.641
REMARK INTER + INTRA:          -1.549
REMARK INTER:                  -1.446
REMARK INTRA:                  -0.102
REMARK UNBOUND:                 0.459
REMARK SMILES O=c1c(O)c(-c2ccc(O)cc2)oc2cc(O)cc(O)c12
REMARK SMILES IDX 5 1 3 2 2 3 1 4 21 5 19 6 18 7 16 8 15 9 14 10 13 11 6 12
REMARK SMILES IDX 7 13 8 14 9 15 12 16 11 17 10 18 4 20 20 22 17 24
REMARK H PARENT 10 19 4 21 20 23 17 25
REMARK Flexibility Score: inf
ROOT
ATOM      1  C   UNL     1      21.224 -15.937   4.057  1.00  0.00     0.180 A 
ATOM      2  C   UNL     1      20.763 -14.645   4.360  1.00  0.00     0.208 A 
ATOM      3  C   UNL     1      21.171 -14.041   5.561  1.00  0.00     0.238 A 
ATOM      4  O   UNL     1      20.711 -12.906   5.853  1.00  0.00    -0.285 OA
ATOM      5  C   UNL     1      22.046 -14.730   6.434  1.00  0.00     0.111 A 
ATOM      6  C   UNL     1      22.554 -14.199   7.658  1.00  0.00     0.134 A 
ATOM      7  C   UNL     1      23.308 -15.019   8.506  1.00  0.00     0.093 A 
ATOM      8  C   UNL     1      23.627 -16.327   8.147  1.00  0.00     0.123 A 
ATOM      9  C   UNL     1      23.185 -16.839   6.925  1.00  0.00     0.094 A 
ATOM     10  C   UNL     1      22.400 -16.057   6.074  1.00  0.00     0.146 A 
ATOM     11  O   UNL     1      21.991 -16.583   4.926  1.00  0.00    -0.452 OA
ENDROOT
BRANCH   1  12
ATOM     12  C   UNL     1      20.859 -16.628   2.799  1.00  0.00     0.021 A 
ATOM     13  C   UNL     1      21.168 -16.076   1.543  1.00  0.00     0.016 A 
ATOM     14  C   UNL     1      20.835 -16.759   0.368  1.00  0.00     0.047 A 
ATOM     15  C   UNL     1      20.203 -18.004   0.433  1.00  0.00     0.115 A 
ATOM     16  C   UNL     1      20.242 -17.890   2.857  1.00  0.00     0.016 A 
ATOM     17  C   UNL     1      19.909 -18.571   1.681  1.00  0.00     0.047 A 
BRANCH  15  18
ATOM     18  O   UNL     1      19.875 -18.673  -0.744  1.00  0.00    -0.508 OA
ATOM     19  H   UNL     1      20.065 -19.661  -0.862  1.00  0.00     0.293 HD
ENDBRANCH  15  18
ENDBRANCH   1  12
BRANCH   2  20
ATOM     20  O   UNL     1      19.882 -13.991   3.495  1.00  0.00    -0.502 OA
ATOM     21  H   UNL     1      19.246 -14.490   2.884  1.00  0.00     0.293 HD
ENDBRANCH   2  20
BRANCH   6  22
ATOM     22  O   UNL     1      22.372 -12.875   8.068  1.00  0.00    -0.507 OA
ATOM     23  H   UNL     1      21.846 -12.182   7.559  1.00  0.00     0.293 HD
ENDBRANCH   6  22
BRANCH   8  24
ATOM     24  O   UNL     1      24.393 -17.110   9.008  1.00  0.00    -0.508 OA
ATOM     25  H   UNL     1      24.212 -17.135  10.005  1.00  0.00     0.293 HD
ENDBRANCH   8  24
TORSDOF 5
ENDMDL
MODEL 6
REMARK VINA RESULT:    -0.429      2.329      6.637
REMARK INTER + INTRA:          -0.044
REMARK INTER:                  -0.046
REMARK INTRA:                   0.001
REMARK UNBOUND:                 0.459
REMARK SMILES O=c1c(O)c(-c2ccc(O)cc2)oc2cc(O)cc(O)c12
REMARK SMILES IDX 5 1 3 2 2 3 1 4 21 5 19 6 18 7 16 8 15 9 14 10 13 11 6 12
REMARK SMILES IDX 7 13 8 14 9 15 12 16 11 17 10 18 4 20 20 22 17 24
REMARK H PARENT 10 19 4 21 20 23 17 25
REMARK Flexibility Score: inf
ROOT
ATOM      1  C   UNL     1      21.756 -15.485   4.725  1.00  0.00     0.180 A 
ATOM      2  C   UNL     1      21.676 -14.196   4.171  1.00  0.00     0.208 A 
ATOM      3  C   UNL     1      21.183 -14.045   2.865  1.00  0.00     0.238 A 
ATOM      4  O   UNL     1      21.165 -12.895   2.355  1.00  0.00    -0.285 OA
ATOM      5  C   UNL     1      20.762 -15.183   2.135  1.00  0.00     0.111 A 
ATOM      6  C   UNL     1      20.210 -15.144   0.820  1.00  0.00     0.134 A 
ATOM      7  C   UNL     1      19.950 -16.342   0.144  1.00  0.00     0.093 A 
ATOM      8  C   UNL     1      20.160 -17.576   0.758  1.00  0.00     0.123 A 
ATOM      9  C   UNL     1      20.644 -17.626   2.066  1.00  0.00     0.094 A 
ATOM     10  C   UNL     1      20.947 -16.447   2.753  1.00  0.00     0.146 A 
ATOM     11  O   UNL     1      21.416 -16.538   3.992  1.00  0.00    -0.452 OA
ENDROOT
BRANCH   1  12
ATOM     12  C   UNL     1      22.240 -15.721   6.105  1.00  0.00     0.021 A 
ATOM     13  C   UNL     1      21.717 -15.006   7.197  1.00  0.00     0.016 A 
ATOM     14  C   UNL     1      22.173 -15.263   8.494  1.00  0.00     0.047 A 
ATOM     15  C   UNL     1      23.144 -16.244   8.718  1.00  0.00     0.115 A 
ATOM     16  C   UNL     1      23.201 -16.720   6.339  1.00  0.00     0.016 A 
ATOM     17  C   UNL     1      23.655 -16.975   7.637  1.00  0.00     0.047 A 
BRANCH  15  18
ATOM     18  O   UNL     1      23.590 -16.489  10.014  1.00  0.00    -0.508 OA
ATOM     19  H   UNL     1      24.286 -17.199  10.209  1.00  0.00     0.293 HD
ENDBRANCH  15  18
ENDBRANCH   1  12
BRANCH   2  20
ATOM     20  O   UNL     1      22.117 -13.088   4.901  1.00  0.00    -0.502 OA
ATOM     21  H   UNL     1      23.099 -12.871   5.021  1.00  0.00     0.293 HD
ENDBRANCH   2  20
BRANCH   6  22
ATOM     22  O   UNL     1      19.875 -13.963   0.149  1.00  0.00    -0.507 OA
ATOM     23  H   UNL     1      19.031 -13.434   0.305  1.00  0.00     0.293 HD
ENDBRANCH   6  22
BRANCH   8  24
ATOM     24  O   UNL     1      19.875 -18.748   0.061  1.00  0.00    -0.508 OA
ATOM     25  H   UNL     1      20.385 -19.005  -0.776  1.00  0.00     0.293 HD
ENDBRANCH   8  24
TORSDOF 5
ENDMDL
