MODEL 1
REMARK VINA RESULT:    -7.496      0.000      0.000
REMARK INTER + INTRA:          -9.343
REMARK INTER:                  -9.030
REMARK INTRA:                  -0.313
REMARK UNBOUND:                -0.313
REMARK SMILES O=c1c(O)c(-c2ccc(O)c(O)c2)oc2cc(O)cc(O)c12
REMARK SMILES IDX 5 1 3 2 2 3 1 4 22 5 20 6 19 7 17 8 16 9 15 10 14 11 6 12
REMARK SMILES IDX 7 13 8 14 9 15 13 16 11 17 10 18 12 20 4 22 21 24 18 26
REMARK H PARENT 10 19 12 21 4 23 21 25 18 27
REMARK Flexibility Score: inf
ROOT
ATOM      1  C   UNL     1      12.823  21.225  29.243  1.00  0.00     0.180 A 
ATOM      2  C   UNL     1      13.820  20.919  30.185  1.00  0.00     0.208 A 
ATOM      3  C   UNL     1      15.166  20.962  29.789  1.00  0.00     0.238 A 
ATOM      4  O   UNL     1      16.052  20.634  30.623  1.00  0.00    -0.285 OA
ATOM      5  C   UNL     1      15.500  21.326  28.462  1.00  0.00     0.111 A 
ATOM      6  C   UNL     1      16.832  21.441  27.964  1.00  0.00     0.134 A 
ATOM      7  C   UNL     1      17.041  21.680  26.600  1.00  0.00     0.093 A 
ATOM      8  C   UNL     1      15.966  21.873  25.730  1.00  0.00     0.123 A 
ATOM      9  C   UNL     1      14.662  21.822  26.219  1.00  0.00     0.094 A 
ATOM     10  C   UNL     1      14.421  21.549  27.567  1.00  0.00     0.146 A 
ATOM     11  O   UNL     1      13.164  21.498  27.989  1.00  0.00    -0.452 OA
ENDROOT
BRANCH   1  12
ATOM     12  C   UNL     1      11.384  21.225  29.592  1.00  0.00     0.025 A 
ATOM     13  C   UNL     1      10.627  20.039  29.580  1.00  0.00     0.016 A 
ATOM     14  C   UNL     1       9.276  20.060  29.937  1.00  0.00     0.051 A 
ATOM     15  C   UNL     1       8.665  21.260  30.323  1.00  0.00     0.157 A 
ATOM     16  C   UNL     1      10.771  22.421  30.001  1.00  0.00     0.062 A 
ATOM     17  C   UNL     1       9.415  22.443  30.358  1.00  0.00     0.158 A 
BRANCH  15  18
ATOM     18  O   UNL     1       7.318  21.284  30.678  1.00  0.00    -0.504 OA
ATOM     19  H   UNL     1       6.585  21.215  29.982  1.00  0.00     0.293 HD
ENDBRANCH  15  18
BRANCH  17  20
ATOM     20  O   UNL     1       8.807  23.633  30.750  1.00  0.00    -0.504 OA
ATOM     21  H   UNL     1       7.992  23.639  31.353  1.00  0.00     0.293 HD
ENDBRANCH  17  20
ENDBRANCH   1  12
BRANCH   2  22
ATOM     22  O   UNL     1      13.468  20.542  31.484  1.00  0.00    -0.502 OA
ATOM     23  H   UNL     1      12.505  20.462  31.785  1.00  0.00     0.293 HD
ENDBRANCH   2  22
BRANCH   6  24
ATOM     24  O   UNL     1      17.975  21.357  28.765  1.00  0.00    -0.507 OA
ATOM     25  H   UNL     1      18.445  22.148  29.179  1.00  0.00     0.293 HD
ENDBRANCH   6  24
BRANCH   8  26
ATOM     26  O   UNL     1      16.183  22.127  24.377  1.00  0.00    -0.508 OA
ATOM     27  H   UNL     1      17.039  22.559  24.049  1.00  0.00     0.293 HD
ENDBRANCH   8  26
TORSDOF 6
ENDMDL
MODEL 2
REMARK VINA RESULT:    -6.862      2.188      3.434
REMARK INTER + INTRA:          -8.579
REMARK INTER:                  -8.340
REMARK INTRA:                  -0.239
REMARK UNBOUND:                -0.313
REMARK SMILES O=c1c(O)c(-c2ccc(O)c(O)c2)oc2cc(O)cc(O)c12
REMARK SMILES IDX 5 1 3 2 2 3 1 4 22 5 20 6 19 7 17 8 16 9 15 10 14 11 6 12
REMARK SMILES IDX 7 13 8 14 9 15 13 16 11 17 10 18 12 20 4 22 21 24 18 26
REMARK H PARENT 10 19 12 21 4 23 21 25 18 27
REMARK Flexibility Score: inf
ROOT
ATOM      1  C   UNL     1      13.014  22.394  30.414  1.00  0.00     0.180 A 
ATOM      2  C   UNL     1      13.533  23.452  29.649  1.00  0.00     0.208 A 
ATOM      3  C   UNL     1      14.891  23.435  29.294  1.00  0.00     0.238 A 
ATOM      4  O   UNL     1      15.361  24.413  28.655  1.00  0.00    -0.285 OA
ATOM      5  C   UNL     1      15.709  22.351  29.694  1.00  0.00     0.111 A 
ATOM      6  C   UNL     1      17.089  22.211  29.356  1.00  0.00     0.134 A 
ATOM      7  C   UNL     1      17.834  21.164  29.916  1.00  0.00     0.093 A 
ATOM      8  C   UNL     1      17.232  20.218  30.749  1.00  0.00     0.123 A 
ATOM      9  C   UNL     1      15.873  20.313  31.036  1.00  0.00     0.094 A 
ATOM     10  C   UNL     1      15.112  21.366  30.522  1.00  0.00     0.146 A 
ATOM     11  O   UNL     1      13.822  21.425  30.830  1.00  0.00    -0.452 OA
ENDROOT
BRANCH   1  12
ATOM     12  C   UNL     1      11.588  22.330  30.806  1.00  0.00     0.025 A 
ATOM     13  C   UNL     1      11.059  23.186  31.789  1.00  0.00     0.016 A 
ATOM     14  C   UNL     1       9.704  23.125  32.125  1.00  0.00     0.051 A 
ATOM     15  C   UNL     1       8.855  22.219  31.475  1.00  0.00     0.157 A 
ATOM     16  C   UNL     1      10.727  21.439  30.142  1.00  0.00     0.062 A 
ATOM     17  C   UNL     1       9.367  21.377  30.480  1.00  0.00     0.158 A 
BRANCH  15  18
ATOM     18  O   UNL     1       7.504  22.155  31.809  1.00  0.00    -0.504 OA
ATOM     19  H   UNL     1       6.810  21.824  31.149  1.00  0.00     0.293 HD
ENDBRANCH  15  18
BRANCH  17  20
ATOM     20  O   UNL     1       8.519  20.482  29.831  1.00  0.00    -0.504 OA
ATOM     21  H   UNL     1       7.693  20.799  29.335  1.00  0.00     0.293 HD
ENDBRANCH  17  20
ENDBRANCH   1  12
BRANCH   2  22
ATOM     22  O   UNL     1      12.712  24.523  29.282  1.00  0.00    -0.502 OA
ATOM     23  H   UNL     1      12.698  25.398  29.792  1.00  0.00     0.293 HD
ENDBRANCH   2  22
BRANCH   6  24
ATOM     24  O   UNL     1      17.763  23.047  28.461  1.00  0.00    -0.507 OA
ATOM     25  H   UNL     1      17.888  24.039  28.586  1.00  0.00     0.293 HD
ENDBRANCH   6  24
BRANCH   8  26
ATOM     26  O   UNL     1      17.977  19.171  31.289  1.00  0.00    -0.508 OA
ATOM     27  H   UNL     1      17.638  18.630  32.076  1.00  0.00     0.293 HD
ENDBRANCH   8  26
TORSDOF 6
ENDMDL
MODEL 3
REMARK VINA RESULT:    -6.485      1.473      1.905
REMARK INTER + INTRA:          -8.125
REMARK INTER:                  -7.804
REMARK INTRA:                  -0.321
REMARK UNBOUND:                -0.313
REMARK SMILES O=c1c(O)c(-c2ccc(O)c(O)c2)oc2cc(O)cc(O)c12
REMARK SMILES IDX 5 1 3 2 2 3 1 4 22 5 20 6 19 7 17 8 16 9 15 10 14 11 6 12
REMARK SMILES IDX 7 13 8 14 9 15 13 16 11 17 10 18 12 20 4 22 21 24 18 26
REMARK H PARENT 10 19 12 21 4 23 21 25 18 27
REMARK Flexibility Score: inf
ROOT
ATOM      1  C   UNL     1      13.039  21.826  30.221  1.00  0.00     0.180 A 
ATOM      2  C   UNL     1      13.940  20.885  30.751  1.00  0.00     0.208 A 
ATOM      3  C   UNL     1      15.264  20.874  30.287  1.00  0.00     0.238 A 
ATOM      4  O   UNL     1      16.051  19.994  30.725  1.00  0.00    -0.285 OA
ATOM      5  C   UNL     1      15.677  21.813  29.311  1.00  0.00     0.111 A 
ATOM      6  C   UNL     1      17.005  21.918  28.797  1.00  0.00     0.134 A 
ATOM      7  C   UNL     1      17.268  22.797  27.739  1.00  0.00     0.093 A 
ATOM      8  C   UNL     1      16.266  23.621  27.221  1.00  0.00     0.123 A 
ATOM      9  C   UNL     1      14.981  23.568  27.756  1.00  0.00     0.094 A 
ATOM     10  C   UNL     1      14.679  22.675  28.787  1.00  0.00     0.146 A 
ATOM     11  O   UNL     1      13.439  22.650  29.260  1.00  0.00    -0.452 OA
ENDROOT
BRANCH   1  12
ATOM     12  C   UNL     1      11.634  21.915  30.679  1.00  0.00     0.025 A 
ATOM     13  C   UNL     1      11.247  22.819  31.684  1.00  0.00     0.016 A 
ATOM     14  C   UNL     1       9.910  22.903  32.082  1.00  0.00     0.051 A 
ATOM     15  C   UNL     1       8.940  22.096  31.474  1.00  0.00     0.157 A 
ATOM     16  C   UNL     1      10.653  21.124  30.057  1.00  0.00     0.062 A 
ATOM     17  C   UNL     1       9.311  21.207  30.457  1.00  0.00     0.158 A 
BRANCH  15  18
ATOM     18  O   UNL     1       7.606  22.177  31.870  1.00  0.00    -0.504 OA
ATOM     19  H   UNL     1       6.994  21.370  31.837  1.00  0.00     0.293 HD
ENDBRANCH  15  18
BRANCH  17  20
ATOM     20  O   UNL     1       8.343  20.411  29.850  1.00  0.00    -0.504 OA
ATOM     21  H   UNL     1       7.611  20.813  29.274  1.00  0.00     0.293 HD
ENDBRANCH  17  20
ENDBRANCH   1  12
BRANCH   2  22
ATOM     22  O   UNL     1      13.507  19.953  31.699  1.00  0.00    -0.502 OA
ATOM     23  H   UNL     1      13.601  18.954  31.561  1.00  0.00     0.293 HD
ENDBRANCH   2  22
BRANCH   6  24
ATOM     24  O   UNL     1      18.097  21.208  29.306  1.00  0.00    -0.507 OA
ATOM     25  H   UNL     1      18.742  20.671  28.748  1.00  0.00     0.293 HD
ENDBRANCH   6  24
BRANCH   8  26
ATOM     26  O   UNL     1      16.541  24.505  26.179  1.00  0.00    -0.508 OA
ATOM     27  H   UNL     1      15.806  24.864  25.581  1.00  0.00     0.293 HD
ENDBRANCH   8  26
TORSDOF 6
ENDMDL
MODEL 4
REMARK VINA RESULT:    -6.248     21.682     23.919
REMARK INTER + INTRA:          -7.840
REMARK INTER:                  -8.187
REMARK INTRA:                   0.347
REMARK UNBOUND:                -0.313
REMARK SMILES O=c1c(O)c(-c2ccc(O)c(O)c2)oc2cc(O)cc(O)c12
REMARK SMILES IDX 5 1 3 2 2 3 1 4 22 5 20 6 19 7 17 8 16 9 15 10 14 11 6 12
REMARK SMILES IDX 7 13 8 14 9 15 13 16 11 17 10 18 12 20 4 22 21 24 18 26
REMARK H PARENT 10 19 12 21 4 23 21 25 18 27
REMARK Flexibility Score: inf
ROOT
ATOM      1  C   UNL     1       2.973  36.779  15.199  1.00  0.00     0.180 A 
ATOM      2  C   UNL     1       2.581  37.540  14.084  1.00  0.00     0.208 A 
ATOM      3  C   UNL     1       1.251  37.464  13.641  1.00  0.00     0.238 A 
ATOM      4  O   UNL     1       0.920  38.105  12.609  1.00  0.00    -0.285 OA
ATOM      5  C   UNL     1       0.326  36.641  14.328  1.00  0.00     0.111 A 
ATOM      6  C   UNL     1      -1.056  36.519  13.990  1.00  0.00     0.134 A 
ATOM      7  C   UNL     1      -1.849  35.576  14.657  1.00  0.00     0.093 A 
ATOM      8  C   UNL     1      -1.325  34.797  15.692  1.00  0.00     0.123 A 
ATOM      9  C   UNL     1       0.007  34.952  16.068  1.00  0.00     0.094 A 
ATOM     10  C   UNL     1       0.832  35.859  15.398  1.00  0.00     0.146 A 
ATOM     11  O   UNL     1       2.098  35.967  15.781  1.00  0.00    -0.452 OA
ENDROOT
BRANCH   1  12
ATOM     12  C   UNL     1       4.350  36.826  15.739  1.00  0.00     0.025 A 
ATOM     13  C   UNL     1       5.205  37.911  15.473  1.00  0.00     0.016 A 
ATOM     14  C   UNL     1       6.493  37.945  16.015  1.00  0.00     0.051 A 
ATOM     15  C   UNL     1       6.941  36.905  16.840  1.00  0.00     0.157 A 
ATOM     16  C   UNL     1       4.797  35.797  16.585  1.00  0.00     0.062 A 
ATOM     17  C   UNL     1       6.090  35.830  17.128  1.00  0.00     0.158 A 
BRANCH  15  18
ATOM     18  O   UNL     1       8.225  36.935  17.380  1.00  0.00    -0.504 OA
ATOM     19  H   UNL     1       9.037  37.124  16.805  1.00  0.00     0.293 HD
ENDBRANCH  15  18
BRANCH  17  20
ATOM     20  O   UNL     1       6.535  34.801  17.955  1.00  0.00    -0.504 OA
ATOM     21  H   UNL     1       6.380  33.827  17.720  1.00  0.00     0.293 HD
ENDBRANCH  17  20
ENDBRANCH   1  12
BRANCH   2  22
ATOM     22  O   UNL     1       3.515  38.329  13.408  1.00  0.00    -0.502 OA
ATOM     23  H   UNL     1       4.120  37.958  12.685  1.00  0.00     0.293 HD
ENDBRANCH   2  22
BRANCH   6  24
ATOM     24  O   UNL     1      -1.700  37.313  13.036  1.00  0.00    -0.507 OA
ATOM     25  H   UNL     1      -1.269  37.659  12.193  1.00  0.00     0.293 HD
ENDBRANCH   6  24
BRANCH   8  26
ATOM     26  O   UNL     1      -2.125  33.873  16.361  1.00  0.00    -0.508 OA
ATOM     27  H   UNL     1      -2.985  33.524  15.954  1.00  0.00     0.293 HD
ENDBRANCH   8  26
TORSDOF 6
ENDMDL
MODEL 5
REMARK VINA RESULT:    -6.248     21.695     23.139
REMARK INTER + INTRA:          -7.839
REMARK INTER:                  -7.576
REMARK INTRA:                  -0.264
REMARK UNBOUND:                -0.313
REMARK SMILES O=c1c(O)c(-c2ccc(O)c(O)c2)oc2cc(O)cc(O)c12
REMARK SMILES IDX 5 1 3 2 2 3 1 4 22 5 20 6 19 7 17 8 16 9 15 10 14 11 6 12
REMARK SMILES IDX 7 13 8 14 9 15 13 16 11 17 10 18 12 20 4 22 21 24 18 26
REMARK H PARENT 10 19 12 21 4 23 21 25 18 27
REMARK Flexibility Score: inf
ROOT
ATOM      1  C   UNL     1       2.786  36.488  14.486  1.00  0.00     0.180 A 
ATOM      2  C   UNL     1       3.419  37.718  14.238  1.00  0.00     0.208 A 
ATOM      3  C   UNL     1       4.636  37.999  14.877  1.00  0.00     0.238 A 
ATOM      4  O   UNL     1       5.170  39.125  14.692  1.00  0.00    -0.285 OA
ATOM      5  C   UNL     1       5.215  37.041  15.743  1.00  0.00     0.111 A 
ATOM      6  C   UNL     1       6.466  37.204  16.412  1.00  0.00     0.134 A 
ATOM      7  C   UNL     1       6.878  36.246  17.348  1.00  0.00     0.093 A 
ATOM      8  C   UNL     1       6.116  35.101  17.589  1.00  0.00     0.123 A 
ATOM      9  C   UNL     1       4.923  34.904  16.897  1.00  0.00     0.094 A 
ATOM     10  C   UNL     1       4.468  35.859  15.984  1.00  0.00     0.146 A 
ATOM     11  O   UNL     1       3.321  35.637  15.355  1.00  0.00    -0.452 OA
ENDROOT
BRANCH   1  12
ATOM     12  C   UNL     1       1.513  36.110  13.831  1.00  0.00     0.025 A 
ATOM     13  C   UNL     1       1.466  35.760  12.470  1.00  0.00     0.016 A 
ATOM     14  C   UNL     1       0.258  35.382  11.879  1.00  0.00     0.051 A 
ATOM     15  C   UNL     1      -0.918  35.337  12.640  1.00  0.00     0.157 A 
ATOM     16  C   UNL     1       0.336  36.042  14.595  1.00  0.00     0.062 A 
ATOM     17  C   UNL     1      -0.878  35.664  14.002  1.00  0.00     0.158 A 
BRANCH  15  18
ATOM     18  O   UNL     1      -2.125  34.963  12.053  1.00  0.00    -0.504 OA
ATOM     19  H   UNL     1      -2.305  34.006  11.775  1.00  0.00     0.293 HD
ENDBRANCH  15  18
BRANCH  17  20
ATOM     20  O   UNL     1      -2.046  35.611  14.758  1.00  0.00    -0.504 OA
ATOM     21  H   UNL     1      -2.102  35.066  15.611  1.00  0.00     0.293 HD
ENDBRANCH  17  20
ENDBRANCH   1  12
BRANCH   2  22
ATOM     22  O   UNL     1       2.820  38.659  13.395  1.00  0.00    -0.502 OA
ATOM     23  H   UNL     1       3.150  38.835  12.454  1.00  0.00     0.293 HD
ENDBRANCH   2  22
BRANCH   6  24
ATOM     24  O   UNL     1       7.346  38.264  16.175  1.00  0.00    -0.507 OA
ATOM     25  H   UNL     1       7.100  39.119  15.700  1.00  0.00     0.293 HD
ENDBRANCH   6  24
BRANCH   8  26
ATOM     26  O   UNL     1       6.541  34.145  18.510  1.00  0.00    -0.508 OA
ATOM     27  H   UNL     1       7.431  34.229  18.989  1.00  0.00     0.293 HD
ENDBRANCH   8  26
TORSDOF 6
ENDMDL
MODEL 6
REMARK VINA RESULT:    -5.913      1.498      6.694
REMARK INTER + INTRA:          -7.436
REMARK INTER:                  -7.114
REMARK INTRA:                  -0.322
REMARK UNBOUND:                -0.313
REMARK SMILES O=c1c(O)c(-c2ccc(O)c(O)c2)oc2cc(O)cc(O)c12
REMARK SMILES IDX 5 1 3 2 2 3 1 4 22 5 20 6 19 7 17 8 16 9 15 10 14 11 6 12
REMARK SMILES IDX 7 13 8 14 9 15 13 16 11 17 10 18 12 20 4 22 21 24 18 26
REMARK H PARENT 10 19 12 21 4 23 21 25 18 27
REMARK Flexibility Score: inf
ROOT
ATOM      1  C   UNL     1      13.587  21.598  28.647  1.00  0.00     0.180 A 
ATOM      2  C   UNL     1      13.958  20.457  29.380  1.00  0.00     0.208 A 
ATOM      3  C   UNL     1      13.065  19.936  30.328  1.00  0.00     0.238 A 
ATOM      4  O   UNL     1      13.426  18.946  31.019  1.00  0.00    -0.285 OA
ATOM      5  C   UNL     1      11.805  20.552  30.523  1.00  0.00     0.111 A 
ATOM      6  C   UNL     1      10.806  20.085  31.429  1.00  0.00     0.134 A 
ATOM      7  C   UNL     1       9.649  20.848  31.634  1.00  0.00     0.093 A 
ATOM      8  C   UNL     1       9.427  22.027  30.918  1.00  0.00     0.123 A 
ATOM      9  C   UNL     1      10.370  22.459  29.987  1.00  0.00     0.094 A 
ATOM     10  C   UNL     1      11.550  21.738  29.787  1.00  0.00     0.146 A 
ATOM     11  O   UNL     1      12.426  22.191  28.899  1.00  0.00    -0.452 OA
ENDROOT
BRANCH   1  12
ATOM     12  C   UNL     1      14.465  22.190  27.613  1.00  0.00     0.025 A 
ATOM     13  C   UNL     1      15.392  23.200  27.929  1.00  0.00     0.016 A 
ATOM     14  C   UNL     1      16.228  23.726  26.941  1.00  0.00     0.051 A 
ATOM     15  C   UNL     1      16.160  23.243  25.627  1.00  0.00     0.157 A 
ATOM     16  C   UNL     1      14.418  21.694  26.299  1.00  0.00     0.062 A 
ATOM     17  C   UNL     1      15.256  22.223  25.307  1.00  0.00     0.158 A 
BRANCH  15  18
ATOM     18  O   UNL     1      16.992  23.767  24.639  1.00  0.00    -0.504 OA
ATOM     19  H   UNL     1      16.617  24.258  23.837  1.00  0.00     0.293 HD
ENDBRANCH  15  18
BRANCH  17  20
ATOM     20  O   UNL     1      15.197  21.739  24.001  1.00  0.00    -0.504 OA
ATOM     21  H   UNL     1      14.828  22.303  23.243  1.00  0.00     0.293 HD
ENDBRANCH  17  20
ENDBRANCH   1  12
BRANCH   2  22
ATOM     22  O   UNL     1      15.216  19.876  29.188  1.00  0.00    -0.502 OA
ATOM     23  H   UNL     1      15.931  20.306  28.613  1.00  0.00     0.293 HD
ENDBRANCH   2  22
BRANCH   6  24
ATOM     24  O   UNL     1      10.887  18.875  32.125  1.00  0.00    -0.507 OA
ATOM     25  H   UNL     1      10.819  17.963  31.700  1.00  0.00     0.293 HD
ENDBRANCH   6  24
BRANCH   8  26
ATOM     26  O   UNL     1       8.267  22.772  31.116  1.00  0.00    -0.508 OA
ATOM     27  H   UNL     1       7.576  22.502  31.807  1.00  0.00     0.293 HD
ENDBRANCH   8  26
TORSDOF 6
ENDMDL
MODEL 7
REMARK VINA RESULT:    -5.681     21.723     23.781
REMARK INTER + INTRA:          -7.156
REMARK INTER:                  -7.690
REMARK INTRA:                   0.534
REMARK UNBOUND:                -0.313
REMARK SMILES O=c1c(O)c(-c2ccc(O)c(O)c2)oc2cc(O)cc(O)c12
REMARK SMILES IDX 5 1 3 2 2 3 1 4 22 5 20 6 19 7 17 8 16 9 15 10 14 11 6 12
REMARK SMILES IDX 7 13 8 14 9 15 13 16 11 17 10 18 12 20 4 22 21 24 18 26
REMARK H PARENT 10 19 12 21 4 23 21 25 18 27
REMARK Flexibility Score: inf
ROOT
ATOM      1  C   UNL     1       2.663  36.215  15.482  1.00  0.00     0.180 A 
ATOM      2  C   UNL     1       1.837  35.166  15.920  1.00  0.00     0.208 A 
ATOM      3  C   UNL     1       0.533  35.067  15.409  1.00  0.00     0.238 A 
ATOM      4  O   UNL     1      -0.220  34.158  15.847  1.00  0.00    -0.285 OA
ATOM      5  C   UNL     1       0.077  36.008  14.455  1.00  0.00     0.111 A 
ATOM      6  C   UNL     1      -1.211  35.980  13.841  1.00  0.00     0.134 A 
ATOM      7  C   UNL     1      -1.602  37.037  13.008  1.00  0.00     0.093 A 
ATOM      8  C   UNL     1      -0.727  38.086  12.717  1.00  0.00     0.123 A 
ATOM      9  C   UNL     1       0.554  38.091  13.265  1.00  0.00     0.094 A 
ATOM     10  C   UNL     1       0.960  37.070  14.128  1.00  0.00     0.146 A 
ATOM     11  O   UNL     1       2.184  37.120  14.636  1.00  0.00    -0.452 OA
ENDROOT
BRANCH   1  12
ATOM     12  C   UNL     1       4.057  36.371  15.957  1.00  0.00     0.025 A 
ATOM     13  C   UNL     1       4.812  37.517  15.651  1.00  0.00     0.016 A 
ATOM     14  C   UNL     1       6.117  37.653  16.131  1.00  0.00     0.051 A 
ATOM     15  C   UNL     1       6.682  36.653  16.934  1.00  0.00     0.157 A 
ATOM     16  C   UNL     1       4.621  35.382  16.781  1.00  0.00     0.062 A 
ATOM     17  C   UNL     1       5.932  35.517  17.262  1.00  0.00     0.158 A 
BRANCH  15  18
ATOM     18  O   UNL     1       7.984  36.785  17.412  1.00  0.00    -0.504 OA
ATOM     19  H   UNL     1       8.242  37.530  18.048  1.00  0.00     0.293 HD
ENDBRANCH  15  18
BRANCH  17  20
ATOM     20  O   UNL     1       6.494  34.529  18.066  1.00  0.00    -0.504 OA
ATOM     21  H   UNL     1       5.999  34.150  18.866  1.00  0.00     0.293 HD
ENDBRANCH  17  20
ENDBRANCH   1  12
BRANCH   2  22
ATOM     22  O   UNL     1       2.299  34.260  16.879  1.00  0.00    -0.502 OA
ATOM     23  H   UNL     1       1.694  33.859  17.586  1.00  0.00     0.293 HD
ENDBRANCH   2  22
BRANCH   6  24
ATOM     24  O   UNL     1      -2.125  34.933  13.991  1.00  0.00    -0.507 OA
ATOM     25  H   UNL     1      -2.151  34.107  13.414  1.00  0.00     0.293 HD
ENDBRANCH   6  24
BRANCH   8  26
ATOM     26  O   UNL     1      -1.118  39.125  11.875  1.00  0.00    -0.508 OA
ATOM     27  H   UNL     1      -1.775  39.835  12.179  1.00  0.00     0.293 HD
ENDBRANCH   8  26
TORSDOF 6
ENDMDL
MODEL 8
REMARK VINA RESULT:    -5.362      1.605      6.956
REMARK INTER + INTRA:          -6.772
REMARK INTER:                  -6.450
REMARK INTRA:                  -0.321
REMARK UNBOUND:                -0.313
REMARK SMILES O=c1c(O)c(-c2ccc(O)c(O)c2)oc2cc(O)cc(O)c12
REMARK SMILES IDX 5 1 3 2 2 3 1 4 22 5 20 6 19 7 17 8 16 9 15 10 14 11 6 12
REMARK SMILES IDX 7 13 8 14 9 15 13 16 11 17 10 18 12 20 4 22 21 24 18 26
REMARK H PARENT 10 19 12 21 4 23 21 25 18 27
REMARK Flexibility Score: inf
ROOT
ATOM      1  C   UNL     1      12.979  21.424  29.216  1.00  0.00     0.180 A 
ATOM      2  C   UNL     1      12.302  20.233  29.534  1.00  0.00     0.208 A 
ATOM      3  C   UNL     1      11.129  20.300  30.301  1.00  0.00     0.238 A 
ATOM      4  O   UNL     1      10.558  19.226  30.627  1.00  0.00    -0.285 OA
ATOM      5  C   UNL     1      10.636  21.557  30.727  1.00  0.00     0.111 A 
ATOM      6  C   UNL     1       9.435  21.746  31.474  1.00  0.00     0.134 A 
ATOM      7  C   UNL     1       9.113  23.022  31.954  1.00  0.00     0.093 A 
ATOM      8  C   UNL     1       9.916  24.126  31.657  1.00  0.00     0.123 A 
ATOM      9  C   UNL     1      11.059  23.961  30.878  1.00  0.00     0.094 A 
ATOM     10  C   UNL     1      11.425  22.695  30.416  1.00  0.00     0.146 A 
ATOM     11  O   UNL     1      12.528  22.581  29.686  1.00  0.00    -0.452 OA
ENDROOT
BRANCH   1  12
ATOM     12  C   UNL     1      14.208  21.435  28.392  1.00  0.00     0.025 A 
ATOM     13  C   UNL     1      14.157  21.653  27.003  1.00  0.00     0.016 A 
ATOM     14  C   UNL     1      15.332  21.684  26.248  1.00  0.00     0.051 A 
ATOM     15  C   UNL     1      16.576  21.513  26.871  1.00  0.00     0.157 A 
ATOM     16  C   UNL     1      15.459  21.287  29.013  1.00  0.00     0.062 A 
ATOM     17  C   UNL     1      16.640  21.317  28.256  1.00  0.00     0.158 A 
BRANCH  15  18
ATOM     18  O   UNL     1      17.750  21.542  26.121  1.00  0.00    -0.504 OA
ATOM     19  H   UNL     1      18.168  20.694  25.757  1.00  0.00     0.293 HD
ENDBRANCH  15  18
BRANCH  17  20
ATOM     20  O   UNL     1      17.878  21.155  28.873  1.00  0.00    -0.504 OA
ATOM     21  H   UNL     1      18.446  20.330  28.715  1.00  0.00     0.293 HD
ENDBRANCH  17  20
ENDBRANCH   1  12
BRANCH   2  22
ATOM     22  O   UNL     1      12.817  19.001  29.121  1.00  0.00    -0.502 OA
ATOM     23  H   UNL     1      12.549  18.564  28.247  1.00  0.00     0.293 HD
ENDBRANCH   2  22
BRANCH   6  24
ATOM     24  O   UNL     1       8.516  20.727  31.746  1.00  0.00    -0.507 OA
ATOM     25  H   UNL     1       8.637  19.761  31.485  1.00  0.00     0.293 HD
ENDBRANCH   6  24
BRANCH   8  26
ATOM     26  O   UNL     1       9.580  25.395  32.125  1.00  0.00    -0.508 OA
ATOM     27  H   UNL     1       8.944  25.997  31.614  1.00  0.00     0.293 HD
ENDBRANCH   8  26
TORSDOF 6
ENDMDL
MODEL 9
REMARK VINA RESULT:    -4.786      1.755      3.227
REMARK INTER + INTRA:          -6.079
REMARK INTER:                  -6.503
REMARK INTRA:                   0.424
REMARK UNBOUND:                -0.313
REMARK SMILES O=c1c(O)c(-c2ccc(O)c(O)c2)oc2cc(O)cc(O)c12
REMARK SMILES IDX 5 1 3 2 2 3 1 4 22 5 20 6 19 7 17 8 16 9 15 10 14 11 6 12
REMARK SMILES IDX 7 13 8 14 9 15 13 16 11 17 10 18 12 20 4 22 21 24 18 26
REMARK H PARENT 10 19 12 21 4 23 21 25 18 27
REMARK Flexibility Score: inf
ROOT
ATOM      1  C   UNL     1      11.740  21.667  29.675  1.00  0.00     0.180 A 
ATOM      2  C   UNL     1      11.966  21.645  28.288  1.00  0.00     0.208 A 
ATOM      3  C   UNL     1      13.285  21.698  27.811  1.00  0.00     0.238 A 
ATOM      4  O   UNL     1      13.477  21.733  26.567  1.00  0.00    -0.285 OA
ATOM      5  C   UNL     1      14.363  21.756  28.727  1.00  0.00     0.111 A 
ATOM      6  C   UNL     1      15.741  21.772  28.356  1.00  0.00     0.134 A 
ATOM      7  C   UNL     1      16.719  21.963  29.341  1.00  0.00     0.093 A 
ATOM      8  C   UNL     1      16.371  22.071  30.690  1.00  0.00     0.123 A 
ATOM      9  C   UNL     1      15.032  21.996  31.067  1.00  0.00     0.094 A 
ATOM     10  C   UNL     1      14.032  21.843  30.104  1.00  0.00     0.146 A 
ATOM     11  O   UNL     1      12.769  21.788  30.506  1.00  0.00    -0.452 OA
ENDROOT
BRANCH   1  12
ATOM     12  C   UNL     1      10.379  21.590  30.253  1.00  0.00     0.025 A 
ATOM     13  C   UNL     1      10.171  21.191  31.585  1.00  0.00     0.016 A 
ATOM     14  C   UNL     1       8.879  21.149  32.116  1.00  0.00     0.051 A 
ATOM     15  C   UNL     1       7.779  21.518  31.330  1.00  0.00     0.157 A 
ATOM     16  C   UNL     1       9.275  21.981  29.476  1.00  0.00     0.062 A 
ATOM     17  C   UNL     1       7.978  21.938  30.009  1.00  0.00     0.158 A 
BRANCH  15  18
ATOM     18  O   UNL     1       6.490  21.476  31.857  1.00  0.00    -0.504 OA
ATOM     19  H   UNL     1       6.301  21.068  32.764  1.00  0.00     0.293 HD
ENDBRANCH  15  18
BRANCH  17  20
ATOM     20  O   UNL     1       6.884  22.312  29.232  1.00  0.00    -0.504 OA
ATOM     21  H   UNL     1       6.218  21.628  28.889  1.00  0.00     0.293 HD
ENDBRANCH  17  20
ENDBRANCH   1  12
BRANCH   2  22
ATOM     22  O   UNL     1      10.886  21.610  27.400  1.00  0.00    -0.502 OA
ATOM     23  H   UNL     1      10.083  21.010  27.544  1.00  0.00     0.293 HD
ENDBRANCH   2  22
BRANCH   6  24
ATOM     24  O   UNL     1      16.201  21.579  27.050  1.00  0.00    -0.507 OA
ATOM     25  H   UNL     1      16.043  20.747  26.503  1.00  0.00     0.293 HD
ENDBRANCH   6  24
BRANCH   8  26
ATOM     26  O   UNL     1      17.352  22.244  31.665  1.00  0.00    -0.508 OA
ATOM     27  H   UNL     1      18.310  21.951  31.511  1.00  0.00     0.293 HD
ENDBRANCH   8  26
TORSDOF 6
ENDMDL
