MODEL 1
REMARK VINA RESULT:    -3.787      0.000      0.000
REMARK INTER + INTRA:         -12.700
REMARK INTER:                  -8.658
REMARK INTRA:                  -4.042
REMARK UNBOUND:                -4.042
REMARK SMILES CCCCCCCCCCCCCCCCCCCCCCCC(=O)[O-]
REMARK SMILES IDX 13 1 14 2 15 3 16 4 17 5 18 6 19 7 20 8 21 9 22 10 23 11
REMARK SMILES IDX 24 12 25 13 26 14 12 15 11 16 10 17 9 18 8 19 7 20 6 21 5 22
REMARK SMILES IDX 4 23 3 24 2 25 1 26
REMARK H PARENT
REMARK Flexibility Score: inf
ROOT
ATOM      1  C   UNL     1      -4.054  -8.758 -48.370  1.00  0.00     0.000 C 
ENDROOT
BRANCH   1   2
ATOM      2  C   UNL     1      -3.759  -7.275 -48.056  1.00  0.00     0.000 C 
BRANCH   2   3
ATOM      3  C   UNL     1      -3.069  -7.082 -46.695  1.00  0.00     0.000 C 
BRANCH   3   4
ATOM      4  C   UNL     1      -4.058  -7.106 -45.515  1.00  0.00     0.000 C 
BRANCH   4   5
ATOM      5  C   UNL     1      -3.786  -8.240 -44.502  1.00  0.00     0.000 C 
BRANCH   5   6
ATOM      6  C   UNL     1      -4.247  -7.872 -43.079  1.00  0.00     0.000 C 
BRANCH   6   7
ATOM      7  C   UNL     1      -3.192  -8.196 -42.010  1.00  0.00     0.000 C 
BRANCH   7   8
ATOM      8  C   UNL     1      -1.954  -8.902 -42.592  1.00  0.00     0.000 C 
BRANCH   8   9
ATOM      9  C   UNL     1      -1.162  -9.691 -41.536  1.00  0.00     0.000 C 
BRANCH   9  10
ATOM     10  C   UNL     1      -0.548 -11.001 -42.075  1.00  0.00     0.006 C 
BRANCH  10  11
ATOM     11  C   UNL     1       0.794 -11.331 -41.406  1.00  0.00     0.053 C 
BRANCH  11  12
ATOM     12  C   UNL     1       1.935 -10.878 -42.262  1.00  0.00     0.041 C 
ATOM     13  O   UNL     1       1.755 -10.644 -43.487  1.00  0.00    -0.550 OA
ATOM     14  O   UNL     1       3.187 -10.670 -41.696  1.00  0.00    -0.550 OA
ENDBRANCH  11  12
ENDBRANCH  10  11
ENDBRANCH   9  10
ENDBRANCH   8   9
ENDBRANCH   7   8
ENDBRANCH   6   7
ENDBRANCH   5   6
ENDBRANCH   4   5
ENDBRANCH   3   4
ENDBRANCH   2   3
ENDBRANCH   1   2
BRANCH   1  15
ATOM     15  C   UNL     1      -5.554  -9.106 -48.381  1.00  0.00     0.000 C 
BRANCH  15  16
ATOM     16  C   UNL     1      -6.056  -9.880 -47.146  1.00  0.00     0.000 C 
BRANCH  16  17
ATOM     17  C   UNL     1      -7.014  -9.096 -46.232  1.00  0.00     0.000 C 
BRANCH  17  18
ATOM     18  C   UNL     1      -7.121  -9.695 -44.820  1.00  0.00    -0.000 C 
BRANCH  18  19
ATOM     19  C   UNL     1      -6.244 -10.952 -44.687  1.00  0.00    -0.000 C 
BRANCH  19  20
ATOM     20  C   UNL     1      -5.940 -11.308 -43.222  1.00  0.00    -0.000 C 
BRANCH  20  21
ATOM     21  C   UNL     1      -4.460 -11.665 -42.995  1.00  0.00    -0.000 C 
BRANCH  21  22
ATOM     22  C   UNL     1      -4.172 -12.144 -41.562  1.00  0.00    -0.000 C 
BRANCH  22  23
ATOM     23  C   UNL     1      -4.625 -11.184 -40.448  1.00  0.00    -0.000 C 
BRANCH  23  24
ATOM     24  C   UNL     1      -3.627 -11.105 -39.283  1.00  0.00    -0.000 C 
BRANCH  24  25
ATOM     25  C   UNL     1      -2.960 -12.464 -39.039  1.00  0.00    -0.003 C 
ATOM     26  C   UNL     1      -1.500 -12.296 -38.628  1.00  0.00     0.004 C 
ENDBRANCH  24  25
ENDBRANCH  23  24
ENDBRANCH  22  23
ENDBRANCH  21  22
ENDBRANCH  20  21
ENDBRANCH  19  20
ENDBRANCH  18  19
ENDBRANCH  17  18
ENDBRANCH  16  17
ENDBRANCH  15  16
ENDBRANCH   1  15
TORSDOF 22
ENDMDL
MODEL 2
REMARK VINA RESULT:    -3.628      1.199      3.253
REMARK INTER + INTRA:         -12.335
REMARK INTER:                  -9.086
REMARK INTRA:                  -3.249
REMARK UNBOUND:                -4.042
REMARK SMILES CCCCCCCCCCCCCCCCCCCCCCCC(=O)[O-]
REMARK SMILES IDX 13 1 14 2 15 3 16 4 17 5 18 6 19 7 20 8 21 9 22 10 23 11
REMARK SMILES IDX 24 12 25 13 26 14 12 15 11 16 10 17 9 18 8 19 7 20 6 21 5 22
REMARK SMILES IDX 4 23 3 24 2 25 1 26
REMARK H PARENT
REMARK Flexibility Score: inf
ROOT
ATOM      1  C   UNL     1      -4.314  -7.582 -45.471  1.00  0.00     0.000 C 
ENDROOT
BRANCH   1   2
ATOM      2  C   UNL     1      -3.738  -8.121 -44.144  1.00  0.00     0.000 C 
BRANCH   2   3
ATOM      3  C   UNL     1      -4.688  -7.906 -42.953  1.00  0.00     0.000 C 
BRANCH   3   4
ATOM      4  C   UNL     1      -3.948  -7.821 -41.606  1.00  0.00     0.000 C 
BRANCH   4   5
ATOM      5  C   UNL     1      -2.513  -8.391 -41.650  1.00  0.00     0.000 C 
BRANCH   5   6
ATOM      6  C   UNL     1      -1.830  -8.358 -40.270  1.00  0.00     0.000 C 
BRANCH   6   7
ATOM      7  C   UNL     1      -2.049  -9.650 -39.467  1.00  0.00     0.000 C 
BRANCH   7   8
ATOM      8  C   UNL     1      -0.741 -10.423 -39.220  1.00  0.00     0.000 C 
BRANCH   8   9
ATOM      9  C   UNL     1      -0.585 -11.647 -40.137  1.00  0.00     0.000 C 
BRANCH   9  10
ATOM     10  C   UNL     1       0.603 -11.540 -41.117  1.00  0.00     0.006 C 
BRANCH  10  11
ATOM     11  C   UNL     1       0.247 -10.734 -42.375  1.00  0.00     0.053 C 
BRANCH  11  12
ATOM     12  C   UNL     1       1.462 -10.059 -42.929  1.00  0.00     0.041 C 
ATOM     13  O   UNL     1       1.390  -8.879 -43.363  1.00  0.00    -0.550 OA
ATOM     14  O   UNL     1       2.685 -10.719 -42.923  1.00  0.00    -0.550 OA
ENDBRANCH  11  12
ENDBRANCH  10  11
ENDBRANCH   9  10
ENDBRANCH   8   9
ENDBRANCH   7   8
ENDBRANCH   6   7
ENDBRANCH   5   6
ENDBRANCH   4   5
ENDBRANCH   3   4
ENDBRANCH   2   3
ENDBRANCH   1   2
BRANCH   1  15
ATOM     15  C   UNL     1      -3.241  -7.222 -46.516  1.00  0.00     0.000 C 
BRANCH  15  16
ATOM     16  C   UNL     1      -3.391  -7.927 -47.878  1.00  0.00     0.000 C 
BRANCH  16  17
ATOM     17  C   UNL     1      -4.836  -8.037 -48.399  1.00  0.00     0.000 C 
BRANCH  17  18
ATOM     18  C   UNL     1      -5.335  -9.489 -48.480  1.00  0.00    -0.000 C 
BRANCH  18  19
ATOM     19  C   UNL     1      -6.544  -9.710 -47.555  1.00  0.00    -0.000 C 
BRANCH  19  20
ATOM     20  C   UNL     1      -6.137 -10.203 -46.157  1.00  0.00    -0.000 C 
BRANCH  20  21
ATOM     21  C   UNL     1      -7.341 -10.364 -45.212  1.00  0.00    -0.000 C 
BRANCH  21  22
ATOM     22  C   UNL     1      -7.100 -11.405 -44.105  1.00  0.00    -0.000 C 
BRANCH  22  23
ATOM     23  C   UNL     1      -5.669 -11.438 -43.540  1.00  0.00    -0.000 C 
BRANCH  23  24
ATOM     24  C   UNL     1      -5.630 -11.645 -42.018  1.00  0.00    -0.000 C 
BRANCH  24  25
ATOM     25  C   UNL     1      -4.185 -11.696 -41.509  1.00  0.00    -0.003 C 
ATOM     26  C   UNL     1      -3.231 -12.176 -42.599  1.00  0.00     0.004 C 
ENDBRANCH  24  25
ENDBRANCH  23  24
ENDBRANCH  22  23
ENDBRANCH  21  22
ENDBRANCH  20  21
ENDBRANCH  19  20
ENDBRANCH  18  19
ENDBRANCH  17  18
ENDBRANCH  16  17
ENDBRANCH  15  16
ENDBRANCH   1  15
TORSDOF 22
ENDMDL
MODEL 3
REMARK VINA RESULT:    -3.610      2.881      5.771
REMARK INTER + INTRA:         -12.295
REMARK INTER:                  -8.719
REMARK INTRA:                  -3.576
REMARK UNBOUND:                -4.042
REMARK SMILES CCCCCCCCCCCCCCCCCCCCCCCC(=O)[O-]
REMARK SMILES IDX 13 1 14 2 15 3 16 4 17 5 18 6 19 7 20 8 21 9 22 10 23 11
REMARK SMILES IDX 24 12 25 13 26 14 12 15 11 16 10 17 9 18 8 19 7 20 6 21 5 22
REMARK SMILES IDX 4 23 3 24 2 25 1 26
REMARK H PARENT
REMARK Flexibility Score: inf
ROOT
ATOM      1  C   UNL     1      -4.049  -7.456 -44.852  1.00  0.00     0.000 C 
ENDROOT
BRANCH   1   2
ATOM      2  C   UNL     1      -3.106  -7.257 -46.059  1.00  0.00     0.000 C 
BRANCH   2   3
ATOM      3  C   UNL     1      -3.867  -7.003 -47.371  1.00  0.00     0.000 C 
BRANCH   3   4
ATOM      4  C   UNL     1      -3.390  -7.905 -48.523  1.00  0.00     0.000 C 
BRANCH   4   5
ATOM      5  C   UNL     1      -4.216  -9.200 -48.680  1.00  0.00     0.000 C 
BRANCH   5   6
ATOM      6  C   UNL     1      -5.709  -8.980 -48.373  1.00  0.00     0.000 C 
BRANCH   6   7
ATOM      7  C   UNL     1      -6.212  -9.851 -47.211  1.00  0.00     0.000 C 
BRANCH   7   8
ATOM      8  C   UNL     1      -7.039  -9.054 -46.187  1.00  0.00     0.000 C 
BRANCH   8   9
ATOM      9  C   UNL     1      -7.051  -9.700 -44.792  1.00  0.00     0.000 C 
BRANCH   9  10
ATOM     10  C   UNL     1      -6.357 -11.079 -44.743  1.00  0.00     0.006 C 
BRANCH  10  11
ATOM     11  C   UNL     1      -5.671 -11.336 -43.394  1.00  0.00     0.053 C 
BRANCH  11  12
ATOM     12  C   UNL     1      -6.672 -11.750 -42.363  1.00  0.00     0.041 C 
ATOM     13  O   UNL     1      -7.097 -12.935 -42.330  1.00  0.00    -0.550 OA
ATOM     14  O   UNL     1      -7.103 -10.836 -41.408  1.00  0.00    -0.550 OA
ENDBRANCH  11  12
ENDBRANCH  10  11
ENDBRANCH   9  10
ENDBRANCH   8   9
ENDBRANCH   7   8
ENDBRANCH   6   7
ENDBRANCH   5   6
ENDBRANCH   4   5
ENDBRANCH   3   4
ENDBRANCH   2   3
ENDBRANCH   1   2
BRANCH   1  15
ATOM     15  C   UNL     1      -3.629  -8.605 -43.916  1.00  0.00     0.000 C 
BRANCH  15  16
ATOM     16  C   UNL     1      -2.627  -8.218 -42.811  1.00  0.00     0.000 C 
BRANCH  16  17
ATOM     17  C   UNL     1      -3.191  -8.253 -41.379  1.00  0.00     0.000 C 
BRANCH  17  18
ATOM     18  C   UNL     1      -2.109  -8.497 -40.315  1.00  0.00    -0.000 C 
BRANCH  18  19
ATOM     19  C   UNL     1      -2.479  -9.687 -39.413  1.00  0.00    -0.000 C 
BRANCH  19  20
ATOM     20  C   UNL     1      -3.341 -10.733 -40.139  1.00  0.00    -0.000 C 
BRANCH  20  21
ATOM     21  C   UNL     1      -2.537 -11.980 -40.550  1.00  0.00    -0.000 C 
BRANCH  21  22
ATOM     22  C   UNL     1      -2.300 -12.066 -42.068  1.00  0.00    -0.000 C 
BRANCH  22  23
ATOM     23  C   UNL     1      -1.019 -11.377 -42.570  1.00  0.00    -0.000 C 
BRANCH  23  24
ATOM     24  C   UNL     1       0.109 -11.376 -41.528  1.00  0.00    -0.000 C 
BRANCH  24  25
ATOM     25  C   UNL     1       0.902 -10.064 -41.579  1.00  0.00    -0.003 C 
ATOM     26  C   UNL     1       2.339 -10.304 -42.033  1.00  0.00     0.004 C 
ENDBRANCH  24  25
ENDBRANCH  23  24
ENDBRANCH  22  23
ENDBRANCH  21  22
ENDBRANCH  20  21
ENDBRANCH  19  20
ENDBRANCH  18  19
ENDBRANCH  17  18
ENDBRANCH  16  17
ENDBRANCH  15  16
ENDBRANCH   1  15
TORSDOF 22
ENDMDL
MODEL 4
REMARK VINA RESULT:    -3.563      2.459      5.391
REMARK INTER + INTRA:         -12.188
REMARK INTER:                  -9.139
REMARK INTRA:                  -3.049
REMARK UNBOUND:                -4.042
REMARK SMILES CCCCCCCCCCCCCCCCCCCCCCCC(=O)[O-]
REMARK SMILES IDX 13 1 14 2 15 3 16 4 17 5 18 6 19 7 20 8 21 9 22 10 23 11
REMARK SMILES IDX 24 12 25 13 26 14 12 15 11 16 10 17 9 18 8 19 7 20 6 21 5 22
REMARK SMILES IDX 4 23 3 24 2 25 1 26
REMARK H PARENT
REMARK Flexibility Score: inf
ROOT
ATOM      1  C   UNL     1      -3.178  -7.168 -45.976  1.00  0.00     0.000 C 
ENDROOT
BRANCH   1   2
ATOM      2  C   UNL     1      -3.539  -7.043 -47.472  1.00  0.00     0.000 C 
BRANCH   2   3
ATOM      3  C   UNL     1      -3.001  -8.213 -48.313  1.00  0.00     0.000 C 
BRANCH   3   4
ATOM      4  C   UNL     1      -4.094  -9.229 -48.690  1.00  0.00     0.000 C 
BRANCH   4   5
ATOM      5  C   UNL     1      -5.525  -8.753 -48.359  1.00  0.00     0.000 C 
BRANCH   5   6
ATOM      6  C   UNL     1      -6.340  -9.829 -47.617  1.00  0.00     0.000 C 
BRANCH   6   7
ATOM      7  C   UNL     1      -6.643  -9.446 -46.160  1.00  0.00     0.000 C 
BRANCH   7   8
ATOM      8  C   UNL     1      -6.058 -10.446 -45.148  1.00  0.00     0.000 C 
BRANCH   8   9
ATOM      9  C   UNL     1      -7.126 -11.074 -44.238  1.00  0.00     0.000 C 
BRANCH   9  10
ATOM     10  C   UNL     1      -6.740 -11.081 -42.743  1.00  0.00     0.006 C 
BRANCH  10  11
ATOM     11  C   UNL     1      -5.367 -11.725 -42.501  1.00  0.00     0.053 C 
BRANCH  11  12
ATOM     12  C   UNL     1      -5.261 -12.226 -41.096  1.00  0.00     0.041 C 
ATOM     13  O   UNL     1      -6.194 -12.907 -40.592  1.00  0.00    -0.550 OA
ATOM     14  O   UNL     1      -4.110 -11.980 -40.357  1.00  0.00    -0.550 OA
ENDBRANCH  11  12
ENDBRANCH  10  11
ENDBRANCH   9  10
ENDBRANCH   8   9
ENDBRANCH   7   8
ENDBRANCH   6   7
ENDBRANCH   5   6
ENDBRANCH   4   5
ENDBRANCH   3   4
ENDBRANCH   2   3
ENDBRANCH   1   2
BRANCH   1  15
ATOM     15  C   UNL     1      -4.353  -6.875 -45.025  1.00  0.00     0.000 C 
BRANCH  15  16
ATOM     16  C   UNL     1      -4.280  -7.582 -43.657  1.00  0.00     0.000 C 
BRANCH  16  17
ATOM     17  C   UNL     1      -3.307  -8.774 -43.591  1.00  0.00     0.000 C 
BRANCH  17  18
ATOM     18  C   UNL     1      -2.314  -8.672 -42.422  1.00  0.00    -0.000 C 
BRANCH  18  19
ATOM     19  C   UNL     1      -3.033  -8.292 -41.117  1.00  0.00    -0.000 C 
BRANCH  19  20
ATOM     20  C   UNL     1      -2.067  -8.143 -39.931  1.00  0.00    -0.000 C 
BRANCH  20  21
ATOM     21  C   UNL     1      -1.872  -9.459 -39.158  1.00  0.00    -0.000 C 
BRANCH  21  22
ATOM     22  C   UNL     1      -0.497 -10.103 -39.408  1.00  0.00    -0.000 C 
BRANCH  22  23
ATOM     23  C   UNL     1      -0.464 -11.163 -40.523  1.00  0.00    -0.000 C 
BRANCH  23  24
ATOM     24  C   UNL     1       0.908 -11.274 -41.205  1.00  0.00    -0.000 C 
BRANCH  24  25
ATOM     25  C   UNL     1       1.443  -9.890 -41.590  1.00  0.00    -0.003 C 
ATOM     26  C   UNL     1       1.371  -9.670 -43.098  1.00  0.00     0.004 C 
ENDBRANCH  24  25
ENDBRANCH  23  24
ENDBRANCH  22  23
ENDBRANCH  21  22
ENDBRANCH  20  21
ENDBRANCH  19  20
ENDBRANCH  18  19
ENDBRANCH  17  18
ENDBRANCH  16  17
ENDBRANCH  15  16
ENDBRANCH   1  15
TORSDOF 22
ENDMDL
MODEL 5
REMARK VINA RESULT:    -3.552      4.363      8.177
REMARK INTER + INTRA:         -12.162
REMARK INTER:                  -8.961
REMARK INTRA:                  -3.201
REMARK UNBOUND:                -4.042
REMARK SMILES CCCCCCCCCCCCCCCCCCCCCCCC(=O)[O-]
REMARK SMILES IDX 13 1 14 2 15 3 16 4 17 5 18 6 19 7 20 8 21 9 22 10 23 11
REMARK SMILES IDX 24 12 25 13 26 14 12 15 11 16 10 17 9 18 8 19 7 20 6 21 5 22
REMARK SMILES IDX 4 23 3 24 2 25 1 26
REMARK H PARENT
REMARK Flexibility Score: inf
ROOT
ATOM      1  C   UNL     1      -0.376  -9.093 -38.925  1.00  0.00     0.000 C 
ENDROOT
BRANCH   1   2
ATOM      2  C   UNL     1      -1.429  -7.987 -38.698  1.00  0.00     0.000 C 
BRANCH   2   3
ATOM      3  C   UNL     1      -1.185  -7.192 -37.404  1.00  0.00     0.000 C 
BRANCH   3   4
ATOM      4  C   UNL     1      -0.369  -7.980 -36.364  1.00  0.00     0.000 C 
BRANCH   4   5
ATOM      5  C   UNL     1      -1.229  -8.892 -35.462  1.00  0.00     0.000 C 
BRANCH   5   6
ATOM      6  C   UNL     1      -0.586 -10.274 -35.248  1.00  0.00     0.000 C 
BRANCH   6   7
ATOM      7  C   UNL     1      -0.777 -10.805 -33.819  1.00  0.00     0.000 C 
BRANCH   7   8
ATOM      8  C   UNL     1      -1.815 -11.937 -33.740  1.00  0.00     0.000 C 
BRANCH   8   9
ATOM      9  C   UNL     1      -1.578 -12.887 -32.554  1.00  0.00     0.000 C 
BRANCH   9  10
ATOM     10  C   UNL     1      -0.209 -13.601 -32.597  1.00  0.00     0.006 C 
BRANCH  10  11
ATOM     11  C   UNL     1       0.020 -14.337 -33.924  1.00  0.00     0.053 C 
BRANCH  11  12
ATOM     12  C   UNL     1       1.394 -14.063 -34.448  1.00  0.00     0.041 C 
ATOM     13  O   UNL     1       1.962 -14.893 -35.207  1.00  0.00    -0.550 OA
ATOM     14  O   UNL     1       2.030 -12.867 -34.135  1.00  0.00    -0.550 OA
ENDBRANCH  11  12
ENDBRANCH  10  11
ENDBRANCH   9  10
ENDBRANCH   8   9
ENDBRANCH   7   8
ENDBRANCH   6   7
ENDBRANCH   5   6
ENDBRANCH   4   5
ENDBRANCH   3   4
ENDBRANCH   2   3
ENDBRANCH   1   2
BRANCH   1  15
ATOM     15  C   UNL     1      -0.957 -10.519 -38.904  1.00  0.00     0.000 C 
BRANCH  15  16
ATOM     16  C   UNL     1      -2.489 -10.604 -39.037  1.00  0.00     0.000 C 
BRANCH  16  17
ATOM     17  C   UNL     1      -2.996 -11.534 -40.155  1.00  0.00     0.000 C 
BRANCH  17  18
ATOM     18  C   UNL     1      -1.862 -12.086 -41.036  1.00  0.00    -0.000 C 
BRANCH  18  19
ATOM     19  C   UNL     1      -1.944 -11.516 -42.462  1.00  0.00    -0.000 C 
BRANCH  19  20
ATOM     20  C   UNL     1      -2.497 -10.083 -42.496  1.00  0.00    -0.000 C 
BRANCH  20  21
ATOM     21  C   UNL     1      -1.393  -9.019 -42.358  1.00  0.00    -0.000 C 
BRANCH  21  22
ATOM     22  C   UNL     1      -0.074  -9.435 -43.032  1.00  0.00    -0.000 C 
BRANCH  22  23
ATOM     23  C   UNL     1       1.151  -9.476 -42.101  1.00  0.00    -0.000 C 
BRANCH  23  24
ATOM     24  C   UNL     1       1.679 -10.899 -41.867  1.00  0.00    -0.000 C 
BRANCH  24  25
ATOM     25  C   UNL     1       1.712 -11.694 -43.178  1.00  0.00    -0.003 C 
ATOM     26  C   UNL     1       2.889 -11.271 -44.052  1.00  0.00     0.004 C 
ENDBRANCH  24  25
ENDBRANCH  23  24
ENDBRANCH  22  23
ENDBRANCH  21  22
ENDBRANCH  20  21
ENDBRANCH  19  20
ENDBRANCH  18  19
ENDBRANCH  17  18
ENDBRANCH  16  17
ENDBRANCH  15  16
ENDBRANCH   1  15
TORSDOF 22
ENDMDL
MODEL 6
REMARK VINA RESULT:    -3.544      1.075      4.659
REMARK INTER + INTRA:         -12.144
REMARK INTER:                  -8.572
REMARK INTRA:                  -3.572
REMARK UNBOUND:                -4.042
REMARK SMILES CCCCCCCCCCCCCCCCCCCCCCCC(=O)[O-]
REMARK SMILES IDX 13 1 14 2 15 3 16 4 17 5 18 6 19 7 20 8 21 9 22 10 23 11
REMARK SMILES IDX 24 12 25 13 26 14 12 15 11 16 10 17 9 18 8 19 7 20 6 21 5 22
REMARK SMILES IDX 4 23 3 24 2 25 1 26
REMARK H PARENT
REMARK Flexibility Score: inf
ROOT
ATOM      1  C   UNL     1      -6.035 -11.768 -42.924  1.00  0.00     0.000 C 
ENDROOT
BRANCH   1   2
ATOM      2  C   UNL     1      -4.525 -11.814 -43.245  1.00  0.00     0.000 C 
BRANCH   2   3
ATOM      3  C   UNL     1      -3.646 -11.688 -41.989  1.00  0.00     0.000 C 
BRANCH   3   4
ATOM      4  C   UNL     1      -4.234 -12.424 -40.772  1.00  0.00     0.000 C 
BRANCH   4   5
ATOM      5  C   UNL     1      -3.822 -11.809 -39.417  1.00  0.00     0.000 C 
BRANCH   5   6
ATOM      6  C   UNL     1      -2.988 -10.526 -39.588  1.00  0.00     0.000 C 
BRANCH   6   7
ATOM      7  C   UNL     1      -1.741 -10.503 -38.690  1.00  0.00     0.000 C 
BRANCH   7   8
ATOM      8  C   UNL     1      -0.715  -9.442 -39.126  1.00  0.00     0.000 C 
BRANCH   8   9
ATOM      9  C   UNL     1      -0.324  -9.559 -40.608  1.00  0.00     0.000 C 
BRANCH   9  10
ATOM     10  C   UNL     1       0.296 -10.925 -40.978  1.00  0.00     0.006 C 
BRANCH  10  11
ATOM     11  C   UNL     1       0.212 -11.210 -42.485  1.00  0.00     0.053 C 
BRANCH  11  12
ATOM     12  C   UNL     1       1.580 -11.276 -43.085  1.00  0.00     0.041 C 
ATOM     13  O   UNL     1       2.486 -10.494 -42.690  1.00  0.00    -0.550 OA
ATOM     14  O   UNL     1       1.869 -12.233 -44.051  1.00  0.00    -0.550 OA
ENDBRANCH  11  12
ENDBRANCH  10  11
ENDBRANCH   9  10
ENDBRANCH   8   9
ENDBRANCH   7   8
ENDBRANCH   6   7
ENDBRANCH   5   6
ENDBRANCH   4   5
ENDBRANCH   3   4
ENDBRANCH   2   3
ENDBRANCH   1   2
BRANCH   1  15
ATOM     15  C   UNL     1      -6.806 -10.691 -43.709  1.00  0.00     0.000 C 
BRANCH  15  16
ATOM     16  C   UNL     1      -6.807 -10.872 -45.240  1.00  0.00     0.000 C 
BRANCH  16  17
ATOM     17  C   UNL     1      -6.901  -9.566 -46.050  1.00  0.00     0.000 C 
BRANCH  17  18
ATOM     18  C   UNL     1      -6.754  -9.788 -47.564  1.00  0.00    -0.000 C 
BRANCH  18  19
ATOM     19  C   UNL     1      -5.310  -9.523 -48.023  1.00  0.00    -0.000 C 
BRANCH  19  20
ATOM     20  C   UNL     1      -4.859  -8.079 -47.752  1.00  0.00    -0.000 C 
BRANCH  20  21
ATOM     21  C   UNL     1      -3.509  -8.009 -47.016  1.00  0.00    -0.000 C 
BRANCH  21  22
ATOM     22  C   UNL     1      -3.623  -7.392 -45.611  1.00  0.00    -0.000 C 
BRANCH  22  23
ATOM     23  C   UNL     1      -3.922  -8.392 -44.480  1.00  0.00    -0.000 C 
BRANCH  23  24
ATOM     24  C   UNL     1      -2.821  -8.433 -43.410  1.00  0.00    -0.000 C 
BRANCH  24  25
ATOM     25  C   UNL     1      -3.364  -7.986 -42.047  1.00  0.00    -0.003 C 
ATOM     26  C   UNL     1      -4.887  -8.080 -42.003  1.00  0.00     0.004 C 
ENDBRANCH  24  25
ENDBRANCH  23  24
ENDBRANCH  22  23
ENDBRANCH  21  22
ENDBRANCH  20  21
ENDBRANCH  19  20
ENDBRANCH  18  19
ENDBRANCH  17  18
ENDBRANCH  16  17
ENDBRANCH  15  16
ENDBRANCH   1  15
TORSDOF 22
ENDMDL
MODEL 7
REMARK VINA RESULT:    -3.482      4.078      7.970
REMARK INTER + INTRA:         -12.002
REMARK INTER:                  -8.560
REMARK INTRA:                  -3.441
REMARK UNBOUND:                -4.042
REMARK SMILES CCCCCCCCCCCCCCCCCCCCCCCC(=O)[O-]
REMARK SMILES IDX 13 1 14 2 15 3 16 4 17 5 18 6 19 7 20 8 21 9 22 10 23 11
REMARK SMILES IDX 24 12 25 13 26 14 12 15 11 16 10 17 9 18 8 19 7 20 6 21 5 22
REMARK SMILES IDX 4 23 3 24 2 25 1 26
REMARK H PARENT
REMARK Flexibility Score: inf
ROOT
ATOM      1  C   UNL     1      -1.344  -8.002 -39.255  1.00  0.00     0.000 C 
ENDROOT
BRANCH   1   2
ATOM      2  C   UNL     1      -0.685  -8.904 -38.189  1.00  0.00     0.000 C 
BRANCH   2   3
ATOM      3  C   UNL     1      -0.375  -8.151 -36.884  1.00  0.00     0.000 C 
BRANCH   3   4
ATOM      4  C   UNL     1      -1.048  -8.785 -35.653  1.00  0.00     0.000 C 
BRANCH   4   5
ATOM      5  C   UNL     1      -0.454 -10.155 -35.258  1.00  0.00     0.000 C 
BRANCH   5   6
ATOM      6  C   UNL     1      -1.451 -11.307 -35.480  1.00  0.00     0.000 C 
BRANCH   6   7
ATOM      7  C   UNL     1      -1.974 -11.902 -34.163  1.00  0.00     0.000 C 
BRANCH   7   8
ATOM      8  C   UNL     1      -1.275 -11.312 -32.926  1.00  0.00     0.000 C 
BRANCH   8   9
ATOM      9  C   UNL     1      -0.510 -12.366 -32.109  1.00  0.00     0.000 C 
BRANCH   9  10
ATOM     10  C   UNL     1      -0.648 -13.800 -32.665  1.00  0.00     0.006 C 
BRANCH  10  11
ATOM     11  C   UNL     1       0.706 -14.393 -33.084  1.00  0.00     0.053 C 
BRANCH  11  12
ATOM     12  C   UNL     1       1.140 -13.834 -34.402  1.00  0.00     0.041 C 
ATOM     13  O   UNL     1       0.659 -14.288 -35.474  1.00  0.00    -0.550 OA
ATOM     14  O   UNL     1       2.044 -12.779 -34.444  1.00  0.00    -0.550 OA
ENDBRANCH  11  12
ENDBRANCH  10  11
ENDBRANCH   9  10
ENDBRANCH   8   9
ENDBRANCH   7   8
ENDBRANCH   6   7
ENDBRANCH   5   6
ENDBRANCH   4   5
ENDBRANCH   3   4
ENDBRANCH   2   3
ENDBRANCH   1   2
BRANCH   1  15
ATOM     15  C   UNL     1      -2.441  -8.706 -40.075  1.00  0.00     0.000 C 
BRANCH  15  16
ATOM     16  C   UNL     1      -2.437  -8.389 -41.583  1.00  0.00     0.000 C 
BRANCH  16  17
ATOM     17  C   UNL     1      -1.694  -9.413 -42.462  1.00  0.00     0.000 C 
BRANCH  17  18
ATOM     18  C   UNL     1      -0.210  -9.067 -42.660  1.00  0.00    -0.000 C 
BRANCH  18  19
ATOM     19  C   UNL     1       0.676 -10.311 -42.481  1.00  0.00    -0.000 C 
BRANCH  19  20
ATOM     20  C   UNL     1       0.811 -10.734 -41.009  1.00  0.00    -0.000 C 
BRANCH  20  21
ATOM     21  C   UNL     1       0.279 -12.155 -40.750  1.00  0.00    -0.000 C 
BRANCH  21  22
ATOM     22  C   UNL     1      -1.029 -12.168 -39.941  1.00  0.00    -0.000 C 
BRANCH  22  23
ATOM     23  C   UNL     1      -2.277 -12.618 -40.722  1.00  0.00    -0.000 C 
BRANCH  23  24
ATOM     24  C   UNL     1      -3.591 -12.183 -40.055  1.00  0.00    -0.000 C 
BRANCH  24  25
ATOM     25  C   UNL     1      -4.635 -11.790 -41.107  1.00  0.00    -0.003 C 
ATOM     26  C   UNL     1      -4.104 -12.007 -42.521  1.00  0.00     0.004 C 
ENDBRANCH  24  25
ENDBRANCH  23  24
ENDBRANCH  22  23
ENDBRANCH  21  22
ENDBRANCH  20  21
ENDBRANCH  19  20
ENDBRANCH  18  19
ENDBRANCH  17  18
ENDBRANCH  16  17
ENDBRANCH  15  16
ENDBRANCH   1  15
TORSDOF 22
ENDMDL
MODEL 8
REMARK VINA RESULT:    -3.458      4.211      6.674
REMARK INTER + INTRA:         -11.947
REMARK INTER:                  -8.037
REMARK INTRA:                  -3.911
REMARK UNBOUND:                -4.042
REMARK SMILES CCCCCCCCCCCCCCCCCCCCCCCC(=O)[O-]
REMARK SMILES IDX 13 1 14 2 15 3 16 4 17 5 18 6 19 7 20 8 21 9 22 10 23 11
REMARK SMILES IDX 24 12 25 13 26 14 12 15 11 16 10 17 9 18 8 19 7 20 6 21 5 22
REMARK SMILES IDX 4 23 3 24 2 25 1 26
REMARK H PARENT
REMARK Flexibility Score: inf
ROOT
ATOM      1  C   UNL     1      -3.228  -9.842 -42.339  1.00  0.00     0.000 C 
ENDROOT
BRANCH   1   2
ATOM      2  C   UNL     1      -3.925  -8.963 -41.278  1.00  0.00     0.000 C 
BRANCH   2   3
ATOM      3  C   UNL     1      -2.967  -7.953 -40.623  1.00  0.00     0.000 C 
BRANCH   3   4
ATOM      4  C   UNL     1      -1.752  -8.624 -39.960  1.00  0.00     0.000 C 
BRANCH   4   5
ATOM      5  C   UNL     1      -1.068  -7.749 -38.886  1.00  0.00     0.000 C 
BRANCH   5   6
ATOM      6  C   UNL     1      -0.353  -8.594 -37.816  1.00  0.00     0.000 C 
BRANCH   6   7
ATOM      7  C   UNL     1      -0.647  -8.114 -36.385  1.00  0.00     0.000 C 
BRANCH   7   8
ATOM      8  C   UNL     1      -1.333  -9.192 -35.528  1.00  0.00     0.000 C 
BRANCH   8   9
ATOM      9  C   UNL     1      -0.938 -10.622 -35.931  1.00  0.00     0.000 C 
BRANCH   9  10
ATOM     10  C   UNL     1      -1.813 -11.714 -35.279  1.00  0.00     0.006 C 
BRANCH  10  11
ATOM     11  C   UNL     1      -2.103 -11.419 -33.800  1.00  0.00     0.053 C 
BRANCH  11  12
ATOM     12  C   UNL     1      -0.925 -11.780 -32.951  1.00  0.00     0.041 C 
ATOM     13  O   UNL     1      -0.705 -11.162 -31.875  1.00  0.00    -0.550 OA
ATOM     14  O   UNL     1      -0.096 -12.831 -33.325  1.00  0.00    -0.550 OA
ENDBRANCH  11  12
ENDBRANCH  10  11
ENDBRANCH   9  10
ENDBRANCH   8   9
ENDBRANCH   7   8
ENDBRANCH   6   7
ENDBRANCH   5   6
ENDBRANCH   4   5
ENDBRANCH   3   4
ENDBRANCH   2   3
ENDBRANCH   1   2
BRANCH   1  15
ATOM     15  C   UNL     1      -4.029 -11.097 -42.731  1.00  0.00     0.000 C 
BRANCH  15  16
ATOM     16  C   UNL     1      -5.345 -11.303 -41.957  1.00  0.00     0.000 C 
BRANCH  16  17
ATOM     17  C   UNL     1      -5.357 -12.509 -40.999  1.00  0.00     0.000 C 
BRANCH  17  18
ATOM     18  C   UNL     1      -5.718 -12.125 -39.555  1.00  0.00    -0.000 C 
BRANCH  18  19
ATOM     19  C   UNL     1      -4.581 -12.491 -38.586  1.00  0.00    -0.000 C 
BRANCH  19  20
ATOM     20  C   UNL     1      -3.351 -11.581 -38.746  1.00  0.00    -0.000 C 
BRANCH  20  21
ATOM     21  C   UNL     1      -2.042 -12.377 -38.888  1.00  0.00    -0.000 C 
BRANCH  21  22
ATOM     22  C   UNL     1      -1.494 -12.377 -40.326  1.00  0.00    -0.000 C 
BRANCH  22  23
ATOM     23  C   UNL     1      -0.058 -11.846 -40.479  1.00  0.00    -0.000 C 
BRANCH  23  24
ATOM     24  C   UNL     1       0.201 -11.203 -41.850  1.00  0.00    -0.000 C 
BRANCH  24  25
ATOM     25  C   UNL     1       1.274 -10.112 -41.750  1.00  0.00    -0.003 C 
ATOM     26  C   UNL     1       1.125  -9.087 -42.870  1.00  0.00     0.004 C 
ENDBRANCH  24  25
ENDBRANCH  23  24
ENDBRANCH  22  23
ENDBRANCH  21  22
ENDBRANCH  20  21
ENDBRANCH  19  20
ENDBRANCH  18  19
ENDBRANCH  17  18
ENDBRANCH  16  17
ENDBRANCH  15  16
ENDBRANCH   1  15
TORSDOF 22
ENDMDL
MODEL 9
REMARK VINA RESULT:    -3.417      3.545      6.651
REMARK INTER + INTRA:         -11.852
REMARK INTER:                  -8.037
REMARK INTRA:                  -3.815
REMARK UNBOUND:                -4.042
REMARK SMILES CCCCCCCCCCCCCCCCCCCCCCCC(=O)[O-]
REMARK SMILES IDX 13 1 14 2 15 3 16 4 17 5 18 6 19 7 20 8 21 9 22 10 23 11
REMARK SMILES IDX 24 12 25 13 26 14 12 15 11 16 10 17 9 18 8 19 7 20 6 21 5 22
REMARK SMILES IDX 4 23 3 24 2 25 1 26
REMARK H PARENT
REMARK Flexibility Score: inf
ROOT
ATOM      1  C   UNL     1      -4.911 -11.463 -42.898  1.00  0.00     0.000 C 
ENDROOT
BRANCH   1   2
ATOM      2  C   UNL     1      -5.701 -10.903 -44.100  1.00  0.00     0.000 C 
BRANCH   2   3
ATOM      3  C   UNL     1      -5.676  -9.366 -44.164  1.00  0.00     0.000 C 
BRANCH   3   4
ATOM      4  C   UNL     1      -4.507  -8.822 -45.005  1.00  0.00     0.000 C 
BRANCH   4   5
ATOM      5  C   UNL     1      -4.659  -7.334 -45.390  1.00  0.00     0.000 C 
BRANCH   5   6
ATOM      6  C   UNL     1      -3.787  -6.953 -46.600  1.00  0.00     0.000 C 
BRANCH   6   7
ATOM      7  C   UNL     1      -3.708  -8.070 -47.652  1.00  0.00     0.000 C 
BRANCH   7   8
ATOM      8  C   UNL     1      -4.853  -8.001 -48.678  1.00  0.00     0.000 C 
BRANCH   8   9
ATOM      9  C   UNL     1      -5.727  -9.266 -48.687  1.00  0.00     0.000 C 
BRANCH   9  10
ATOM     10  C   UNL     1      -6.905  -9.212 -47.690  1.00  0.00     0.006 C 
BRANCH  10  11
ATOM     11  C   UNL     1      -7.317 -10.608 -47.202  1.00  0.00     0.053 C 
BRANCH  11  12
ATOM     12  C   UNL     1      -8.632 -10.550 -46.490  1.00  0.00     0.041 C 
ATOM     13  O   UNL     1      -9.372 -11.568 -46.438  1.00  0.00    -0.550 OA
ATOM     14  O   UNL     1      -9.019  -9.383 -45.842  1.00  0.00    -0.550 OA
ENDBRANCH  11  12
ENDBRANCH  10  11
ENDBRANCH   9  10
ENDBRANCH   8   9
ENDBRANCH   7   8
ENDBRANCH   6   7
ENDBRANCH   5   6
ENDBRANCH   4   5
ENDBRANCH   3   4
ENDBRANCH   2   3
ENDBRANCH   1   2
BRANCH   1  15
ATOM     15  C   UNL     1      -5.587 -11.212 -41.537  1.00  0.00     0.000 C 
BRANCH  15  16
ATOM     16  C   UNL     1      -4.741 -10.421 -40.521  1.00  0.00     0.000 C 
BRANCH  16  17
ATOM     17  C   UNL     1      -4.701  -8.899 -40.750  1.00  0.00     0.000 C 
BRANCH  17  18
ATOM     18  C   UNL     1      -3.270  -8.340 -40.815  1.00  0.00    -0.000 C 
BRANCH  18  19
ATOM     19  C   UNL     1      -2.735  -8.356 -42.257  1.00  0.00    -0.000 C 
BRANCH  19  20
ATOM     20  C   UNL     1      -1.365  -9.044 -42.372  1.00  0.00    -0.000 C 
BRANCH  20  21
ATOM     21  C   UNL     1      -1.477 -10.576 -42.458  1.00  0.00    -0.000 C 
BRANCH  21  22
ATOM     22  C   UNL     1      -0.196 -11.298 -42.004  1.00  0.00    -0.000 C 
BRANCH  22  23
ATOM     23  C   UNL     1       0.029 -11.336 -40.483  1.00  0.00    -0.000 C 
BRANCH  23  24
ATOM     24  C   UNL     1      -1.219 -11.775 -39.703  1.00  0.00    -0.000 C 
BRANCH  24  25
ATOM     25  C   UNL     1      -1.618 -10.718 -38.665  1.00  0.00    -0.003 C 
ATOM     26  C   UNL     1      -0.596  -9.586 -38.610  1.00  0.00     0.004 C 
ENDBRANCH  24  25
ENDBRANCH  23  24
ENDBRANCH  22  23
ENDBRANCH  21  22
ENDBRANCH  20  21
ENDBRANCH  19  20
ENDBRANCH  18  19
ENDBRANCH  17  18
ENDBRANCH  16  17
ENDBRANCH  15  16
ENDBRANCH   1  15
TORSDOF 22
ENDMDL
