MODEL 1
REMARK VINA RESULT:    -3.031      0.000      0.000
REMARK INTER + INTRA:          -6.512
REMARK INTER:                  -5.156
REMARK INTRA:                  -1.356
REMARK UNBOUND:                -1.356
REMARK SMILES CCCCCCCCCCCCCC(=O)[O-]
REMARK SMILES IDX 8 1 9 2 10 3 11 4 12 5 13 6 14 7 15 8 16 9 7 10 6 11 5 12
REMARK SMILES IDX 4 13 3 14 2 15 1 16
REMARK H PARENT
REMARK Flexibility Score: inf
ROOT
ATOM      1  C   UNL     1       7.267  -2.011  -6.286  1.00  0.00     0.000 C 
ENDROOT
BRANCH   1   2
ATOM      2  C   UNL     1       5.878  -2.378  -5.749  1.00  0.00     0.000 C 
BRANCH   2   3
ATOM      3  C   UNL     1       5.026  -1.123  -5.520  1.00  0.00     0.000 C 
BRANCH   3   4
ATOM      4  C   UNL     1       5.356  -0.038  -6.552  1.00  0.00     0.000 C 
BRANCH   4   5
ATOM      5  C   UNL     1       4.855   1.336  -6.083  1.00  0.00     0.006 C 
BRANCH   5   6
ATOM      6  C   UNL     1       3.325   1.388  -5.967  1.00  0.00     0.053 C 
BRANCH   6   7
ATOM      7  C   UNL     1       2.885   2.193  -4.783  1.00  0.00     0.041 C 
ATOM      8  O   UNL     1       3.050   1.749  -3.616  1.00  0.00    -0.550 OA
ATOM      9  O   UNL     1       2.322   3.449  -4.968  1.00  0.00    -0.550 OA
ENDBRANCH   6   7
ENDBRANCH   5   6
ENDBRANCH   4   5
ENDBRANCH   3   4
ENDBRANCH   2   3
ENDBRANCH   1   2
BRANCH   1  10
ATOM     10  C   UNL     1       8.366  -2.780  -5.539  1.00  0.00     0.000 C 
BRANCH  10  11
ATOM     11  C   UNL     1       8.456  -2.400  -4.051  1.00  0.00    -0.000 C 
BRANCH  11  12
ATOM     12  C   UNL     1       9.498  -1.314  -3.714  1.00  0.00    -0.000 C 
BRANCH  12  13
ATOM     13  C   UNL     1      10.792  -1.363  -4.548  1.00  0.00    -0.000 C 
BRANCH  13  14
ATOM     14  C   UNL     1      11.015  -0.088  -5.379  1.00  0.00    -0.000 C 
BRANCH  14  15
ATOM     15  C   UNL     1       9.902   0.951  -5.173  1.00  0.00    -0.003 C 
ATOM     16  C   UNL     1       9.101   1.223  -6.446  1.00  0.00     0.004 C 
ENDBRANCH  14  15
ENDBRANCH  13  14
ENDBRANCH  12  13
ENDBRANCH  11  12
ENDBRANCH  10  11
ENDBRANCH   1  10
TORSDOF 12
ENDMDL
MODEL 2
REMARK VINA RESULT:    -2.976      8.894     11.197
REMARK INTER + INTRA:          -6.419
REMARK INTER:                  -5.563
REMARK INTRA:                  -0.856
REMARK UNBOUND:                -1.356
REMARK SMILES CCCCCCCCCCCCCC(=O)[O-]
REMARK SMILES IDX 8 1 9 2 10 3 11 4 12 5 13 6 14 7 15 8 16 9 7 10 6 11 5 12
REMARK SMILES IDX 4 13 3 14 2 15 1 16
REMARK H PARENT
REMARK Flexibility Score: inf
ROOT
ATOM      1  C   UNL     1       5.098   5.628   3.091  1.00  0.00     0.000 C 
ENDROOT
BRANCH   1   2
ATOM      2  C   UNL     1       5.178   5.191   1.623  1.00  0.00     0.000 C 
BRANCH   2   3
ATOM      3  C   UNL     1       5.434   6.391   0.703  1.00  0.00     0.000 C 
BRANCH   3   4
ATOM      4  C   UNL     1       6.676   6.163  -0.167  1.00  0.00     0.000 C 
BRANCH   4   5
ATOM      5  C   UNL     1       7.266   4.765   0.073  1.00  0.00     0.006 C 
BRANCH   5   6
ATOM      6  C   UNL     1       8.762   4.702  -0.264  1.00  0.00     0.053 C 
BRANCH   6   7
ATOM      7  C   UNL     1       9.611   5.107   0.902  1.00  0.00     0.041 C 
ATOM      8  O   UNL     1       9.921   4.263   1.784  1.00  0.00    -0.550 OA
ATOM      9  O   UNL     1      10.087   6.408   0.997  1.00  0.00    -0.550 OA
ENDBRANCH   6   7
ENDBRANCH   5   6
ENDBRANCH   4   5
ENDBRANCH   3   4
ENDBRANCH   2   3
ENDBRANCH   1   2
BRANCH   1  10
ATOM     10  C   UNL     1       3.962   4.897   3.821  1.00  0.00     0.000 C 
BRANCH  10  11
ATOM     11  C   UNL     1       3.394   3.717   3.013  1.00  0.00    -0.000 C 
BRANCH  11  12
ATOM     12  C   UNL     1       2.418   2.805   3.785  1.00  0.00    -0.000 C 
BRANCH  12  13
ATOM     13  C   UNL     1       2.144   3.218   5.243  1.00  0.00    -0.000 C 
BRANCH  13  14
ATOM     14  C   UNL     1       2.713   2.218   6.264  1.00  0.00    -0.000 C 
BRANCH  14  15
ATOM     15  C   UNL     1       4.237   2.339   6.420  1.00  0.00    -0.003 C 
ATOM     16  C   UNL     1       4.903   1.012   6.783  1.00  0.00     0.004 C 
ENDBRANCH  14  15
ENDBRANCH  13  14
ENDBRANCH  12  13
ENDBRANCH  11  12
ENDBRANCH  10  11
ENDBRANCH   1  10
TORSDOF 12
ENDMDL
MODEL 3
REMARK VINA RESULT:    -2.951      9.944     12.748
REMARK INTER + INTRA:          -6.377
REMARK INTER:                  -5.479
REMARK INTRA:                  -0.899
REMARK UNBOUND:                -1.356
REMARK SMILES CCCCCCCCCCCCCC(=O)[O-]
REMARK SMILES IDX 8 1 9 2 10 3 11 4 12 5 13 6 14 7 15 8 16 9 7 10 6 11 5 12
REMARK SMILES IDX 4 13 3 14 2 15 1 16
REMARK H PARENT
REMARK Flexibility Score: inf
ROOT
ATOM      1  C   UNL     1       0.733   6.318   3.756  1.00  0.00     0.000 C 
ENDROOT
BRANCH   1   2
ATOM      2  C   UNL     1       0.584   5.052   4.609  1.00  0.00     0.000 C 
BRANCH   2   3
ATOM      3  C   UNL     1       1.954   4.475   4.984  1.00  0.00     0.000 C 
BRANCH   3   4
ATOM      4  C   UNL     1       2.234   3.176   4.218  1.00  0.00     0.000 C 
BRANCH   4   5
ATOM      5  C   UNL     1       3.337   3.384   3.170  1.00  0.00     0.006 C 
BRANCH   5   6
ATOM      6  C   UNL     1       4.098   4.701   3.381  1.00  0.00     0.053 C 
BRANCH   6   7
ATOM      7  C   UNL     1       4.339   5.416   2.087  1.00  0.00     0.041 C 
ATOM      8  O   UNL     1       3.568   6.342   1.720  1.00  0.00    -0.550 OA
ATOM      9  O   UNL     1       5.434   5.080   1.301  1.00  0.00    -0.550 OA
ENDBRANCH   6   7
ENDBRANCH   5   6
ENDBRANCH   4   5
ENDBRANCH   3   4
ENDBRANCH   2   3
ENDBRANCH   1   2
BRANCH   1  10
ATOM     10  C   UNL     1      -0.600   6.696   3.095  1.00  0.00     0.000 C 
BRANCH  10  11
ATOM     11  C   UNL     1      -1.777   5.836   3.588  1.00  0.00    -0.000 C 
BRANCH  11  12
ATOM     12  C   UNL     1      -2.697   5.286   2.477  1.00  0.00    -0.000 C 
BRANCH  12  13
ATOM     13  C   UNL     1      -2.261   5.619   1.039  1.00  0.00    -0.000 C 
BRANCH  13  14
ATOM     14  C   UNL     1      -2.643   4.521   0.031  1.00  0.00    -0.000 C 
BRANCH  14  15
ATOM     15  C   UNL     1      -2.973   5.088  -1.359  1.00  0.00    -0.003 C 
ATOM     16  C   UNL     1      -1.926   6.084  -1.857  1.00  0.00     0.004 C 
ENDBRANCH  14  15
ENDBRANCH  13  14
ENDBRANCH  12  13
ENDBRANCH  11  12
ENDBRANCH  10  11
ENDBRANCH   1  10
TORSDOF 12
ENDMDL
MODEL 4
REMARK VINA RESULT:    -2.937     12.463     15.061
REMARK INTER + INTRA:          -6.354
REMARK INTER:                  -4.523
REMARK INTRA:                  -1.830
REMARK UNBOUND:                -1.356
REMARK SMILES CCCCCCCCCCCCCC(=O)[O-]
REMARK SMILES IDX 8 1 9 2 10 3 11 4 12 5 13 6 14 7 15 8 16 9 7 10 6 11 5 12
REMARK SMILES IDX 4 13 3 14 2 15 1 16
REMARK H PARENT
REMARK Flexibility Score: inf
ROOT
ATOM      1  C   UNL     1      -4.789  -3.633   4.938  1.00  0.00     0.000 C 
ENDROOT
BRANCH   1   2
ATOM      2  C   UNL     1      -4.211  -2.928   3.705  1.00  0.00     0.000 C 
BRANCH   2   3
ATOM      3  C   UNL     1      -2.840  -3.504   3.332  1.00  0.00     0.000 C 
BRANCH   3   4
ATOM      4  C   UNL     1      -2.282  -4.376   4.463  1.00  0.00     0.000 C 
BRANCH   4   5
ATOM      5  C   UNL     1      -0.861  -4.858   4.136  1.00  0.00     0.006 C 
BRANCH   5   6
ATOM      6  C   UNL     1       0.067  -3.702   3.739  1.00  0.00     0.053 C 
BRANCH   6   7
ATOM      7  C   UNL     1       0.418  -2.843   4.914  1.00  0.00     0.041 C 
ATOM      8  O   UNL     1       0.049  -1.639   4.954  1.00  0.00    -0.550 OA
ATOM      9  O   UNL     1       1.125  -3.381   5.982  1.00  0.00    -0.550 OA
ENDBRANCH   6   7
ENDBRANCH   5   6
ENDBRANCH   4   5
ENDBRANCH   3   4
ENDBRANCH   2   3
ENDBRANCH   1   2
BRANCH   1  10
ATOM     10  C   UNL     1      -6.019  -4.473   4.564  1.00  0.00     0.000 C 
BRANCH  10  11
ATOM     11  C   UNL     1      -6.572  -4.135   3.169  1.00  0.00    -0.000 C 
BRANCH  11  12
ATOM     12  C   UNL     1      -6.533  -5.293   2.150  1.00  0.00    -0.000 C 
BRANCH  12  13
ATOM     13  C   UNL     1      -5.361  -6.277   2.318  1.00  0.00    -0.000 C 
BRANCH  13  14
ATOM     14  C   UNL     1      -4.388  -6.256   1.127  1.00  0.00    -0.000 C 
BRANCH  14  15
ATOM     15  C   UNL     1      -2.966  -6.684   1.521  1.00  0.00    -0.003 C 
ATOM     16  C   UNL     1      -2.943  -7.643   2.711  1.00  0.00     0.004 C 
ENDBRANCH  14  15
ENDBRANCH  13  14
ENDBRANCH  12  13
ENDBRANCH  11  12
ENDBRANCH  10  11
ENDBRANCH   1  10
TORSDOF 12
ENDMDL
MODEL 5
REMARK VINA RESULT:    -2.931      8.661     11.289
REMARK INTER + INTRA:          -6.343
REMARK INTER:                  -5.692
REMARK INTRA:                  -0.651
REMARK UNBOUND:                -1.356
REMARK SMILES CCCCCCCCCCCCCC(=O)[O-]
REMARK SMILES IDX 8 1 9 2 10 3 11 4 12 5 13 6 14 7 15 8 16 9 7 10 6 11 5 12
REMARK SMILES IDX 4 13 3 14 2 15 1 16
REMARK H PARENT
REMARK Flexibility Score: inf
ROOT
ATOM      1  C   UNL     1       0.580   5.465   4.073  1.00  0.00     0.000 C 
ENDROOT
BRANCH   1   2
ATOM      2  C   UNL     1      -0.666   5.533   4.964  1.00  0.00     0.000 C 
BRANCH   2   3
ATOM      3  C   UNL     1      -1.942   5.641   4.121  1.00  0.00     0.000 C 
BRANCH   3   4
ATOM      4  C   UNL     1      -1.617   6.042   2.677  1.00  0.00     0.000 C 
BRANCH   4   5
ATOM      5  C   UNL     1      -2.442   5.217   1.679  1.00  0.00     0.006 C 
BRANCH   5   6
ATOM      6  C   UNL     1      -2.775   6.009   0.407  1.00  0.00     0.053 C 
BRANCH   6   7
ATOM      7  C   UNL     1      -2.904   5.113  -0.787  1.00  0.00     0.041 C 
ATOM      8  O   UNL     1      -2.598   3.895  -0.702  1.00  0.00    -0.550 OA
ATOM      9  O   UNL     1      -3.394   5.618  -1.984  1.00  0.00    -0.550 OA
ENDBRANCH   6   7
ENDBRANCH   5   6
ENDBRANCH   4   5
ENDBRANCH   3   4
ENDBRANCH   2   3
ENDBRANCH   1   2
BRANCH   1  10
ATOM     10  C   UNL     1       1.744   4.782   4.805  1.00  0.00     0.000 C 
BRANCH  10  11
ATOM     11  C   UNL     1       2.067   3.387   4.242  1.00  0.00    -0.000 C 
BRANCH  11  12
ATOM     12  C   UNL     1       3.268   3.333   3.274  1.00  0.00    -0.000 C 
BRANCH  12  13
ATOM     13  C   UNL     1       4.184   4.571   3.294  1.00  0.00    -0.000 C 
BRANCH  13  14
ATOM     14  C   UNL     1       4.360   5.206   1.904  1.00  0.00    -0.000 C 
BRANCH  14  15
ATOM     15  C   UNL     1       5.832   5.494   1.572  1.00  0.00    -0.003 C 
ATOM     16  C   UNL     1       6.195   5.143   0.129  1.00  0.00     0.004 C 
ENDBRANCH  14  15
ENDBRANCH  13  14
ENDBRANCH  12  13
ENDBRANCH  11  12
ENDBRANCH  10  11
ENDBRANCH   1  10
TORSDOF 12
ENDMDL
MODEL 6
REMARK VINA RESULT:    -2.922      9.408     11.949
REMARK INTER + INTRA:          -6.328
REMARK INTER:                  -5.478
REMARK INTRA:                  -0.850
REMARK UNBOUND:                -1.356
REMARK SMILES CCCCCCCCCCCCCC(=O)[O-]
REMARK SMILES IDX 8 1 9 2 10 3 11 4 12 5 13 6 14 7 15 8 16 9 7 10 6 11 5 12
REMARK SMILES IDX 4 13 3 14 2 15 1 16
REMARK H PARENT
REMARK Flexibility Score: inf
ROOT
ATOM      1  C   UNL     1       3.037   3.434   3.390  1.00  0.00     0.000 C 
ENDROOT
BRANCH   1   2
ATOM      2  C   UNL     1       3.445   4.775   4.013  1.00  0.00     0.000 C 
BRANCH   2   3
ATOM      3  C   UNL     1       4.701   5.338   3.338  1.00  0.00     0.000 C 
BRANCH   3   4
ATOM      4  C   UNL     1       4.740   4.969   1.850  1.00  0.00     0.000 C 
BRANCH   4   5
ATOM      5  C   UNL     1       5.419   6.074   1.028  1.00  0.00     0.006 C 
BRANCH   5   6
ATOM      6  C   UNL     1       6.259   5.507  -0.125  1.00  0.00     0.053 C 
BRANCH   6   7
ATOM      7  C   UNL     1       7.586   5.001   0.351  1.00  0.00     0.041 C 
ATOM      8  O   UNL     1       8.224   4.156  -0.329  1.00  0.00    -0.550 OA
ATOM      9  O   UNL     1       8.132   5.488   1.532  1.00  0.00    -0.550 OA
ENDBRANCH   6   7
ENDBRANCH   5   6
ENDBRANCH   4   5
ENDBRANCH   3   4
ENDBRANCH   2   3
ENDBRANCH   1   2
BRANCH   1  10
ATOM     10  C   UNL     1       2.144   2.632   4.346  1.00  0.00     0.000 C 
BRANCH  10  11
ATOM     11  C   UNL     1       2.848   2.282   5.669  1.00  0.00    -0.000 C 
BRANCH  11  12
ATOM     12  C   UNL     1       1.906   2.013   6.861  1.00  0.00    -0.000 C 
BRANCH  12  13
ATOM     13  C   UNL     1       0.406   2.210   6.571  1.00  0.00    -0.000 C 
BRANCH  13  14
ATOM     14  C   UNL     1      -0.392   0.897   6.638  1.00  0.00    -0.000 C 
BRANCH  14  15
ATOM     15  C   UNL     1       0.511  -0.344   6.578  1.00  0.00    -0.003 C 
ATOM     16  C   UNL     1       0.343  -1.138   5.282  1.00  0.00     0.004 C 
ENDBRANCH  14  15
ENDBRANCH  13  14
ENDBRANCH  12  13
ENDBRANCH  11  12
ENDBRANCH  10  11
ENDBRANCH   1  10
TORSDOF 12
ENDMDL
MODEL 7
REMARK VINA RESULT:    -2.911      9.438     11.655
REMARK INTER + INTRA:          -6.309
REMARK INTER:                  -5.085
REMARK INTRA:                  -1.224
REMARK UNBOUND:                -1.356
REMARK SMILES CCCCCCCCCCCCCC(=O)[O-]
REMARK SMILES IDX 8 1 9 2 10 3 11 4 12 5 13 6 14 7 15 8 16 9 7 10 6 11 5 12
REMARK SMILES IDX 4 13 3 14 2 15 1 16
REMARK H PARENT
REMARK Flexibility Score: inf
ROOT
ATOM      1  C   UNL     1       3.968   3.714   3.700  1.00  0.00     0.000 C 
ENDROOT
BRANCH   1   2
ATOM      2  C   UNL     1       4.058   5.243   3.610  1.00  0.00     0.000 C 
BRANCH   2   3
ATOM      3  C   UNL     1       3.989   5.715   2.153  1.00  0.00     0.000 C 
BRANCH   3   4
ATOM      4  C   UNL     1       5.216   5.246   1.362  1.00  0.00     0.000 C 
BRANCH   4   5
ATOM      5  C   UNL     1       6.324   6.309   1.385  1.00  0.00     0.006 C 
BRANCH   5   6
ATOM      6  C   UNL     1       7.621   5.782   2.014  1.00  0.00     0.053 C 
BRANCH   6   7
ATOM      7  C   UNL     1       8.584   5.296   0.976  1.00  0.00     0.041 C 
ATOM      8  O   UNL     1       9.536   4.537   1.299  1.00  0.00    -0.550 OA
ATOM      9  O   UNL     1       8.411   5.654  -0.355  1.00  0.00    -0.550 OA
ENDBRANCH   6   7
ENDBRANCH   5   6
ENDBRANCH   4   5
ENDBRANCH   3   4
ENDBRANCH   2   3
ENDBRANCH   1   2
BRANCH   1  10
ATOM     10  C   UNL     1       2.505   3.250   3.718  1.00  0.00     0.000 C 
BRANCH  10  11
ATOM     11  C   UNL     1       1.742   3.727   4.966  1.00  0.00    -0.000 C 
BRANCH  11  12
ATOM     12  C   UNL     1       1.194   2.601   5.869  1.00  0.00    -0.000 C 
BRANCH  12  13
ATOM     13  C   UNL     1       1.907   1.244   5.732  1.00  0.00    -0.000 C 
BRANCH  13  14
ATOM     14  C   UNL     1       2.863   0.951   6.901  1.00  0.00    -0.000 C 
BRANCH  14  15
ATOM     15  C   UNL     1       4.300   1.410   6.614  1.00  0.00    -0.003 C 
ATOM     16  C   UNL     1       4.637   2.750   7.269  1.00  0.00     0.004 C 
ENDBRANCH  14  15
ENDBRANCH  13  14
ENDBRANCH  12  13
ENDBRANCH  11  12
ENDBRANCH  10  11
ENDBRANCH   1  10
TORSDOF 12
ENDMDL
MODEL 8
REMARK VINA RESULT:    -2.897     10.034     11.964
REMARK INTER + INTRA:          -6.285
REMARK INTER:                  -4.939
REMARK INTRA:                  -1.346
REMARK UNBOUND:                -1.356
REMARK SMILES CCCCCCCCCCCCCC(=O)[O-]
REMARK SMILES IDX 8 1 9 2 10 3 11 4 12 5 13 6 14 7 15 8 16 9 7 10 6 11 5 12
REMARK SMILES IDX 4 13 3 14 2 15 1 16
REMARK H PARENT
REMARK Flexibility Score: inf
ROOT
ATOM      1  C   UNL     1       3.632   3.506   6.329  1.00  0.00     0.000 C 
ENDROOT
BRANCH   1   2
ATOM      2  C   UNL     1       3.873   3.018   4.895  1.00  0.00     0.000 C 
BRANCH   2   3
ATOM      3  C   UNL     1       2.815   3.578   3.936  1.00  0.00     0.000 C 
BRANCH   3   4
ATOM      4  C   UNL     1       3.253   4.931   3.362  1.00  0.00     0.000 C 
BRANCH   4   5
ATOM      5  C   UNL     1       4.299   4.745   2.253  1.00  0.00     0.006 C 
BRANCH   5   6
ATOM      6  C   UNL     1       4.637   6.065   1.547  1.00  0.00     0.053 C 
BRANCH   6   7
ATOM      7  C   UNL     1       5.960   5.998   0.848  1.00  0.00     0.041 C 
ATOM      8  O   UNL     1       6.303   4.951   0.239  1.00  0.00    -0.550 OA
ATOM      9  O   UNL     1       6.799   7.105   0.842  1.00  0.00    -0.550 OA
ENDBRANCH   6   7
ENDBRANCH   5   6
ENDBRANCH   4   5
ENDBRANCH   3   4
ENDBRANCH   2   3
ENDBRANCH   1   2
BRANCH   1  10
ATOM     10  C   UNL     1       4.261   2.547   7.349  1.00  0.00     0.000 C 
BRANCH  10  11
ATOM     11  C   UNL     1       4.840   1.279   6.700  1.00  0.00    -0.000 C 
BRANCH  11  12
ATOM     12  C   UNL     1       4.121  -0.035   7.072  1.00  0.00    -0.000 C 
BRANCH  12  13
ATOM     13  C   UNL     1       2.644   0.117   7.479  1.00  0.00    -0.000 C 
BRANCH  13  14
ATOM     14  C   UNL     1       1.677  -0.518   6.466  1.00  0.00    -0.000 C 
BRANCH  14  15
ATOM     15  C   UNL     1       0.975   0.529   5.587  1.00  0.00    -0.003 C 
ATOM     16  C   UNL     1       0.434   1.712   6.391  1.00  0.00     0.004 C 
ENDBRANCH  14  15
ENDBRANCH  13  14
ENDBRANCH  12  13
ENDBRANCH  11  12
ENDBRANCH  10  11
ENDBRANCH   1  10
TORSDOF 12
ENDMDL
MODEL 9
REMARK VINA RESULT:    -2.880     12.557     14.435
REMARK INTER + INTRA:          -6.255
REMARK INTER:                  -4.627
REMARK INTRA:                  -1.628
REMARK UNBOUND:                -1.356
REMARK SMILES CCCCCCCCCCCCCC(=O)[O-]
REMARK SMILES IDX 8 1 9 2 10 3 11 4 12 5 13 6 14 7 15 8 16 9 7 10 6 11 5 12
REMARK SMILES IDX 4 13 3 14 2 15 1 16
REMARK H PARENT
REMARK Flexibility Score: inf
ROOT
ATOM      1  C   UNL     1      -2.238  -3.372   3.382  1.00  0.00     0.000 C 
ENDROOT
BRANCH   1   2
ATOM      2  C   UNL     1      -3.575  -3.688   4.064  1.00  0.00     0.000 C 
BRANCH   2   3
ATOM      3  C   UNL     1      -4.717  -2.873   3.443  1.00  0.00     0.000 C 
BRANCH   3   4
ATOM      4  C   UNL     1      -5.719  -3.786   2.727  1.00  0.00     0.000 C 
BRANCH   4   5
ATOM      5  C   UNL     1      -5.315  -5.261   2.865  1.00  0.00     0.006 C 
BRANCH   5   6
ATOM      6  C   UNL     1      -5.234  -5.970   1.506  1.00  0.00     0.053 C 
BRANCH   6   7
ATOM      7  C   UNL     1      -3.822  -6.313   1.142  1.00  0.00     0.041 C 
ATOM      8  O   UNL     1      -2.976  -6.555   2.043  1.00  0.00    -0.550 OA
ATOM      9  O   UNL     1      -3.450  -6.399  -0.193  1.00  0.00    -0.550 OA
ENDBRANCH   6   7
ENDBRANCH   5   6
ENDBRANCH   4   5
ENDBRANCH   3   4
ENDBRANCH   2   3
ENDBRANCH   1   2
BRANCH   1  10
ATOM     10  C   UNL     1      -1.109  -4.236   3.961  1.00  0.00     0.000 C 
BRANCH  10  11
ATOM     11  C   UNL     1       0.200  -3.452   4.162  1.00  0.00    -0.000 C 
BRANCH  11  12
ATOM     12  C   UNL     1       0.050  -2.101   4.892  1.00  0.00    -0.000 C 
BRANCH  12  13
ATOM     13  C   UNL     1      -0.278  -2.198   6.393  1.00  0.00    -0.000 C 
BRANCH  13  14
ATOM     14  C   UNL     1      -1.604  -1.510   6.760  1.00  0.00    -0.000 C 
BRANCH  14  15
ATOM     15  C   UNL     1      -2.622  -2.484   7.373  1.00  0.00    -0.003 C 
ATOM     16  C   UNL     1      -2.067  -3.899   7.533  1.00  0.00     0.004 C 
ENDBRANCH  14  15
ENDBRANCH  13  14
ENDBRANCH  12  13
ENDBRANCH  11  12
ENDBRANCH  10  11
ENDBRANCH   1  10
TORSDOF 12
ENDMDL
