MODEL 1
REMARK VINA RESULT:    -7.839      0.000      0.000
REMARK INTER + INTRA:          -9.701
REMARK INTER:                  -9.443
REMARK INTRA:                  -0.258
REMARK UNBOUND:                -0.258
REMARK SMILES Oc1cc(O)c2cc(O)c(-c3ccc(O)c(O)c3)[o+]c2c1
REMARK SMILES IDX 10 1 19 2 20 3 21 4 2 5 3 6 4 7 6 8 7 9 8 10 11 11 12 12
REMARK SMILES IDX 13 13 14 14 18 15 16 16 15 17 17 19 9 21 1 23 5 25
REMARK H PARENT 15 18 17 20 9 22 1 24 5 26
REMARK Flexibility Score: inf
ROOT
ATOM      1  C   UNL     1      11.288 -26.205   6.725  1.00  0.00     0.402 A 
ATOM      2  O   UNL     1      12.150 -26.342   7.730  1.00  0.00    -0.202 OA
ATOM      3  C   UNL     1      13.221 -27.127   7.671  1.00  0.00     0.368 A 
ATOM      4  C   UNL     1      14.065 -27.208   8.781  1.00  0.00     0.162 A 
ATOM      5  C   UNL     1      15.197 -28.028   8.748  1.00  0.00     0.128 A 
ATOM      6  C   UNL     1      15.483 -28.772   7.601  1.00  0.00     0.093 A 
ATOM      7  C   UNL     1      14.652 -28.710   6.476  1.00  0.00     0.136 A 
ATOM      8  C   UNL     1      13.503 -27.875   6.504  1.00  0.00     0.125 A 
ATOM      9  C   UNL     1      12.621 -27.740   5.419  1.00  0.00     0.078 A 
ATOM     10  C   UNL     1      11.512 -26.896   5.519  1.00  0.00     0.223 A 
ENDROOT
BRANCH   1  11
ATOM     11  C   UNL     1      10.127 -25.307   6.915  1.00  0.00     0.087 A 
ATOM     12  C   UNL     1       9.056 -25.725   7.718  1.00  0.00     0.022 A 
ATOM     13  C   UNL     1       7.943 -24.902   7.896  1.00  0.00     0.051 A 
ATOM     14  C   UNL     1       7.868 -23.655   7.265  1.00  0.00     0.157 A 
ATOM     15  C   UNL     1      10.046 -24.065   6.262  1.00  0.00     0.068 A 
ATOM     16  C   UNL     1       8.931 -23.234   6.432  1.00  0.00     0.158 A 
BRANCH  14  17
ATOM     17  O   UNL     1       6.730 -22.877   7.489  1.00  0.00    -0.504 OA
ATOM     18  H   UNL     1       5.788 -23.243   7.494  1.00  0.00     0.293 HD
ENDBRANCH  14  17
BRANCH  16  19
ATOM     19  O   UNL     1       8.919 -22.014   5.752  1.00  0.00    -0.504 OA
ATOM     20  H   UNL     1       8.173 -21.337   5.823  1.00  0.00     0.293 HD
ENDBRANCH  16  19
ENDBRANCH   1  11
BRANCH  10  21
ATOM     21  O   UNL     1      10.664 -26.721   4.425  1.00  0.00    -0.500 OA
ATOM     22  H   UNL     1       9.668 -26.576   4.541  1.00  0.00     0.294 HD
ENDBRANCH  10  21
BRANCH   5  23
ATOM     23  O   UNL     1      16.045 -28.113   9.850  1.00  0.00    -0.507 OA
ATOM     24  H   UNL     1      15.881 -28.782  10.594  1.00  0.00     0.293 HD
ENDBRANCH   5  23
BRANCH   7  25
ATOM     25  O   UNL     1      15.005 -29.487   5.370  1.00  0.00    -0.507 OA
ATOM     26  H   UNL     1      15.302 -29.113   4.480  1.00  0.00     0.293 HD
ENDBRANCH   7  25
TORSDOF 6
ENDMDL
MODEL 2
REMARK VINA RESULT:    -7.513      1.066      2.622
REMARK INTER + INTRA:          -9.308
REMARK INTER:                  -8.964
REMARK INTRA:                  -0.344
REMARK UNBOUND:                -0.258
REMARK SMILES Oc1cc(O)c2cc(O)c(-c3ccc(O)c(O)c3)[o+]c2c1
REMARK SMILES IDX 10 1 19 2 20 3 21 4 2 5 3 6 4 7 6 8 7 9 8 10 11 11 12 12
REMARK SMILES IDX 13 13 14 14 18 15 16 16 15 17 17 19 9 21 1 23 5 25
REMARK H PARENT 15 18 17 20 9 22 1 24 5 26
REMARK Flexibility Score: inf
ROOT
ATOM      1  C   UNL     1      11.521 -25.649   7.918  1.00  0.00     0.402 A 
ATOM      2  O   UNL     1      11.816 -26.652   7.095  1.00  0.00    -0.202 OA
ATOM      3  C   UNL     1      12.938 -27.359   7.178  1.00  0.00     0.368 A 
ATOM      4  C   UNL     1      13.160 -28.392   6.264  1.00  0.00     0.162 A 
ATOM      5  C   UNL     1      14.333 -29.149   6.327  1.00  0.00     0.128 A 
ATOM      6  C   UNL     1      15.289 -28.872   7.307  1.00  0.00     0.093 A 
ATOM      7  C   UNL     1      15.091 -27.841   8.235  1.00  0.00     0.136 A 
ATOM      8  C   UNL     1      13.899 -27.071   8.176  1.00  0.00     0.125 A 
ATOM      9  C   UNL     1      13.610 -26.029   9.072  1.00  0.00     0.078 A 
ATOM     10  C   UNL     1      12.413 -25.317   8.956  1.00  0.00     0.223 A 
ENDROOT
BRANCH   1  11
ATOM     11  C   UNL     1      10.242 -24.931   7.718  1.00  0.00     0.087 A 
ATOM     12  C   UNL     1       9.098 -25.354   8.408  1.00  0.00     0.022 A 
ATOM     13  C   UNL     1       7.878 -24.703   8.220  1.00  0.00     0.051 A 
ATOM     14  C   UNL     1       7.771 -23.629   7.329  1.00  0.00     0.157 A 
ATOM     15  C   UNL     1      10.134 -23.867   6.806  1.00  0.00     0.068 A 
ATOM     16  C   UNL     1       8.913 -23.210   6.607  1.00  0.00     0.158 A 
BRANCH  14  17
ATOM     17  O   UNL     1       6.523 -23.016   7.191  1.00  0.00    -0.504 OA
ATOM     18  H   UNL     1       6.073 -22.483   7.921  1.00  0.00     0.293 HD
ENDBRANCH  14  17
BRANCH  16  19
ATOM     19  O   UNL     1       8.880 -22.161   5.686  1.00  0.00    -0.504 OA
ATOM     20  H   UNL     1       9.480 -22.103   4.876  1.00  0.00     0.293 HD
ENDBRANCH  16  19
ENDBRANCH   1  11
BRANCH  10  21
ATOM     21  O   UNL     1      12.102 -24.315   9.875  1.00  0.00    -0.500 OA
ATOM     22  H   UNL     1      11.697 -24.530  10.779  1.00  0.00     0.294 HD
ENDBRANCH  10  21
BRANCH   5  23
ATOM     23  O   UNL     1      14.562 -30.182   5.419  1.00  0.00    -0.507 OA
ATOM     24  H   UNL     1      15.493 -30.548   5.259  1.00  0.00     0.293 HD
ENDBRANCH   5  23
BRANCH   7  25
ATOM     25  O   UNL     1      16.096 -27.624   9.181  1.00  0.00    -0.507 OA
ATOM     26  H   UNL     1      17.022 -28.023   9.132  1.00  0.00     0.293 HD
ENDBRANCH   7  25
TORSDOF 6
ENDMDL
MODEL 3
REMARK VINA RESULT:    -7.444      4.051      6.026
REMARK INTER + INTRA:          -9.226
REMARK INTER:                  -8.897
REMARK INTRA:                  -0.329
REMARK UNBOUND:                -0.258
REMARK SMILES Oc1cc(O)c2cc(O)c(-c3ccc(O)c(O)c3)[o+]c2c1
REMARK SMILES IDX 10 1 19 2 20 3 21 4 2 5 3 6 4 7 6 8 7 9 8 10 11 11 12 12
REMARK SMILES IDX 13 13 14 14 18 15 16 16 15 17 17 19 9 21 1 23 5 25
REMARK H PARENT 15 18 17 20 9 22 1 24 5 26
REMARK Flexibility Score: inf
ROOT
ATOM      1  C   UNL     1      14.687 -27.254   7.554  1.00  0.00     0.402 A 
ATOM      2  O   UNL     1      13.909 -26.995   6.506  1.00  0.00    -0.202 OA
ATOM      3  C   UNL     1      13.484 -27.932   5.663  1.00  0.00     0.368 A 
ATOM      4  C   UNL     1      12.673 -27.561   4.588  1.00  0.00     0.162 A 
ATOM      5  C   UNL     1      12.215 -28.524   3.685  1.00  0.00     0.128 A 
ATOM      6  C   UNL     1      12.571 -29.864   3.857  1.00  0.00     0.093 A 
ATOM      7  C   UNL     1      13.384 -30.262   4.926  1.00  0.00     0.136 A 
ATOM      8  C   UNL     1      13.848 -29.287   5.848  1.00  0.00     0.125 A 
ATOM      9  C   UNL     1      14.655 -29.595   6.955  1.00  0.00     0.078 A 
ATOM     10  C   UNL     1      15.072 -28.581   7.822  1.00  0.00     0.223 A 
ENDROOT
BRANCH   1  11
ATOM     11  C   UNL     1      15.102 -26.123   8.414  1.00  0.00     0.087 A 
ATOM     12  C   UNL     1      16.227 -25.366   8.061  1.00  0.00     0.022 A 
ATOM     13  C   UNL     1      16.648 -24.307   8.868  1.00  0.00     0.051 A 
ATOM     14  C   UNL     1      15.965 -23.993  10.048  1.00  0.00     0.157 A 
ATOM     15  C   UNL     1      14.427 -25.826   9.611  1.00  0.00     0.068 A 
ATOM     16  C   UNL     1      14.844 -24.767  10.428  1.00  0.00     0.158 A 
BRANCH  14  17
ATOM     17  O   UNL     1      16.433 -22.918  10.807  1.00  0.00    -0.504 OA
ATOM     18  H   UNL     1      15.982 -22.581  11.646  1.00  0.00     0.293 HD
ENDBRANCH  14  17
BRANCH  16  19
ATOM     19  O   UNL     1      14.125 -24.529  11.601  1.00  0.00    -0.504 OA
ATOM     20  H   UNL     1      13.151 -24.764  11.724  1.00  0.00     0.293 HD
ENDBRANCH  16  19
ENDBRANCH   1  11
BRANCH  10  21
ATOM     21  O   UNL     1      15.831 -28.893   8.950  1.00  0.00    -0.500 OA
ATOM     22  H   UNL     1      15.808 -28.317   9.784  1.00  0.00     0.294 HD
ENDBRANCH  10  21
BRANCH   5  23
ATOM     23  O   UNL     1      11.405 -28.163   2.610  1.00  0.00    -0.507 OA
ATOM     24  H   UNL     1      10.634 -27.514   2.724  1.00  0.00     0.293 HD
ENDBRANCH   5  23
BRANCH   7  25
ATOM     25  O   UNL     1      13.697 -31.620   5.026  1.00  0.00    -0.507 OA
ATOM     26  H   UNL     1      13.152 -32.363   4.616  1.00  0.00     0.293 HD
ENDBRANCH   7  25
TORSDOF 6
ENDMDL
MODEL 4
REMARK VINA RESULT:    -7.313      2.552      6.818
REMARK INTER + INTRA:          -9.068
REMARK INTER:                  -8.788
REMARK INTRA:                  -0.280
REMARK UNBOUND:                -0.258
REMARK SMILES Oc1cc(O)c2cc(O)c(-c3ccc(O)c(O)c3)[o+]c2c1
REMARK SMILES IDX 10 1 19 2 20 3 21 4 2 5 3 6 4 7 6 8 7 9 8 10 11 11 12 12
REMARK SMILES IDX 13 13 14 14 18 15 16 16 15 17 17 19 9 21 1 23 5 25
REMARK H PARENT 15 18 17 20 9 22 1 24 5 26
REMARK Flexibility Score: inf
ROOT
ATOM      1  C   UNL     1      12.545 -25.938   8.539  1.00  0.00     0.402 A 
ATOM      2  O   UNL     1      11.627 -25.021   8.247  1.00  0.00    -0.202 OA
ATOM      3  C   UNL     1      10.332 -25.297   8.124  1.00  0.00     0.368 A 
ATOM      4  C   UNL     1       9.444 -24.266   7.810  1.00  0.00     0.162 A 
ATOM      5  C   UNL     1       8.078 -24.529   7.671  1.00  0.00     0.128 A 
ATOM      6  C   UNL     1       7.599 -25.829   7.845  1.00  0.00     0.093 A 
ATOM      7  C   UNL     1       8.469 -26.882   8.159  1.00  0.00     0.136 A 
ATOM      8  C   UNL     1       9.857 -26.618   8.304  1.00  0.00     0.125 A 
ATOM      9  C   UNL     1      10.800 -27.606   8.630  1.00  0.00     0.078 A 
ATOM     10  C   UNL     1      12.150 -27.271   8.760  1.00  0.00     0.223 A 
ENDROOT
BRANCH   1  11
ATOM     11  C   UNL     1      13.958 -25.507   8.640  1.00  0.00     0.087 A 
ATOM     12  C   UNL     1      14.865 -25.879   7.638  1.00  0.00     0.022 A 
ATOM     13  C   UNL     1      16.206 -25.500   7.723  1.00  0.00     0.051 A 
ATOM     14  C   UNL     1      16.671 -24.758   8.814  1.00  0.00     0.157 A 
ATOM     15  C   UNL     1      14.426 -24.781   9.749  1.00  0.00     0.068 A 
ATOM     16  C   UNL     1      15.770 -24.399   9.844  1.00  0.00     0.158 A 
BRANCH  14  17
ATOM     17  O   UNL     1      18.022 -24.404   8.835  1.00  0.00    -0.504 OA
ATOM     18  H   UNL     1      18.587 -24.283   8.006  1.00  0.00     0.293 HD
ENDBRANCH  14  17
BRANCH  16  19
ATOM     19  O   UNL     1      16.164 -23.678  10.973  1.00  0.00    -0.504 OA
ATOM     20  H   UNL     1      15.767 -23.809  11.892  1.00  0.00     0.293 HD
ENDBRANCH  16  19
ENDBRANCH   1  11
BRANCH  10  21
ATOM     21  O   UNL     1      13.080 -28.242   9.133  1.00  0.00    -0.500 OA
ATOM     22  H   UNL     1      13.986 -28.312   8.685  1.00  0.00     0.294 HD
ENDBRANCH  10  21
BRANCH   5  23
ATOM     23  O   UNL     1       7.185 -23.505   7.360  1.00  0.00    -0.507 OA
ATOM     24  H   UNL     1       6.188 -23.610   7.509  1.00  0.00     0.293 HD
ENDBRANCH   5  23
BRANCH   7  25
ATOM     25  O   UNL     1       7.912 -28.154   8.313  1.00  0.00    -0.507 OA
ATOM     26  H   UNL     1       7.660 -28.563   9.201  1.00  0.00     0.293 HD
ENDBRANCH   7  25
TORSDOF 6
ENDMDL
MODEL 5
REMARK VINA RESULT:    -7.263      2.348      2.809
REMARK INTER + INTRA:          -9.007
REMARK INTER:                  -8.695
REMARK INTRA:                  -0.313
REMARK UNBOUND:                -0.258
REMARK SMILES Oc1cc(O)c2cc(O)c(-c3ccc(O)c(O)c3)[o+]c2c1
REMARK SMILES IDX 10 1 19 2 20 3 21 4 2 5 3 6 4 7 6 8 7 9 8 10 11 11 12 12
REMARK SMILES IDX 13 13 14 14 18 15 16 16 15 17 17 19 9 21 1 23 5 25
REMARK H PARENT 15 18 17 20 9 22 1 24 5 26
REMARK Flexibility Score: inf
ROOT
ATOM      1  C   UNL     1      10.987 -26.705   8.737  1.00  0.00     0.402 A 
ATOM      2  O   UNL     1      12.133 -26.136   8.373  1.00  0.00    -0.202 OA
ATOM      3  C   UNL     1      13.303 -26.766   8.407  1.00  0.00     0.368 A 
ATOM      4  C   UNL     1      14.454 -26.082   8.008  1.00  0.00     0.162 A 
ATOM      5  C   UNL     1      15.698 -26.719   8.036  1.00  0.00     0.128 A 
ATOM      6  C   UNL     1      15.791 -28.044   8.467  1.00  0.00     0.093 A 
ATOM      7  C   UNL     1      14.653 -28.752   8.873  1.00  0.00     0.136 A 
ATOM      8  C   UNL     1      13.387 -28.109   8.843  1.00  0.00     0.125 A 
ATOM      9  C   UNL     1      12.191 -28.743   9.219  1.00  0.00     0.078 A 
ATOM     10  C   UNL     1      10.980 -28.048   9.159  1.00  0.00     0.223 A 
ENDROOT
BRANCH   1  11
ATOM     11  C   UNL     1       9.749 -25.896   8.664  1.00  0.00     0.087 A 
ATOM     12  C   UNL     1       8.892 -26.044   7.564  1.00  0.00     0.022 A 
ATOM     13  C   UNL     1       7.730 -25.278   7.465  1.00  0.00     0.051 A 
ATOM     14  C   UNL     1       7.406 -24.340   8.452  1.00  0.00     0.157 A 
ATOM     15  C   UNL     1       9.440 -24.938   9.646  1.00  0.00     0.068 A 
ATOM     16  C   UNL     1       8.277 -24.163   9.553  1.00  0.00     0.158 A 
BRANCH  14  17
ATOM     17  O   UNL     1       6.225 -23.610   8.297  1.00  0.00    -0.504 OA
ATOM     18  H   UNL     1       6.049 -22.978   7.529  1.00  0.00     0.293 HD
ENDBRANCH  14  17
BRANCH  16  19
ATOM     19  O   UNL     1       8.033 -23.232  10.565  1.00  0.00    -0.504 OA
ATOM     20  H   UNL     1       7.676 -23.472  11.479  1.00  0.00     0.293 HD
ENDBRANCH  16  19
ENDBRANCH   1  11
BRANCH  10  21
ATOM     21  O   UNL     1       9.786 -28.692   9.483  1.00  0.00    -0.500 OA
ATOM     22  H   UNL     1       9.618 -29.659   9.232  1.00  0.00     0.294 HD
ENDBRANCH  10  21
BRANCH   5  23
ATOM     23  O   UNL     1      16.851 -26.044   7.639  1.00  0.00    -0.507 OA
ATOM     24  H   UNL     1      16.818 -25.301   6.951  1.00  0.00     0.293 HD
ENDBRANCH   5  23
BRANCH   7  25
ATOM     25  O   UNL     1      14.830 -30.072   9.294  1.00  0.00    -0.507 OA
ATOM     26  H   UNL     1      14.569 -30.884   8.754  1.00  0.00     0.293 HD
ENDBRANCH   7  25
TORSDOF 6
ENDMDL
MODEL 6
REMARK VINA RESULT:    -7.204      2.271      3.189
REMARK INTER + INTRA:          -8.936
REMARK INTER:                  -9.136
REMARK INTRA:                   0.200
REMARK UNBOUND:                -0.258
REMARK SMILES Oc1cc(O)c2cc(O)c(-c3ccc(O)c(O)c3)[o+]c2c1
REMARK SMILES IDX 10 1 19 2 20 3 21 4 2 5 3 6 4 7 6 8 7 9 8 10 11 11 12 12
REMARK SMILES IDX 13 13 14 14 18 15 16 16 15 17 17 19 9 21 1 23 5 25
REMARK H PARENT 15 18 17 20 9 22 1 24 5 26
REMARK Flexibility Score: inf
ROOT
ATOM      1  C   UNL     1      10.506 -26.793   8.609  1.00  0.00     0.402 A 
ATOM      2  O   UNL     1      11.836 -26.823   8.604  1.00  0.00    -0.202 OA
ATOM      3  C   UNL     1      12.546 -27.799   9.161  1.00  0.00     0.368 A 
ATOM      4  C   UNL     1      13.941 -27.740   9.108  1.00  0.00     0.162 A 
ATOM      5  C   UNL     1      14.712 -28.752   9.689  1.00  0.00     0.128 A 
ATOM      6  C   UNL     1      14.085 -29.825  10.326  1.00  0.00     0.093 A 
ATOM      7  C   UNL     1      12.688 -29.907  10.394  1.00  0.00     0.136 A 
ATOM      8  C   UNL     1      11.902 -28.884   9.803  1.00  0.00     0.125 A 
ATOM      9  C   UNL     1      10.497 -28.889   9.810  1.00  0.00     0.078 A 
ATOM     10  C   UNL     1       9.789 -27.848   9.204  1.00  0.00     0.223 A 
ENDROOT
BRANCH   1  11
ATOM     11  C   UNL     1       9.829 -25.646   7.963  1.00  0.00     0.087 A 
ATOM     12  C   UNL     1      10.476 -24.958   6.926  1.00  0.00     0.022 A 
ATOM     13  C   UNL     1       9.864 -23.862   6.316  1.00  0.00     0.051 A 
ATOM     14  C   UNL     1       8.604 -23.421   6.736  1.00  0.00     0.157 A 
ATOM     15  C   UNL     1       8.574 -25.192   8.403  1.00  0.00     0.068 A 
ATOM     16  C   UNL     1       7.954 -24.091   7.798  1.00  0.00     0.158 A 
BRANCH  14  17
ATOM     17  O   UNL     1       8.044 -22.323   6.079  1.00  0.00    -0.504 OA
ATOM     18  H   UNL     1       8.574 -21.522   5.766  1.00  0.00     0.293 HD
ENDBRANCH  14  17
BRANCH  16  19
ATOM     19  O   UNL     1       6.706 -23.697   8.287  1.00  0.00    -0.504 OA
ATOM     20  H   UNL     1       6.343 -22.758   8.214  1.00  0.00     0.293 HD
ENDBRANCH  16  19
ENDBRANCH   1  11
BRANCH  10  21
ATOM     21  O   UNL     1       8.395 -27.879   9.166  1.00  0.00    -0.500 OA
ATOM     22  H   UNL     1       7.838 -27.802  10.009  1.00  0.00     0.294 HD
ENDBRANCH  10  21
BRANCH   5  23
ATOM     23  O   UNL     1      16.103 -28.701   9.639  1.00  0.00    -0.507 OA
ATOM     24  H   UNL     1      16.674 -29.156  10.342  1.00  0.00     0.293 HD
ENDBRANCH   5  23
BRANCH   7  25
ATOM     25  O   UNL     1      12.139 -31.010  11.052  1.00  0.00    -0.507 OA
ATOM     26  H   UNL     1      11.208 -31.038  11.442  1.00  0.00     0.293 HD
ENDBRANCH   7  25
TORSDOF 6
ENDMDL
MODEL 7
REMARK VINA RESULT:    -7.187      1.886      2.334
REMARK INTER + INTRA:          -8.916
REMARK INTER:                  -8.829
REMARK INTRA:                  -0.087
REMARK UNBOUND:                -0.258
REMARK SMILES Oc1cc(O)c2cc(O)c(-c3ccc(O)c(O)c3)[o+]c2c1
REMARK SMILES IDX 10 1 19 2 20 3 21 4 2 5 3 6 4 7 6 8 7 9 8 10 11 11 12 12
REMARK SMILES IDX 13 13 14 14 18 15 16 16 15 17 17 19 9 21 1 23 5 25
REMARK H PARENT 15 18 17 20 9 22 1 24 5 26
REMARK Flexibility Score: inf
ROOT
ATOM      1  C   UNL     1      11.150 -26.586   8.132  1.00  0.00     0.402 A 
ATOM      2  O   UNL     1      11.442 -27.466   9.086  1.00  0.00    -0.202 OA
ATOM      3  C   UNL     1      12.527 -28.233   9.065  1.00  0.00     0.368 A 
ATOM      4  C   UNL     1      12.745 -29.132  10.112  1.00  0.00     0.162 A 
ATOM      5  C   UNL     1      13.876 -29.952  10.113  1.00  0.00     0.128 A 
ATOM      6  C   UNL     1      14.793 -29.875   9.062  1.00  0.00     0.093 A 
ATOM      7  C   UNL     1      14.597 -28.983   8.000  1.00  0.00     0.136 A 
ATOM      8  C   UNL     1      13.451 -28.145   7.996  1.00  0.00     0.125 A 
ATOM      9  C   UNL     1      13.180 -27.213   6.982  1.00  0.00     0.078 A 
ATOM     10  C   UNL     1      12.032 -26.419   7.048  1.00  0.00     0.223 A 
ENDROOT
BRANCH   1  11
ATOM     11  C   UNL     1       9.905 -25.796   8.265  1.00  0.00     0.087 A 
ATOM     12  C   UNL     1       8.977 -25.789   7.213  1.00  0.00     0.022 A 
ATOM     13  C   UNL     1       7.806 -25.037   7.309  1.00  0.00     0.051 A 
ATOM     14  C   UNL     1       7.543 -24.265   8.446  1.00  0.00     0.157 A 
ATOM     15  C   UNL     1       9.656 -25.004   9.399  1.00  0.00     0.068 A 
ATOM     16  C   UNL     1       8.484 -24.243   9.502  1.00  0.00     0.158 A 
BRANCH  14  17
ATOM     17  O   UNL     1       6.350 -23.540   8.482  1.00  0.00    -0.504 OA
ATOM     18  H   UNL     1       5.779 -23.352   7.671  1.00  0.00     0.293 HD
ENDBRANCH  14  17
BRANCH  16  19
ATOM     19  O   UNL     1       8.303 -23.481  10.658  1.00  0.00    -0.504 OA
ATOM     20  H   UNL     1       8.726 -23.698  11.549  1.00  0.00     0.293 HD
ENDBRANCH  16  19
ENDBRANCH   1  11
BRANCH  10  21
ATOM     21  O   UNL     1      11.788 -25.457   6.067  1.00  0.00    -0.500 OA
ATOM     22  H   UNL     1      10.933 -25.456   5.524  1.00  0.00     0.294 HD
ENDBRANCH  10  21
BRANCH   5  23
ATOM     23  O   UNL     1      14.101 -30.851  11.154  1.00  0.00    -0.507 OA
ATOM     24  H   UNL     1      14.764 -31.613  11.061  1.00  0.00     0.293 HD
ENDBRANCH   5  23
BRANCH   7  25
ATOM     25  O   UNL     1      15.558 -28.968   6.985  1.00  0.00    -0.507 OA
ATOM     26  H   UNL     1      15.346 -28.988   5.998  1.00  0.00     0.293 HD
ENDBRANCH   7  25
TORSDOF 6
ENDMDL
MODEL 8
REMARK VINA RESULT:    -6.821      2.175      2.280
REMARK INTER + INTRA:          -8.475
REMARK INTER:                  -8.594
REMARK INTRA:                   0.119
REMARK UNBOUND:                -0.258
REMARK SMILES Oc1cc(O)c2cc(O)c(-c3ccc(O)c(O)c3)[o+]c2c1
REMARK SMILES IDX 10 1 19 2 20 3 21 4 2 5 3 6 4 7 6 8 7 9 8 10 11 11 12 12
REMARK SMILES IDX 13 13 14 14 18 15 16 16 15 17 17 19 9 21 1 23 5 25
REMARK H PARENT 15 18 17 20 9 22 1 24 5 26
REMARK Flexibility Score: inf
ROOT
ATOM      1  C   UNL     1      10.946 -26.097   8.456  1.00  0.00     0.402 A 
ATOM      2  O   UNL     1      12.174 -25.586   8.455  1.00  0.00    -0.202 OA
ATOM      3  C   UNL     1      13.261 -26.297   8.739  1.00  0.00     0.368 A 
ATOM      4  C   UNL     1      14.509 -25.669   8.717  1.00  0.00     0.162 A 
ATOM      5  C   UNL     1      15.667 -26.392   9.014  1.00  0.00     0.128 A 
ATOM      6  C   UNL     1      15.578 -27.747   9.337  1.00  0.00     0.093 A 
ATOM      7  C   UNL     1      14.339 -28.400   9.368  1.00  0.00     0.136 A 
ATOM      8  C   UNL     1      13.160 -27.671   9.063  1.00  0.00     0.125 A 
ATOM      9  C   UNL     1      11.877 -28.244   9.056  1.00  0.00     0.078 A 
ATOM     10  C   UNL     1      10.762 -27.463   8.742  1.00  0.00     0.223 A 
ENDROOT
BRANCH   1  11
ATOM     11  C   UNL     1       9.813 -25.200   8.132  1.00  0.00     0.087 A 
ATOM     12  C   UNL     1       8.608 -25.330   8.836  1.00  0.00     0.022 A 
ATOM     13  C   UNL     1       7.522 -24.507   8.534  1.00  0.00     0.051 A 
ATOM     14  C   UNL     1       7.609 -23.552   7.516  1.00  0.00     0.157 A 
ATOM     15  C   UNL     1       9.899 -24.258   7.092  1.00  0.00     0.068 A 
ATOM     16  C   UNL     1       8.812 -23.431   6.780  1.00  0.00     0.158 A 
BRANCH  14  17
ATOM     17  O   UNL     1       6.489 -22.756   7.268  1.00  0.00    -0.504 OA
ATOM     18  H   UNL     1       6.299 -21.885   7.742  1.00  0.00     0.293 HD
ENDBRANCH  14  17
BRANCH  16  19
ATOM     19  O   UNL     1       8.969 -22.517   5.736  1.00  0.00    -0.504 OA
ATOM     20  H   UNL     1       9.508 -22.700   4.902  1.00  0.00     0.293 HD
ENDBRANCH  16  19
ENDBRANCH   1  11
BRANCH  10  21
ATOM     21  O   UNL     1       9.495 -28.043   8.685  1.00  0.00    -0.500 OA
ATOM     22  H   UNL     1       8.945 -28.205   9.521  1.00  0.00     0.294 HD
ENDBRANCH  10  21
BRANCH   5  23
ATOM     23  O   UNL     1      16.916 -25.773   8.993  1.00  0.00    -0.507 OA
ATOM     24  H   UNL     1      17.121 -25.017   8.349  1.00  0.00     0.293 HD
ENDBRANCH   5  23
BRANCH   7  25
ATOM     25  O   UNL     1      14.333 -29.756   9.705  1.00  0.00    -0.507 OA
ATOM     26  H   UNL     1      13.498 -30.303   9.858  1.00  0.00     0.293 HD
ENDBRANCH   7  25
TORSDOF 6
ENDMDL
