MODEL 1
REMARK VINA RESULT:    -3.400      0.000      0.000
REMARK INTER + INTRA:          -8.501
REMARK INTER:                  -6.581
REMARK INTRA:                  -1.920
REMARK UNBOUND:                -1.920
REMARK SMILES CCCCCCCCCCCCCCCCCC(=O)[O-]
REMARK SMILES IDX 10 1 11 2 12 3 13 4 14 5 15 6 16 7 17 8 18 9 19 10 20 11
REMARK SMILES IDX 9 12 8 13 7 14 6 15 5 16 4 17 3 18 2 19 1 20
REMARK H PARENT
REMARK Flexibility Score: inf
ROOT
ATOM      1  C   UNL     1      47.843  45.148  15.245  1.00  0.00     0.000 C 
ENDROOT
BRANCH   1   2
ATOM      2  C   UNL     1      48.744  46.225  15.875  1.00  0.00     0.000 C 
BRANCH   2   3
ATOM      3  C   UNL     1      49.118  47.396  14.943  1.00  0.00     0.000 C 
BRANCH   3   4
ATOM      4  C   UNL     1      50.629  47.619  14.749  1.00  0.00     0.000 C 
BRANCH   4   5
ATOM      5  C   UNL     1      51.255  46.626  13.760  1.00  0.00     0.000 C 
BRANCH   5   6
ATOM      6  C   UNL     1      52.417  47.275  12.993  1.00  0.00     0.000 C 
BRANCH   6   7
ATOM      7  C   UNL     1      52.518  48.794  13.223  1.00  0.00     0.006 C 
BRANCH   7   8
ATOM      8  C   UNL     1      52.705  49.611  11.932  1.00  0.00     0.053 C 
BRANCH   8   9
ATOM      9  C   UNL     1      51.475  49.628  11.074  1.00  0.00     0.041 C 
ATOM     10  O   UNL     1      50.361  49.951  11.565  1.00  0.00    -0.550 OA
ATOM     11  O   UNL     1      51.566  49.319   9.722  1.00  0.00    -0.550 OA
ENDBRANCH   8   9
ENDBRANCH   7   8
ENDBRANCH   6   7
ENDBRANCH   5   6
ENDBRANCH   4   5
ENDBRANCH   3   4
ENDBRANCH   2   3
ENDBRANCH   1   2
BRANCH   1  12
ATOM     12  C   UNL     1      48.533  43.777  15.149  1.00  0.00     0.000 C 
BRANCH  12  13
ATOM     13  C   UNL     1      49.884  43.743  15.882  1.00  0.00    -0.000 C 
BRANCH  13  14
ATOM     14  C   UNL     1      49.859  42.831  17.121  1.00  0.00    -0.000 C 
BRANCH  14  15
ATOM     15  C   UNL     1      48.628  41.908  17.157  1.00  0.00    -0.000 C 
BRANCH  15  16
ATOM     16  C   UNL     1      47.550  42.297  18.189  1.00  0.00    -0.000 C 
BRANCH  16  17
ATOM     17  C   UNL     1      46.122  41.825  17.852  1.00  0.00    -0.000 C 
BRANCH  17  18
ATOM     18  C   UNL     1      45.322  42.771  16.935  1.00  0.00    -0.000 C 
BRANCH  18  19
ATOM     19  C   UNL     1      45.118  42.259  15.498  1.00  0.00    -0.003 C 
ATOM     20  C   UNL     1      45.589  40.819  15.305  1.00  0.00     0.004 C 
ENDBRANCH  18  19
ENDBRANCH  17  18
ENDBRANCH  16  17
ENDBRANCH  15  16
ENDBRANCH  14  15
ENDBRANCH  13  14
ENDBRANCH  12  13
ENDBRANCH   1  12
TORSDOF 16
ENDMDL
MODEL 2
REMARK VINA RESULT:    -3.396      4.724      7.145
REMARK INTER + INTRA:          -8.492
REMARK INTER:                  -6.127
REMARK INTRA:                  -2.365
REMARK UNBOUND:                -1.920
REMARK SMILES CCCCCCCCCCCCCCCCCC(=O)[O-]
REMARK SMILES IDX 10 1 11 2 12 3 13 4 14 5 15 6 16 7 17 8 18 9 19 10 20 11
REMARK SMILES IDX 9 12 8 13 7 14 6 15 5 16 4 17 3 18 2 19 1 20
REMARK H PARENT
REMARK Flexibility Score: inf
ROOT
ATOM      1  C   UNL     1      50.765  48.593  14.282  1.00  0.00     0.000 C 
ENDROOT
BRANCH   1   2
ATOM      2  C   UNL     1      49.727  49.264  13.364  1.00  0.00     0.000 C 
BRANCH   2   3
ATOM      3  C   UNL     1      50.276  50.392  12.467  1.00  0.00     0.000 C 
BRANCH   3   4
ATOM      4  C   UNL     1      50.553  49.990  11.007  1.00  0.00     0.000 C 
BRANCH   4   5
ATOM      5  C   UNL     1      52.024  49.629  10.758  1.00  0.00     0.000 C 
BRANCH   5   6
ATOM      6  C   UNL     1      52.954  50.475  11.639  1.00  0.00     0.000 C 
BRANCH   6   7
ATOM      7  C   UNL     1      53.918  49.626  12.489  1.00  0.00     0.006 C 
BRANCH   7   8
ATOM      8  C   UNL     1      54.406  50.326  13.769  1.00  0.00     0.053 C 
BRANCH   8   9
ATOM      9  C   UNL     1      55.893  50.242  13.943  1.00  0.00     0.041 C 
ATOM     10  O   UNL     1      56.649  50.185  12.938  1.00  0.00    -0.550 OA
ATOM     11  O   UNL     1      56.446  50.262  15.218  1.00  0.00    -0.550 OA
ENDBRANCH   8   9
ENDBRANCH   7   8
ENDBRANCH   6   7
ENDBRANCH   5   6
ENDBRANCH   4   5
ENDBRANCH   3   4
ENDBRANCH   2   3
ENDBRANCH   1   2
BRANCH   1  12
ATOM     12  C   UNL     1      51.335  47.294  13.687  1.00  0.00     0.000 C 
BRANCH  12  13
ATOM     13  C   UNL     1      51.285  46.120  14.678  1.00  0.00    -0.000 C 
BRANCH  13  14
ATOM     14  C   UNL     1      52.177  46.351  15.911  1.00  0.00    -0.000 C 
BRANCH  14  15
ATOM     15  C   UNL     1      53.619  45.853  15.705  1.00  0.00    -0.000 C 
BRANCH  15  16
ATOM     16  C   UNL     1      54.635  46.942  15.302  1.00  0.00    -0.000 C 
BRANCH  16  17
ATOM     17  C   UNL     1      55.472  46.622  14.049  1.00  0.00    -0.000 C 
BRANCH  17  18
ATOM     18  C   UNL     1      56.999  46.630  14.265  1.00  0.00    -0.000 C 
BRANCH  18  19
ATOM     19  C   UNL     1      57.464  46.052  15.613  1.00  0.00    -0.003 C 
ATOM     20  C   UNL     1      57.609  44.531  15.591  1.00  0.00     0.004 C 
ENDBRANCH  18  19
ENDBRANCH  17  18
ENDBRANCH  16  17
ENDBRANCH  15  16
ENDBRANCH  14  15
ENDBRANCH  13  14
ENDBRANCH  12  13
ENDBRANCH   1  12
TORSDOF 16
ENDMDL
MODEL 3
REMARK VINA RESULT:    -3.298     11.934     14.171
REMARK INTER + INTRA:          -8.303
REMARK INTER:                  -6.340
REMARK INTRA:                  -1.963
REMARK UNBOUND:                -1.920
REMARK SMILES CCCCCCCCCCCCCCCCCC(=O)[O-]
REMARK SMILES IDX 10 1 11 2 12 3 13 4 14 5 15 6 16 7 17 8 18 9 19 10 20 11
REMARK SMILES IDX 9 12 8 13 7 14 6 15 5 16 4 17 3 18 2 19 1 20
REMARK H PARENT
REMARK Flexibility Score: inf
ROOT
ATOM      1  C   UNL     1      62.943  45.393  17.065  1.00  0.00     0.000 C 
ENDROOT
BRANCH   1   2
ATOM      2  C   UNL     1      63.895  44.941  15.943  1.00  0.00     0.000 C 
BRANCH   2   3
ATOM      3  C   UNL     1      63.531  43.600  15.273  1.00  0.00     0.000 C 
BRANCH   3   4
ATOM      4  C   UNL     1      64.723  42.673  14.978  1.00  0.00     0.000 C 
BRANCH   4   5
ATOM      5  C   UNL     1      65.045  41.727  16.144  1.00  0.00     0.000 C 
BRANCH   5   6
ATOM      6  C   UNL     1      63.953  40.658  16.301  1.00  0.00     0.000 C 
BRANCH   6   7
ATOM      7  C   UNL     1      63.651  40.316  17.772  1.00  0.00     0.006 C 
BRANCH   7   8
ATOM      8  C   UNL     1      63.683  41.531  18.716  1.00  0.00     0.053 C 
BRANCH   8   9
ATOM      9  C   UNL     1      62.971  41.276  20.011  1.00  0.00     0.041 C 
ATOM     10  O   UNL     1      62.313  40.215  20.178  1.00  0.00    -0.550 OA
ATOM     11  O   UNL     1      63.063  42.197  21.048  1.00  0.00    -0.550 OA
ENDBRANCH   8   9
ENDBRANCH   7   8
ENDBRANCH   6   7
ENDBRANCH   5   6
ENDBRANCH   4   5
ENDBRANCH   3   4
ENDBRANCH   2   3
ENDBRANCH   1   2
BRANCH   1  12
ATOM     12  C   UNL     1      61.819  44.379  17.337  1.00  0.00     0.000 C 
BRANCH  12  13
ATOM     13  C   UNL     1      61.271  44.478  18.771  1.00  0.00    -0.000 C 
BRANCH  13  14
ATOM     14  C   UNL     1      60.724  45.878  19.097  1.00  0.00    -0.000 C 
BRANCH  14  15
ATOM     15  C   UNL     1      59.381  46.170  18.405  1.00  0.00    -0.000 C 
BRANCH  15  16
ATOM     16  C   UNL     1      58.203  45.285  18.862  1.00  0.00    -0.000 C 
BRANCH  16  17
ATOM     17  C   UNL     1      57.694  44.281  17.810  1.00  0.00    -0.000 C 
BRANCH  17  18
ATOM     18  C   UNL     1      58.310  44.439  16.406  1.00  0.00    -0.000 C 
BRANCH  18  19
ATOM     19  C   UNL     1      57.315  44.848  15.306  1.00  0.00    -0.003 C 
ATOM     20  C   UNL     1      57.431  46.319  14.914  1.00  0.00     0.004 C 
ENDBRANCH  18  19
ENDBRANCH  17  18
ENDBRANCH  16  17
ENDBRANCH  15  16
ENDBRANCH  14  15
ENDBRANCH  13  14
ENDBRANCH  12  13
ENDBRANCH   1  12
TORSDOF 16
ENDMDL
MODEL 4
REMARK VINA RESULT:    -3.290     13.564     15.595
REMARK INTER + INTRA:          -8.287
REMARK INTER:                  -5.638
REMARK INTRA:                  -2.648
REMARK UNBOUND:                -1.920
REMARK SMILES CCCCCCCCCCCCCCCCCC(=O)[O-]
REMARK SMILES IDX 10 1 11 2 12 3 13 4 14 5 15 6 16 7 17 8 18 9 19 10 20 11
REMARK SMILES IDX 9 12 8 13 7 14 6 15 5 16 4 17 3 18 2 19 1 20
REMARK H PARENT
REMARK Flexibility Score: inf
ROOT
ATOM      1  C   UNL     1      57.537  33.135  14.541  1.00  0.00     0.000 C 
ENDROOT
BRANCH   1   2
ATOM      2  C   UNL     1      58.395  31.857  14.501  1.00  0.00     0.000 C 
BRANCH   2   3
ATOM      3  C   UNL     1      58.489  31.172  13.123  1.00  0.00     0.000 C 
BRANCH   3   4
ATOM      4  C   UNL     1      58.854  32.104  11.954  1.00  0.00     0.000 C 
BRANCH   4   5
ATOM      5  C   UNL     1      60.308  32.594  12.014  1.00  0.00     0.000 C 
BRANCH   5   6
ATOM      6  C   UNL     1      60.367  34.110  12.250  1.00  0.00     0.000 C 
BRANCH   6   7
ATOM      7  C   UNL     1      60.893  34.482  13.649  1.00  0.00     0.006 C 
BRANCH   7   8
ATOM      8  C   UNL     1      61.822  33.424  14.271  1.00  0.00     0.053 C 
BRANCH   8   9
ATOM      9  C   UNL     1      61.876  33.510  15.767  1.00  0.00     0.041 C 
ATOM     10  O   UNL     1      62.981  33.448  16.368  1.00  0.00    -0.550 OA
ATOM     11  O   UNL     1      60.706  33.690  16.495  1.00  0.00    -0.550 OA
ENDBRANCH   8   9
ENDBRANCH   7   8
ENDBRANCH   6   7
ENDBRANCH   5   6
ENDBRANCH   4   5
ENDBRANCH   3   4
ENDBRANCH   2   3
ENDBRANCH   1   2
BRANCH   1  12
ATOM     12  C   UNL     1      56.064  32.875  14.187  1.00  0.00     0.000 C 
BRANCH  12  13
ATOM     13  C   UNL     1      55.580  33.736  13.008  1.00  0.00    -0.000 C 
BRANCH  13  14
ATOM     14  C   UNL     1      56.612  34.797  12.592  1.00  0.00    -0.000 C 
BRANCH  14  15
ATOM     15  C   UNL     1      55.996  36.199  12.433  1.00  0.00    -0.000 C 
BRANCH  15  16
ATOM     16  C   UNL     1      55.060  36.635  13.579  1.00  0.00    -0.000 C 
BRANCH  16  17
ATOM     17  C   UNL     1      55.771  37.048  14.882  1.00  0.00    -0.000 C 
BRANCH  17  18
ATOM     18  C   UNL     1      55.621  36.052  16.050  1.00  0.00    -0.000 C 
BRANCH  18  19
ATOM     19  C   UNL     1      56.471  36.378  17.290  1.00  0.00    -0.003 C 
ATOM     20  C   UNL     1      57.800  35.624  17.316  1.00  0.00     0.004 C 
ENDBRANCH  18  19
ENDBRANCH  17  18
ENDBRANCH  16  17
ENDBRANCH  15  16
ENDBRANCH  14  15
ENDBRANCH  13  14
ENDBRANCH  12  13
ENDBRANCH   1  12
TORSDOF 16
ENDMDL
MODEL 5
REMARK VINA RESULT:    -3.283     11.107     13.573
REMARK INTER + INTRA:          -8.274
REMARK INTER:                  -6.974
REMARK INTRA:                  -1.300
REMARK UNBOUND:                -1.920
REMARK SMILES CCCCCCCCCCCCCCCCCC(=O)[O-]
REMARK SMILES IDX 10 1 11 2 12 3 13 4 14 5 15 6 16 7 17 8 18 9 19 10 20 11
REMARK SMILES IDX 9 12 8 13 7 14 6 15 5 16 4 17 3 18 2 19 1 20
REMARK H PARENT
REMARK Flexibility Score: inf
ROOT
ATOM      1  C   UNL     1      62.543  45.406  17.545  1.00  0.00     0.000 C 
ENDROOT
BRANCH   1   2
ATOM      2  C   UNL     1      63.614  44.751  16.654  1.00  0.00     0.000 C 
BRANCH   2   3
ATOM      3  C   UNL     1      63.069  43.837  15.538  1.00  0.00     0.000 C 
BRANCH   3   4
ATOM      4  C   UNL     1      64.071  42.802  14.994  1.00  0.00     0.000 C 
BRANCH   4   5
ATOM      5  C   UNL     1      64.730  41.971  16.104  1.00  0.00     0.000 C 
BRANCH   5   6
ATOM      6  C   UNL     1      63.963  40.662  16.340  1.00  0.00     0.000 C 
BRANCH   6   7
ATOM      7  C   UNL     1      63.743  40.352  17.831  1.00  0.00     0.006 C 
BRANCH   7   8
ATOM      8  C   UNL     1      63.729  41.599  18.734  1.00  0.00     0.053 C 
BRANCH   8   9
ATOM      9  C   UNL     1      62.723  41.499  19.842  1.00  0.00     0.041 C 
ATOM     10  O   UNL     1      62.217  42.540  20.338  1.00  0.00    -0.550 OA
ATOM     11  O   UNL     1      62.320  40.252  20.304  1.00  0.00    -0.550 OA
ENDBRANCH   8   9
ENDBRANCH   7   8
ENDBRANCH   6   7
ENDBRANCH   5   6
ENDBRANCH   4   5
ENDBRANCH   3   4
ENDBRANCH   2   3
ENDBRANCH   1   2
BRANCH   1  12
ATOM     12  C   UNL     1      61.266  44.557  17.665  1.00  0.00     0.000 C 
BRANCH  12  13
ATOM     13  C   UNL     1      59.987  45.382  17.445  1.00  0.00    -0.000 C 
BRANCH  13  14
ATOM     14  C   UNL     1      58.846  44.550  16.836  1.00  0.00    -0.000 C 
BRANCH  14  15
ATOM     15  C   UNL     1      57.566  45.372  16.604  1.00  0.00    -0.000 C 
BRANCH  15  16
ATOM     16  C   UNL     1      57.131  45.504  15.130  1.00  0.00    -0.000 C 
BRANCH  16  17
ATOM     17  C   UNL     1      57.341  46.899  14.510  1.00  0.00    -0.000 C 
BRANCH  17  18
ATOM     18  C   UNL     1      56.321  47.288  13.421  1.00  0.00    -0.000 C 
BRANCH  18  19
ATOM     19  C   UNL     1      55.098  48.069  13.930  1.00  0.00    -0.003 C 
ATOM     20  C   UNL     1      53.777  47.349  13.666  1.00  0.00     0.004 C 
ENDBRANCH  18  19
ENDBRANCH  17  18
ENDBRANCH  16  17
ENDBRANCH  15  16
ENDBRANCH  14  15
ENDBRANCH  13  14
ENDBRANCH  12  13
ENDBRANCH   1  12
TORSDOF 16
ENDMDL
MODEL 6
REMARK VINA RESULT:    -3.264      1.714      2.533
REMARK INTER + INTRA:          -8.237
REMARK INTER:                  -6.290
REMARK INTRA:                  -1.947
REMARK UNBOUND:                -1.920
REMARK SMILES CCCCCCCCCCCCCCCCCC(=O)[O-]
REMARK SMILES IDX 10 1 11 2 12 3 13 4 14 5 15 6 16 7 17 8 18 9 19 10 20 11
REMARK SMILES IDX 9 12 8 13 7 14 6 15 5 16 4 17 3 18 2 19 1 20
REMARK H PARENT
REMARK Flexibility Score: inf
ROOT
ATOM      1  C   UNL     1      51.228  45.138  15.651  1.00  0.00     0.000 C 
ENDROOT
BRANCH   1   2
ATOM      2  C   UNL     1      50.794  45.939  14.410  1.00  0.00     0.000 C 
BRANCH   2   3
ATOM      3  C   UNL     1      49.669  46.966  14.651  1.00  0.00     0.000 C 
BRANCH   3   4
ATOM      4  C   UNL     1      49.956  48.384  14.126  1.00  0.00     0.000 C 
BRANCH   4   5
ATOM      5  C   UNL     1      51.454  48.723  14.113  1.00  0.00     0.000 C 
BRANCH   5   6
ATOM      6  C   UNL     1      51.958  48.924  12.677  1.00  0.00     0.000 C 
BRANCH   6   7
ATOM      7  C   UNL     1      51.788  50.370  12.175  1.00  0.00     0.006 C 
BRANCH   7   8
ATOM      8  C   UNL     1      50.656  50.546  11.146  1.00  0.00     0.053 C 
BRANCH   8   9
ATOM      9  C   UNL     1      51.086  50.209   9.750  1.00  0.00     0.041 C 
ATOM     10  O   UNL     1      50.251  49.774   8.914  1.00  0.00    -0.550 OA
ATOM     11  O   UNL     1      52.406  50.409   9.362  1.00  0.00    -0.550 OA
ENDBRANCH   8   9
ENDBRANCH   7   8
ENDBRANCH   6   7
ENDBRANCH   5   6
ENDBRANCH   4   5
ENDBRANCH   3   4
ENDBRANCH   2   3
ENDBRANCH   1   2
BRANCH   1  12
ATOM     12  C   UNL     1      50.497  45.580  16.930  1.00  0.00     0.000 C 
BRANCH  12  13
ATOM     13  C   UNL     1      49.585  44.480  17.498  1.00  0.00    -0.000 C 
BRANCH  13  14
ATOM     14  C   UNL     1      49.739  43.144  16.753  1.00  0.00    -0.000 C 
BRANCH  14  15
ATOM     15  C   UNL     1      48.442  42.696  16.055  1.00  0.00    -0.000 C 
BRANCH  15  16
ATOM     16  C   UNL     1      47.948  43.632  14.932  1.00  0.00    -0.000 C 
BRANCH  16  17
ATOM     17  C   UNL     1      46.441  43.956  14.968  1.00  0.00    -0.000 C 
BRANCH  17  18
ATOM     18  C   UNL     1      46.016  44.960  16.057  1.00  0.00    -0.000 C 
BRANCH  18  19
ATOM     19  C   UNL     1      45.312  44.335  17.273  1.00  0.00    -0.003 C 
ATOM     20  C   UNL     1      46.075  44.549  18.579  1.00  0.00     0.004 C 
ENDBRANCH  18  19
ENDBRANCH  17  18
ENDBRANCH  16  17
ENDBRANCH  15  16
ENDBRANCH  14  15
ENDBRANCH  13  14
ENDBRANCH  12  13
ENDBRANCH   1  12
TORSDOF 16
ENDMDL
MODEL 7
REMARK VINA RESULT:    -3.256     12.186     14.338
REMARK INTER + INTRA:          -8.222
REMARK INTER:                  -5.844
REMARK INTRA:                  -2.378
REMARK UNBOUND:                -1.920
REMARK SMILES CCCCCCCCCCCCCCCCCC(=O)[O-]
REMARK SMILES IDX 10 1 11 2 12 3 13 4 14 5 15 6 16 7 17 8 18 9 19 10 20 11
REMARK SMILES IDX 9 12 8 13 7 14 6 15 5 16 4 17 3 18 2 19 1 20
REMARK H PARENT
REMARK Flexibility Score: inf
ROOT
ATOM      1  C   UNL     1      59.615  32.948  12.061  1.00  0.00     0.000 C 
ENDROOT
BRANCH   1   2
ATOM      2  C   UNL     1      58.157  33.062  11.580  1.00  0.00     0.000 C 
BRANCH   2   3
ATOM      3  C   UNL     1      57.088  32.793  12.658  1.00  0.00     0.000 C 
BRANCH   3   4
ATOM      4  C   UNL     1      56.233  34.012  13.048  1.00  0.00     0.000 C 
BRANCH   4   5
ATOM      5  C   UNL     1      56.599  35.275  12.255  1.00  0.00     0.000 C 
BRANCH   5   6
ATOM      6  C   UNL     1      55.843  36.499  12.791  1.00  0.00     0.000 C 
BRANCH   6   7
ATOM      7  C   UNL     1      55.762  36.531  14.328  1.00  0.00     0.006 C 
BRANCH   7   8
ATOM      8  C   UNL     1      54.412  37.030  14.874  1.00  0.00     0.053 C 
BRANCH   8   9
ATOM      9  C   UNL     1      53.242  36.344  14.235  1.00  0.00     0.041 C 
ATOM     10  O   UNL     1      53.018  35.125  14.459  1.00  0.00    -0.550 OA
ATOM     11  O   UNL     1      52.377  37.062  13.418  1.00  0.00    -0.550 OA
ENDBRANCH   8   9
ENDBRANCH   7   8
ENDBRANCH   6   7
ENDBRANCH   5   6
ENDBRANCH   4   5
ENDBRANCH   3   4
ENDBRANCH   2   3
ENDBRANCH   1   2
BRANCH   1  12
ATOM     12  C   UNL     1      60.303  34.316  12.204  1.00  0.00     0.000 C 
BRANCH  12  13
ATOM     13  C   UNL     1      61.347  34.336  13.333  1.00  0.00    -0.000 C 
BRANCH  13  14
ATOM     14  C   UNL     1      60.955  33.431  14.513  1.00  0.00    -0.000 C 
BRANCH  14  15
ATOM     15  C   UNL     1      60.315  34.211  15.676  1.00  0.00    -0.000 C 
BRANCH  15  16
ATOM     16  C   UNL     1      58.804  34.482  15.529  1.00  0.00    -0.000 C 
BRANCH  16  17
ATOM     17  C   UNL     1      57.915  33.823  16.601  1.00  0.00    -0.000 C 
BRANCH  17  18
ATOM     18  C   UNL     1      57.708  34.659  17.880  1.00  0.00    -0.000 C 
BRANCH  18  19
ATOM     19  C   UNL     1      56.422  35.504  17.899  1.00  0.00    -0.003 C 
ATOM     20  C   UNL     1      56.694  37.000  18.051  1.00  0.00     0.004 C 
ENDBRANCH  18  19
ENDBRANCH  17  18
ENDBRANCH  16  17
ENDBRANCH  15  16
ENDBRANCH  14  15
ENDBRANCH  13  14
ENDBRANCH  12  13
ENDBRANCH   1  12
TORSDOF 16
ENDMDL
MODEL 8
REMARK VINA RESULT:    -3.243      1.629      3.296
REMARK INTER + INTRA:          -8.197
REMARK INTER:                  -6.447
REMARK INTRA:                  -1.750
REMARK UNBOUND:                -1.920
REMARK SMILES CCCCCCCCCCCCCCCCCC(=O)[O-]
REMARK SMILES IDX 10 1 11 2 12 3 13 4 14 5 15 6 16 7 17 8 18 9 19 10 20 11
REMARK SMILES IDX 9 12 8 13 7 14 6 15 5 16 4 17 3 18 2 19 1 20
REMARK H PARENT
REMARK Flexibility Score: inf
ROOT
ATOM      1  C   UNL     1      47.839  43.194  15.196  1.00  0.00     0.000 C 
ENDROOT
BRANCH   1   2
ATOM      2  C   UNL     1      48.840  44.317  14.867  1.00  0.00     0.000 C 
BRANCH   2   3
ATOM      3  C   UNL     1      50.154  44.283  15.673  1.00  0.00     0.000 C 
BRANCH   3   4
ATOM      4  C   UNL     1      51.198  45.337  15.265  1.00  0.00     0.000 C 
BRANCH   4   5
ATOM      5  C   UNL     1      50.605  46.459  14.400  1.00  0.00     0.000 C 
BRANCH   5   6
ATOM      6  C   UNL     1      51.607  46.912  13.328  1.00  0.00     0.000 C 
BRANCH   6   7
ATOM      7  C   UNL     1      51.838  48.434  13.323  1.00  0.00     0.006 C 
BRANCH   7   8
ATOM      8  C   UNL     1      50.694  49.239  12.681  1.00  0.00     0.053 C 
BRANCH   8   9
ATOM      9  C   UNL     1      51.058  49.787  11.333  1.00  0.00     0.041 C 
ATOM     10  O   UNL     1      51.924  49.210  10.624  1.00  0.00    -0.550 OA
ATOM     11  O   UNL     1      50.415  50.919  10.847  1.00  0.00    -0.550 OA
ENDBRANCH   8   9
ENDBRANCH   7   8
ENDBRANCH   6   7
ENDBRANCH   5   6
ENDBRANCH   4   5
ENDBRANCH   3   4
ENDBRANCH   2   3
ENDBRANCH   1   2
BRANCH   1  12
ATOM     12  C   UNL     1      46.421  43.489  14.677  1.00  0.00     0.000 C 
BRANCH  12  13
ATOM     13  C   UNL     1      45.359  42.582  15.319  1.00  0.00    -0.000 C 
BRANCH  13  14
ATOM     14  C   UNL     1      45.821  41.992  16.662  1.00  0.00    -0.000 C 
BRANCH  14  15
ATOM     15  C   UNL     1      45.215  42.723  17.874  1.00  0.00    -0.000 C 
BRANCH  15  16
ATOM     16  C   UNL     1      46.070  43.878  18.435  1.00  0.00    -0.000 C 
BRANCH  16  17
ATOM     17  C   UNL     1      45.445  45.280  18.293  1.00  0.00    -0.000 C 
BRANCH  17  18
ATOM     18  C   UNL     1      46.072  46.165  17.198  1.00  0.00    -0.000 C 
BRANCH  18  19
ATOM     19  C   UNL     1      47.551  46.523  17.423  1.00  0.00    -0.003 C 
ATOM     20  C   UNL     1      47.746  47.645  18.441  1.00  0.00     0.004 C 
ENDBRANCH  18  19
ENDBRANCH  17  18
ENDBRANCH  16  17
ENDBRANCH  15  16
ENDBRANCH  14  15
ENDBRANCH  13  14
ENDBRANCH  12  13
ENDBRANCH   1  12
TORSDOF 16
ENDMDL
MODEL 9
REMARK VINA RESULT:    -3.220      1.924      3.957
REMARK INTER + INTRA:          -8.152
REMARK INTER:                  -5.733
REMARK INTRA:                  -2.418
REMARK UNBOUND:                -1.920
REMARK SMILES CCCCCCCCCCCCCCCCCC(=O)[O-]
REMARK SMILES IDX 10 1 11 2 12 3 13 4 14 5 15 6 16 7 17 8 18 9 19 10 20 11
REMARK SMILES IDX 9 12 8 13 7 14 6 15 5 16 4 17 3 18 2 19 1 20
REMARK H PARENT
REMARK Flexibility Score: inf
ROOT
ATOM      1  C   UNL     1      48.552  41.989  18.592  1.00  0.00     0.000 C 
ENDROOT
BRANCH   1   2
ATOM      2  C   UNL     1      49.283  42.832  17.530  1.00  0.00     0.000 C 
BRANCH   2   3
ATOM      3  C   UNL     1      49.964  44.109  18.061  1.00  0.00     0.000 C 
BRANCH   3   4
ATOM      4  C   UNL     1      50.529  45.046  16.978  1.00  0.00     0.000 C 
BRANCH   4   5
ATOM      5  C   UNL     1      50.682  44.357  15.615  1.00  0.00     0.000 C 
BRANCH   5   6
ATOM      6  C   UNL     1      50.484  45.359  14.468  1.00  0.00     0.000 C 
BRANCH   6   7
ATOM      7  C   UNL     1      51.341  46.628  14.622  1.00  0.00     0.006 C 
BRANCH   7   8
ATOM      8  C   UNL     1      51.649  47.341  13.293  1.00  0.00     0.053 C 
BRANCH   8   9
ATOM      9  C   UNL     1      53.092  47.726  13.165  1.00  0.00     0.041 C 
ATOM     10  O   UNL     1      53.425  48.725  12.475  1.00  0.00    -0.550 OA
ATOM     11  O   UNL     1      54.068  46.999  13.837  1.00  0.00    -0.550 OA
ENDBRANCH   8   9
ENDBRANCH   7   8
ENDBRANCH   6   7
ENDBRANCH   5   6
ENDBRANCH   4   5
ENDBRANCH   3   4
ENDBRANCH   2   3
ENDBRANCH   1   2
BRANCH   1  12
ATOM     12  C   UNL     1      47.781  40.805  17.985  1.00  0.00     0.000 C 
BRANCH  12  13
ATOM     13  C   UNL     1      46.346  41.182  17.580  1.00  0.00    -0.000 C 
BRANCH  13  14
ATOM     14  C   UNL     1      45.971  40.659  16.183  1.00  0.00    -0.000 C 
BRANCH  14  15
ATOM     15  C   UNL     1      45.583  41.785  15.209  1.00  0.00    -0.000 C 
BRANCH  15  16
ATOM     16  C   UNL     1      46.765  42.453  14.477  1.00  0.00    -0.000 C 
BRANCH  16  17
ATOM     17  C   UNL     1      47.001  43.934  14.833  1.00  0.00    -0.000 C 
BRANCH  17  18
ATOM     18  C   UNL     1      45.980  44.539  15.818  1.00  0.00    -0.000 C 
BRANCH  18  19
ATOM     19  C   UNL     1      46.595  45.367  16.959  1.00  0.00    -0.003 C 
ATOM     20  C   UNL     1      47.372  46.585  16.460  1.00  0.00     0.004 C 
ENDBRANCH  18  19
ENDBRANCH  17  18
ENDBRANCH  16  17
ENDBRANCH  15  16
ENDBRANCH  14  15
ENDBRANCH  13  14
ENDBRANCH  12  13
ENDBRANCH   1  12
TORSDOF 16
ENDMDL
