MODEL 1
REMARK VINA RESULT:    -3.617      0.000      0.000
REMARK INTER + INTRA:          -8.093
REMARK INTER:                  -6.577
REMARK INTRA:                  -1.516
REMARK UNBOUND:                -1.516
REMARK SMILES CCCCCCCCCCCCCCCC(=O)[O-]
REMARK SMILES IDX 9 1 10 2 11 3 12 4 13 5 14 6 15 7 16 8 17 9 18 10 8 11 7 12
REMARK SMILES IDX 6 13 5 14 4 15 3 16 2 17 1 18
REMARK H PARENT
REMARK Flexibility Score: inf
ROOT
ATOM      1  C   UNL     1       0.478  -7.571 -10.566  1.00  0.00     0.000 C 
ENDROOT
BRANCH   1   2
ATOM      2  C   UNL     1      -0.926  -7.058 -10.227  1.00  0.00     0.000 C 
BRANCH   2   3
ATOM      3  C   UNL     1      -1.480  -6.181 -11.357  1.00  0.00     0.000 C 
BRANCH   3   4
ATOM      4  C   UNL     1      -1.402  -4.692 -10.985  1.00  0.00     0.000 C 
BRANCH   4   5
ATOM      5  C   UNL     1      -0.497  -3.891 -11.935  1.00  0.00     0.000 C 
BRANCH   5   6
ATOM      6  C   UNL     1       0.913  -3.666 -11.360  1.00  0.00     0.006 C 
BRANCH   6   7
ATOM      7  C   UNL     1       1.465  -2.278 -11.710  1.00  0.00     0.053 C 
BRANCH   7   8
ATOM      8  C   UNL     1       2.478  -1.814 -10.708  1.00  0.00     0.041 C 
ATOM      9  O   UNL     1       3.504  -1.192 -11.089  1.00  0.00    -0.550 OA
ATOM     10  O   UNL     1       2.305  -2.099  -9.359  1.00  0.00    -0.550 OA
ENDBRANCH   7   8
ENDBRANCH   6   7
ENDBRANCH   5   6
ENDBRANCH   4   5
ENDBRANCH   3   4
ENDBRANCH   2   3
ENDBRANCH   1   2
BRANCH   1  11
ATOM     11  C   UNL     1       0.484  -8.309 -11.910  1.00  0.00     0.000 C 
BRANCH  11  12
ATOM     12  C   UNL     1       1.634  -9.322 -11.977  1.00  0.00    -0.000 C 
BRANCH  12  13
ATOM     13  C   UNL     1       1.098 -10.760 -12.014  1.00  0.00    -0.000 C 
BRANCH  13  14
ATOM     14  C   UNL     1       0.926 -11.372 -10.613  1.00  0.00    -0.000 C 
BRANCH  14  15
ATOM     15  C   UNL     1      -0.212 -12.406 -10.485  1.00  0.00    -0.000 C 
BRANCH  15  16
ATOM     16  C   UNL     1      -1.257 -12.097  -9.399  1.00  0.00    -0.000 C 
BRANCH  16  17
ATOM     17  C   UNL     1      -1.677 -10.621  -9.380  1.00  0.00    -0.003 C 
ATOM     18  C   UNL     1      -2.663 -10.317 -10.505  1.00  0.00     0.004 C 
ENDBRANCH  16  17
ENDBRANCH  15  16
ENDBRANCH  14  15
ENDBRANCH  13  14
ENDBRANCH  12  13
ENDBRANCH  11  12
ENDBRANCH   1  11
TORSDOF 14
ENDMDL
MODEL 2
REMARK VINA RESULT:    -3.458      3.680      7.101
REMARK INTER + INTRA:          -7.804
REMARK INTER:                  -6.069
REMARK INTRA:                  -1.735
REMARK UNBOUND:                -1.516
REMARK SMILES CCCCCCCCCCCCCCCC(=O)[O-]
REMARK SMILES IDX 9 1 10 2 11 3 12 4 13 5 14 6 15 7 16 8 17 9 18 10 8 11 7 12
REMARK SMILES IDX 6 13 5 14 4 15 3 16 2 17 1 18
REMARK H PARENT
REMARK Flexibility Score: inf
ROOT
ATOM      1  C   UNL     1       0.801  -7.931  -9.980  1.00  0.00     0.000 C 
ENDROOT
BRANCH   1   2
ATOM      2  C   UNL     1      -0.599  -8.552  -9.924  1.00  0.00     0.000 C 
BRANCH   2   3
ATOM      3  C   UNL     1      -1.418  -8.175 -11.165  1.00  0.00     0.000 C 
BRANCH   3   4
ATOM      4  C   UNL     1      -1.906  -9.430 -11.904  1.00  0.00     0.000 C 
BRANCH   4   5
ATOM      5  C   UNL     1      -2.387 -10.531 -10.945  1.00  0.00     0.000 C 
BRANCH   5   6
ATOM      6  C   UNL     1      -1.703 -11.885 -11.208  1.00  0.00     0.006 C 
BRANCH   6   7
ATOM      7  C   UNL     1      -0.196 -11.735 -11.451  1.00  0.00     0.053 C 
BRANCH   7   8
ATOM      8  C   UNL     1       0.600 -12.058 -10.224  1.00  0.00     0.041 C 
ATOM      9  O   UNL     1       1.820 -11.754 -10.164  1.00  0.00    -0.550 OA
ATOM     10  O   UNL     1       0.003 -12.725  -9.162  1.00  0.00    -0.550 OA
ENDBRANCH   7   8
ENDBRANCH   6   7
ENDBRANCH   5   6
ENDBRANCH   4   5
ENDBRANCH   3   4
ENDBRANCH   2   3
ENDBRANCH   1   2
BRANCH   1  11
ATOM     11  C   UNL     1       1.564  -8.403 -11.224  1.00  0.00     0.000 C 
BRANCH  11  12
ATOM     12  C   UNL     1       2.086  -7.211 -12.035  1.00  0.00    -0.000 C 
BRANCH  12  13
ATOM     13  C   UNL     1       2.326  -5.993 -11.130  1.00  0.00    -0.000 C 
BRANCH  13  14
ATOM     14  C   UNL     1       2.364  -4.667 -11.910  1.00  0.00    -0.000 C 
BRANCH  14  15
ATOM     15  C   UNL     1       1.497  -3.536 -11.318  1.00  0.00    -0.000 C 
BRANCH  15  16
ATOM     16  C   UNL     1       0.040  -3.503 -11.814  1.00  0.00    -0.000 C 
BRANCH  16  17
ATOM     17  C   UNL     1      -0.858  -4.516 -11.088  1.00  0.00    -0.003 C 
ATOM     18  C   UNL     1      -2.262  -4.530 -11.686  1.00  0.00     0.004 C 
ENDBRANCH  16  17
ENDBRANCH  15  16
ENDBRANCH  14  15
ENDBRANCH  13  14
ENDBRANCH  12  13
ENDBRANCH  11  12
ENDBRANCH   1  11
TORSDOF 14
ENDMDL
MODEL 3
REMARK VINA RESULT:    -3.440      3.402      7.669
REMARK INTER + INTRA:          -7.771
REMARK INTER:                  -6.192
REMARK INTRA:                  -1.580
REMARK UNBOUND:                -1.516
REMARK SMILES CCCCCCCCCCCCCCCC(=O)[O-]
REMARK SMILES IDX 9 1 10 2 11 3 12 4 13 5 14 6 15 7 16 8 17 9 18 10 8 11 7 12
REMARK SMILES IDX 6 13 5 14 4 15 3 16 2 17 1 18
REMARK H PARENT
REMARK Flexibility Score: inf
ROOT
ATOM      1  C   UNL     1       1.476  -7.559 -10.902  1.00  0.00     0.000 C 
ENDROOT
BRANCH   1   2
ATOM      2  C   UNL     1       1.984  -8.708 -11.780  1.00  0.00     0.000 C 
BRANCH   2   3
ATOM      3  C   UNL     1       0.900  -9.778 -11.967  1.00  0.00     0.000 C 
BRANCH   3   4
ATOM      4  C   UNL     1       1.356 -11.128 -11.391  1.00  0.00     0.000 C 
BRANCH   4   5
ATOM      5  C   UNL     1       0.378 -11.683 -10.343  1.00  0.00     0.000 C 
BRANCH   5   6
ATOM      6  C   UNL     1      -1.062 -11.791 -10.875  1.00  0.00     0.006 C 
BRANCH   6   7
ATOM      7  C   UNL     1      -2.070 -11.076  -9.966  1.00  0.00     0.053 C 
BRANCH   7   8
ATOM      8  C   UNL     1      -3.067 -10.285 -10.756  1.00  0.00     0.041 C 
ATOM      9  O   UNL     1      -4.293 -10.352 -10.475  1.00  0.00    -0.550 OA
ATOM     10  O   UNL     1      -2.647  -9.502 -11.824  1.00  0.00    -0.550 OA
ENDBRANCH   7   8
ENDBRANCH   6   7
ENDBRANCH   5   6
ENDBRANCH   4   5
ENDBRANCH   3   4
ENDBRANCH   2   3
ENDBRANCH   1   2
BRANCH   1  11
ATOM     11  C   UNL     1       0.253  -7.990 -10.083  1.00  0.00     0.000 C 
BRANCH  11  12
ATOM     12  C   UNL     1      -0.897  -6.987 -10.240  1.00  0.00    -0.000 C 
BRANCH  12  13
ATOM     13  C   UNL     1      -0.736  -6.162 -11.525  1.00  0.00    -0.000 C 
BRANCH  13  14
ATOM     14  C   UNL     1      -1.213  -4.708 -11.367  1.00  0.00    -0.000 C 
BRANCH  14  15
ATOM     15  C   UNL     1      -0.117  -3.701 -10.961  1.00  0.00    -0.000 C 
BRANCH  15  16
ATOM     16  C   UNL     1       1.268  -3.957 -11.582  1.00  0.00    -0.000 C 
BRANCH  16  17
ATOM     17  C   UNL     1       2.236  -2.782 -11.384  1.00  0.00    -0.003 C 
ATOM     18  C   UNL     1       2.126  -2.212  -9.973  1.00  0.00     0.004 C 
ENDBRANCH  16  17
ENDBRANCH  15  16
ENDBRANCH  14  15
ENDBRANCH  13  14
ENDBRANCH  12  13
ENDBRANCH  11  12
ENDBRANCH   1  11
TORSDOF 14
ENDMDL
MODEL 4
REMARK VINA RESULT:    -3.416     11.985     15.196
REMARK INTER + INTRA:          -7.728
REMARK INTER:                  -6.764
REMARK INTRA:                  -0.964
REMARK UNBOUND:                -1.516
REMARK SMILES CCCCCCCCCCCCCCCC(=O)[O-]
REMARK SMILES IDX 9 1 10 2 11 3 12 4 13 5 14 6 15 7 16 8 17 9 18 10 8 11 7 12
REMARK SMILES IDX 6 13 5 14 4 15 3 16 2 17 1 18
REMARK H PARENT
REMARK Flexibility Score: inf
ROOT
ATOM      1  C   UNL     1      -8.866   4.279 -11.451  1.00  0.00     0.000 C 
ENDROOT
BRANCH   1   2
ATOM      2  C   UNL     1     -10.338   4.054 -11.088  1.00  0.00     0.000 C 
BRANCH   2   3
ATOM      3  C   UNL     1     -10.980   3.012 -12.013  1.00  0.00     0.000 C 
BRANCH   3   4
ATOM      4  C   UNL     1     -10.788   1.592 -11.458  1.00  0.00     0.000 C 
BRANCH   4   5
ATOM      5  C   UNL     1     -10.900   1.536  -9.926  1.00  0.00     0.000 C 
BRANCH   5   6
ATOM      6  C   UNL     1     -10.100   0.370  -9.316  1.00  0.00     0.006 C 
BRANCH   6   7
ATOM      7  C   UNL     1      -8.706   0.807  -8.850  1.00  0.00     0.053 C 
BRANCH   7   8
ATOM      8  C   UNL     1      -7.759   0.966 -10.000  1.00  0.00     0.041 C 
ATOM      9  O   UNL     1      -8.099   0.596 -11.154  1.00  0.00    -0.550 OA
ATOM     10  O   UNL     1      -6.490   1.491  -9.790  1.00  0.00    -0.550 OA
ENDBRANCH   7   8
ENDBRANCH   6   7
ENDBRANCH   5   6
ENDBRANCH   4   5
ENDBRANCH   3   4
ENDBRANCH   2   3
ENDBRANCH   1   2
BRANCH   1  11
ATOM     11  C   UNL     1      -8.628   5.722 -11.914  1.00  0.00     0.000 C 
BRANCH  11  12
ATOM     12  C   UNL     1      -7.584   6.418 -11.032  1.00  0.00    -0.000 C 
BRANCH  12  13
ATOM     13  C   UNL     1      -8.218   6.934  -9.732  1.00  0.00    -0.000 C 
BRANCH  13  14
ATOM     14  C   UNL     1      -7.500   6.422  -8.471  1.00  0.00    -0.000 C 
BRANCH  14  15
ATOM     15  C   UNL     1      -7.117   4.927  -8.498  1.00  0.00    -0.000 C 
BRANCH  15  16
ATOM     16  C   UNL     1      -8.216   3.962  -8.021  1.00  0.00    -0.000 C 
BRANCH  16  17
ATOM     17  C   UNL     1      -9.301   4.661  -7.188  1.00  0.00    -0.003 C 
ATOM     18  C   UNL     1     -10.582   4.840  -7.997  1.00  0.00     0.004 C 
ENDBRANCH  16  17
ENDBRANCH  15  16
ENDBRANCH  14  15
ENDBRANCH  13  14
ENDBRANCH  12  13
ENDBRANCH  11  12
ENDBRANCH   1  11
TORSDOF 14
ENDMDL
MODEL 5
REMARK VINA RESULT:    -3.335     11.480     14.262
REMARK INTER + INTRA:          -7.580
REMARK INTER:                  -5.578
REMARK INTRA:                  -2.001
REMARK UNBOUND:                -1.516
REMARK SMILES CCCCCCCCCCCCCCCC(=O)[O-]
REMARK SMILES IDX 9 1 10 2 11 3 12 4 13 5 14 6 15 7 16 8 17 9 18 10 8 11 7 12
REMARK SMILES IDX 6 13 5 14 4 15 3 16 2 17 1 18
REMARK H PARENT
REMARK Flexibility Score: inf
ROOT
ATOM      1  C   UNL     1      -9.371   3.176 -11.912  1.00  0.00     0.000 C 
ENDROOT
BRANCH   1   2
ATOM      2  C   UNL     1      -9.723   4.624 -11.554  1.00  0.00     0.000 C 
BRANCH   2   3
ATOM      3  C   UNL     1     -11.124   4.713 -10.935  1.00  0.00     0.000 C 
BRANCH   3   4
ATOM      4  C   UNL     1     -11.080   5.427  -9.575  1.00  0.00     0.000 C 
BRANCH   4   5
ATOM      5  C   UNL     1     -10.867   4.454  -8.403  1.00  0.00     0.000 C 
BRANCH   5   6
ATOM      6  C   UNL     1      -9.485   4.616  -7.743  1.00  0.00     0.006 C 
BRANCH   6   7
ATOM      7  C   UNL     1      -8.809   5.937  -8.133  1.00  0.00     0.053 C 
BRANCH   7   8
ATOM      8  C   UNL     1      -7.508   5.708  -8.840  1.00  0.00     0.041 C 
ATOM      9  O   UNL     1      -7.208   6.396  -9.850  1.00  0.00    -0.550 OA
ATOM     10  O   UNL     1      -6.644   4.712  -8.402  1.00  0.00    -0.550 OA
ENDBRANCH   7   8
ENDBRANCH   6   7
ENDBRANCH   5   6
ENDBRANCH   4   5
ENDBRANCH   3   4
ENDBRANCH   2   3
ENDBRANCH   1   2
BRANCH   1  11
ATOM     11  C   UNL     1     -10.636   2.319 -12.048  1.00  0.00     0.000 C 
BRANCH  11  12
ATOM     12  C   UNL     1     -10.346   0.851 -11.710  1.00  0.00    -0.000 C 
BRANCH  12  13
ATOM     13  C   UNL     1     -10.939   0.474 -10.345  1.00  0.00    -0.000 C 
BRANCH  13  14
ATOM     14  C   UNL     1     -10.211   1.150  -9.169  1.00  0.00    -0.000 C 
BRANCH  14  15
ATOM     15  C   UNL     1      -8.792   0.616  -8.884  1.00  0.00    -0.000 C 
BRANCH  15  16
ATOM     16  C   UNL     1      -7.646   1.464  -9.464  1.00  0.00    -0.000 C 
BRANCH  16  17
ATOM     17  C   UNL     1      -6.831   0.716 -10.528  1.00  0.00    -0.003 C 
ATOM     18  C   UNL     1      -5.353   0.662 -10.150  1.00  0.00     0.004 C 
ENDBRANCH  16  17
ENDBRANCH  15  16
ENDBRANCH  14  15
ENDBRANCH  13  14
ENDBRANCH  12  13
ENDBRANCH  11  12
ENDBRANCH   1  11
TORSDOF 14
ENDMDL
MODEL 6
REMARK VINA RESULT:    -3.197     11.490     15.117
REMARK INTER + INTRA:          -7.329
REMARK INTER:                  -5.772
REMARK INTRA:                  -1.557
REMARK UNBOUND:                -1.516
REMARK SMILES CCCCCCCCCCCCCCCC(=O)[O-]
REMARK SMILES IDX 9 1 10 2 11 3 12 4 13 5 14 6 15 7 16 8 17 9 18 10 8 11 7 12
REMARK SMILES IDX 6 13 5 14 4 15 3 16 2 17 1 18
REMARK H PARENT
REMARK Flexibility Score: inf
ROOT
ATOM      1  C   UNL     1      -7.527   4.422  -8.479  1.00  0.00     0.000 C 
ENDROOT
BRANCH   1   2
ATOM      2  C   UNL     1      -8.611   4.174  -7.424  1.00  0.00     0.000 C 
BRANCH   2   3
ATOM      3  C   UNL     1      -9.604   3.105  -7.896  1.00  0.00     0.000 C 
BRANCH   3   4
ATOM      4  C   UNL     1      -8.894   1.762  -8.133  1.00  0.00     0.000 C 
BRANCH   4   5
ATOM      5  C   UNL     1      -9.649   0.861  -9.123  1.00  0.00     0.000 C 
BRANCH   5   6
ATOM      6  C   UNL     1      -8.968   0.797 -10.503  1.00  0.00     0.006 C 
BRANCH   6   7
ATOM      7  C   UNL     1      -7.601   1.494 -10.506  1.00  0.00     0.053 C 
BRANCH   7   8
ATOM      8  C   UNL     1      -6.481   0.521 -10.305  1.00  0.00     0.041 C 
ATOM      9  O   UNL     1      -5.491   0.526 -11.083  1.00  0.00    -0.550 OA
ATOM     10  O   UNL     1      -6.546  -0.415  -9.279  1.00  0.00    -0.550 OA
ENDBRANCH   7   8
ENDBRANCH   6   7
ENDBRANCH   5   6
ENDBRANCH   4   5
ENDBRANCH   3   4
ENDBRANCH   2   3
ENDBRANCH   1   2
BRANCH   1  11
ATOM     11  C   UNL     1      -7.006   5.863  -8.405  1.00  0.00     0.000 C 
BRANCH  11  12
ATOM     12  C   UNL     1      -7.637   6.734  -9.498  1.00  0.00    -0.000 C 
BRANCH  12  13
ATOM     13  C   UNL     1      -9.092   7.082  -9.152  1.00  0.00    -0.000 C 
BRANCH  13  14
ATOM     14  C   UNL     1     -10.085   6.665 -10.251  1.00  0.00    -0.000 C 
BRANCH  14  15
ATOM     15  C   UNL     1     -11.052   5.528  -9.862  1.00  0.00    -0.000 C 
BRANCH  15  16
ATOM     16  C   UNL     1     -10.866   4.216 -10.645  1.00  0.00    -0.000 C 
BRANCH  16  17
ATOM     17  C   UNL     1     -10.308   4.440 -12.058  1.00  0.00    -0.003 C 
ATOM     18  C   UNL     1      -8.794   4.254 -12.086  1.00  0.00     0.004 C 
ENDBRANCH  16  17
ENDBRANCH  15  16
ENDBRANCH  14  15
ENDBRANCH  13  14
ENDBRANCH  12  13
ENDBRANCH  11  12
ENDBRANCH   1  11
TORSDOF 14
ENDMDL
MODEL 7
REMARK VINA RESULT:    -3.126      4.162      8.083
REMARK INTER + INTRA:          -7.201
REMARK INTER:                  -6.125
REMARK INTRA:                  -1.076
REMARK UNBOUND:                -1.516
REMARK SMILES CCCCCCCCCCCCCCCC(=O)[O-]
REMARK SMILES IDX 9 1 10 2 11 3 12 4 13 5 14 6 15 7 16 8 17 9 18 10 8 11 7 12
REMARK SMILES IDX 6 13 5 14 4 15 3 16 2 17 1 18
REMARK H PARENT
REMARK Flexibility Score: inf
ROOT
ATOM      1  C   UNL     1       0.282  -8.233  -9.891  1.00  0.00     0.000 C 
ENDROOT
BRANCH   1   2
ATOM      2  C   UNL     1      -1.157  -8.557 -10.307  1.00  0.00     0.000 C 
BRANCH   2   3
ATOM      3  C   UNL     1      -1.204  -9.134 -11.727  1.00  0.00     0.000 C 
BRANCH   3   4
ATOM      4  C   UNL     1      -2.602  -9.683 -12.052  1.00  0.00     0.000 C 
BRANCH   4   5
ATOM      5  C   UNL     1      -3.216 -10.467 -10.880  1.00  0.00     0.000 C 
BRANCH   5   6
ATOM      6  C   UNL     1      -3.056 -11.990 -11.038  1.00  0.00     0.006 C 
BRANCH   6   7
ATOM      7  C   UNL     1      -1.596 -12.436 -10.893  1.00  0.00     0.053 C 
BRANCH   7   8
ATOM      8  C   UNL     1      -1.260 -12.788  -9.476  1.00  0.00     0.041 C 
ATOM      9  O   UNL     1      -2.172 -13.125  -8.676  1.00  0.00    -0.550 OA
ATOM     10  O   UNL     1       0.054 -12.710  -9.032  1.00  0.00    -0.550 OA
ENDBRANCH   7   8
ENDBRANCH   6   7
ENDBRANCH   5   6
ENDBRANCH   4   5
ENDBRANCH   3   4
ENDBRANCH   2   3
ENDBRANCH   1   2
BRANCH   1  11
ATOM     11  C   UNL     1       1.104  -7.743 -11.089  1.00  0.00     0.000 C 
BRANCH  11  12
ATOM     12  C   UNL     1       2.360  -6.994 -10.626  1.00  0.00    -0.000 C 
BRANCH  12  13
ATOM     13  C   UNL     1       2.316  -5.523 -11.063  1.00  0.00    -0.000 C 
BRANCH  13  14
ATOM     14  C   UNL     1       0.999  -5.146 -11.764  1.00  0.00    -0.000 C 
BRANCH  14  15
ATOM     15  C   UNL     1       0.339  -3.845 -11.260  1.00  0.00    -0.000 C 
BRANCH  15  16
ATOM     16  C   UNL     1       1.309  -2.809 -10.666  1.00  0.00    -0.000 C 
BRANCH  16  17
ATOM     17  C   UNL     1       1.783  -1.776 -11.699  1.00  0.00    -0.003 C 
ATOM     18  C   UNL     1       3.289  -1.873 -11.922  1.00  0.00     0.004 C 
ENDBRANCH  16  17
ENDBRANCH  15  16
ENDBRANCH  14  15
ENDBRANCH  13  14
ENDBRANCH  12  13
ENDBRANCH  11  12
ENDBRANCH   1  11
TORSDOF 14
ENDMDL
MODEL 8
REMARK VINA RESULT:    -3.092      3.497      7.203
REMARK INTER + INTRA:          -7.139
REMARK INTER:                  -5.801
REMARK INTRA:                  -1.338
REMARK UNBOUND:                -1.516
REMARK SMILES CCCCCCCCCCCCCCCC(=O)[O-]
REMARK SMILES IDX 9 1 10 2 11 3 12 4 13 5 14 6 15 7 16 8 17 9 18 10 8 11 7 12
REMARK SMILES IDX 6 13 5 14 4 15 3 16 2 17 1 18
REMARK H PARENT
REMARK Flexibility Score: inf
ROOT
ATOM      1  C   UNL     1       1.146  -8.396 -10.421  1.00  0.00     0.000 C 
ENDROOT
BRANCH   1   2
ATOM      2  C   UNL     1       1.233  -9.348 -11.619  1.00  0.00     0.000 C 
BRANCH   2   3
ATOM      3  C   UNL     1       1.480 -10.790 -11.159  1.00  0.00     0.000 C 
BRANCH   3   4
ATOM      4  C   UNL     1       0.646 -11.781 -11.985  1.00  0.00     0.000 C 
BRANCH   4   5
ATOM      5  C   UNL     1      -0.844 -11.759 -11.606  1.00  0.00     0.000 C 
BRANCH   5   6
ATOM      6  C   UNL     1      -1.073 -11.910 -10.091  1.00  0.00     0.006 C 
BRANCH   6   7
ATOM      7  C   UNL     1      -1.841 -10.720  -9.501  1.00  0.00     0.053 C 
BRANCH   7   8
ATOM      8  C   UNL     1      -2.823 -10.152 -10.480  1.00  0.00     0.041 C 
ATOM      9  O   UNL     1      -2.465  -9.254 -11.286  1.00  0.00    -0.550 OA
ATOM     10  O   UNL     1      -4.141 -10.590 -10.477  1.00  0.00    -0.550 OA
ENDBRANCH   7   8
ENDBRANCH   6   7
ENDBRANCH   5   6
ENDBRANCH   4   5
ENDBRANCH   3   4
ENDBRANCH   2   3
ENDBRANCH   1   2
BRANCH   1  11
ATOM     11  C   UNL     1       2.187  -7.275 -10.532  1.00  0.00     0.000 C 
BRANCH  11  12
ATOM     12  C   UNL     1       2.455  -6.916 -11.999  1.00  0.00    -0.000 C 
BRANCH  12  13
ATOM     13  C   UNL     1       3.012  -5.490 -12.123  1.00  0.00    -0.000 C 
BRANCH  13  14
ATOM     14  C   UNL     1       2.138  -4.443 -11.410  1.00  0.00    -0.000 C 
BRANCH  14  15
ATOM     15  C   UNL     1       0.748  -4.214 -12.039  1.00  0.00    -0.000 C 
BRANCH  15  16
ATOM     16  C   UNL     1      -0.358  -3.812 -11.047  1.00  0.00    -0.000 C 
BRANCH  16  17
ATOM     17  C   UNL     1      -1.713  -4.456 -11.373  1.00  0.00    -0.003 C 
ATOM     18  C   UNL     1      -1.590  -5.974 -11.468  1.00  0.00     0.004 C 
ENDBRANCH  16  17
ENDBRANCH  15  16
ENDBRANCH  14  15
ENDBRANCH  13  14
ENDBRANCH  12  13
ENDBRANCH  11  12
ENDBRANCH   1  11
TORSDOF 14
ENDMDL
MODEL 9
REMARK VINA RESULT:    -3.068      3.472      7.699
REMARK INTER + INTRA:          -7.094
REMARK INTER:                  -6.165
REMARK INTRA:                  -0.929
REMARK UNBOUND:                -1.516
REMARK SMILES CCCCCCCCCCCCCCCC(=O)[O-]
REMARK SMILES IDX 9 1 10 2 11 3 12 4 13 5 14 6 15 7 16 8 17 9 18 10 8 11 7 12
REMARK SMILES IDX 6 13 5 14 4 15 3 16 2 17 1 18
REMARK H PARENT
REMARK Flexibility Score: inf
ROOT
ATOM      1  C   UNL     1      -0.211  -8.291 -10.054  1.00  0.00     0.000 C 
ENDROOT
BRANCH   1   2
ATOM      2  C   UNL     1      -0.997  -9.595  -9.874  1.00  0.00     0.000 C 
BRANCH   2   3
ATOM      3  C   UNL     1      -2.151  -9.685 -10.880  1.00  0.00     0.000 C 
BRANCH   3   4
ATOM      4  C   UNL     1      -1.941 -10.855 -11.854  1.00  0.00     0.000 C 
BRANCH   4   5
ATOM      5  C   UNL     1      -1.933 -12.220 -11.146  1.00  0.00     0.000 C 
BRANCH   5   6
ATOM      6  C   UNL     1      -0.606 -12.978 -11.336  1.00  0.00     0.006 C 
BRANCH   6   7
ATOM      7  C   UNL     1       0.421 -12.156 -12.125  1.00  0.00     0.053 C 
BRANCH   7   8
ATOM      8  C   UNL     1       1.609 -11.797 -11.285  1.00  0.00     0.041 C 
ATOM      9  O   UNL     1       2.590 -11.199 -11.799  1.00  0.00    -0.550 OA
ATOM     10  O   UNL     1       1.646 -12.154  -9.943  1.00  0.00    -0.550 OA
ENDBRANCH   7   8
ENDBRANCH   6   7
ENDBRANCH   5   6
ENDBRANCH   4   5
ENDBRANCH   3   4
ENDBRANCH   2   3
ENDBRANCH   1   2
BRANCH   1  11
ATOM     11  C   UNL     1      -0.926  -7.348 -11.029  1.00  0.00     0.000 C 
BRANCH  11  12
ATOM     12  C   UNL     1      -1.262  -6.011 -10.356  1.00  0.00    -0.000 C 
BRANCH  12  13
ATOM     13  C   UNL     1      -1.647  -4.952 -11.398  1.00  0.00    -0.000 C 
BRANCH  13  14
ATOM     14  C   UNL     1      -0.429  -4.203 -11.968  1.00  0.00    -0.000 C 
BRANCH  14  15
ATOM     15  C   UNL     1       0.940  -4.828 -11.630  1.00  0.00    -0.000 C 
BRANCH  15  16
ATOM     16  C   UNL     1       2.090  -3.822 -11.443  1.00  0.00    -0.000 C 
BRANCH  16  17
ATOM     17  C   UNL     1       1.594  -2.402 -11.133  1.00  0.00    -0.003 C 
ATOM     18  C   UNL     1       2.214  -1.874  -9.843  1.00  0.00     0.004 C 
ENDBRANCH  16  17
ENDBRANCH  15  16
ENDBRANCH  14  15
ENDBRANCH  13  14
ENDBRANCH  12  13
ENDBRANCH  11  12
ENDBRANCH   1  11
TORSDOF 14
ENDMDL
