MODEL 1
REMARK VINA RESULT:    -6.215      0.000      0.000
REMARK INTER + INTRA:          -7.804
REMARK INTER:                  -7.486
REMARK INTRA:                  -0.318
REMARK UNBOUND:                -0.318
REMARK SMILES O=c1c(O)c(-c2ccc(O)c(O)c2)oc2cc(O)cc(O)c12
REMARK SMILES IDX 5 1 3 2 2 3 1 4 22 5 20 6 19 7 17 8 16 9 15 10 14 11 6 12
REMARK SMILES IDX 7 13 8 14 9 15 13 16 11 17 10 18 12 20 4 22 21 24 18 26
REMARK H PARENT 10 19 12 21 4 23 21 25 18 27
REMARK Flexibility Score: inf
ROOT
ATOM      1  C   UNL     1      47.225 -42.622  30.488  1.00  0.00     0.180 A 
ATOM      2  C   UNL     1      47.520 -41.248  30.539  1.00  0.00     0.208 A 
ATOM      3  C   UNL     1      48.796 -40.841  30.961  1.00  0.00     0.238 A 
ATOM      4  O   UNL     1      49.070 -39.612  30.952  1.00  0.00    -0.285 OA
ATOM      5  C   UNL     1      49.754 -41.809  31.344  1.00  0.00     0.111 A 
ATOM      6  C   UNL     1      51.063 -41.507  31.827  1.00  0.00     0.134 A 
ATOM      7  C   UNL     1      51.973 -42.547  32.053  1.00  0.00     0.093 A 
ATOM      8  C   UNL     1      51.602 -43.880  31.876  1.00  0.00     0.123 A 
ATOM      9  C   UNL     1      50.306 -44.189  31.462  1.00  0.00     0.094 A 
ATOM     10  C   UNL     1      49.387 -43.171  31.193  1.00  0.00     0.146 A 
ATOM     11  O   UNL     1      48.168 -43.507  30.791  1.00  0.00    -0.452 OA
ENDROOT
BRANCH   1  12
ATOM     12  C   UNL     1      45.896 -43.128  30.077  1.00  0.00     0.025 A 
ATOM     13  C   UNL     1      45.626 -43.475  28.742  1.00  0.00     0.016 A 
ATOM     14  C   UNL     1      44.357 -43.928  28.373  1.00  0.00     0.051 A 
ATOM     15  C   UNL     1      43.336 -44.029  29.327  1.00  0.00     0.157 A 
ATOM     16  C   UNL     1      44.863 -43.211  31.027  1.00  0.00     0.062 A 
ATOM     17  C   UNL     1      43.592 -43.664  30.660  1.00  0.00     0.158 A 
BRANCH  15  18
ATOM     18  O   UNL     1      42.072 -44.482  28.956  1.00  0.00    -0.504 OA
ATOM     19  H   UNL     1      41.517 -45.069  29.567  1.00  0.00     0.293 HD
ENDBRANCH  15  18
BRANCH  17  20
ATOM     20  O   UNL     1      42.596 -43.746  31.633  1.00  0.00    -0.504 OA
ATOM     21  H   UNL     1      42.382 -42.973  32.252  1.00  0.00     0.293 HD
ENDBRANCH  17  20
ENDBRANCH   1  12
BRANCH   2  22
ATOM     22  O   UNL     1      46.567 -40.310  30.135  1.00  0.00    -0.502 OA
ATOM     23  H   UNL     1      46.756 -39.613  29.425  1.00  0.00     0.293 HD
ENDBRANCH   2  22
BRANCH   6  24
ATOM     24  O   UNL     1      51.506 -40.215  32.125  1.00  0.00    -0.507 OA
ATOM     25  H   UNL     1      52.455 -39.891  32.010  1.00  0.00     0.293 HD
ENDBRANCH   6  24
BRANCH   8  26
ATOM     26  O   UNL     1      52.529 -44.890  32.125  1.00  0.00    -0.508 OA
ATOM     27  H   UNL     1      53.274 -45.097  31.472  1.00  0.00     0.293 HD
ENDBRANCH   8  26
TORSDOF 6
ENDMDL
MODEL 2
REMARK VINA RESULT:    -6.072      3.025      7.054
REMARK INTER + INTRA:          -7.632
REMARK INTER:                  -7.840
REMARK INTRA:                   0.208
REMARK UNBOUND:                -0.318
REMARK SMILES O=c1c(O)c(-c2ccc(O)c(O)c2)oc2cc(O)cc(O)c12
REMARK SMILES IDX 5 1 3 2 2 3 1 4 22 5 20 6 19 7 17 8 16 9 15 10 14 11 6 12
REMARK SMILES IDX 7 13 8 14 9 15 13 16 11 17 10 18 12 20 4 22 21 24 18 26
REMARK H PARENT 10 19 12 21 4 23 21 25 18 27
REMARK Flexibility Score: inf
ROOT
ATOM      1  C   UNL     1      49.192 -39.779  30.043  1.00  0.00     0.180 A 
ATOM      2  C   UNL     1      48.378 -38.966  30.851  1.00  0.00     0.208 A 
ATOM      3  C   UNL     1      47.179 -39.492  31.358  1.00  0.00     0.238 A 
ATOM      4  O   UNL     1      46.483 -38.776  32.125  1.00  0.00    -0.285 OA
ATOM      5  C   UNL     1      46.800 -40.817  31.037  1.00  0.00     0.111 A 
ATOM      6  C   UNL     1      45.587 -41.439  31.462  1.00  0.00     0.134 A 
ATOM      7  C   UNL     1      45.376 -42.796  31.195  1.00  0.00     0.093 A 
ATOM      8  C   UNL     1      46.302 -43.539  30.462  1.00  0.00     0.123 A 
ATOM      9  C   UNL     1      47.464 -42.926  29.991  1.00  0.00     0.094 A 
ATOM     10  C   UNL     1      47.720 -41.582  30.273  1.00  0.00     0.146 A 
ATOM     11  O   UNL     1      48.841 -41.040  29.815  1.00  0.00    -0.452 OA
ENDROOT
BRANCH   1  12
ATOM     12  C   UNL     1      50.458 -39.288  29.453  1.00  0.00     0.025 A 
ATOM     13  C   UNL     1      51.600 -40.106  29.386  1.00  0.00     0.016 A 
ATOM     14  C   UNL     1      52.790 -39.613  28.846  1.00  0.00     0.051 A 
ATOM     15  C   UNL     1      52.863 -38.295  28.377  1.00  0.00     0.157 A 
ATOM     16  C   UNL     1      50.542 -37.960  29.001  1.00  0.00     0.062 A 
ATOM     17  C   UNL     1      51.732 -37.464  28.459  1.00  0.00     0.158 A 
BRANCH  15  18
ATOM     18  O   UNL     1      54.052 -37.807  27.838  1.00  0.00    -0.504 OA
ATOM     19  H   UNL     1      54.247 -37.862  26.845  1.00  0.00     0.293 HD
ENDBRANCH  15  18
BRANCH  17  20
ATOM     20  O   UNL     1      51.773 -36.146  28.008  1.00  0.00    -0.504 OA
ATOM     21  H   UNL     1      51.181 -35.815  27.254  1.00  0.00     0.293 HD
ENDBRANCH  17  20
ENDBRANCH   1  12
BRANCH   2  22
ATOM     22  O   UNL     1      48.783 -37.668  31.174  1.00  0.00    -0.502 OA
ATOM     23  H   UNL     1      49.469 -37.475  31.893  1.00  0.00     0.293 HD
ENDBRANCH   2  22
BRANCH   6  24
ATOM     24  O   UNL     1      44.554 -40.765  32.120  1.00  0.00    -0.507 OA
ATOM     25  H   UNL     1      44.288 -40.918  33.081  1.00  0.00     0.293 HD
ENDBRANCH   6  24
BRANCH   8  26
ATOM     26  O   UNL     1      46.053 -44.884  30.202  1.00  0.00    -0.508 OA
ATOM     27  H   UNL     1      45.658 -45.496  30.906  1.00  0.00     0.293 HD
ENDBRANCH   8  26
TORSDOF 6
ENDMDL
MODEL 3
REMARK VINA RESULT:    -5.926      2.599      4.342
REMARK INTER + INTRA:          -7.457
REMARK INTER:                  -7.207
REMARK INTRA:                  -0.250
REMARK UNBOUND:                -0.318
REMARK SMILES O=c1c(O)c(-c2ccc(O)c(O)c2)oc2cc(O)cc(O)c12
REMARK SMILES IDX 5 1 3 2 2 3 1 4 22 5 20 6 19 7 17 8 16 9 15 10 14 11 6 12
REMARK SMILES IDX 7 13 8 14 9 15 13 16 11 17 10 18 12 20 4 22 21 24 18 26
REMARK H PARENT 10 19 12 21 4 23 21 25 18 27
REMARK Flexibility Score: inf
ROOT
ATOM      1  C   UNL     1      49.138 -41.168  30.574  1.00  0.00     0.180 A 
ATOM      2  C   UNL     1      50.250 -41.708  31.241  1.00  0.00     0.208 A 
ATOM      3  C   UNL     1      51.514 -41.131  31.037  1.00  0.00     0.238 A 
ATOM      4  O   UNL     1      52.496 -41.586  31.680  1.00  0.00    -0.285 OA
ATOM      5  C   UNL     1      51.652 -40.033  30.155  1.00  0.00     0.111 A 
ATOM      6  C   UNL     1      52.891 -39.396  29.842  1.00  0.00     0.134 A 
ATOM      7  C   UNL     1      52.893 -38.236  29.059  1.00  0.00     0.093 A 
ATOM      8  C   UNL     1      51.710 -37.727  28.523  1.00  0.00     0.123 A 
ATOM      9  C   UNL     1      50.501 -38.376  28.774  1.00  0.00     0.094 A 
ATOM     10  C   UNL     1      50.462 -39.514  29.582  1.00  0.00     0.146 A 
ATOM     11  O   UNL     1      49.290 -40.096  29.804  1.00  0.00    -0.452 OA
ENDROOT
BRANCH   1  12
ATOM     12  C   UNL     1      47.778 -41.736  30.719  1.00  0.00     0.025 A 
ATOM     13  C   UNL     1      46.799 -41.101  31.502  1.00  0.00     0.016 A 
ATOM     14  C   UNL     1      45.531 -41.669  31.644  1.00  0.00     0.051 A 
ATOM     15  C   UNL     1      45.224 -42.884  31.018  1.00  0.00     0.157 A 
ATOM     16  C   UNL     1      47.473 -42.966  30.110  1.00  0.00     0.062 A 
ATOM     17  C   UNL     1      46.204 -43.536  30.250  1.00  0.00     0.158 A 
BRANCH  15  18
ATOM     18  O   UNL     1      43.957 -43.446  31.161  1.00  0.00    -0.504 OA
ATOM     19  H   UNL     1      43.126 -42.976  30.823  1.00  0.00     0.293 HD
ENDBRANCH  15  18
BRANCH  17  20
ATOM     20  O   UNL     1      45.934 -44.750  29.619  1.00  0.00    -0.504 OA
ATOM     21  H   UNL     1      46.670 -45.388  29.339  1.00  0.00     0.293 HD
ENDBRANCH  17  20
ENDBRANCH   1  12
BRANCH   2  22
ATOM     22  O   UNL     1      50.087 -42.779  32.125  1.00  0.00    -0.502 OA
ATOM     23  H   UNL     1      50.870 -43.301  32.497  1.00  0.00     0.293 HD
ENDBRANCH   2  22
BRANCH   6  24
ATOM     24  O   UNL     1      54.140 -39.875  30.250  1.00  0.00    -0.507 OA
ATOM     25  H   UNL     1      54.659 -40.601  29.780  1.00  0.00     0.293 HD
ENDBRANCH   6  24
BRANCH   8  26
ATOM     26  O   UNL     1      51.751 -36.579  27.735  1.00  0.00    -0.508 OA
ATOM     27  H   UNL     1      50.906 -36.157  27.368  1.00  0.00     0.293 HD
ENDBRANCH   8  26
TORSDOF 6
ENDMDL
MODEL 4
REMARK VINA RESULT:    -5.743      1.386      2.076
REMARK INTER + INTRA:          -7.236
REMARK INTER:                  -7.003
REMARK INTRA:                  -0.233
REMARK UNBOUND:                -0.318
REMARK SMILES O=c1c(O)c(-c2ccc(O)c(O)c2)oc2cc(O)cc(O)c12
REMARK SMILES IDX 5 1 3 2 2 3 1 4 22 5 20 6 19 7 17 8 16 9 15 10 14 11 6 12
REMARK SMILES IDX 7 13 8 14 9 15 13 16 11 17 10 18 12 20 4 22 21 24 18 26
REMARK H PARENT 10 19 12 21 4 23 21 25 18 27
REMARK Flexibility Score: inf
ROOT
ATOM      1  C   UNL     1      46.995 -41.724  30.548  1.00  0.00     0.180 A 
ATOM      2  C   UNL     1      47.127 -40.539  29.804  1.00  0.00     0.208 A 
ATOM      3  C   UNL     1      48.392 -39.939  29.696  1.00  0.00     0.238 A 
ATOM      4  O   UNL     1      48.512 -38.908  28.983  1.00  0.00    -0.285 OA
ATOM      5  C   UNL     1      49.505 -40.521  30.348  1.00  0.00     0.111 A 
ATOM      6  C   UNL     1      50.825 -39.976  30.340  1.00  0.00     0.134 A 
ATOM      7  C   UNL     1      51.876 -40.704  30.909  1.00  0.00     0.093 A 
ATOM      8  C   UNL     1      51.647 -41.926  31.542  1.00  0.00     0.123 A 
ATOM      9  C   UNL     1      50.351 -42.439  31.607  1.00  0.00     0.094 A 
ATOM     10  C   UNL     1      49.287 -41.753  31.017  1.00  0.00     0.146 A 
ATOM     11  O   UNL     1      48.072 -42.280  31.092  1.00  0.00    -0.452 OA
ENDROOT
BRANCH   1  12
ATOM     12  C   UNL     1      45.691 -42.401  30.728  1.00  0.00     0.025 A 
ATOM     13  C   UNL     1      45.034 -42.406  31.970  1.00  0.00     0.016 A 
ATOM     14  C   UNL     1      43.816 -43.073  32.122  1.00  0.00     0.051 A 
ATOM     15  C   UNL     1      43.242 -43.755  31.041  1.00  0.00     0.157 A 
ATOM     16  C   UNL     1      45.123 -43.104  29.652  1.00  0.00     0.062 A 
ATOM     17  C   UNL     1      43.903 -43.772  29.801  1.00  0.00     0.158 A 
BRANCH  15  18
ATOM     18  O   UNL     1      42.026 -44.418  31.196  1.00  0.00    -0.504 OA
ATOM     19  H   UNL     1      41.450 -44.664  30.399  1.00  0.00     0.293 HD
ENDBRANCH  15  18
BRANCH  17  20
ATOM     20  O   UNL     1      43.363 -44.447  28.707  1.00  0.00    -0.504 OA
ATOM     21  H   UNL     1      43.932 -45.010  28.086  1.00  0.00     0.293 HD
ENDBRANCH  17  20
ENDBRANCH   1  12
BRANCH   2  22
ATOM     22  O   UNL     1      46.019 -39.994  29.150  1.00  0.00    -0.502 OA
ATOM     23  H   UNL     1      45.071 -40.297  29.339  1.00  0.00     0.293 HD
ENDBRANCH   2  22
BRANCH   6  24
ATOM     24  O   UNL     1      51.148 -38.721  29.815  1.00  0.00    -0.507 OA
ATOM     25  H   UNL     1      51.509 -37.948  30.354  1.00  0.00     0.293 HD
ENDBRANCH   6  24
BRANCH   8  26
ATOM     26  O   UNL     1      52.714 -42.616  32.111  1.00  0.00    -0.508 OA
ATOM     27  H   UNL     1      52.601 -43.549  32.488  1.00  0.00     0.293 HD
ENDBRANCH   8  26
TORSDOF 6
ENDMDL
MODEL 5
REMARK VINA RESULT:    -5.397      2.848      3.879
REMARK INTER + INTRA:          -6.819
REMARK INTER:                  -6.960
REMARK INTRA:                   0.141
REMARK UNBOUND:                -0.318
REMARK SMILES O=c1c(O)c(-c2ccc(O)c(O)c2)oc2cc(O)cc(O)c12
REMARK SMILES IDX 5 1 3 2 2 3 1 4 22 5 20 6 19 7 17 8 16 9 15 10 14 11 6 12
REMARK SMILES IDX 7 13 8 14 9 15 13 16 11 17 10 18 12 20 4 22 21 24 18 26
REMARK H PARENT 10 19 12 21 4 23 21 25 18 27
REMARK Flexibility Score: inf
ROOT
ATOM      1  C   UNL     1      48.084 -40.295  30.159  1.00  0.00     0.180 A 
ATOM      2  C   UNL     1      47.881 -38.908  30.258  1.00  0.00     0.208 A 
ATOM      3  C   UNL     1      48.906 -38.038  29.854  1.00  0.00     0.238 A 
ATOM      4  O   UNL     1      48.697 -36.797  29.895  1.00  0.00    -0.285 OA
ATOM      5  C   UNL     1      50.128 -38.566  29.372  1.00  0.00     0.111 A 
ATOM      6  C   UNL     1      51.250 -37.778  28.973  1.00  0.00     0.134 A 
ATOM      7  C   UNL     1      52.359 -38.402  28.390  1.00  0.00     0.093 A 
ATOM      8  C   UNL     1      52.415 -39.789  28.249  1.00  0.00     0.123 A 
ATOM      9  C   UNL     1      51.348 -40.573  28.690  1.00  0.00     0.094 A 
ATOM     10  C   UNL     1      50.212 -39.977  29.243  1.00  0.00     0.146 A 
ATOM     11  O   UNL     1      49.216 -40.757  29.640  1.00  0.00    -0.452 OA
ENDROOT
BRANCH   1  12
ATOM     12  C   UNL     1      47.059 -41.275  30.587  1.00  0.00     0.025 A 
ATOM     13  C   UNL     1      46.266 -41.052  31.726  1.00  0.00     0.016 A 
ATOM     14  C   UNL     1      45.322 -42.002  32.125  1.00  0.00     0.051 A 
ATOM     15  C   UNL     1      45.166 -43.192  31.403  1.00  0.00     0.157 A 
ATOM     16  C   UNL     1      46.914 -42.479  29.878  1.00  0.00     0.062 A 
ATOM     17  C   UNL     1      45.970 -43.432  30.275  1.00  0.00     0.158 A 
BRANCH  15  18
ATOM     18  O   UNL     1      44.223 -44.137  31.803  1.00  0.00    -0.504 OA
ATOM     19  H   UNL     1      43.432 -44.379  31.218  1.00  0.00     0.293 HD
ENDBRANCH  15  18
BRANCH  17  20
ATOM     20  O   UNL     1      45.845 -44.609  29.538  1.00  0.00    -0.504 OA
ATOM     21  H   UNL     1      44.941 -44.993  29.287  1.00  0.00     0.293 HD
ENDBRANCH  17  20
ENDBRANCH   1  12
BRANCH   2  22
ATOM     22  O   UNL     1      46.658 -38.408  30.716  1.00  0.00    -0.502 OA
ATOM     23  H   UNL     1      46.398 -38.418  31.694  1.00  0.00     0.293 HD
ENDBRANCH   2  22
BRANCH   6  24
ATOM     24  O   UNL     1      51.336 -36.395  29.154  1.00  0.00    -0.507 OA
ATOM     25  H   UNL     1      51.962 -35.786  28.649  1.00  0.00     0.293 HD
ENDBRANCH   6  24
BRANCH   8  26
ATOM     26  O   UNL     1      53.541 -40.376  27.678  1.00  0.00    -0.508 OA
ATOM     27  H   UNL     1      53.465 -41.022  26.901  1.00  0.00     0.293 HD
ENDBRANCH   8  26
TORSDOF 6
ENDMDL
MODEL 6
REMARK VINA RESULT:    -4.842      2.428      6.744
REMARK INTER + INTRA:          -6.151
REMARK INTER:                  -5.872
REMARK INTRA:                  -0.279
REMARK UNBOUND:                -0.318
REMARK SMILES O=c1c(O)c(-c2ccc(O)c(O)c2)oc2cc(O)cc(O)c12
REMARK SMILES IDX 5 1 3 2 2 3 1 4 22 5 20 6 19 7 17 8 16 9 15 10 14 11 6 12
REMARK SMILES IDX 7 13 8 14 9 15 13 16 11 17 10 18 12 20 4 22 21 24 18 26
REMARK H PARENT 10 19 12 21 4 23 21 25 18 27
REMARK Flexibility Score: inf
ROOT
ATOM      1  C   UNL     1      48.095 -40.579  30.612  1.00  0.00     0.180 A 
ATOM      2  C   UNL     1      49.003 -41.589  30.970  1.00  0.00     0.208 A 
ATOM      3  C   UNL     1      48.664 -42.929  30.723  1.00  0.00     0.238 A 
ATOM      4  O   UNL     1      49.505 -43.825  30.996  1.00  0.00    -0.285 OA
ATOM      5  C   UNL     1      47.413 -43.243  30.139  1.00  0.00     0.111 A 
ATOM      6  C   UNL     1      46.949 -44.568  29.881  1.00  0.00     0.134 A 
ATOM      7  C   UNL     1      45.752 -44.756  29.180  1.00  0.00     0.093 A 
ATOM      8  C   UNL     1      44.970 -43.671  28.784  1.00  0.00     0.123 A 
ATOM      9  C   UNL     1      45.386 -42.373  29.083  1.00  0.00     0.094 A 
ATOM     10  C   UNL     1      46.594 -42.151  29.749  1.00  0.00     0.146 A 
ATOM     11  O   UNL     1      46.958 -40.902  30.005  1.00  0.00    -0.452 OA
ENDROOT
BRANCH   1  12
ATOM     12  C   UNL     1      48.371 -39.145  30.863  1.00  0.00     0.025 A 
ATOM     13  C   UNL     1      47.750 -38.454  31.918  1.00  0.00     0.016 A 
ATOM     14  C   UNL     1      48.008 -37.096  32.119  1.00  0.00     0.051 A 
ATOM     15  C   UNL     1      48.877 -36.405  31.265  1.00  0.00     0.157 A 
ATOM     16  C   UNL     1      49.225 -38.443  29.995  1.00  0.00     0.062 A 
ATOM     17  C   UNL     1      49.485 -37.084  30.195  1.00  0.00     0.158 A 
BRANCH  15  18
ATOM     18  O   UNL     1      49.132 -35.050  31.471  1.00  0.00    -0.504 OA
ATOM     19  H   UNL     1      48.569 -34.332  31.032  1.00  0.00     0.293 HD
ENDBRANCH  15  18
BRANCH  17  20
ATOM     20  O   UNL     1      50.349 -36.424  29.322  1.00  0.00    -0.504 OA
ATOM     21  H   UNL     1      50.320 -35.420  29.191  1.00  0.00     0.293 HD
ENDBRANCH  17  20
ENDBRANCH   1  12
BRANCH   2  22
ATOM     22  O   UNL     1      50.242 -41.256  31.525  1.00  0.00    -0.502 OA
ATOM     23  H   UNL     1      50.878 -40.603  31.084  1.00  0.00     0.293 HD
ENDBRANCH   2  22
BRANCH   6  24
ATOM     24  O   UNL     1      47.606 -45.723  30.315  1.00  0.00    -0.507 OA
ATOM     25  H   UNL     1      48.046 -45.831  31.216  1.00  0.00     0.293 HD
ENDBRANCH   6  24
BRANCH   8  26
ATOM     26  O   UNL     1      43.777 -43.895  28.101  1.00  0.00    -0.508 OA
ATOM     27  H   UNL     1      42.880 -43.822  28.565  1.00  0.00     0.293 HD
ENDBRANCH   8  26
TORSDOF 6
ENDMDL
MODEL 7
REMARK VINA RESULT:    -4.684      1.556      3.342
REMARK INTER + INTRA:          -5.960
REMARK INTER:                  -5.675
REMARK INTRA:                  -0.285
REMARK UNBOUND:                -0.318
REMARK SMILES O=c1c(O)c(-c2ccc(O)c(O)c2)oc2cc(O)cc(O)c12
REMARK SMILES IDX 5 1 3 2 2 3 1 4 22 5 20 6 19 7 17 8 16 9 15 10 14 11 6 12
REMARK SMILES IDX 7 13 8 14 9 15 13 16 11 17 10 18 12 20 4 22 21 24 18 26
REMARK H PARENT 10 19 12 21 4 23 21 25 18 27
REMARK Flexibility Score: inf
ROOT
ATOM      1  C   UNL     1      46.724 -42.338  30.338  1.00  0.00     0.180 A 
ATOM      2  C   UNL     1      47.953 -42.995  30.521  1.00  0.00     0.208 A 
ATOM      3  C   UNL     1      49.062 -42.255  30.960  1.00  0.00     0.238 A 
ATOM      4  O   UNL     1      50.145 -42.862  31.174  1.00  0.00    -0.285 OA
ATOM      5  C   UNL     1      48.935 -40.865  31.194  1.00  0.00     0.111 A 
ATOM      6  C   UNL     1      50.003 -40.011  31.602  1.00  0.00     0.134 A 
ATOM      7  C   UNL     1      49.734 -38.677  31.930  1.00  0.00     0.093 A 
ATOM      8  C   UNL     1      48.448 -38.149  31.804  1.00  0.00     0.123 A 
ATOM      9  C   UNL     1      47.409 -38.961  31.349  1.00  0.00     0.094 A 
ATOM     10  C   UNL     1      47.639 -40.306  31.049  1.00  0.00     0.146 A 
ATOM     11  O   UNL     1      46.621 -41.046  30.630  1.00  0.00    -0.452 OA
ENDROOT
BRANCH   1  12
ATOM     12  C   UNL     1      45.516 -43.044  29.854  1.00  0.00     0.025 A 
ATOM     13  C   UNL     1      45.370 -43.403  28.503  1.00  0.00     0.016 A 
ATOM     14  C   UNL     1      44.210 -44.047  28.065  1.00  0.00     0.051 A 
ATOM     15  C   UNL     1      43.176 -44.332  28.965  1.00  0.00     0.157 A 
ATOM     16  C   UNL     1      44.466 -43.312  30.749  1.00  0.00     0.062 A 
ATOM     17  C   UNL     1      43.304 -43.958  30.314  1.00  0.00     0.158 A 
BRANCH  15  18
ATOM     18  O   UNL     1      42.021 -44.976  28.525  1.00  0.00    -0.504 OA
ATOM     19  H   UNL     1      42.058 -45.879  28.067  1.00  0.00     0.293 HD
ENDBRANCH  15  18
BRANCH  17  20
ATOM     20  O   UNL     1      42.290 -44.220  31.234  1.00  0.00    -0.504 OA
ATOM     21  H   UNL     1      42.469 -44.285  32.229  1.00  0.00     0.293 HD
ENDBRANCH  17  20
ENDBRANCH   1  12
BRANCH   2  22
ATOM     22  O   UNL     1      48.051 -44.373  30.306  1.00  0.00    -0.502 OA
ATOM     23  H   UNL     1      47.607 -45.051  30.913  1.00  0.00     0.293 HD
ENDBRANCH   2  22
BRANCH   6  24
ATOM     24  O   UNL     1      51.340 -40.412  31.672  1.00  0.00    -0.507 OA
ATOM     25  H   UNL     1      51.940 -40.559  30.874  1.00  0.00     0.293 HD
ENDBRANCH   6  24
BRANCH   8  26
ATOM     26  O   UNL     1      48.219 -36.813  32.125  1.00  0.00    -0.508 OA
ATOM     27  H   UNL     1      47.610 -36.549  32.889  1.00  0.00     0.293 HD
ENDBRANCH   8  26
TORSDOF 6
ENDMDL
MODEL 8
REMARK VINA RESULT:    -4.315     10.941     13.375
REMARK INTER + INTRA:          -5.516
REMARK INTER:                  -5.724
REMARK INTRA:                   0.208
REMARK UNBOUND:                -0.318
REMARK SMILES O=c1c(O)c(-c2ccc(O)c(O)c2)oc2cc(O)cc(O)c12
REMARK SMILES IDX 5 1 3 2 2 3 1 4 22 5 20 6 19 7 17 8 16 9 15 10 14 11 6 12
REMARK SMILES IDX 7 13 8 14 9 15 13 16 11 17 10 18 12 20 4 22 21 24 18 26
REMARK H PARENT 10 19 12 21 4 23 21 25 18 27
REMARK Flexibility Score: inf
ROOT
ATOM      1  C   UNL     1      54.658 -35.803  24.171  1.00  0.00     0.180 A 
ATOM      2  C   UNL     1      54.803 -36.615  23.033  1.00  0.00     0.208 A 
ATOM      3  C   UNL     1      54.940 -36.007  21.775  1.00  0.00     0.238 A 
ATOM      4  O   UNL     1      55.124 -36.740  20.768  1.00  0.00    -0.285 OA
ATOM      5  C   UNL     1      54.914 -34.596  21.669  1.00  0.00     0.111 A 
ATOM      6  C   UNL     1      55.004 -33.875  20.440  1.00  0.00     0.134 A 
ATOM      7  C   UNL     1      55.100 -32.478  20.464  1.00  0.00     0.093 A 
ATOM      8  C   UNL     1      55.042 -31.773  21.666  1.00  0.00     0.123 A 
ATOM      9  C   UNL     1      54.895 -32.465  22.869  1.00  0.00     0.094 A 
ATOM     10  C   UNL     1      54.834 -33.861  22.880  1.00  0.00     0.146 A 
ATOM     11  O   UNL     1      54.704 -34.482  24.045  1.00  0.00    -0.452 OA
ENDROOT
BRANCH   1  12
ATOM     12  C   UNL     1      54.483 -36.370  25.528  1.00  0.00     0.025 A 
ATOM     13  C   UNL     1      55.111 -35.797  26.647  1.00  0.00     0.016 A 
ATOM     14  C   UNL     1      54.951 -36.364  27.914  1.00  0.00     0.051 A 
ATOM     15  C   UNL     1      54.174 -37.517  28.080  1.00  0.00     0.157 A 
ATOM     16  C   UNL     1      53.722 -37.540  25.696  1.00  0.00     0.062 A 
ATOM     17  C   UNL     1      53.560 -38.109  26.963  1.00  0.00     0.158 A 
BRANCH  15  18
ATOM     18  O   UNL     1      54.016 -38.079  29.346  1.00  0.00    -0.504 OA
ATOM     19  H   UNL     1      53.800 -37.511  30.156  1.00  0.00     0.293 HD
ENDBRANCH  15  18
BRANCH  17  20
ATOM     20  O   UNL     1      52.786 -39.262  27.094  1.00  0.00    -0.504 OA
ATOM     21  H   UNL     1      52.155 -39.572  26.365  1.00  0.00     0.293 HD
ENDBRANCH  17  20
ENDBRANCH   1  12
BRANCH   2  22
ATOM     22  O   UNL     1      54.848 -38.006  23.165  1.00  0.00    -0.502 OA
ATOM     23  H   UNL     1      54.503 -38.632  22.447  1.00  0.00     0.293 HD
ENDBRANCH   2  22
BRANCH   6  24
ATOM     24  O   UNL     1      54.976 -34.476  19.178  1.00  0.00    -0.507 OA
ATOM     25  H   UNL     1      54.698 -34.012  18.326  1.00  0.00     0.293 HD
ENDBRANCH   6  24
BRANCH   8  26
ATOM     26  O   UNL     1      55.125 -30.383  21.652  1.00  0.00    -0.508 OA
ATOM     27  H   UNL     1      56.015 -29.905  21.583  1.00  0.00     0.293 HD
ENDBRANCH   8  26
TORSDOF 6
ENDMDL
MODEL 9
REMARK VINA RESULT:    -3.401      2.799      4.304
REMARK INTER + INTRA:          -4.415
REMARK INTER:                  -4.248
REMARK INTRA:                  -0.167
REMARK UNBOUND:                -0.318
REMARK SMILES O=c1c(O)c(-c2ccc(O)c(O)c2)oc2cc(O)cc(O)c12
REMARK SMILES IDX 5 1 3 2 2 3 1 4 22 5 20 6 19 7 17 8 16 9 15 10 14 11 6 12
REMARK SMILES IDX 7 13 8 14 9 15 13 16 11 17 10 18 12 20 4 22 21 24 18 26
REMARK H PARENT 10 19 12 21 4 23 21 25 18 27
REMARK Flexibility Score: inf
ROOT
ATOM      1  C   UNL     1      47.675 -40.900  30.314  1.00  0.00     0.180 A 
ATOM      2  C   UNL     1      46.999 -40.052  31.209  1.00  0.00     0.208 A 
ATOM      3  C   UNL     1      47.446 -38.730  31.363  1.00  0.00     0.238 A 
ATOM      4  O   UNL     1      46.802 -37.961  32.125  1.00  0.00    -0.285 OA
ATOM      5  C   UNL     1      48.572 -38.277  30.635  1.00  0.00     0.111 A 
ATOM      6  C   UNL     1      49.135 -36.970  30.744  1.00  0.00     0.134 A 
ATOM      7  C   UNL     1      50.168 -36.589  29.880  1.00  0.00     0.093 A 
ATOM      8  C   UNL     1      50.703 -37.487  28.955  1.00  0.00     0.123 A 
ATOM      9  C   UNL     1      50.199 -38.786  28.881  1.00  0.00     0.094 A 
ATOM     10  C   UNL     1      49.143 -39.185  29.705  1.00  0.00     0.146 A 
ATOM     11  O   UNL     1      48.686 -40.425  29.596  1.00  0.00    -0.452 OA
ENDROOT
BRANCH   1  12
ATOM     12  C   UNL     1      47.279 -42.313  30.115  1.00  0.00     0.025 A 
ATOM     13  C   UNL     1      48.135 -43.370  30.469  1.00  0.00     0.016 A 
ATOM     14  C   UNL     1      47.750 -44.694  30.250  1.00  0.00     0.051 A 
ATOM     15  C   UNL     1      46.512 -44.984  29.663  1.00  0.00     0.157 A 
ATOM     16  C   UNL     1      46.047 -42.608  29.506  1.00  0.00     0.062 A 
ATOM     17  C   UNL     1      45.658 -43.933  29.286  1.00  0.00     0.158 A 
BRANCH  15  18
ATOM     18  O   UNL     1      46.130 -46.307  29.446  1.00  0.00    -0.504 OA
ATOM     19  H   UNL     1      46.676 -46.928  28.861  1.00  0.00     0.293 HD
ENDBRANCH  15  18
BRANCH  17  20
ATOM     20  O   UNL     1      44.422 -44.187  28.693  1.00  0.00    -0.504 OA
ATOM     21  H   UNL     1      44.341 -44.555  27.752  1.00  0.00     0.293 HD
ENDBRANCH  17  20
ENDBRANCH   1  12
BRANCH   2  22
ATOM     22  O   UNL     1      45.876 -40.514  31.901  1.00  0.00    -0.502 OA
ATOM     23  H   UNL     1      45.563 -40.097  32.768  1.00  0.00     0.293 HD
ENDBRANCH   2  22
BRANCH   6  24
ATOM     24  O   UNL     1      48.738 -36.026  31.695  1.00  0.00    -0.507 OA
ATOM     25  H   UNL     1      49.275 -35.769  32.510  1.00  0.00     0.293 HD
ENDBRANCH   6  24
BRANCH   8  26
ATOM     26  O   UNL     1      51.741 -37.078  28.121  1.00  0.00    -0.508 OA
ATOM     27  H   UNL     1      51.978 -36.100  28.012  1.00  0.00     0.293 HD
ENDBRANCH   8  26
TORSDOF 6
ENDMDL
