MODEL 1
REMARK VINA RESULT:    -5.279      0.000      0.000
REMARK INTER + INTRA:         -11.649
REMARK INTER:                  -9.908
REMARK INTRA:                  -1.741
REMARK UNBOUND:                -1.741
REMARK SMILES CCCCCCCCC=CCCCCCCCC(=O)[O-]
REMARK SMILES IDX 10 1 9 2 11 3 12 4 13 5 14 6 15 7 16 8 17 9 18 10 19 11
REMARK SMILES IDX 20 12 8 13 7 14 6 15 5 16 4 17 3 18 2 19 1 20
REMARK H PARENT
REMARK Flexibility Score: inf
ROOT
ATOM      1  C   UNL     1      -6.281 -18.954  -9.447  1.00  0.00    -0.031 C 
ATOM      2  C   UNL     1      -6.615 -17.987  -8.573  1.00  0.00    -0.031 C 
ENDROOT
BRANCH   1   3
ATOM      3  C   UNL     1      -7.255 -19.924 -10.066  1.00  0.00     0.027 C 
BRANCH   3   4
ATOM      4  C   UNL     1      -7.357 -21.203  -9.223  1.00  0.00     0.004 C 
BRANCH   4   5
ATOM      5  C   UNL     1      -7.937 -22.386 -10.012  1.00  0.00     0.000 C 
BRANCH   5   6
ATOM      6  C   UNL     1      -7.516 -22.376 -11.489  1.00  0.00     0.000 C 
BRANCH   6   7
ATOM      7  C   UNL     1      -6.272 -23.245 -11.710  1.00  0.00     0.000 C 
BRANCH   7   8
ATOM      8  C   UNL     1      -5.079 -22.394 -12.171  1.00  0.00     0.006 C 
BRANCH   8   9
ATOM      9  C   UNL     1      -3.999 -22.272 -11.088  1.00  0.00     0.053 C 
BRANCH   9  10
ATOM     10  C   UNL     1      -2.677 -21.865 -11.664  1.00  0.00     0.041 C 
ATOM     11  O   UNL     1      -2.513 -21.834 -12.912  1.00  0.00    -0.550 OA
ATOM     12  O   UNL     1      -1.619 -21.551 -10.822  1.00  0.00    -0.550 OA
ENDBRANCH   9  10
ENDBRANCH   8   9
ENDBRANCH   7   8
ENDBRANCH   6   7
ENDBRANCH   5   6
ENDBRANCH   4   5
ENDBRANCH   3   4
ENDBRANCH   1   3
BRANCH   2  13
ATOM     13  C   UNL     1      -7.999 -17.785  -8.006  1.00  0.00     0.027 C 
BRANCH  13  14
ATOM     14  C   UNL     1      -8.671 -16.525  -8.571  1.00  0.00     0.004 C 
BRANCH  14  15
ATOM     15  C   UNL     1      -9.048 -16.686 -10.054  1.00  0.00     0.000 C 
BRANCH  15  16
ATOM     16  C   UNL     1      -8.579 -15.503 -10.915  1.00  0.00     0.000 C 
BRANCH  16  17
ATOM     17  C   UNL     1      -7.511 -14.648 -10.215  1.00  0.00    -0.000 C 
BRANCH  17  18
ATOM     18  C   UNL     1      -6.099 -15.077 -10.643  1.00  0.00    -0.000 C 
BRANCH  18  19
ATOM     19  C   UNL     1      -5.359 -13.979 -11.422  1.00  0.00    -0.003 C 
ATOM     20  C   UNL     1      -5.099 -14.360 -12.879  1.00  0.00     0.004 C 
ENDBRANCH  18  19
ENDBRANCH  17  18
ENDBRANCH  16  17
ENDBRANCH  15  16
ENDBRANCH  14  15
ENDBRANCH  13  14
ENDBRANCH   2  13
TORSDOF 15
ENDMDL
MODEL 2
REMARK VINA RESULT:    -5.205      1.470      2.322
REMARK INTER + INTRA:         -11.510
REMARK INTER:                  -9.699
REMARK INTRA:                  -1.811
REMARK UNBOUND:                -1.741
REMARK SMILES CCCCCCCCC=CCCCCCCCC(=O)[O-]
REMARK SMILES IDX 10 1 9 2 11 3 12 4 13 5 14 6 15 7 16 8 17 9 18 10 19 11
REMARK SMILES IDX 20 12 8 13 7 14 6 15 5 16 4 17 3 18 2 19 1 20
REMARK H PARENT
REMARK Flexibility Score: inf
ROOT
ATOM      1  C   UNL     1      -6.995 -19.841  -9.786  1.00  0.00    -0.031 C 
ATOM      2  C   UNL     1      -7.703 -19.080  -8.930  1.00  0.00    -0.031 C 
ENDROOT
BRANCH   1   3
ATOM      3  C   UNL     1      -5.630 -19.487 -10.318  1.00  0.00     0.027 C 
BRANCH   3   4
ATOM      4  C   UNL     1      -4.746 -20.739 -10.418  1.00  0.00     0.004 C 
BRANCH   4   5
ATOM      5  C   UNL     1      -5.348 -21.816 -11.333  1.00  0.00     0.000 C 
BRANCH   5   6
ATOM      6  C   UNL     1      -4.380 -22.262 -12.439  1.00  0.00     0.000 C 
BRANCH   6   7
ATOM      7  C   UNL     1      -3.887 -21.060 -13.254  1.00  0.00     0.000 C 
BRANCH   7   8
ATOM      8  C   UNL     1      -2.354 -21.048 -13.345  1.00  0.00     0.006 C 
BRANCH   8   9
ATOM      9  C   UNL     1      -1.744 -19.788 -12.715  1.00  0.00     0.053 C 
BRANCH   9  10
ATOM     10  C   UNL     1      -1.159 -20.068 -11.364  1.00  0.00     0.041 C 
ATOM     11  O   UNL     1      -0.414 -19.219 -10.808  1.00  0.00    -0.550 OA
ATOM     12  O   UNL     1      -1.413 -21.280 -10.735  1.00  0.00    -0.550 OA
ENDBRANCH   9  10
ENDBRANCH   8   9
ENDBRANCH   7   8
ENDBRANCH   6   7
ENDBRANCH   5   6
ENDBRANCH   4   5
ENDBRANCH   3   4
ENDBRANCH   1   3
BRANCH   2  13
ATOM     13  C   UNL     1      -7.281 -17.713  -8.448  1.00  0.00     0.027 C 
BRANCH  13  14
ATOM     14  C   UNL     1      -8.403 -16.677  -8.612  1.00  0.00     0.004 C 
BRANCH  14  15
ATOM     15  C   UNL     1      -9.044 -16.735 -10.010  1.00  0.00     0.000 C 
BRANCH  15  16
ATOM     16  C   UNL     1      -8.519 -15.637 -10.948  1.00  0.00     0.000 C 
BRANCH  16  17
ATOM     17  C   UNL     1      -7.732 -16.204 -12.140  1.00  0.00    -0.000 C 
BRANCH  17  18
ATOM     18  C   UNL     1      -6.219 -16.124 -11.885  1.00  0.00    -0.000 C 
BRANCH  18  19
ATOM     19  C   UNL     1      -5.478 -15.331 -12.971  1.00  0.00    -0.003 C 
ATOM     20  C   UNL     1      -4.941 -13.992 -12.466  1.00  0.00     0.004 C 
ENDBRANCH  18  19
ENDBRANCH  17  18
ENDBRANCH  16  17
ENDBRANCH  15  16
ENDBRANCH  14  15
ENDBRANCH  13  14
ENDBRANCH   2  13
TORSDOF 15
ENDMDL
MODEL 3
REMARK VINA RESULT:    -5.204      1.383      2.482
REMARK INTER + INTRA:         -11.508
REMARK INTER:                  -9.152
REMARK INTRA:                  -2.356
REMARK UNBOUND:                -1.741
REMARK SMILES CCCCCCCCC=CCCCCCCCC(=O)[O-]
REMARK SMILES IDX 10 1 9 2 11 3 12 4 13 5 14 6 15 7 16 8 17 9 18 10 19 11
REMARK SMILES IDX 20 12 8 13 7 14 6 15 5 16 4 17 3 18 2 19 1 20
REMARK H PARENT
REMARK Flexibility Score: inf
ROOT
ATOM      1  C   UNL     1      -8.044 -20.615 -10.633  1.00  0.00    -0.031 C 
ATOM      2  C   UNL     1      -7.672 -19.492  -9.992  1.00  0.00    -0.031 C 
ENDROOT
BRANCH   1   3
ATOM      3  C   UNL     1      -7.853 -22.011 -10.097  1.00  0.00     0.027 C 
BRANCH   3   4
ATOM      4  C   UNL     1      -7.649 -23.010 -11.246  1.00  0.00     0.004 C 
BRANCH   4   5
ATOM      5  C   UNL     1      -6.193 -23.485 -11.364  1.00  0.00     0.000 C 
BRANCH   5   6
ATOM      6  C   UNL     1      -5.301 -22.479 -12.106  1.00  0.00     0.000 C 
BRANCH   6   7
ATOM      7  C   UNL     1      -3.986 -22.249 -11.352  1.00  0.00     0.000 C 
BRANCH   7   8
ATOM      8  C   UNL     1      -4.031 -20.938 -10.553  1.00  0.00     0.006 C 
BRANCH   8   9
ATOM      9  C   UNL     1      -4.177 -19.710 -11.462  1.00  0.00     0.053 C 
BRANCH   9  10
ATOM     10  C   UNL     1      -3.016 -19.569 -12.398  1.00  0.00     0.041 C 
ATOM     11  O   UNL     1      -1.843 -19.492 -11.946  1.00  0.00    -0.550 OA
ATOM     12  O   UNL     1      -3.233 -19.490 -13.768  1.00  0.00    -0.550 OA
ENDBRANCH   9  10
ENDBRANCH   8   9
ENDBRANCH   7   8
ENDBRANCH   6   7
ENDBRANCH   5   6
ENDBRANCH   4   5
ENDBRANCH   3   4
ENDBRANCH   1   3
BRANCH   2  13
ATOM     13  C   UNL     1      -6.919 -19.461  -8.684  1.00  0.00     0.027 C 
BRANCH  13  14
ATOM     14  C   UNL     1      -6.836 -18.041  -8.105  1.00  0.00     0.004 C 
BRANCH  14  15
ATOM     15  C   UNL     1      -8.196 -17.322  -8.136  1.00  0.00     0.000 C 
BRANCH  15  16
ATOM     16  C   UNL     1      -8.187 -16.076  -9.034  1.00  0.00     0.000 C 
BRANCH  16  17
ATOM     17  C   UNL     1      -9.047 -16.248 -10.295  1.00  0.00    -0.000 C 
BRANCH  17  18
ATOM     18  C   UNL     1      -8.178 -16.202 -11.561  1.00  0.00    -0.000 C 
BRANCH  18  19
ATOM     19  C   UNL     1      -6.677 -16.124 -11.243  1.00  0.00    -0.003 C 
ATOM     20  C   UNL     1      -5.822 -15.855 -12.482  1.00  0.00     0.004 C 
ENDBRANCH  18  19
ENDBRANCH  17  18
ENDBRANCH  16  17
ENDBRANCH  15  16
ENDBRANCH  14  15
ENDBRANCH  13  14
ENDBRANCH   2  13
TORSDOF 15
ENDMDL
MODEL 4
REMARK VINA RESULT:    -5.135     11.340     13.044
REMARK INTER + INTRA:         -11.379
REMARK INTER:                  -9.166
REMARK INTRA:                  -2.213
REMARK UNBOUND:                -1.741
REMARK SMILES CCCCCCCCC=CCCCCCCCC(=O)[O-]
REMARK SMILES IDX 10 1 9 2 11 3 12 4 13 5 14 6 15 7 16 8 17 9 18 10 19 11
REMARK SMILES IDX 20 12 8 13 7 14 6 15 5 16 4 17 3 18 2 19 1 20
REMARK H PARENT
REMARK Flexibility Score: inf
ROOT
ATOM      1  C   UNL     1      -0.605 -10.984 -17.754  1.00  0.00    -0.031 C 
ATOM      2  C   UNL     1      -0.572 -10.627 -19.051  1.00  0.00    -0.031 C 
ENDROOT
BRANCH   1   3
ATOM      3  C   UNL     1       0.276 -10.397 -16.681  1.00  0.00     0.027 C 
BRANCH   3   4
ATOM      4  C   UNL     1       1.307 -11.429 -16.201  1.00  0.00     0.004 C 
BRANCH   4   5
ATOM      5  C   UNL     1       2.590 -11.419 -17.045  1.00  0.00     0.000 C 
BRANCH   5   6
ATOM      6  C   UNL     1       2.745 -12.683 -17.902  1.00  0.00     0.000 C 
BRANCH   6   7
ATOM      7  C   UNL     1       3.992 -13.476 -17.492  1.00  0.00     0.000 C 
BRANCH   7   8
ATOM      8  C   UNL     1       3.608 -14.747 -16.721  1.00  0.00     0.006 C 
BRANCH   8   9
ATOM      9  C   UNL     1       2.152 -15.162 -16.973  1.00  0.00     0.053 C 
BRANCH   9  10
ATOM     10  C   UNL     1       2.062 -16.503 -17.635  1.00  0.00     0.041 C 
ATOM     11  O   UNL     1       1.684 -17.509 -16.979  1.00  0.00    -0.550 OA
ATOM     12  O   UNL     1       2.426 -16.646 -18.967  1.00  0.00    -0.550 OA
ENDBRANCH   9  10
ENDBRANCH   8   9
ENDBRANCH   7   8
ENDBRANCH   6   7
ENDBRANCH   5   6
ENDBRANCH   4   5
ENDBRANCH   3   4
ENDBRANCH   1   3
BRANCH   2  13
ATOM     13  C   UNL     1       0.418  -9.656 -19.647  1.00  0.00     0.027 C 
BRANCH  13  14
ATOM     14  C   UNL     1      -0.233  -8.302 -19.970  1.00  0.00     0.004 C 
BRANCH  14  15
ATOM     15  C   UNL     1      -1.757  -8.420 -20.146  1.00  0.00     0.000 C 
BRANCH  15  16
ATOM     16  C   UNL     1      -2.519  -7.251 -19.502  1.00  0.00     0.000 C 
BRANCH  16  17
ATOM     17  C   UNL     1      -3.487  -7.712 -18.401  1.00  0.00    -0.000 C 
BRANCH  17  18
ATOM     18  C   UNL     1      -2.717  -8.162 -17.150  1.00  0.00    -0.000 C 
BRANCH  18  19
ATOM     19  C   UNL     1      -2.199  -6.979 -16.318  1.00  0.00    -0.003 C 
ATOM     20  C   UNL     1      -0.685  -6.801 -16.419  1.00  0.00     0.004 C 
ENDBRANCH  18  19
ENDBRANCH  17  18
ENDBRANCH  16  17
ENDBRANCH  15  16
ENDBRANCH  14  15
ENDBRANCH  13  14
ENDBRANCH   2  13
TORSDOF 15
ENDMDL
MODEL 5
REMARK VINA RESULT:    -5.101      1.955      2.600
REMARK INTER + INTRA:         -11.315
REMARK INTER:                  -9.202
REMARK INTRA:                  -2.113
REMARK UNBOUND:                -1.741
REMARK SMILES CCCCCCCCC=CCCCCCCCC(=O)[O-]
REMARK SMILES IDX 10 1 9 2 11 3 12 4 13 5 14 6 15 7 16 8 17 9 18 10 19 11
REMARK SMILES IDX 20 12 8 13 7 14 6 15 5 16 4 17 3 18 2 19 1 20
REMARK H PARENT
REMARK Flexibility Score: inf
ROOT
ATOM      1  C   UNL     1      -6.930 -19.631  -9.910  1.00  0.00    -0.031 C 
ATOM      2  C   UNL     1      -7.617 -19.116  -8.873  1.00  0.00    -0.031 C 
ENDROOT
BRANCH   1   3
ATOM      3  C   UNL     1      -5.511 -19.266 -10.264  1.00  0.00     0.027 C 
BRANCH   3   4
ATOM      4  C   UNL     1      -4.644 -20.527 -10.397  1.00  0.00     0.004 C 
BRANCH   4   5
ATOM      5  C   UNL     1      -5.386 -21.685 -11.083  1.00  0.00     0.000 C 
BRANCH   5   6
ATOM      6  C   UNL     1      -4.454 -22.569 -11.924  1.00  0.00     0.000 C 
BRANCH   6   7
ATOM      7  C   UNL     1      -4.128 -21.902 -13.266  1.00  0.00     0.000 C 
BRANCH   7   8
ATOM      8  C   UNL     1      -2.613 -21.708 -13.432  1.00  0.00     0.006 C 
BRANCH   8   9
ATOM      9  C   UNL     1      -2.175 -20.270 -13.124  1.00  0.00     0.053 C 
BRANCH   9  10
ATOM     10  C   UNL     1      -2.917 -19.271 -13.959  1.00  0.00     0.041 C 
ATOM     11  O   UNL     1      -2.856 -19.327 -15.215  1.00  0.00    -0.550 OA
ATOM     12  O   UNL     1      -3.648 -18.261 -13.348  1.00  0.00    -0.550 OA
ENDBRANCH   9  10
ENDBRANCH   8   9
ENDBRANCH   7   8
ENDBRANCH   6   7
ENDBRANCH   5   6
ENDBRANCH   4   5
ENDBRANCH   3   4
ENDBRANCH   1   3
BRANCH   2  13
ATOM     13  C   UNL     1      -7.105 -18.024  -7.964  1.00  0.00     0.027 C 
BRANCH  13  14
ATOM     14  C   UNL     1      -8.235 -17.098  -7.490  1.00  0.00     0.004 C 
BRANCH  14  15
ATOM     15  C   UNL     1      -8.988 -16.454  -8.668  1.00  0.00     0.000 C 
BRANCH  15  16
ATOM     16  C   UNL     1      -8.754 -14.939  -8.763  1.00  0.00     0.000 C 
BRANCH  16  17
ATOM     17  C   UNL     1      -8.141 -14.518 -10.108  1.00  0.00    -0.000 C 
BRANCH  17  18
ATOM     18  C   UNL     1      -6.719 -15.078 -10.261  1.00  0.00    -0.000 C 
BRANCH  18  19
ATOM     19  C   UNL     1      -6.572 -15.991 -11.487  1.00  0.00    -0.003 C 
ATOM     20  C   UNL     1      -7.895 -16.222 -12.217  1.00  0.00     0.004 C 
ENDBRANCH  18  19
ENDBRANCH  17  18
ENDBRANCH  16  17
ENDBRANCH  15  16
ENDBRANCH  14  15
ENDBRANCH  13  14
ENDBRANCH   2  13
TORSDOF 15
ENDMDL
MODEL 6
REMARK VINA RESULT:    -5.096     12.496     14.497
REMARK INTER + INTRA:         -11.306
REMARK INTER:                  -9.009
REMARK INTRA:                  -2.298
REMARK UNBOUND:                -1.741
REMARK SMILES CCCCCCCCC=CCCCCCCCC(=O)[O-]
REMARK SMILES IDX 10 1 9 2 11 3 12 4 13 5 14 6 15 7 16 8 17 9 18 10 19 11
REMARK SMILES IDX 20 12 8 13 7 14 6 15 5 16 4 17 3 18 2 19 1 20
REMARK H PARENT
REMARK Flexibility Score: inf
ROOT
ATOM      1  C   UNL     1       3.230 -11.963 -17.209  1.00  0.00    -0.031 C 
ATOM      2  C   UNL     1       3.675 -13.175 -17.587  1.00  0.00    -0.031 C 
ENDROOT
BRANCH   1   3
ATOM      3  C   UNL     1       2.566 -11.667 -15.888  1.00  0.00     0.027 C 
BRANCH   3   4
ATOM      4  C   UNL     1       1.040 -11.613 -16.049  1.00  0.00     0.004 C 
BRANCH   4   5
ATOM      5  C   UNL     1       0.606 -10.873 -17.324  1.00  0.00     0.000 C 
BRANCH   5   6
ATOM      6  C   UNL     1      -0.452  -9.795 -17.051  1.00  0.00     0.000 C 
BRANCH   6   7
ATOM      7  C   UNL     1      -1.673  -9.981 -17.961  1.00  0.00     0.000 C 
BRANCH   7   8
ATOM      8  C   UNL     1      -2.739  -8.912 -17.677  1.00  0.00     0.006 C 
BRANCH   8   9
ATOM      9  C   UNL     1      -2.121  -7.542 -17.367  1.00  0.00     0.053 C 
BRANCH   9  10
ATOM     10  C   UNL     1      -1.870  -6.750 -18.614  1.00  0.00     0.041 C 
ATOM     11  O   UNL     1      -2.719  -6.747 -19.544  1.00  0.00    -0.550 OA
ATOM     12  O   UNL     1      -0.685  -6.042 -18.760  1.00  0.00    -0.550 OA
ENDBRANCH   9  10
ENDBRANCH   8   9
ENDBRANCH   7   8
ENDBRANCH   6   7
ENDBRANCH   5   6
ENDBRANCH   4   5
ENDBRANCH   3   4
ENDBRANCH   1   3
BRANCH   2  13
ATOM     13  C   UNL     1       3.491 -14.443 -16.789  1.00  0.00     0.027 C 
BRANCH  13  14
ATOM     14  C   UNL     1       2.361 -15.317 -17.353  1.00  0.00     0.004 C 
BRANCH  14  15
ATOM     15  C   UNL     1       2.575 -15.650 -18.840  1.00  0.00     0.000 C 
BRANCH  15  16
ATOM     16  C   UNL     1       1.305 -15.451 -19.680  1.00  0.00     0.000 C 
BRANCH  16  17
ATOM     17  C   UNL     1       0.303 -14.491 -19.020  1.00  0.00    -0.000 C 
BRANCH  17  18
ATOM     18  C   UNL     1      -0.036 -13.324 -19.959  1.00  0.00    -0.000 C 
BRANCH  18  19
ATOM     19  C   UNL     1       1.130 -12.956 -20.889  1.00  0.00    -0.003 C 
ATOM     20  C   UNL     1       1.658 -11.542 -20.647  1.00  0.00     0.004 C 
ENDBRANCH  18  19
ENDBRANCH  17  18
ENDBRANCH  16  17
ENDBRANCH  15  16
ENDBRANCH  14  15
ENDBRANCH  13  14
ENDBRANCH   2  13
TORSDOF 15
ENDMDL
MODEL 7
REMARK VINA RESULT:    -5.034     12.622     13.984
REMARK INTER + INTRA:         -11.190
REMARK INTER:                  -8.489
REMARK INTRA:                  -2.701
REMARK UNBOUND:                -1.741
REMARK SMILES CCCCCCCCC=CCCCCCCCC(=O)[O-]
REMARK SMILES IDX 10 1 9 2 11 3 12 4 13 5 14 6 15 7 16 8 17 9 18 10 19 11
REMARK SMILES IDX 20 12 8 13 7 14 6 15 5 16 4 17 3 18 2 19 1 20
REMARK H PARENT
REMARK Flexibility Score: inf
ROOT
ATOM      1  C   UNL     1       0.259 -10.280 -16.752  1.00  0.00    -0.031 C 
ATOM      2  C   UNL     1      -0.676 -10.176 -17.715  1.00  0.00    -0.031 C 
ENDROOT
BRANCH   1   3
ATOM      3  C   UNL     1       0.819 -11.581 -16.238  1.00  0.00     0.027 C 
BRANCH   3   4
ATOM      4  C   UNL     1       2.354 -11.553 -16.248  1.00  0.00     0.004 C 
BRANCH   4   5
ATOM      5  C   UNL     1       2.938 -11.737 -17.658  1.00  0.00     0.000 C 
BRANCH   5   6
ATOM      6  C   UNL     1       2.551 -13.083 -18.287  1.00  0.00     0.000 C 
BRANCH   6   7
ATOM      7  C   UNL     1       1.771 -12.875 -19.591  1.00  0.00     0.000 C 
BRANCH   7   8
ATOM      8  C   UNL     1       1.867 -11.416 -20.064  1.00  0.00     0.006 C 
BRANCH   8   9
ATOM      9  C   UNL     1       1.335 -11.232 -21.491  1.00  0.00     0.053 C 
BRANCH   9  10
ATOM     10  C   UNL     1       0.215 -10.237 -21.544  1.00  0.00     0.041 C 
ATOM     11  O   UNL     1       0.332  -9.122 -20.972  1.00  0.00    -0.550 OA
ATOM     12  O   UNL     1      -0.968 -10.557 -22.197  1.00  0.00    -0.550 OA
ENDBRANCH   9  10
ENDBRANCH   8   9
ENDBRANCH   7   8
ENDBRANCH   6   7
ENDBRANCH   5   6
ENDBRANCH   4   5
ENDBRANCH   3   4
ENDBRANCH   1   3
BRANCH   2  13
ATOM     13  C   UNL     1      -1.375 -11.348 -18.360  1.00  0.00     0.027 C 
BRANCH  13  14
ATOM     14  C   UNL     1      -2.845 -11.034 -18.678  1.00  0.00     0.004 C 
BRANCH  14  15
ATOM     15  C   UNL     1      -3.008  -9.666 -19.366  1.00  0.00     0.000 C 
BRANCH  15  16
ATOM     16  C   UNL     1      -3.894  -8.702 -18.562  1.00  0.00     0.000 C 
BRANCH  16  17
ATOM     17  C   UNL     1      -3.451  -7.237 -18.701  1.00  0.00    -0.000 C 
BRANCH  17  18
ATOM     18  C   UNL     1      -2.086  -7.142 -19.399  1.00  0.00    -0.000 C 
BRANCH  18  19
ATOM     19  C   UNL     1      -1.029  -6.437 -18.536  1.00  0.00    -0.003 C 
ATOM     20  C   UNL     1      -1.290  -6.590 -17.037  1.00  0.00     0.004 C 
ENDBRANCH  18  19
ENDBRANCH  17  18
ENDBRANCH  16  17
ENDBRANCH  15  16
ENDBRANCH  14  15
ENDBRANCH  13  14
ENDBRANCH   2  13
TORSDOF 15
ENDMDL
MODEL 8
REMARK VINA RESULT:    -5.029     11.619     14.317
REMARK INTER + INTRA:         -11.180
REMARK INTER:                  -8.786
REMARK INTRA:                  -2.394
REMARK UNBOUND:                -1.741
REMARK SMILES CCCCCCCCC=CCCCCCCCC(=O)[O-]
REMARK SMILES IDX 10 1 9 2 11 3 12 4 13 5 14 6 15 7 16 8 17 9 18 10 19 11
REMARK SMILES IDX 20 12 8 13 7 14 6 15 5 16 4 17 3 18 2 19 1 20
REMARK H PARENT
REMARK Flexibility Score: inf
ROOT
ATOM      1  C   UNL     1       1.138 -11.921 -15.765  1.00  0.00    -0.031 C 
ATOM      2  C   UNL     1       2.481 -11.993 -15.822  1.00  0.00    -0.031 C 
ENDROOT
BRANCH   1   3
ATOM      3  C   UNL     1       0.236 -11.792 -16.966  1.00  0.00     0.027 C 
BRANCH   3   4
ATOM      4  C   UNL     1      -0.183 -10.329 -17.174  1.00  0.00     0.004 C 
BRANCH   4   5
ATOM      5  C   UNL     1       0.107  -9.828 -18.598  1.00  0.00     0.000 C 
BRANCH   5   6
ATOM      6  C   UNL     1      -0.773 -10.509 -19.656  1.00  0.00     0.000 C 
BRANCH   6   7
ATOM      7  C   UNL     1      -1.670  -9.486 -20.364  1.00  0.00     0.000 C 
BRANCH   7   8
ATOM      8  C   UNL     1      -1.264  -8.051 -19.998  1.00  0.00     0.006 C 
BRANCH   8   9
ATOM      9  C   UNL     1      -2.471  -7.187 -19.610  1.00  0.00     0.053 C 
BRANCH   9  10
ATOM     10  C   UNL     1      -3.157  -7.708 -18.383  1.00  0.00     0.041 C 
ATOM     11  O   UNL     1      -4.317  -8.188 -18.463  1.00  0.00    -0.550 OA
ATOM     12  O   UNL     1      -2.525  -7.632 -17.149  1.00  0.00    -0.550 OA
ENDBRANCH   9  10
ENDBRANCH   8   9
ENDBRANCH   7   8
ENDBRANCH   6   7
ENDBRANCH   5   6
ENDBRANCH   4   5
ENDBRANCH   3   4
ENDBRANCH   1   3
BRANCH   2  13
ATOM     13  C   UNL     1       3.294 -11.859 -17.087  1.00  0.00     0.027 C 
BRANCH  13  14
ATOM     14  C   UNL     1       3.485 -13.211 -17.790  1.00  0.00     0.004 C 
BRANCH  14  15
ATOM     15  C   UNL     1       3.520 -14.382 -16.793  1.00  0.00     0.000 C 
BRANCH  15  16
ATOM     16  C   UNL     1       2.641 -15.562 -17.234  1.00  0.00     0.000 C 
BRANCH  16  17
ATOM     17  C   UNL     1       1.188 -15.431 -16.750  1.00  0.00    -0.000 C 
BRANCH  17  18
ATOM     18  C   UNL     1       0.212 -15.457 -17.936  1.00  0.00    -0.000 C 
BRANCH  18  19
ATOM     19  C   UNL     1       0.923 -15.308 -19.289  1.00  0.00    -0.003 C 
ATOM     20  C   UNL     1       0.560 -14.010 -20.010  1.00  0.00     0.004 C 
ENDBRANCH  18  19
ENDBRANCH  17  18
ENDBRANCH  16  17
ENDBRANCH  15  16
ENDBRANCH  14  15
ENDBRANCH  13  14
ENDBRANCH   2  13
TORSDOF 15
ENDMDL
MODEL 9
REMARK VINA RESULT:    -5.022     11.536     12.830
REMARK INTER + INTRA:         -11.168
REMARK INTER:                  -8.907
REMARK INTRA:                  -2.261
REMARK UNBOUND:                -1.741
REMARK SMILES CCCCCCCCC=CCCCCCCCC(=O)[O-]
REMARK SMILES IDX 10 1 9 2 11 3 12 4 13 5 14 6 15 7 16 8 17 9 18 10 19 11
REMARK SMILES IDX 20 12 8 13 7 14 6 15 5 16 4 17 3 18 2 19 1 20
REMARK H PARENT
REMARK Flexibility Score: inf
ROOT
ATOM      1  C   UNL     1       0.454 -11.909 -16.559  1.00  0.00    -0.031 C 
ATOM      2  C   UNL     1      -0.137 -12.054 -17.760  1.00  0.00    -0.031 C 
ENDROOT
BRANCH   1   3
ATOM      3  C   UNL     1       1.620 -10.994 -16.282  1.00  0.00     0.027 C 
BRANCH   3   4
ATOM      4  C   UNL     1       2.911 -11.804 -16.090  1.00  0.00     0.004 C 
BRANCH   4   5
ATOM      5  C   UNL     1       3.643 -12.072 -17.414  1.00  0.00     0.000 C 
BRANCH   5   6
ATOM      6  C   UNL     1       3.814 -13.570 -17.703  1.00  0.00     0.000 C 
BRANCH   6   7
ATOM      7  C   UNL     1       3.222 -14.419 -16.570  1.00  0.00     0.000 C 
BRANCH   7   8
ATOM      8  C   UNL     1       2.364 -15.563 -17.130  1.00  0.00     0.006 C 
BRANCH   8   9
ATOM      9  C   UNL     1       1.627 -15.162 -18.415  1.00  0.00     0.053 C 
BRANCH   9  10
ATOM     10  C   UNL     1       1.680 -16.246 -19.448  1.00  0.00     0.041 C 
ATOM     11  O   UNL     1       0.623 -16.827 -19.810  1.00  0.00    -0.550 OA
ATOM     12  O   UNL     1       2.900 -16.636 -19.985  1.00  0.00    -0.550 OA
ENDBRANCH   9  10
ENDBRANCH   8   9
ENDBRANCH   7   8
ENDBRANCH   6   7
ENDBRANCH   5   6
ENDBRANCH   4   5
ENDBRANCH   3   4
ENDBRANCH   1   3
BRANCH   2  13
ATOM     13  C   UNL     1       0.338 -11.396 -19.033  1.00  0.00     0.027 C 
BRANCH  13  14
ATOM     14  C   UNL     1      -0.569 -10.227 -19.446  1.00  0.00     0.004 C 
BRANCH  14  15
ATOM     15  C   UNL     1      -1.953 -10.707 -19.918  1.00  0.00     0.000 C 
BRANCH  15  16
ATOM     16  C   UNL     1      -3.081 -10.298 -18.959  1.00  0.00     0.000 C 
BRANCH  16  17
ATOM     17  C   UNL     1      -2.716  -9.072 -18.106  1.00  0.00    -0.000 C 
BRANCH  17  18
ATOM     18  C   UNL     1      -3.419  -7.811 -18.633  1.00  0.00    -0.000 C 
BRANCH  18  19
ATOM     19  C   UNL     1      -2.452  -6.846 -19.336  1.00  0.00    -0.003 C 
ATOM     20  C   UNL     1      -1.173  -6.602 -18.536  1.00  0.00     0.004 C 
ENDBRANCH  18  19
ENDBRANCH  17  18
ENDBRANCH  16  17
ENDBRANCH  15  16
ENDBRANCH  14  15
ENDBRANCH  13  14
ENDBRANCH   2  13
TORSDOF 15
ENDMDL
