MODEL 1
REMARK VINA RESULT:    -3.943      0.000      0.000
REMARK INTER + INTRA:          -4.058
REMARK INTER:                  -4.058
REMARK INTRA:                   0.000
REMARK UNBOUND:                 0.000
REMARK SMILES CC1(C)[C@H]2CC[C@](C)(C2)[C@@H]1O
REMARK SMILES IDX 1 1 2 2 4 3 5 4 6 5 7 6 9 7 10 8 8 9 3 10 11 11
REMARK H PARENT 11 12
REMARK Flexibility Score: inf
ROOT
ATOM      1  C   UNL     1     138.144 136.390 129.442  1.00  0.00     0.014 C 
ATOM      2  C   UNL     1     138.830 137.690 129.940  1.00  0.00    -0.006 C 
ATOM      3  C   UNL     1     138.311 138.911 129.106  1.00  0.00    -0.002 C 
ATOM      4  C   UNL     1     138.737 140.250 129.746  1.00  0.00     0.005 C 
ATOM      5  C   UNL     1     140.259 140.256 129.543  1.00  0.00     0.010 C 
ATOM      6  C   UNL     1     140.498 138.971 128.715  1.00  0.00    -0.006 C 
ATOM      7  C   UNL     1     139.228 138.893 127.896  1.00  0.00     0.013 C 
ATOM      8  C   UNL     1     140.370 137.738 129.650  1.00  0.00     0.126 C 
ATOM      9  C   UNL     1     141.784 139.019 127.880  1.00  0.00     0.014 C 
ATOM     10  C   UNL     1     138.544 137.810 131.456  1.00  0.00     0.014 C 
ENDROOT
BRANCH   8  11
ATOM     11  O   UNL     1     140.825 136.576 128.999  1.00  0.00    -0.392 OA
ATOM     12  H   UNL     1     141.778 136.733 128.773  1.00  0.00     0.211 HD
ENDBRANCH   8  11
TORSDOF 1
ENDMDL
MODEL 2
REMARK VINA RESULT:    -3.888      1.710      2.704
REMARK INTER + INTRA:          -4.002
REMARK INTER:                  -4.002
REMARK INTRA:                   0.000
REMARK UNBOUND:                 0.000
REMARK SMILES CC1(C)[C@H]2CC[C@](C)(C2)[C@@H]1O
REMARK SMILES IDX 1 1 2 2 4 3 5 4 6 5 7 6 9 7 10 8 8 9 3 10 11 11
REMARK H PARENT 11 12
REMARK Flexibility Score: inf
ROOT
ATOM      1  C   UNL     1     139.255 139.626 132.129  1.00  0.00     0.014 C 
ATOM      2  C   UNL     1     138.747 139.413 130.678  1.00  0.00    -0.006 C 
ATOM      3  C   UNL     1     138.982 137.923 130.252  1.00  0.00    -0.002 C 
ATOM      4  C   UNL     1     138.238 137.590 128.942  1.00  0.00     0.005 C 
ATOM      5  C   UNL     1     138.999 138.420 127.897  1.00  0.00     0.010 C 
ATOM      6  C   UNL     1     140.151 139.037 128.726  1.00  0.00    -0.006 C 
ATOM      7  C   UNL     1     140.413 137.951 129.745  1.00  0.00     0.013 C 
ATOM      8  C   UNL     1     139.581 140.187 129.600  1.00  0.00     0.126 C 
ATOM      9  C   UNL     1     141.373 139.414 127.878  1.00  0.00     0.014 C 
ATOM     10  C   UNL     1     137.260 139.839 130.644  1.00  0.00     0.014 C 
ENDROOT
BRANCH   8  11
ATOM     11  O   UNL     1     140.627 140.935 130.173  1.00  0.00    -0.392 OA
ATOM     12  H   UNL     1     140.487 141.877 129.895  1.00  0.00     0.211 HD
ENDBRANCH   8  11
TORSDOF 1
ENDMDL
MODEL 3
REMARK VINA RESULT:    -3.876      2.229      3.558
REMARK INTER + INTRA:          -3.990
REMARK INTER:                  -3.990
REMARK INTRA:                   0.000
REMARK UNBOUND:                 0.000
REMARK SMILES CC1(C)[C@H]2CC[C@](C)(C2)[C@@H]1O
REMARK SMILES IDX 1 1 2 2 4 3 5 4 6 5 7 6 9 7 10 8 8 9 3 10 11 11
REMARK H PARENT 11 12
REMARK Flexibility Score: inf
ROOT
ATOM      1  C   UNL     1     139.657 135.963 132.127  1.00  0.00     0.014 C 
ATOM      2  C   UNL     1     139.430 136.472 130.679  1.00  0.00    -0.006 C 
ATOM      3  C   UNL     1     137.939 136.229 130.264  1.00  0.00    -0.002 C 
ATOM      4  C   UNL     1     137.591 136.974 128.957  1.00  0.00     0.005 C 
ATOM      5  C   UNL     1     138.418 136.218 127.905  1.00  0.00     0.010 C 
ATOM      6  C   UNL     1     139.048 135.069 128.728  1.00  0.00    -0.006 C 
ATOM      7  C   UNL     1     137.971 134.799 129.755  1.00  0.00     0.013 C 
ATOM      8  C   UNL     1     140.201 135.644 129.595  1.00  0.00     0.126 C 
ATOM      9  C   UNL     1     139.426 133.851 127.875  1.00  0.00     0.014 C 
ATOM     10  C   UNL     1     139.847 137.962 130.644  1.00  0.00     0.014 C 
ENDROOT
BRANCH   8  11
ATOM     11  O   UNL     1     140.959 134.602 130.161  1.00  0.00    -0.392 OA
ATOM     12  H   UNL     1     141.285 134.933 131.038  1.00  0.00     0.211 HD
ENDBRANCH   8  11
TORSDOF 1
ENDMDL
MODEL 4
REMARK VINA RESULT:    -3.871      2.703      3.824
REMARK INTER + INTRA:          -3.984
REMARK INTER:                  -3.984
REMARK INTRA:                   0.000
REMARK UNBOUND:                 0.000
REMARK SMILES CC1(C)[C@H]2CC[C@](C)(C2)[C@@H]1O
REMARK SMILES IDX 1 1 2 2 4 3 5 4 6 5 7 6 9 7 10 8 8 9 3 10 11 11
REMARK H PARENT 11 12
REMARK Flexibility Score: inf
ROOT
ATOM      1  C   UNL     1     136.358 137.012 129.532  1.00  0.00     0.014 C 
ATOM      2  C   UNL     1     137.703 136.376 129.972  1.00  0.00    -0.006 C 
ATOM      3  C   UNL     1     138.863 136.929 129.075  1.00  0.00    -0.002 C 
ATOM      4  C   UNL     1     140.246 136.557 129.653  1.00  0.00     0.005 C 
ATOM      5  C   UNL     1     140.295 135.033 129.462  1.00  0.00     0.010 C 
ATOM      6  C   UNL     1     138.981 134.742 128.700  1.00  0.00    -0.006 C 
ATOM      7  C   UNL     1     138.819 135.999 127.875  1.00  0.00     0.013 C 
ATOM      8  C   UNL     1     137.791 134.837 129.694  1.00  0.00     0.126 C 
ATOM      9  C   UNL     1     139.033 133.449 127.875  1.00  0.00     0.014 C 
ATOM     10  C   UNL     1     137.887 136.682 131.478  1.00  0.00     0.014 C 
ENDROOT
BRANCH   8  11
ATOM     11  O   UNL     1     136.615 134.334 129.105  1.00  0.00    -0.392 OA
ATOM     12  H   UNL     1     135.868 134.585 129.707  1.00  0.00     0.211 HD
ENDBRANCH   8  11
TORSDOF 1
ENDMDL
MODEL 5
REMARK VINA RESULT:    -3.856      2.758      3.891
REMARK INTER + INTRA:          -3.969
REMARK INTER:                  -3.969
REMARK INTRA:                   0.000
REMARK UNBOUND:                 0.000
REMARK SMILES CC1(C)[C@H]2CC[C@](C)(C2)[C@@H]1O
REMARK SMILES IDX 1 1 2 2 4 3 5 4 6 5 7 6 9 7 10 8 8 9 3 10 11 11
REMARK H PARENT 11 12
REMARK Flexibility Score: inf
ROOT
ATOM      1  C   UNL     1     138.865 138.265 129.519  1.00  0.00     0.014 C 
ATOM      2  C   UNL     1     137.529 138.906 129.978  1.00  0.00    -0.006 C 
ATOM      3  C   UNL     1     136.352 138.345 129.109  1.00  0.00    -0.002 C 
ATOM      4  C   UNL     1     134.981 138.724 129.709  1.00  0.00     0.005 C 
ATOM      5  C   UNL     1     134.928 140.246 129.504  1.00  0.00     0.010 C 
ATOM      6  C   UNL     1     136.228 140.528 128.714  1.00  0.00    -0.006 C 
ATOM      7  C   UNL     1     136.374 139.262 127.899  1.00  0.00     0.013 C 
ATOM      8  C   UNL     1     137.436 140.443 129.685  1.00  0.00     0.126 C 
ATOM      9  C   UNL     1     136.161 141.812 127.876  1.00  0.00     0.014 C 
ATOM     10  C   UNL     1     137.374 138.616 131.490  1.00  0.00     0.014 C 
ENDROOT
BRANCH   8  11
ATOM     11  O   UNL     1     138.601 140.938 129.068  1.00  0.00    -0.392 OA
ATOM     12  H   UNL     1     139.221 140.169 128.976  1.00  0.00     0.211 HD
ENDBRANCH   8  11
TORSDOF 1
ENDMDL
MODEL 6
REMARK VINA RESULT:    -3.846      3.418      4.561
REMARK INTER + INTRA:          -3.959
REMARK INTER:                  -3.959
REMARK INTRA:                   0.000
REMARK UNBOUND:                 0.000
REMARK SMILES CC1(C)[C@H]2CC[C@](C)(C2)[C@@H]1O
REMARK SMILES IDX 1 1 2 2 4 3 5 4 6 5 7 6 9 7 10 8 8 9 3 10 11 11
REMARK H PARENT 11 12
REMARK Flexibility Score: inf
ROOT
ATOM      1  C   UNL     1     135.670 139.315 132.107  1.00  0.00     0.014 C 
ATOM      2  C   UNL     1     135.915 138.835 130.652  1.00  0.00    -0.006 C 
ATOM      3  C   UNL     1     137.388 139.166 130.231  1.00  0.00    -0.002 C 
ATOM      4  C   UNL     1     137.767 138.456 128.913  1.00  0.00     0.005 C 
ATOM      5  C   UNL     1     136.893 139.176 127.875  1.00  0.00     0.010 C 
ATOM      6  C   UNL     1     136.206 140.279 128.714  1.00  0.00    -0.006 C 
ATOM      7  C   UNL     1     137.273 140.597 129.737  1.00  0.00     0.013 C 
ATOM      8  C   UNL     1     135.092 139.631 129.581  1.00  0.00     0.126 C 
ATOM      9  C   UNL     1     135.755 141.484 127.878  1.00  0.00     0.014 C 
ATOM     10  C   UNL     1     135.581 137.325 130.603  1.00  0.00     0.014 C 
ENDROOT
BRANCH   8  11
ATOM     11  O   UNL     1     134.281 140.623 130.164  1.00  0.00    -0.392 OA
ATOM     12  H   UNL     1     134.769 141.482 130.066  1.00  0.00     0.211 HD
ENDBRANCH   8  11
TORSDOF 1
ENDMDL
MODEL 7
REMARK VINA RESULT:    -3.839      3.554      5.451
REMARK INTER + INTRA:          -3.951
REMARK INTER:                  -3.951
REMARK INTRA:                   0.000
REMARK UNBOUND:                 0.000
REMARK SMILES CC1(C)[C@H]2CC[C@](C)(C2)[C@@H]1O
REMARK SMILES IDX 1 1 2 2 4 3 5 4 6 5 7 6 9 7 10 8 8 9 3 10 11 11
REMARK H PARENT 11 12
REMARK Flexibility Score: inf
ROOT
ATOM      1  C   UNL     1     136.932 138.924 129.558  1.00  0.00     0.014 C 
ATOM      2  C   UNL     1     136.313 137.576 130.014  1.00  0.00    -0.006 C 
ATOM      3  C   UNL     1     136.913 136.407 129.158  1.00  0.00    -0.002 C 
ATOM      4  C   UNL     1     136.555 135.031 129.759  1.00  0.00     0.005 C 
ATOM      5  C   UNL     1     135.038 134.944 129.531  1.00  0.00     0.010 C 
ATOM      6  C   UNL     1     134.739 136.234 128.731  1.00  0.00    -0.006 C 
ATOM      7  C   UNL     1     136.014 136.404 127.934  1.00  0.00     0.013 C 
ATOM      8  C   UNL     1     134.784 137.448 129.698  1.00  0.00     0.126 C 
ATOM      9  C   UNL     1     133.470 136.135 127.875  1.00  0.00     0.014 C 
ATOM     10  C   UNL     1     136.584 137.433 131.531  1.00  0.00     0.014 C 
ENDROOT
BRANCH   8  11
ATOM     11  O   UNL     1     134.272 138.599 129.069  1.00  0.00    -0.392 OA
ATOM     12  H   UNL     1     134.484 139.365 129.664  1.00  0.00     0.211 HD
ENDBRANCH   8  11
TORSDOF 1
ENDMDL
MODEL 8
REMARK VINA RESULT:    -3.796      1.856      2.779
REMARK INTER + INTRA:          -3.907
REMARK INTER:                  -3.907
REMARK INTRA:                   0.000
REMARK UNBOUND:                 0.000
REMARK SMILES CC1(C)[C@H]2CC[C@](C)(C2)[C@@H]1O
REMARK SMILES IDX 1 1 2 2 4 3 5 4 6 5 7 6 9 7 10 8 8 9 3 10 11 11
REMARK H PARENT 11 12
REMARK Flexibility Score: inf
ROOT
ATOM      1  C   UNL     1     136.800 140.618 130.136  1.00  0.00     0.014 C 
ATOM      2  C   UNL     1     137.683 139.342 130.109  1.00  0.00    -0.006 C 
ATOM      3  C   UNL     1     138.821 139.468 131.178  1.00  0.00    -0.002 C 
ATOM      4  C   UNL     1     139.542 138.120 131.393  1.00  0.00     0.005 C 
ATOM      5  C   UNL     1     140.278 137.911 130.061  1.00  0.00     0.010 C 
ATOM      6  C   UNL     1     139.973 139.220 129.294  1.00  0.00    -0.006 C 
ATOM      7  C   UNL     1     139.898 140.226 130.421  1.00  0.00     0.013 C 
ATOM      8  C   UNL     1     138.506 139.175 128.786  1.00  0.00     0.126 C 
ATOM      9  C   UNL     1     141.019 139.552 128.222  1.00  0.00     0.014 C 
ATOM     10  C   UNL     1     136.748 138.130 130.340  1.00  0.00     0.014 C 
ENDROOT
BRANCH   8  11
ATOM     11  O   UNL     1     138.268 140.222 127.876  1.00  0.00    -0.392 OA
ATOM     12  H   UNL     1     139.035 140.230 127.246  1.00  0.00     0.211 HD
ENDBRANCH   8  11
TORSDOF 1
ENDMDL
MODEL 9
REMARK VINA RESULT:    -1.866      3.757      5.184
REMARK INTER + INTRA:          -1.920
REMARK INTER:                  -1.920
REMARK INTRA:                   0.000
REMARK UNBOUND:                 0.000
REMARK SMILES CC1(C)[C@H]2CC[C@](C)(C2)[C@@H]1O
REMARK SMILES IDX 1 1 2 2 4 3 5 4 6 5 7 6 9 7 10 8 8 9 3 10 11 11
REMARK H PARENT 11 12
REMARK Flexibility Score: inf
ROOT
ATOM      1  C   UNL     1     135.992 135.485 132.046  1.00  0.00     0.014 C 
ATOM      2  C   UNL     1     136.443 135.794 130.594  1.00  0.00    -0.006 C 
ATOM      3  C   UNL     1     136.124 137.290 130.251  1.00  0.00    -0.002 C 
ATOM      4  C   UNL     1     136.810 137.723 128.938  1.00  0.00     0.005 C 
ATOM      5  C   UNL     1     136.056 136.909 127.876  1.00  0.00     0.010 C 
ATOM      6  C   UNL     1     134.963 136.196 128.705  1.00  0.00    -0.006 C 
ATOM      7  C   UNL     1     134.681 137.217 129.785  1.00  0.00     0.013 C 
ATOM      8  C   UNL     1     135.613 135.034 129.503  1.00  0.00     0.126 C 
ATOM      9  C   UNL     1     133.734 135.802 127.875  1.00  0.00     0.014 C 
ATOM     10  C   UNL     1     137.947 135.444 130.495  1.00  0.00     0.014 C 
ENDROOT
BRANCH   8  11
ATOM     11  O   UNL     1     134.623 134.208 130.068  1.00  0.00    -0.392 OA
ATOM     12  H   UNL     1     134.451 134.556 130.981  1.00  0.00     0.211 HD
ENDBRANCH   8  11
TORSDOF 1
ENDMDL
