MODEL 1
REMARK VINA RESULT:    34.641      0.000      0.000
REMARK INTER + INTRA:          37.961
REMARK INTER:                  37.679
REMARK INTRA:                   0.283
REMARK UNBOUND:                 0.283
REMARK SMILES C[C@@H]1[C@H](C)CC[C@@]2(C(=O)[O-])CC[C@@]3(C)C(=CC[C@@H]4[C@]5(C)CC[C@H](O)C(C)(C)[C@H]5CC[C@@]43C)[C@H]12
REMARK SMILES IDX 7 1 6 2 11 3 33 4 5 5 12 6 15 7 2 8 3 9 13 10 16 11 1 12
REMARK SMILES IDX 4 13 14 14 31 15 17 16 18 17 30 18 32 19 19 20 29 21 28 22
REMARK SMILES IDX 21 23 20 24 25 25 22 26 23 27 26 28 27 29 8 30 9 31 10 32
REMARK SMILES IDX 24 33
REMARK H PARENT 24 34
REMARK Flexibility Score: inf
ROOT
ATOM      1  C   UNL     1      74.299  39.423  19.962  1.00  0.00     0.017 C 
ATOM      2  C   UNL     1      74.656  39.734  18.463  1.00  0.00     0.014 C 
ATOM      3  C   UNL     1      75.513  38.719  20.684  1.00  0.00     0.014 C 
ATOM      4  C   UNL     1      74.007  40.785  20.669  1.00  0.00     0.030 C 
ATOM      5  C   UNL     1      73.992  41.013  17.875  1.00  0.00     0.004 C 
ATOM      6  C   UNL     1      76.512  39.691  21.368  1.00  0.00     0.013 C 
ATOM      7  C   UNL     1      74.364  40.710  22.164  1.00  0.00    -0.063 C 
ATOM      8  C   UNL     1      72.791  41.606  20.116  1.00  0.00    -0.003 C 
ATOM      9  C   UNL     1      72.667  41.465  18.550  1.00  0.00    -0.011 C 
ATOM     10  C   UNL     1      75.879  40.682  22.462  1.00  0.00    -0.006 C 
ATOM     11  C   UNL     1      73.481  40.148  22.999  1.00  0.00    -0.027 C 
ATOM     12  C   UNL     1      71.452  41.444  20.852  1.00  0.00     0.008 C 
ATOM     13  C   UNL     1      71.466  40.638  18.042  1.00  0.00     0.008 C 
ATOM     14  C   UNL     1      76.425  42.125  22.166  1.00  0.00     0.017 C 
ATOM     15  C   UNL     1      76.250  40.298  24.005  1.00  0.00    -0.020 C 
ATOM     16  C   UNL     1      73.807  39.510  24.300  1.00  0.00     0.032 C 
ATOM     17  C   UNL     1      75.302  39.153  24.555  1.00  0.00     0.006 C 
ATOM     18  C   UNL     1      76.080  41.522  24.974  1.00  0.00     0.008 C 
ATOM     19  C   UNL     1      77.766  39.889  24.040  1.00  0.00     0.012 C 
ATOM     20  C   UNL     1      75.529  38.764  26.103  1.00  0.00    -0.025 C 
ATOM     21  C   UNL     1      76.319  41.213  26.469  1.00  0.00     0.005 C 
ATOM     22  C   UNL     1      75.427  40.066  26.993  1.00  0.00     0.003 C 
ATOM     23  C   UNL     1      74.427  37.768  26.609  1.00  0.00     0.010 C 
ATOM     24  C   UNL     1      76.895  38.018  26.240  1.00  0.00     0.012 C 
ATOM     25  C   UNL     1      75.470  39.843  28.561  1.00  0.00    -0.006 C 
ATOM     26  C   UNL     1      74.471  37.495  28.128  1.00  0.00     0.033 C 
ATOM     27  C   UNL     1      74.381  38.790  28.955  1.00  0.00     0.120 C 
ATOM     28  C   UNL     1      76.857  39.397  29.099  1.00  0.00     0.014 C 
ATOM     29  C   UNL     1      75.132  41.170  29.296  1.00  0.00     0.014 C 
ENDROOT
BRANCH   1  30
ATOM     30  C   UNL     1      73.129  38.440  20.032  1.00  0.00     0.048 C 
ATOM     31  O   UNL     1      72.518  38.249  21.115  1.00  0.00    -0.550 OA
ATOM     32  O   UNL     1      72.808  37.624  18.951  1.00  0.00    -0.550 OA
ENDBRANCH   1  30
BRANCH  27  33
ATOM     33  O   UNL     1      73.094  39.341  28.799  1.00  0.00    -0.393 OA
ATOM     34  H   UNL     1      72.796  39.133  27.876  1.00  0.00     0.210 HD
ENDBRANCH  27  33
TORSDOF 2
ENDMDL
