MODEL 1
REMARK VINA RESULT:    -4.670      0.000      0.000
REMARK INTER + INTRA:         -13.874
REMARK INTER:                 -10.130
REMARK INTRA:                  -3.744
REMARK UNBOUND:                -3.744
REMARK SMILES CCCCCCCCCCCCCCCCCCCCCC(=O)[O-]
REMARK SMILES IDX 12 1 11 2 10 3 9 4 8 5 7 6 6 7 5 8 4 9 3 10 2 11 1 12 13 13
REMARK SMILES IDX 14 14 15 15 16 16 17 17 18 18 19 19 20 20 21 21 22 22 23 23
REMARK SMILES IDX 24 24
REMARK H PARENT
REMARK Flexibility Score: inf
ROOT
ATOM      1  C   UNL     1      60.528  15.857  92.441  1.00  0.00     0.000 C 
ENDROOT
BRANCH   1   2
ATOM      2  C   UNL     1      60.198  14.757  93.464  1.00  0.00     0.000 C 
BRANCH   2   3
ATOM      3  C   UNL     1      59.754  13.444  92.798  1.00  0.00     0.000 C 
BRANCH   3   4
ATOM      4  C   UNL     1      58.327  13.031  93.203  1.00  0.00    -0.000 C 
BRANCH   4   5
ATOM      5  C   UNL     1      57.697  14.000  94.216  1.00  0.00    -0.000 C 
BRANCH   5   6
ATOM      6  C   UNL     1      56.646  14.924  93.580  1.00  0.00    -0.000 C 
BRANCH   6   7
ATOM      7  C   UNL     1      55.254  14.646  94.162  1.00  0.00    -0.000 C 
BRANCH   7   8
ATOM      8  C   UNL     1      54.656  13.358  93.584  1.00  0.00    -0.000 C 
BRANCH   8   9
ATOM      9  C   UNL     1      54.450  12.309  94.684  1.00  0.00    -0.000 C 
BRANCH   9  10
ATOM     10  C   UNL     1      55.390  11.109  94.489  1.00  0.00    -0.000 C 
BRANCH  10  11
ATOM     11  C   UNL     1      54.836  10.084  93.487  1.00  0.00    -0.003 C 
ATOM     12  C   UNL     1      55.560  10.123  92.142  1.00  0.00     0.004 C 
ENDBRANCH  10  11
ENDBRANCH   9  10
ENDBRANCH   8   9
ENDBRANCH   7   8
ENDBRANCH   6   7
ENDBRANCH   5   6
ENDBRANCH   4   5
ENDBRANCH   3   4
ENDBRANCH   2   3
ENDBRANCH   1   2
BRANCH   1  13
ATOM     13  C   UNL     1      59.411  16.909  92.313  1.00  0.00     0.000 C 
BRANCH  13  14
ATOM     14  C   UNL     1      58.564  16.812  91.029  1.00  0.00     0.000 C 
BRANCH  14  15
ATOM     15  C   UNL     1      58.919  15.635  90.102  1.00  0.00     0.000 C 
BRANCH  15  16
ATOM     16  C   UNL     1      57.722  15.163  89.257  1.00  0.00     0.000 C 
BRANCH  16  17
ATOM     17  C   UNL     1      56.545  14.693  90.128  1.00  0.00     0.000 C 
BRANCH  17  18
ATOM     18  C   UNL     1      56.392  13.155  90.173  1.00  0.00     0.000 C 
BRANCH  18  19
ATOM     19  C   UNL     1      56.424  12.489  88.784  1.00  0.00     0.000 C 
BRANCH  19  20
ATOM     20  C   UNL     1      57.391  11.298  88.666  1.00  0.00     0.006 C 
BRANCH  20  21
ATOM     21  C   UNL     1      58.790  11.611  89.218  1.00  0.00     0.053 C 
BRANCH  21  22
ATOM     22  C   UNL     1      59.311  10.464  90.026  1.00  0.00     0.041 C 
ATOM     23  O   UNL     1      60.478  10.501  90.499  1.00  0.00    -0.550 OA
ATOM     24  O   UNL     1      58.505   9.358  90.264  1.00  0.00    -0.550 OA
ENDBRANCH  21  22
ENDBRANCH  20  21
ENDBRANCH  19  20
ENDBRANCH  18  19
ENDBRANCH  17  18
ENDBRANCH  16  17
ENDBRANCH  15  16
ENDBRANCH  14  15
ENDBRANCH  13  14
ENDBRANCH   1  13
TORSDOF 20
ENDMDL
MODEL 2
REMARK VINA RESULT:    -4.654      2.012      3.903
REMARK INTER + INTRA:         -13.840
REMARK INTER:                 -10.623
REMARK INTRA:                  -3.216
REMARK UNBOUND:                -3.744
REMARK SMILES CCCCCCCCCCCCCCCCCCCCCC(=O)[O-]
REMARK SMILES IDX 12 1 11 2 10 3 9 4 8 5 7 6 6 7 5 8 4 9 3 10 2 11 1 12 13 13
REMARK SMILES IDX 14 14 15 15 16 16 17 17 18 18 19 19 20 20 21 21 22 22 23 23
REMARK SMILES IDX 24 24
REMARK H PARENT
REMARK Flexibility Score: inf
ROOT
ATOM      1  C   UNL     1      61.186  17.121  92.695  1.00  0.00     0.000 C 
ENDROOT
BRANCH   1   2
ATOM      2  C   UNL     1      60.496  16.197  93.715  1.00  0.00     0.000 C 
BRANCH   2   3
ATOM      3  C   UNL     1      60.457  14.731  93.252  1.00  0.00     0.000 C 
BRANCH   3   4
ATOM      4  C   UNL     1      59.118  14.045  93.579  1.00  0.00    -0.000 C 
BRANCH   4   5
ATOM      5  C   UNL     1      57.999  15.053  93.890  1.00  0.00    -0.000 C 
BRANCH   5   6
ATOM      6  C   UNL     1      57.280  14.752  95.215  1.00  0.00    -0.000 C 
BRANCH   6   7
ATOM      7  C   UNL     1      58.275  14.259  96.274  1.00  0.00    -0.000 C 
BRANCH   7   8
ATOM      8  C   UNL     1      58.719  15.402  97.195  1.00  0.00    -0.000 C 
BRANCH   8   9
ATOM      9  C   UNL     1      60.243  15.409  97.363  1.00  0.00    -0.000 C 
BRANCH   9  10
ATOM     10  C   UNL     1      60.865  14.106  96.840  1.00  0.00    -0.000 C 
BRANCH  10  11
ATOM     11  C   UNL     1      62.359  14.256  96.512  1.00  0.00    -0.003 C 
ATOM     12  C   UNL     1      62.804  15.717  96.440  1.00  0.00     0.004 C 
ENDBRANCH  10  11
ENDBRANCH   9  10
ENDBRANCH   8   9
ENDBRANCH   7   8
ENDBRANCH   6   7
ENDBRANCH   5   6
ENDBRANCH   4   5
ENDBRANCH   3   4
ENDBRANCH   2   3
ENDBRANCH   1   2
BRANCH   1  13
ATOM     13  C   UNL     1      60.226  18.155  92.080  1.00  0.00     0.000 C 
BRANCH  13  14
ATOM     14  C   UNL     1      59.185  17.580  91.098  1.00  0.00     0.000 C 
BRANCH  14  15
ATOM     15  C   UNL     1      59.743  16.572  90.077  1.00  0.00     0.000 C 
BRANCH  15  16
ATOM     16  C   UNL     1      58.641  15.722  89.419  1.00  0.00     0.000 C 
BRANCH  16  17
ATOM     17  C   UNL     1      58.566  14.306  90.012  1.00  0.00     0.000 C 
BRANCH  17  18
ATOM     18  C   UNL     1      57.119  13.790  90.189  1.00  0.00     0.000 C 
BRANCH  18  19
ATOM     19  C   UNL     1      57.003  12.253  90.167  1.00  0.00     0.000 C 
BRANCH  19  20
ATOM     20  C   UNL     1      57.432  11.597  88.843  1.00  0.00     0.006 C 
BRANCH  20  21
ATOM     21  C   UNL     1      58.867  11.051  88.887  1.00  0.00     0.053 C 
BRANCH  21  22
ATOM     22  C   UNL     1      59.073  10.199  90.099  1.00  0.00     0.041 C 
ATOM     23  O   UNL     1      58.251   9.286  90.380  1.00  0.00    -0.550 OA
ATOM     24  O   UNL     1      60.178  10.405  90.915  1.00  0.00    -0.550 OA
ENDBRANCH  21  22
ENDBRANCH  20  21
ENDBRANCH  19  20
ENDBRANCH  18  19
ENDBRANCH  17  18
ENDBRANCH  16  17
ENDBRANCH  15  16
ENDBRANCH  14  15
ENDBRANCH  13  14
ENDBRANCH   1  13
TORSDOF 20
ENDMDL
MODEL 3
REMARK VINA RESULT:    -4.642      2.456      5.228
REMARK INTER + INTRA:         -13.813
REMARK INTER:                 -10.219
REMARK INTRA:                  -3.594
REMARK UNBOUND:                -3.744
REMARK SMILES CCCCCCCCCCCCCCCCCCCCCC(=O)[O-]
REMARK SMILES IDX 12 1 11 2 10 3 9 4 8 5 7 6 6 7 5 8 4 9 3 10 2 11 1 12 13 13
REMARK SMILES IDX 14 14 15 15 16 16 17 17 18 18 19 19 20 20 21 21 22 22 23 23
REMARK SMILES IDX 24 24
REMARK H PARENT
REMARK Flexibility Score: inf
ROOT
ATOM      1  C   UNL     1      55.932  13.195  89.388  1.00  0.00     0.000 C 
ENDROOT
BRANCH   1   2
ATOM      2  C   UNL     1      56.358  12.095  88.400  1.00  0.00     0.000 C 
BRANCH   2   3
ATOM      3  C   UNL     1      57.235  11.016  89.059  1.00  0.00     0.000 C 
BRANCH   3   4
ATOM      4  C   UNL     1      58.735  11.228  88.787  1.00  0.00    -0.000 C 
BRANCH   4   5
ATOM      5  C   UNL     1      59.553  11.382  90.079  1.00  0.00    -0.000 C 
BRANCH   5   6
ATOM      6  C   UNL     1      58.670  11.498  91.332  1.00  0.00    -0.000 C 
BRANCH   6   7
ATOM      7  C   UNL     1      59.059  12.731  92.159  1.00  0.00    -0.000 C 
BRANCH   7   8
ATOM      8  C   UNL     1      57.932  13.136  93.118  1.00  0.00    -0.000 C 
BRANCH   8   9
ATOM      9  C   UNL     1      56.845  12.057  93.172  1.00  0.00    -0.000 C 
BRANCH   9  10
ATOM     10  C   UNL     1      55.450  12.661  92.948  1.00  0.00    -0.000 C 
BRANCH  10  11
ATOM     11  C   UNL     1      54.498  11.694  92.228  1.00  0.00    -0.003 C 
ATOM     12  C   UNL     1      54.879  10.228  92.431  1.00  0.00     0.004 C 
ENDBRANCH  10  11
ENDBRANCH   9  10
ENDBRANCH   8   9
ENDBRANCH   7   8
ENDBRANCH   6   7
ENDBRANCH   5   6
ENDBRANCH   4   5
ENDBRANCH   3   4
ENDBRANCH   2   3
ENDBRANCH   1   2
BRANCH   1  13
ATOM     13  C   UNL     1      56.485  14.582  89.013  1.00  0.00     0.000 C 
BRANCH  13  14
ATOM     14  C   UNL     1      57.567  15.133  89.963  1.00  0.00     0.000 C 
BRANCH  14  15
ATOM     15  C   UNL     1      58.980  15.224  89.357  1.00  0.00     0.000 C 
BRANCH  15  16
ATOM     16  C   UNL     1      59.740  16.483  89.809  1.00  0.00     0.000 C 
BRANCH  16  17
ATOM     17  C   UNL     1      58.944  17.305  90.836  1.00  0.00     0.000 C 
BRANCH  17  18
ATOM     18  C   UNL     1      59.729  17.585  92.139  1.00  0.00     0.000 C 
BRANCH  18  19
ATOM     19  C   UNL     1      60.142  16.309  92.898  1.00  0.00     0.000 C 
BRANCH  19  20
ATOM     20  C   UNL     1      60.463  16.526  94.387  1.00  0.00     0.006 C 
BRANCH  20  21
ATOM     21  C   UNL     1      59.851  15.445  95.290  1.00  0.00     0.053 C 
BRANCH  21  22
ATOM     22  C   UNL     1      60.916  14.551  95.845  1.00  0.00     0.041 C 
ATOM     23  O   UNL     1      60.607  13.596  96.607  1.00  0.00    -0.550 OA
ATOM     24  O   UNL     1      62.248  14.766  95.515  1.00  0.00    -0.550 OA
ENDBRANCH  21  22
ENDBRANCH  20  21
ENDBRANCH  19  20
ENDBRANCH  18  19
ENDBRANCH  17  18
ENDBRANCH  16  17
ENDBRANCH  15  16
ENDBRANCH  14  15
ENDBRANCH  13  14
ENDBRANCH   1  13
TORSDOF 20
ENDMDL
MODEL 4
REMARK VINA RESULT:    -4.641      1.765      4.765
REMARK INTER + INTRA:         -13.812
REMARK INTER:                 -10.195
REMARK INTRA:                  -3.617
REMARK UNBOUND:                -3.744
REMARK SMILES CCCCCCCCCCCCCCCCCCCCCC(=O)[O-]
REMARK SMILES IDX 12 1 11 2 10 3 9 4 8 5 7 6 6 7 5 8 4 9 3 10 2 11 1 12 13 13
REMARK SMILES IDX 14 14 15 15 16 16 17 17 18 18 19 19 20 20 21 21 22 22 23 23
REMARK SMILES IDX 24 24
REMARK H PARENT
REMARK Flexibility Score: inf
ROOT
ATOM      1  C   UNL     1      60.772  17.674  91.632  1.00  0.00     0.000 C 
ENDROOT
BRANCH   1   2
ATOM      2  C   UNL     1      59.263  17.942  91.766  1.00  0.00     0.000 C 
BRANCH   2   3
ATOM      3  C   UNL     1      58.411  16.941  90.967  1.00  0.00     0.000 C 
BRANCH   3   4
ATOM      4  C   UNL     1      59.242  16.141  89.948  1.00  0.00    -0.000 C 
BRANCH   4   5
ATOM      5  C   UNL     1      58.626  14.769  89.631  1.00  0.00    -0.000 C 
BRANCH   5   6
ATOM      6  C   UNL     1      57.130  14.694  89.977  1.00  0.00    -0.000 C 
BRANCH   6   7
ATOM      7  C   UNL     1      56.341  14.038  88.836  1.00  0.00    -0.000 C 
BRANCH   7   8
ATOM      8  C   UNL     1      55.972  12.589  89.174  1.00  0.00    -0.000 C 
BRANCH   8   9
ATOM      9  C   UNL     1      56.904  11.605  88.456  1.00  0.00    -0.000 C 
BRANCH   9  10
ATOM     10  C   UNL     1      57.724  10.782  89.461  1.00  0.00    -0.000 C 
BRANCH  10  11
ATOM     11  C   UNL     1      59.228  11.093  89.388  1.00  0.00    -0.003 C 
ATOM     12  C   UNL     1      59.985  10.643  90.637  1.00  0.00     0.004 C 
ENDBRANCH  10  11
ENDBRANCH   9  10
ENDBRANCH   8   9
ENDBRANCH   7   8
ENDBRANCH   6   7
ENDBRANCH   5   6
ENDBRANCH   4   5
ENDBRANCH   3   4
ENDBRANCH   2   3
ENDBRANCH   1   2
BRANCH   1  13
ATOM     13  C   UNL     1      61.413  17.192  92.946  1.00  0.00     0.000 C 
BRANCH  13  14
ATOM     14  C   UNL     1      60.428  16.964  94.110  1.00  0.00     0.000 C 
BRANCH  14  15
ATOM     15  C   UNL     1      60.138  15.488  94.437  1.00  0.00     0.000 C 
BRANCH  15  16
ATOM     16  C   UNL     1      60.818  14.518  93.456  1.00  0.00     0.000 C 
BRANCH  16  17
ATOM     17  C   UNL     1      59.826  13.510  92.853  1.00  0.00     0.000 C 
BRANCH  17  18
ATOM     18  C   UNL     1      58.365  13.740  93.308  1.00  0.00     0.000 C 
BRANCH  18  19
ATOM     19  C   UNL     1      57.478  12.485  93.196  1.00  0.00     0.000 C 
BRANCH  19  20
ATOM     20  C   UNL     1      56.012  12.768  92.825  1.00  0.00     0.006 C 
BRANCH  20  21
ATOM     21  C   UNL     1      55.016  12.008  93.713  1.00  0.00     0.053 C 
BRANCH  21  22
ATOM     22  C   UNL     1      55.092  10.535  93.455  1.00  0.00     0.041 C 
ATOM     23  O   UNL     1      55.024   9.720  94.414  1.00  0.00    -0.550 OA
ATOM     24  O   UNL     1      55.228  10.062  92.156  1.00  0.00    -0.550 OA
ENDBRANCH  21  22
ENDBRANCH  20  21
ENDBRANCH  19  20
ENDBRANCH  18  19
ENDBRANCH  17  18
ENDBRANCH  16  17
ENDBRANCH  15  16
ENDBRANCH  14  15
ENDBRANCH  13  14
ENDBRANCH   1  13
TORSDOF 20
ENDMDL
MODEL 5
REMARK VINA RESULT:    -4.640      2.204      5.702
REMARK INTER + INTRA:         -13.810
REMARK INTER:                 -10.037
REMARK INTRA:                  -3.773
REMARK UNBOUND:                -3.744
REMARK SMILES CCCCCCCCCCCCCCCCCCCCCC(=O)[O-]
REMARK SMILES IDX 12 1 11 2 10 3 9 4 8 5 7 6 6 7 5 8 4 9 3 10 2 11 1 12 13 13
REMARK SMILES IDX 14 14 15 15 16 16 17 17 18 18 19 19 20 20 21 21 22 22 23 23
REMARK SMILES IDX 24 24
REMARK H PARENT
REMARK Flexibility Score: inf
ROOT
ATOM      1  C   UNL     1      58.827  12.814  91.665  1.00  0.00     0.000 C 
ENDROOT
BRANCH   1   2
ATOM      2  C   UNL     1      59.156  11.339  91.377  1.00  0.00     0.000 C 
BRANCH   2   3
ATOM      3  C   UNL     1      58.210  10.714  90.339  1.00  0.00     0.000 C 
BRANCH   3   4
ATOM      4  C   UNL     1      58.191  11.495  89.012  1.00  0.00    -0.000 C 
BRANCH   4   5
ATOM      5  C   UNL     1      56.767  11.737  88.488  1.00  0.00    -0.000 C 
BRANCH   5   6
ATOM      6  C   UNL     1      55.989  12.761  89.332  1.00  0.00    -0.000 C 
BRANCH   6   7
ATOM      7  C   UNL     1      56.229  14.185  88.814  1.00  0.00    -0.000 C 
BRANCH   7   8
ATOM      8  C   UNL     1      57.127  14.980  89.770  1.00  0.00    -0.000 C 
BRANCH   8   9
ATOM      9  C   UNL     1      58.431  15.395  89.077  1.00  0.00    -0.000 C 
BRANCH   9  10
ATOM     10  C   UNL     1      59.346  16.172  90.035  1.00  0.00    -0.000 C 
BRANCH  10  11
ATOM     11  C   UNL     1      58.627  16.592  91.327  1.00  0.00    -0.003 C 
ATOM     12  C   UNL     1      59.595  16.939  92.457  1.00  0.00     0.004 C 
ENDBRANCH  10  11
ENDBRANCH   9  10
ENDBRANCH   8   9
ENDBRANCH   7   8
ENDBRANCH   6   7
ENDBRANCH   5   6
ENDBRANCH   4   5
ENDBRANCH   3   4
ENDBRANCH   2   3
ENDBRANCH   1   2
BRANCH   1  13
ATOM     13  C   UNL     1      59.322  13.279  93.047  1.00  0.00     0.000 C 
BRANCH  13  14
ATOM     14  C   UNL     1      58.246  13.311  94.151  1.00  0.00     0.000 C 
BRANCH  14  15
ATOM     15  C   UNL     1      57.420  14.608  94.217  1.00  0.00     0.000 C 
BRANCH  15  16
ATOM     16  C   UNL     1      55.904  14.348  94.219  1.00  0.00     0.000 C 
BRANCH  16  17
ATOM     17  C   UNL     1      55.360  14.073  92.807  1.00  0.00     0.000 C 
BRANCH  17  18
ATOM     18  C   UNL     1      54.598  12.732  92.694  1.00  0.00     0.000 C 
BRANCH  18  19
ATOM     19  C   UNL     1      55.512  11.493  92.773  1.00  0.00     0.000 C 
BRANCH  19  20
ATOM     20  C   UNL     1      55.000  10.377  93.699  1.00  0.00     0.006 C 
BRANCH  20  21
ATOM     21  C   UNL     1      54.837  10.840  95.155  1.00  0.00     0.053 C 
BRANCH  21  22
ATOM     22  C   UNL     1      55.808  10.133  96.048  1.00  0.00     0.041 C 
ATOM     23  O   UNL     1      55.739   8.883  96.195  1.00  0.00    -0.550 OA
ATOM     24  O   UNL     1      56.794  10.851  96.712  1.00  0.00    -0.550 OA
ENDBRANCH  21  22
ENDBRANCH  20  21
ENDBRANCH  19  20
ENDBRANCH  18  19
ENDBRANCH  17  18
ENDBRANCH  16  17
ENDBRANCH  15  16
ENDBRANCH  14  15
ENDBRANCH  13  14
ENDBRANCH   1  13
TORSDOF 20
ENDMDL
MODEL 6
REMARK VINA RESULT:    -4.616      1.703      5.866
REMARK INTER + INTRA:         -13.757
REMARK INTER:                  -9.647
REMARK INTRA:                  -4.109
REMARK UNBOUND:                -3.744
REMARK SMILES CCCCCCCCCCCCCCCCCCCCCC(=O)[O-]
REMARK SMILES IDX 12 1 11 2 10 3 9 4 8 5 7 6 6 7 5 8 4 9 3 10 2 11 1 12 13 13
REMARK SMILES IDX 14 14 15 15 16 16 17 17 18 18 19 19 20 20 21 21 22 22 23 23
REMARK SMILES IDX 24 24
REMARK H PARENT
REMARK Flexibility Score: inf
ROOT
ATOM      1  C   UNL     1      58.997  11.625  89.516  1.00  0.00     0.000 C 
ENDROOT
BRANCH   1   2
ATOM      2  C   UNL     1      57.790  11.254  88.637  1.00  0.00     0.000 C 
BRANCH   2   3
ATOM      3  C   UNL     1      56.493  11.945  89.091  1.00  0.00     0.000 C 
BRANCH   3   4
ATOM      4  C   UNL     1      56.533  13.470  88.880  1.00  0.00    -0.000 C 
BRANCH   4   5
ATOM      5  C   UNL     1      56.468  14.251  90.203  1.00  0.00    -0.000 C 
BRANCH   5   6
ATOM      6  C   UNL     1      57.253  15.571  90.152  1.00  0.00    -0.000 C 
BRANCH   6   7
ATOM      7  C   UNL     1      58.730  15.313  89.826  1.00  0.00    -0.000 C 
BRANCH   7   8
ATOM      8  C   UNL     1      59.606  16.508  90.223  1.00  0.00    -0.000 C 
BRANCH   8   9
ATOM      9  C   UNL     1      58.852  17.446  91.173  1.00  0.00    -0.000 C 
BRANCH   9  10
ATOM     10  C   UNL     1      59.744  17.886  92.343  1.00  0.00    -0.000 C 
BRANCH  10  11
ATOM     11  C   UNL     1      61.150  17.269  92.276  1.00  0.00    -0.003 C 
ATOM     12  C   UNL     1      61.560  16.589  93.582  1.00  0.00     0.004 C 
ENDBRANCH  10  11
ENDBRANCH   9  10
ENDBRANCH   8   9
ENDBRANCH   7   8
ENDBRANCH   6   7
ENDBRANCH   5   6
ENDBRANCH   4   5
ENDBRANCH   3   4
ENDBRANCH   2   3
ENDBRANCH   1   2
BRANCH   1  13
ATOM     13  C   UNL     1      58.770  11.315  91.006  1.00  0.00     0.000 C 
BRANCH  13  14
ATOM     14  C   UNL     1      59.348  12.355  91.987  1.00  0.00     0.000 C 
BRANCH  14  15
ATOM     15  C   UNL     1      58.343  12.916  93.009  1.00  0.00     0.000 C 
BRANCH  15  16
ATOM     16  C   UNL     1      58.662  14.363  93.423  1.00  0.00     0.000 C 
BRANCH  16  17
ATOM     17  C   UNL     1      57.402  15.138  93.843  1.00  0.00     0.000 C 
BRANCH  17  18
ATOM     18  C   UNL     1      56.281  14.230  94.402  1.00  0.00     0.000 C 
BRANCH  18  19
ATOM     19  C   UNL     1      54.959  14.324  93.615  1.00  0.00     0.000 C 
BRANCH  19  20
ATOM     20  C   UNL     1      54.179  13.002  93.512  1.00  0.00     0.006 C 
BRANCH  20  21
ATOM     21  C   UNL     1      54.701  12.089  92.393  1.00  0.00     0.053 C 
BRANCH  21  22
ATOM     22  C   UNL     1      55.189  10.790  92.953  1.00  0.00     0.041 C 
ATOM     23  O   UNL     1      55.210   9.757  92.231  1.00  0.00    -0.550 OA
ATOM     24  O   UNL     1      55.630  10.720  94.268  1.00  0.00    -0.550 OA
ENDBRANCH  21  22
ENDBRANCH  20  21
ENDBRANCH  19  20
ENDBRANCH  18  19
ENDBRANCH  17  18
ENDBRANCH  16  17
ENDBRANCH  15  16
ENDBRANCH  14  15
ENDBRANCH  13  14
ENDBRANCH   1  13
TORSDOF 20
ENDMDL
MODEL 7
REMARK VINA RESULT:    -4.567      2.173      5.318
REMARK INTER + INTRA:         -13.651
REMARK INTER:                  -9.868
REMARK INTRA:                  -3.783
REMARK UNBOUND:                -3.744
REMARK SMILES CCCCCCCCCCCCCCCCCCCCCC(=O)[O-]
REMARK SMILES IDX 12 1 11 2 10 3 9 4 8 5 7 6 6 7 5 8 4 9 3 10 2 11 1 12 13 13
REMARK SMILES IDX 14 14 15 15 16 16 17 17 18 18 19 19 20 20 21 21 22 22 23 23
REMARK SMILES IDX 24 24
REMARK H PARENT
REMARK Flexibility Score: inf
ROOT
ATOM      1  C   UNL     1      55.992  12.624  88.972  1.00  0.00     0.000 C 
ENDROOT
BRANCH   1   2
ATOM      2  C   UNL     1      56.377  14.089  88.702  1.00  0.00     0.000 C 
BRANCH   2   3
ATOM      3  C   UNL     1      56.530  14.908  89.995  1.00  0.00     0.000 C 
BRANCH   3   4
ATOM      4  C   UNL     1      57.936  15.515  90.145  1.00  0.00    -0.000 C 
BRANCH   4   5
ATOM      5  C   UNL     1      58.138  16.209  91.502  1.00  0.00    -0.000 C 
BRANCH   5   6
ATOM      6  C   UNL     1      59.525  16.858  91.637  1.00  0.00    -0.000 C 
BRANCH   6   7
ATOM      7  C   UNL     1      60.407  16.059  92.606  1.00  0.00    -0.000 C 
BRANCH   7   8
ATOM      8  C   UNL     1      59.767  15.968  93.996  1.00  0.00    -0.000 C 
BRANCH   8   9
ATOM      9  C   UNL     1      60.060  14.610  94.645  1.00  0.00    -0.000 C 
BRANCH   9  10
ATOM     10  C   UNL     1      59.352  14.478  96.002  1.00  0.00    -0.000 C 
BRANCH  10  11
ATOM     11  C   UNL     1      57.826  14.624  95.886  1.00  0.00    -0.003 C 
ATOM     12  C   UNL     1      57.071  13.440  96.488  1.00  0.00     0.004 C 
ENDBRANCH  10  11
ENDBRANCH   9  10
ENDBRANCH   8   9
ENDBRANCH   7   8
ENDBRANCH   6   7
ENDBRANCH   5   6
ENDBRANCH   4   5
ENDBRANCH   3   4
ENDBRANCH   2   3
ENDBRANCH   1   2
BRANCH   1  13
ATOM     13  C   UNL     1      57.035  11.624  88.442  1.00  0.00     0.000 C 
BRANCH  13  14
ATOM     14  C   UNL     1      57.704  10.744  89.517  1.00  0.00     0.000 C 
BRANCH  14  15
ATOM     15  C   UNL     1      59.196  11.036  89.762  1.00  0.00     0.000 C 
BRANCH  15  16
ATOM     16  C   UNL     1      59.515  11.288  91.246  1.00  0.00     0.000 C 
BRANCH  16  17
ATOM     17  C   UNL     1      58.825  12.553  91.782  1.00  0.00     0.000 C 
BRANCH  17  18
ATOM     18  C   UNL     1      57.826  12.267  92.928  1.00  0.00     0.000 C 
BRANCH  18  19
ATOM     19  C   UNL     1      56.512  13.064  92.816  1.00  0.00     0.000 C 
BRANCH  19  20
ATOM     20  C   UNL     1      55.269  12.211  92.510  1.00  0.00     0.006 C 
BRANCH  20  21
ATOM     21  C   UNL     1      55.549  10.703  92.588  1.00  0.00     0.053 C 
BRANCH  21  22
ATOM     22  C   UNL     1      54.869  10.097  93.775  1.00  0.00     0.041 C 
ATOM     23  O   UNL     1      54.477   8.900  93.738  1.00  0.00    -0.550 OA
ATOM     24  O   UNL     1      54.676  10.850  94.926  1.00  0.00    -0.550 OA
ENDBRANCH  21  22
ENDBRANCH  20  21
ENDBRANCH  19  20
ENDBRANCH  18  19
ENDBRANCH  17  18
ENDBRANCH  16  17
ENDBRANCH  15  16
ENDBRANCH  14  15
ENDBRANCH  13  14
ENDBRANCH   1  13
TORSDOF 20
ENDMDL
MODEL 8
REMARK VINA RESULT:    -4.519      1.817      2.816
REMARK INTER + INTRA:         -13.548
REMARK INTER:                  -9.759
REMARK INTRA:                  -3.789
REMARK UNBOUND:                -3.744
REMARK SMILES CCCCCCCCCCCCCCCCCCCCCC(=O)[O-]
REMARK SMILES IDX 12 1 11 2 10 3 9 4 8 5 7 6 6 7 5 8 4 9 3 10 2 11 1 12 13 13
REMARK SMILES IDX 14 14 15 15 16 16 17 17 18 18 19 19 20 20 21 21 22 22 23 23
REMARK SMILES IDX 24 24
REMARK H PARENT
REMARK Flexibility Score: inf
ROOT
ATOM      1  C   UNL     1      60.995  16.736  94.865  1.00  0.00     0.000 C 
ENDROOT
BRANCH   1   2
ATOM      2  C   UNL     1      61.538  16.405  96.266  1.00  0.00     0.000 C 
BRANCH   2   3
ATOM      3  C   UNL     1      60.841  15.189  96.898  1.00  0.00     0.000 C 
BRANCH   3   4
ATOM      4  C   UNL     1      59.480  15.548  97.523  1.00  0.00    -0.000 C 
BRANCH   4   5
ATOM      5  C   UNL     1      58.294  15.019  96.700  1.00  0.00    -0.000 C 
BRANCH   5   6
ATOM      6  C   UNL     1      58.668  13.810  95.827  1.00  0.00    -0.000 C 
BRANCH   6   7
ATOM      7  C   UNL     1      57.699  13.672  94.646  1.00  0.00    -0.000 C 
BRANCH   7   8
ATOM      8  C   UNL     1      56.981  14.996  94.356  1.00  0.00    -0.000 C 
BRANCH   8   9
ATOM      9  C   UNL     1      55.633  14.749  93.669  1.00  0.00    -0.000 C 
BRANCH   9  10
ATOM     10  C   UNL     1      55.003  13.430  94.140  1.00  0.00    -0.000 C 
BRANCH  10  11
ATOM     11  C   UNL     1      54.680  12.482  92.975  1.00  0.00    -0.003 C 
ATOM     12  C   UNL     1      55.259  11.082  93.173  1.00  0.00     0.004 C 
ENDBRANCH  10  11
ENDBRANCH   9  10
ENDBRANCH   8   9
ENDBRANCH   7   8
ENDBRANCH   6   7
ENDBRANCH   5   6
ENDBRANCH   4   5
ENDBRANCH   3   4
ENDBRANCH   2   3
ENDBRANCH   1   2
BRANCH   1  13
ATOM     13  C   UNL     1      61.204  15.591  93.857  1.00  0.00     0.000 C 
BRANCH  13  14
ATOM     14  C   UNL     1      60.447  15.748  92.523  1.00  0.00     0.000 C 
BRANCH  14  15
ATOM     15  C   UNL     1      59.377  16.855  92.507  1.00  0.00     0.000 C 
BRANCH  15  16
ATOM     16  C   UNL     1      58.475  16.791  91.262  1.00  0.00     0.000 C 
BRANCH  16  17
ATOM     17  C   UNL     1      58.979  15.767  90.231  1.00  0.00     0.000 C 
BRANCH  17  18
ATOM     18  C   UNL     1      57.845  14.927  89.597  1.00  0.00     0.000 C 
BRANCH  18  19
ATOM     19  C   UNL     1      57.356  13.773  90.494  1.00  0.00     0.000 C 
BRANCH  19  20
ATOM     20  C   UNL     1      58.477  12.986  91.195  1.00  0.00     0.006 C 
BRANCH  20  21
ATOM     21  C   UNL     1      58.288  11.465  91.094  1.00  0.00     0.053 C 
BRANCH  21  22
ATOM     22  C   UNL     1      59.303  10.864  90.173  1.00  0.00     0.041 C 
ATOM     23  O   UNL     1      60.163  10.058  90.619  1.00  0.00    -0.550 OA
ATOM     24  O   UNL     1      59.295  11.185  88.822  1.00  0.00    -0.550 OA
ENDBRANCH  21  22
ENDBRANCH  20  21
ENDBRANCH  19  20
ENDBRANCH  18  19
ENDBRANCH  17  18
ENDBRANCH  16  17
ENDBRANCH  15  16
ENDBRANCH  14  15
ENDBRANCH  13  14
ENDBRANCH   1  13
TORSDOF 20
ENDMDL
MODEL 9
REMARK VINA RESULT:    -4.516      2.181      5.058
REMARK INTER + INTRA:         -13.541
REMARK INTER:                 -10.092
REMARK INTRA:                  -3.449
REMARK UNBOUND:                -3.744
REMARK SMILES CCCCCCCCCCCCCCCCCCCCCC(=O)[O-]
REMARK SMILES IDX 12 1 11 2 10 3 9 4 8 5 7 6 6 7 5 8 4 9 3 10 2 11 1 12 13 13
REMARK SMILES IDX 14 14 15 15 16 16 17 17 18 18 19 19 20 20 21 21 22 22 23 23
REMARK SMILES IDX 24 24
REMARK H PARENT
REMARK Flexibility Score: inf
ROOT
ATOM      1  C   UNL     1      61.911  14.942  95.991  1.00  0.00     0.000 C 
ENDROOT
BRANCH   1   2
ATOM      2  C   UNL     1      61.975  14.001  94.776  1.00  0.00     0.000 C 
BRANCH   2   3
ATOM      3  C   UNL     1      60.952  14.369  93.687  1.00  0.00     0.000 C 
BRANCH   3   4
ATOM      4  C   UNL     1      60.688  15.884  93.616  1.00  0.00    -0.000 C 
BRANCH   4   5
ATOM      5  C   UNL     1      59.385  16.222  92.874  1.00  0.00    -0.000 C 
BRANCH   5   6
ATOM      6  C   UNL     1      59.099  15.263  91.707  1.00  0.00    -0.000 C 
BRANCH   6   7
ATOM      7  C   UNL     1      58.508  16.022  90.512  1.00  0.00    -0.000 C 
BRANCH   7   8
ATOM      8  C   UNL     1      57.799  15.069  89.542  1.00  0.00    -0.000 C 
BRANCH   8   9
ATOM      9  C   UNL     1      58.221  13.617  89.795  1.00  0.00    -0.000 C 
BRANCH   9  10
ATOM     10  C   UNL     1      57.187  12.631  89.231  1.00  0.00    -0.000 C 
BRANCH  10  11
ATOM     11  C   UNL     1      57.831  11.335  88.713  1.00  0.00    -0.003 C 
ATOM     12  C   UNL     1      59.303  11.209  89.103  1.00  0.00     0.004 C 
ENDBRANCH  10  11
ENDBRANCH   9  10
ENDBRANCH   8   9
ENDBRANCH   7   8
ENDBRANCH   6   7
ENDBRANCH   5   6
ENDBRANCH   4   5
ENDBRANCH   3   4
ENDBRANCH   2   3
ENDBRANCH   1   2
BRANCH   1  13
ATOM     13  C   UNL     1      60.946  14.445  97.082  1.00  0.00     0.000 C 
BRANCH  13  14
ATOM     14  C   UNL     1      59.785  15.404  97.416  1.00  0.00     0.000 C 
BRANCH  14  15
ATOM     15  C   UNL     1      58.541  15.253  96.522  1.00  0.00     0.000 C 
BRANCH  15  16
ATOM     16  C   UNL     1      58.216  13.784  96.198  1.00  0.00     0.000 C 
BRANCH  16  17
ATOM     17  C   UNL     1      57.263  13.651  94.999  1.00  0.00     0.000 C 
BRANCH  17  18
ATOM     18  C   UNL     1      56.402  14.912  94.757  1.00  0.00     0.000 C 
BRANCH  18  19
ATOM     19  C   UNL     1      55.574  14.855  93.458  1.00  0.00     0.000 C 
BRANCH  19  20
ATOM     20  C   UNL     1      55.911  13.672  92.534  1.00  0.00     0.006 C 
BRANCH  20  21
ATOM     21  C   UNL     1      54.788  12.626  92.474  1.00  0.00     0.053 C 
BRANCH  21  22
ATOM     22  C   UNL     1      55.310  11.267  92.825  1.00  0.00     0.041 C 
ATOM     23  O   UNL     1      55.029  10.750  93.939  1.00  0.00    -0.550 OA
ATOM     24  O   UNL     1      56.097  10.568  91.919  1.00  0.00    -0.550 OA
ENDBRANCH  21  22
ENDBRANCH  20  21
ENDBRANCH  19  20
ENDBRANCH  18  19
ENDBRANCH  17  18
ENDBRANCH  16  17
ENDBRANCH  15  16
ENDBRANCH  14  15
ENDBRANCH  13  14
ENDBRANCH   1  13
TORSDOF 20
ENDMDL
