MODEL 1
REMARK VINA RESULT:    -3.340      0.000      0.000
REMARK INTER + INTRA:          -8.791
REMARK INTER:                  -7.635
REMARK INTRA:                  -1.155
REMARK UNBOUND:                -1.155
REMARK SMILES CCCCCCCCCCCCCCCCCCCCCCCC(=O)[O-]
REMARK SMILES IDX 13 1 14 2 15 3 16 4 17 5 18 6 19 7 20 8 21 9 22 10 23 11
REMARK SMILES IDX 24 12 25 13 26 14 12 15 11 16 10 17 9 18 8 19 7 20 6 21 5 22
REMARK SMILES IDX 4 23 3 24 2 25 1 26
REMARK H PARENT
REMARK Flexibility Score: inf
ROOT
ATOM      1  C   UNL     1       5.646   3.758  52.076  1.00  0.00     0.000 C 
ENDROOT
BRANCH   1   2
ATOM      2  C   UNL     1       6.368   4.524  53.199  1.00  0.00     0.000 C 
BRANCH   2   3
ATOM      3  C   UNL     1       7.892   4.310  53.186  1.00  0.00     0.000 C 
BRANCH   3   4
ATOM      4  C   UNL     1       8.300   3.007  52.475  1.00  0.00     0.000 C 
BRANCH   4   5
ATOM      5  C   UNL     1       8.756   3.242  51.024  1.00  0.00     0.000 C 
BRANCH   5   6
ATOM      6  C   UNL     1      10.080   2.528  50.691  1.00  0.00     0.000 C 
BRANCH   6   7
ATOM      7  C   UNL     1      11.181   2.663  51.760  1.00  0.00     0.000 C 
BRANCH   7   8
ATOM      8  C   UNL     1      11.753   4.084  51.853  1.00  0.00     0.000 C 
BRANCH   8   9
ATOM      9  C   UNL     1      11.772   4.761  50.478  1.00  0.00     0.000 C 
BRANCH   9  10
ATOM     10  C   UNL     1      11.559   6.275  50.607  1.00  0.00     0.006 C 
BRANCH  10  11
ATOM     11  C   UNL     1      10.252   6.585  51.341  1.00  0.00     0.053 C 
BRANCH  11  12
ATOM     12  C   UNL     1       9.178   6.974  50.371  1.00  0.00     0.041 C 
ATOM     13  O   UNL     1       9.101   8.160  49.953  1.00  0.00    -0.550 OA
ATOM     14  O   UNL     1       8.256   6.029  49.938  1.00  0.00    -0.550 OA
ENDBRANCH  11  12
ENDBRANCH  10  11
ENDBRANCH   9  10
ENDBRANCH   8   9
ENDBRANCH   7   8
ENDBRANCH   6   7
ENDBRANCH   5   6
ENDBRANCH   4   5
ENDBRANCH   3   4
ENDBRANCH   2   3
ENDBRANCH   1   2
BRANCH   1  15
ATOM     15  C   UNL     1       5.665   4.444  50.696  1.00  0.00     0.000 C 
BRANCH  15  16
ATOM     16  C   UNL     1       4.332   4.306  49.942  1.00  0.00     0.000 C 
BRANCH  16  17
ATOM     17  C   UNL     1       3.152   4.933  50.702  1.00  0.00     0.000 C 
BRANCH  17  18
ATOM     18  C   UNL     1       2.120   3.887  51.163  1.00  0.00    -0.000 C 
BRANCH  18  19
ATOM     19  C   UNL     1       1.551   3.059  49.996  1.00  0.00    -0.000 C 
BRANCH  19  20
ATOM     20  C   UNL     1       0.012   2.963  49.946  1.00  0.00    -0.000 C 
BRANCH  20  21
ATOM     21  C   UNL     1      -0.745   4.188  50.492  1.00  0.00    -0.000 C 
BRANCH  21  22
ATOM     22  C   UNL     1      -2.145   4.349  49.878  1.00  0.00    -0.000 C 
BRANCH  22  23
ATOM     23  C   UNL     1      -3.013   3.085  50.025  1.00  0.00    -0.000 C 
BRANCH  23  24
ATOM     24  C   UNL     1      -3.968   3.084  51.233  1.00  0.00    -0.000 C 
BRANCH  24  25
ATOM     25  C   UNL     1      -5.447   3.192  50.830  1.00  0.00    -0.003 C 
ATOM     26  C   UNL     1      -5.932   4.637  50.906  1.00  0.00     0.004 C 
ENDBRANCH  24  25
ENDBRANCH  23  24
ENDBRANCH  22  23
ENDBRANCH  21  22
ENDBRANCH  20  21
ENDBRANCH  19  20
ENDBRANCH  18  19
ENDBRANCH  17  18
ENDBRANCH  16  17
ENDBRANCH  15  16
ENDBRANCH   1  15
TORSDOF 22
ENDMDL
MODEL 2
REMARK VINA RESULT:    -3.198      2.034      4.241
REMARK INTER + INTRA:          -8.467
REMARK INTER:                  -7.113
REMARK INTRA:                  -1.354
REMARK UNBOUND:                -1.155
REMARK SMILES CCCCCCCCCCCCCCCCCCCCCCCC(=O)[O-]
REMARK SMILES IDX 13 1 14 2 15 3 16 4 17 5 18 6 19 7 20 8 21 9 22 10 23 11
REMARK SMILES IDX 24 12 25 13 26 14 12 15 11 16 10 17 9 18 8 19 7 20 6 21 5 22
REMARK SMILES IDX 4 23 3 24 2 25 1 26
REMARK H PARENT
REMARK Flexibility Score: inf
ROOT
ATOM      1  C   UNL     1       9.444   6.984  51.386  1.00  0.00     0.000 C 
ENDROOT
BRANCH   1   2
ATOM      2  C   UNL     1      10.502   5.942  51.794  1.00  0.00     0.000 C 
BRANCH   2   3
ATOM      3  C   UNL     1      11.813   6.077  51.000  1.00  0.00     0.000 C 
BRANCH   3   4
ATOM      4  C   UNL     1      12.360   4.719  50.527  1.00  0.00     0.000 C 
BRANCH   4   5
ATOM      5  C   UNL     1      11.520   3.533  51.032  1.00  0.00     0.000 C 
BRANCH   5   6
ATOM      6  C   UNL     1      10.421   3.113  50.038  1.00  0.00     0.000 C 
BRANCH   6   7
ATOM      7  C   UNL     1       9.455   2.028  50.552  1.00  0.00     0.000 C 
BRANCH   7   8
ATOM      8  C   UNL     1       8.115   2.600  51.033  1.00  0.00     0.000 C 
BRANCH   8   9
ATOM      9  C   UNL     1       8.185   2.999  52.512  1.00  0.00     0.000 C 
BRANCH   9  10
ATOM     10  C   UNL     1       7.426   4.307  52.765  1.00  0.00     0.006 C 
BRANCH  10  11
ATOM     11  C   UNL     1       6.807   4.323  54.166  1.00  0.00     0.053 C 
BRANCH  11  12
ATOM     12  C   UNL     1       7.786   4.846  55.172  1.00  0.00     0.041 C 
ATOM     13  O   UNL     1       7.619   4.614  56.399  1.00  0.00    -0.550 OA
ATOM     14  O   UNL     1       8.877   5.601  54.757  1.00  0.00    -0.550 OA
ENDBRANCH  11  12
ENDBRANCH  10  11
ENDBRANCH   9  10
ENDBRANCH   8   9
ENDBRANCH   7   8
ENDBRANCH   6   7
ENDBRANCH   5   6
ENDBRANCH   4   5
ENDBRANCH   3   4
ENDBRANCH   2   3
ENDBRANCH   1   2
BRANCH   1  15
ATOM     15  C   UNL     1       8.909   6.846  49.947  1.00  0.00     0.000 C 
BRANCH  15  16
ATOM     16  C   UNL     1       7.373   6.881  49.875  1.00  0.00     0.000 C 
BRANCH  16  17
ATOM     17  C   UNL     1       6.717   5.693  50.599  1.00  0.00     0.000 C 
BRANCH  17  18
ATOM     18  C   UNL     1       5.453   5.186  49.882  1.00  0.00    -0.000 C 
BRANCH  18  19
ATOM     19  C   UNL     1       4.281   4.936  50.850  1.00  0.00    -0.000 C 
BRANCH  19  20
ATOM     20  C   UNL     1       2.992   5.727  50.542  1.00  0.00    -0.000 C 
BRANCH  20  21
ATOM     21  C   UNL     1       1.802   4.884  50.048  1.00  0.00    -0.000 C 
BRANCH  21  22
ATOM     22  C   UNL     1       0.443   5.550  50.322  1.00  0.00    -0.000 C 
BRANCH  22  23
ATOM     23  C   UNL     1      -0.721   4.542  50.361  1.00  0.00    -0.000 C 
BRANCH  23  24
ATOM     24  C   UNL     1      -0.346   3.094  49.992  1.00  0.00    -0.000 C 
BRANCH  24  25
ATOM     25  C   UNL     1      -1.053   2.049  50.869  1.00  0.00    -0.003 C 
ATOM     26  C   UNL     1      -2.570   2.148  50.726  1.00  0.00     0.004 C 
ENDBRANCH  24  25
ENDBRANCH  23  24
ENDBRANCH  22  23
ENDBRANCH  21  22
ENDBRANCH  20  21
ENDBRANCH  19  20
ENDBRANCH  18  19
ENDBRANCH  17  18
ENDBRANCH  16  17
ENDBRANCH  15  16
ENDBRANCH   1  15
TORSDOF 22
ENDMDL
MODEL 3
REMARK VINA RESULT:    -2.935      1.623      2.016
REMARK INTER + INTRA:          -7.865
REMARK INTER:                  -7.327
REMARK INTRA:                  -0.537
REMARK UNBOUND:                -1.155
REMARK SMILES CCCCCCCCCCCCCCCCCCCCCCCC(=O)[O-]
REMARK SMILES IDX 13 1 14 2 15 3 16 4 17 5 18 6 19 7 20 8 21 9 22 10 23 11
REMARK SMILES IDX 24 12 25 13 26 14 12 15 11 16 10 17 9 18 8 19 7 20 6 21 5 22
REMARK SMILES IDX 4 23 3 24 2 25 1 26
REMARK H PARENT
REMARK Flexibility Score: inf
ROOT
ATOM      1  C   UNL     1       5.173   4.862  52.385  1.00  0.00     0.000 C 
ENDROOT
BRANCH   1   2
ATOM      2  C   UNL     1       5.940   3.657  52.960  1.00  0.00     0.000 C 
BRANCH   2   3
ATOM      3  C   UNL     1       7.132   3.232  52.085  1.00  0.00     0.000 C 
BRANCH   3   4
ATOM      4  C   UNL     1       6.872   1.918  51.327  1.00  0.00     0.000 C 
BRANCH   4   5
ATOM      5  C   UNL     1       7.458   1.928  49.905  1.00  0.00     0.000 C 
BRANCH   5   6
ATOM      6  C   UNL     1       8.950   2.310  49.876  1.00  0.00     0.000 C 
BRANCH   6   7
ATOM      7  C   UNL     1       9.703   2.101  51.203  1.00  0.00     0.000 C 
BRANCH   7   8
ATOM      8  C   UNL     1      10.694   3.231  51.513  1.00  0.00     0.000 C 
BRANCH   8   9
ATOM      9  C   UNL     1      11.016   4.043  50.252  1.00  0.00     0.000 C 
BRANCH   9  10
ATOM     10  C   UNL     1      11.103   5.541  50.570  1.00  0.00     0.006 C 
BRANCH  10  11
ATOM     11  C   UNL     1       9.848   6.022  51.304  1.00  0.00     0.053 C 
BRANCH  11  12
ATOM     12  C   UNL     1      10.002   5.854  52.784  1.00  0.00     0.041 C 
ATOM     13  O   UNL     1       9.025   5.478  53.485  1.00  0.00    -0.550 OA
ATOM     14  O   UNL     1      11.221   6.126  53.393  1.00  0.00    -0.550 OA
ENDBRANCH  11  12
ENDBRANCH  10  11
ENDBRANCH   9  10
ENDBRANCH   8   9
ENDBRANCH   7   8
ENDBRANCH   6   7
ENDBRANCH   5   6
ENDBRANCH   4   5
ENDBRANCH   3   4
ENDBRANCH   2   3
ENDBRANCH   1   2
BRANCH   1  15
ATOM     15  C   UNL     1       5.003   4.861  50.854  1.00  0.00     0.000 C 
BRANCH  15  16
ATOM     16  C   UNL     1       3.865   3.942  50.380  1.00  0.00     0.000 C 
BRANCH  16  17
ATOM     17  C   UNL     1       2.472   4.497  50.723  1.00  0.00     0.000 C 
BRANCH  17  18
ATOM     18  C   UNL     1       1.381   3.411  50.711  1.00  0.00    -0.000 C 
BRANCH  18  19
ATOM     19  C   UNL     1       0.119   3.845  49.943  1.00  0.00    -0.000 C 
BRANCH  19  20
ATOM     20  C   UNL     1      -1.140   2.993  50.210  1.00  0.00    -0.000 C 
BRANCH  20  21
ATOM     21  C   UNL     1      -2.358   3.765  50.750  1.00  0.00    -0.000 C 
BRANCH  21  22
ATOM     22  C   UNL     1      -3.582   2.864  50.983  1.00  0.00    -0.000 C 
BRANCH  22  23
ATOM     23  C   UNL     1      -4.784   3.247  50.098  1.00  0.00    -0.000 C 
BRANCH  23  24
ATOM     24  C   UNL     1      -5.892   4.047  50.809  1.00  0.00    -0.000 C 
BRANCH  24  25
ATOM     25  C   UNL     1      -6.058   5.469  50.249  1.00  0.00    -0.003 C 
ATOM     26  C   UNL     1      -4.703   6.102  49.944  1.00  0.00     0.004 C 
ENDBRANCH  24  25
ENDBRANCH  23  24
ENDBRANCH  22  23
ENDBRANCH  21  22
ENDBRANCH  20  21
ENDBRANCH  19  20
ENDBRANCH  18  19
ENDBRANCH  17  18
ENDBRANCH  16  17
ENDBRANCH  15  16
ENDBRANCH   1  15
TORSDOF 22
ENDMDL
MODEL 4
REMARK VINA RESULT:    -2.707      3.684     10.830
REMARK INTER + INTRA:          -7.345
REMARK INTER:                  -6.867
REMARK INTRA:                  -0.477
REMARK UNBOUND:                -1.155
REMARK SMILES CCCCCCCCCCCCCCCCCCCCCCCC(=O)[O-]
REMARK SMILES IDX 13 1 14 2 15 3 16 4 17 5 18 6 19 7 20 8 21 9 22 10 23 11
REMARK SMILES IDX 24 12 25 13 26 14 12 15 11 16 10 17 9 18 8 19 7 20 6 21 5 22
REMARK SMILES IDX 4 23 3 24 2 25 1 26
REMARK H PARENT
REMARK Flexibility Score: inf
ROOT
ATOM      1  C   UNL     1       7.370   4.711  54.246  1.00  0.00     0.000 C 
ENDROOT
BRANCH   1   2
ATOM      2  C   UNL     1       6.262   3.784  53.712  1.00  0.00     0.000 C 
BRANCH   2   3
ATOM      3  C   UNL     1       5.510   4.380  52.510  1.00  0.00     0.000 C 
BRANCH   3   4
ATOM      4  C   UNL     1       4.797   3.307  51.667  1.00  0.00     0.000 C 
BRANCH   4   5
ATOM      5  C   UNL     1       4.299   3.850  50.316  1.00  0.00     0.000 C 
BRANCH   5   6
ATOM      6  C   UNL     1       3.106   4.815  50.462  1.00  0.00     0.000 C 
BRANCH   6   7
ATOM      7  C   UNL     1       1.777   4.303  49.875  1.00  0.00     0.000 C 
BRANCH   7   8
ATOM      8  C   UNL     1       0.862   3.669  50.931  1.00  0.00     0.000 C 
BRANCH   8   9
ATOM      9  C   UNL     1      -0.176   2.747  50.279  1.00  0.00     0.000 C 
BRANCH   9  10
ATOM     10  C   UNL     1      -1.446   3.523  49.909  1.00  0.00     0.006 C 
BRANCH  10  11
ATOM     11  C   UNL     1      -2.678   2.917  50.585  1.00  0.00     0.053 C 
BRANCH  11  12
ATOM     12  C   UNL     1      -3.904   3.719  50.271  1.00  0.00     0.041 C 
ATOM     13  O   UNL     1      -5.044   3.185  50.332  1.00  0.00    -0.550 OA
ATOM     14  O   UNL     1      -3.787   5.053  49.899  1.00  0.00    -0.550 OA
ENDBRANCH  11  12
ENDBRANCH  10  11
ENDBRANCH   9  10
ENDBRANCH   8   9
ENDBRANCH   7   8
ENDBRANCH   6   7
ENDBRANCH   5   6
ENDBRANCH   4   5
ENDBRANCH   3   4
ENDBRANCH   2   3
ENDBRANCH   1   2
BRANCH   1  15
ATOM     15  C   UNL     1       8.536   4.968  53.273  1.00  0.00     0.000 C 
BRANCH  15  16
ATOM     16  C   UNL     1       8.232   4.499  51.840  1.00  0.00     0.000 C 
BRANCH  16  17
ATOM     17  C   UNL     1       8.304   2.970  51.688  1.00  0.00     0.000 C 
BRANCH  17  18
ATOM     18  C   UNL     1       9.053   2.534  50.416  1.00  0.00    -0.000 C 
BRANCH  18  19
ATOM     19  C   UNL     1      10.584   2.616  50.570  1.00  0.00    -0.000 C 
BRANCH  19  20
ATOM     20  C   UNL     1      11.109   2.475  52.014  1.00  0.00    -0.000 C 
BRANCH  20  21
ATOM     21  C   UNL     1      12.347   3.327  52.352  1.00  0.00    -0.000 C 
BRANCH  21  22
ATOM     22  C   UNL     1      12.511   4.541  51.422  1.00  0.00    -0.000 C 
BRANCH  22  23
ATOM     23  C   UNL     1      11.643   5.741  51.846  1.00  0.00    -0.000 C 
BRANCH  23  24
ATOM     24  C   UNL     1      11.316   6.742  50.722  1.00  0.00    -0.000 C 
BRANCH  24  25
ATOM     25  C   UNL     1      10.105   6.318  49.875  1.00  0.00    -0.003 C 
ATOM     26  C   UNL     1       8.987   7.353  49.959  1.00  0.00     0.004 C 
ENDBRANCH  24  25
ENDBRANCH  23  24
ENDBRANCH  22  23
ENDBRANCH  21  22
ENDBRANCH  20  21
ENDBRANCH  19  20
ENDBRANCH  18  19
ENDBRANCH  17  18
ENDBRANCH  16  17
ENDBRANCH  15  16
ENDBRANCH   1  15
TORSDOF 22
ENDMDL
MODEL 5
REMARK VINA RESULT:    -2.561      2.070      3.182
REMARK INTER + INTRA:          -7.009
REMARK INTER:                  -6.140
REMARK INTRA:                  -0.869
REMARK UNBOUND:                -1.155
REMARK SMILES CCCCCCCCCCCCCCCCCCCCCCCC(=O)[O-]
REMARK SMILES IDX 13 1 14 2 15 3 16 4 17 5 18 6 19 7 20 8 21 9 22 10 23 11
REMARK SMILES IDX 24 12 25 13 26 14 12 15 11 16 10 17 9 18 8 19 7 20 6 21 5 22
REMARK SMILES IDX 4 23 3 24 2 25 1 26
REMARK H PARENT
REMARK Flexibility Score: inf
ROOT
ATOM      1  C   UNL     1       6.962   5.140  54.641  1.00  0.00     0.000 C 
ENDROOT
BRANCH   1   2
ATOM      2  C   UNL     1       8.408   4.706  54.337  1.00  0.00     0.000 C 
BRANCH   2   3
ATOM      3  C   UNL     1       8.727   4.698  52.831  1.00  0.00     0.000 C 
BRANCH   3   4
ATOM      4  C   UNL     1       9.332   3.364  52.361  1.00  0.00     0.000 C 
BRANCH   4   5
ATOM      5  C   UNL     1       8.444   2.639  51.335  1.00  0.00     0.000 C 
BRANCH   5   6
ATOM      6  C   UNL     1       8.127   3.505  50.101  1.00  0.00     0.000 C 
BRANCH   6   7
ATOM      7  C   UNL     1       9.078   4.697  49.879  1.00  0.00     0.000 C 
BRANCH   7   8
ATOM      8  C   UNL     1       8.425   6.050  50.194  1.00  0.00     0.000 C 
BRANCH   8   9
ATOM      9  C   UNL     1       9.460   7.181  50.167  1.00  0.00     0.000 C 
BRANCH   9  10
ATOM     10  C   UNL     1      10.863   6.635  49.875  1.00  0.00     0.006 C 
BRANCH  10  11
ATOM     11  C   UNL     1      11.736   6.660  51.133  1.00  0.00     0.053 C 
BRANCH  11  12
ATOM     12  C   UNL     1      12.792   5.599  51.066  1.00  0.00     0.041 C 
ATOM     13  O   UNL     1      13.929   5.866  50.592  1.00  0.00    -0.550 OA
ATOM     14  O   UNL     1      12.518   4.313  51.516  1.00  0.00    -0.550 OA
ENDBRANCH  11  12
ENDBRANCH  10  11
ENDBRANCH   9  10
ENDBRANCH   8   9
ENDBRANCH   7   8
ENDBRANCH   6   7
ENDBRANCH   5   6
ENDBRANCH   4   5
ENDBRANCH   3   4
ENDBRANCH   2   3
ENDBRANCH   1   2
BRANCH   1  15
ATOM     15  C   UNL     1       6.014   5.162  53.426  1.00  0.00     0.000 C 
BRANCH  15  16
ATOM     16  C   UNL     1       5.619   3.754  52.952  1.00  0.00     0.000 C 
BRANCH  16  17
ATOM     17  C   UNL     1       5.122   3.735  51.496  1.00  0.00     0.000 C 
BRANCH  17  18
ATOM     18  C   UNL     1       4.967   5.147  50.903  1.00  0.00    -0.000 C 
BRANCH  18  19
ATOM     19  C   UNL     1       3.506   5.633  50.896  1.00  0.00    -0.000 C 
BRANCH  19  20
ATOM     20  C   UNL     1       2.512   4.721  50.146  1.00  0.00    -0.000 C 
BRANCH  20  21
ATOM     21  C   UNL     1       1.946   3.547  50.965  1.00  0.00    -0.000 C 
BRANCH  21  22
ATOM     22  C   UNL     1       1.077   2.595  50.125  1.00  0.00    -0.000 C 
BRANCH  22  23
ATOM     23  C   UNL     1      -0.265   2.257  50.801  1.00  0.00    -0.000 C 
BRANCH  23  24
ATOM     24  C   UNL     1      -1.511   2.453  49.916  1.00  0.00    -0.000 C 
BRANCH  24  25
ATOM     25  C   UNL     1      -2.242   3.776  50.193  1.00  0.00    -0.003 C 
ATOM     26  C   UNL     1      -1.273   4.955  50.167  1.00  0.00     0.004 C 
ENDBRANCH  24  25
ENDBRANCH  23  24
ENDBRANCH  22  23
ENDBRANCH  21  22
ENDBRANCH  20  21
ENDBRANCH  19  20
ENDBRANCH  18  19
ENDBRANCH  17  18
ENDBRANCH  16  17
ENDBRANCH  15  16
ENDBRANCH   1  15
TORSDOF 22
ENDMDL
MODEL 6
REMARK VINA RESULT:    -2.474      4.476      6.788
REMARK INTER + INTRA:          -6.812
REMARK INTER:                  -5.278
REMARK INTRA:                  -1.535
REMARK UNBOUND:                -1.155
REMARK SMILES CCCCCCCCCCCCCCCCCCCCCCCC(=O)[O-]
REMARK SMILES IDX 13 1 14 2 15 3 16 4 17 5 18 6 19 7 20 8 21 9 22 10 23 11
REMARK SMILES IDX 24 12 25 13 26 14 12 15 11 16 10 17 9 18 8 19 7 20 6 21 5 22
REMARK SMILES IDX 4 23 3 24 2 25 1 26
REMARK H PARENT
REMARK Flexibility Score: inf
ROOT
ATOM      1  C   UNL     1       6.561   5.007  54.195  1.00  0.00     0.000 C 
ENDROOT
BRANCH   1   2
ATOM      2  C   UNL     1       5.637   4.116  53.346  1.00  0.00     0.000 C 
BRANCH   2   3
ATOM      3  C   UNL     1       6.405   3.052  52.541  1.00  0.00     0.000 C 
BRANCH   3   4
ATOM      4  C   UNL     1       6.016   3.041  51.052  1.00  0.00     0.000 C 
BRANCH   4   5
ATOM      5  C   UNL     1       6.684   1.895  50.274  1.00  0.00     0.000 C 
BRANCH   5   6
ATOM      6  C   UNL     1       8.165   2.173  49.954  1.00  0.00     0.000 C 
BRANCH   6   7
ATOM      7  C   UNL     1       9.062   2.423  51.181  1.00  0.00     0.000 C 
BRANCH   7   8
ATOM      8  C   UNL     1      10.557   2.256  50.874  1.00  0.00     0.000 C 
BRANCH   8   9
ATOM      9  C   UNL     1      11.413   2.603  52.098  1.00  0.00     0.000 C 
BRANCH   9  10
ATOM     10  C   UNL     1      12.427   3.704  51.766  1.00  0.00     0.006 C 
BRANCH  10  11
ATOM     11  C   UNL     1      11.903   4.619  50.657  1.00  0.00     0.053 C 
BRANCH  11  12
ATOM     12  C   UNL     1      12.880   5.718  50.370  1.00  0.00     0.041 C 
ATOM     13  O   UNL     1      14.115   5.524  50.524  1.00  0.00    -0.550 OA
ATOM     14  O   UNL     1      12.426   6.961  49.944  1.00  0.00    -0.550 OA
ENDBRANCH  11  12
ENDBRANCH  10  11
ENDBRANCH   9  10
ENDBRANCH   8   9
ENDBRANCH   7   8
ENDBRANCH   6   7
ENDBRANCH   5   6
ENDBRANCH   4   5
ENDBRANCH   3   4
ENDBRANCH   2   3
ENDBRANCH   1   2
BRANCH   1  15
ATOM     15  C   UNL     1       6.736   4.563  55.660  1.00  0.00     0.000 C 
BRANCH  15  16
ATOM     16  C   UNL     1       8.170   4.764  56.178  1.00  0.00     0.000 C 
BRANCH  16  17
ATOM     17  C   UNL     1       8.982   5.744  55.314  1.00  0.00     0.000 C 
BRANCH  17  18
ATOM     18  C   UNL     1       9.262   5.199  53.902  1.00  0.00    -0.000 C 
BRANCH  18  19
ATOM     19  C   UNL     1      10.126   6.153  53.056  1.00  0.00    -0.000 C 
BRANCH  19  20
ATOM     20  C   UNL     1       9.423   6.763  51.825  1.00  0.00    -0.000 C 
BRANCH  20  21
ATOM     21  C   UNL     1       9.282   5.824  50.612  1.00  0.00    -0.000 C 
BRANCH  21  22
ATOM     22  C   UNL     1       7.906   5.926  49.934  1.00  0.00    -0.000 C 
BRANCH  22  23
ATOM     23  C   UNL     1       7.372   7.369  49.876  1.00  0.00    -0.000 C 
BRANCH  23  24
ATOM     24  C   UNL     1       5.846   7.509  50.024  1.00  0.00    -0.000 C 
BRANCH  24  25
ATOM     25  C   UNL     1       5.150   6.180  50.356  1.00  0.00    -0.003 C 
ATOM     26  C   UNL     1       3.981   6.395  51.313  1.00  0.00     0.004 C 
ENDBRANCH  24  25
ENDBRANCH  23  24
ENDBRANCH  22  23
ENDBRANCH  21  22
ENDBRANCH  20  21
ENDBRANCH  19  20
ENDBRANCH  18  19
ENDBRANCH  17  18
ENDBRANCH  16  17
ENDBRANCH  15  16
ENDBRANCH   1  15
TORSDOF 22
ENDMDL
MODEL 7
REMARK VINA RESULT:    -2.246      4.174     11.018
REMARK INTER + INTRA:          -6.290
REMARK INTER:                  -5.529
REMARK INTRA:                  -0.761
REMARK UNBOUND:                -1.155
REMARK SMILES CCCCCCCCCCCCCCCCCCCCCCCC(=O)[O-]
REMARK SMILES IDX 13 1 14 2 15 3 16 4 17 5 18 6 19 7 20 8 21 9 22 10 23 11
REMARK SMILES IDX 24 12 25 13 26 14 12 15 11 16 10 17 9 18 8 19 7 20 6 21 5 22
REMARK SMILES IDX 4 23 3 24 2 25 1 26
REMARK H PARENT
REMARK Flexibility Score: inf
ROOT
ATOM      1  C   UNL     1       5.318   3.059  51.996  1.00  0.00     0.000 C 
ENDROOT
BRANCH   1   2
ATOM      2  C   UNL     1       5.172   4.588  51.893  1.00  0.00     0.000 C 
BRANCH   2   3
ATOM      3  C   UNL     1       4.988   5.076  50.446  1.00  0.00     0.000 C 
BRANCH   3   4
ATOM      4  C   UNL     1       3.524   4.997  49.977  1.00  0.00     0.000 C 
BRANCH   4   5
ATOM      5  C   UNL     1       2.700   3.973  50.776  1.00  0.00     0.000 C 
BRANCH   5   6
ATOM      6  C   UNL     1       1.864   3.044  49.875  1.00  0.00     0.000 C 
BRANCH   6   7
ATOM      7  C   UNL     1       0.346   3.304  49.901  1.00  0.00     0.000 C 
BRANCH   7   8
ATOM      8  C   UNL     1      -0.474   2.034  50.170  1.00  0.00     0.000 C 
BRANCH   8   9
ATOM      9  C   UNL     1      -1.972   2.292  49.966  1.00  0.00     0.000 C 
BRANCH   9  10
ATOM     10  C   UNL     1      -2.457   3.445  50.854  1.00  0.00     0.006 C 
BRANCH  10  11
ATOM     11  C   UNL     1      -3.600   4.212  50.183  1.00  0.00     0.053 C 
BRANCH  11  12
ATOM     12  C   UNL     1      -4.904   3.919  50.860  1.00  0.00     0.041 C 
ATOM     13  O   UNL     1      -5.923   4.613  50.600  1.00  0.00    -0.550 OA
ATOM     14  O   UNL     1      -4.991   2.887  51.788  1.00  0.00    -0.550 OA
ENDBRANCH  11  12
ENDBRANCH  10  11
ENDBRANCH   9  10
ENDBRANCH   8   9
ENDBRANCH   7   8
ENDBRANCH   6   7
ENDBRANCH   5   6
ENDBRANCH   4   5
ENDBRANCH   3   4
ENDBRANCH   2   3
ENDBRANCH   1   2
BRANCH   1  15
ATOM     15  C   UNL     1       6.767   2.544  52.100  1.00  0.00     0.000 C 
BRANCH  15  16
ATOM     16  C   UNL     1       7.810   3.669  51.998  1.00  0.00     0.000 C 
BRANCH  16  17
ATOM     17  C   UNL     1       9.220   3.144  51.683  1.00  0.00     0.000 C 
BRANCH  17  18
ATOM     18  C   UNL     1       9.566   3.231  50.186  1.00  0.00    -0.000 C 
BRANCH  18  19
ATOM     19  C   UNL     1      10.591   4.338  49.875  1.00  0.00    -0.000 C 
BRANCH  19  20
ATOM     20  C   UNL     1      11.358   4.887  51.096  1.00  0.00    -0.000 C 
BRANCH  20  21
ATOM     21  C   UNL     1      10.794   6.187  51.701  1.00  0.00    -0.000 C 
BRANCH  21  22
ATOM     22  C   UNL     1      11.440   6.548  53.049  1.00  0.00    -0.000 C 
BRANCH  22  23
ATOM     23  C   UNL     1      10.708   5.921  54.250  1.00  0.00    -0.000 C 
BRANCH  23  24
ATOM     24  C   UNL     1       9.258   5.479  53.976  1.00  0.00    -0.000 C 
BRANCH  24  25
ATOM     25  C   UNL     1       8.299   5.820  55.127  1.00  0.00    -0.003 C 
ATOM     26  C   UNL     1       7.227   4.745  55.286  1.00  0.00     0.004 C 
ENDBRANCH  24  25
ENDBRANCH  23  24
ENDBRANCH  22  23
ENDBRANCH  21  22
ENDBRANCH  20  21
ENDBRANCH  19  20
ENDBRANCH  18  19
ENDBRANCH  17  18
ENDBRANCH  16  17
ENDBRANCH  15  16
ENDBRANCH   1  15
TORSDOF 22
ENDMDL
MODEL 8
REMARK VINA RESULT:    -1.980      3.303      9.970
REMARK INTER + INTRA:          -5.681
REMARK INTER:                  -5.724
REMARK INTRA:                   0.042
REMARK UNBOUND:                -1.155
REMARK SMILES CCCCCCCCCCCCCCCCCCCCCCCC(=O)[O-]
REMARK SMILES IDX 13 1 14 2 15 3 16 4 17 5 18 6 19 7 20 8 21 9 22 10 23 11
REMARK SMILES IDX 24 12 25 13 26 14 12 15 11 16 10 17 9 18 8 19 7 20 6 21 5 22
REMARK SMILES IDX 4 23 3 24 2 25 1 26
REMARK H PARENT
REMARK Flexibility Score: inf
ROOT
ATOM      1  C   UNL     1       7.518   5.609  54.671  1.00  0.00     0.000 C 
ENDROOT
BRANCH   1   2
ATOM      2  C   UNL     1       6.597   4.451  55.098  1.00  0.00     0.000 C 
BRANCH   2   3
ATOM      3  C   UNL     1       5.843   3.817  53.916  1.00  0.00     0.000 C 
BRANCH   3   4
ATOM      4  C   UNL     1       5.574   4.820  52.780  1.00  0.00     0.000 C 
BRANCH   4   5
ATOM      5  C   UNL     1       5.734   4.191  51.384  1.00  0.00     0.000 C 
BRANCH   5   6
ATOM      6  C   UNL     1       4.695   4.709  50.372  1.00  0.00     0.000 C 
BRANCH   6   7
ATOM      7  C   UNL     1       3.529   5.508  50.986  1.00  0.00     0.000 C 
BRANCH   7   8
ATOM      8  C   UNL     1       2.152   4.963  50.581  1.00  0.00     0.000 C 
BRANCH   8   9
ATOM      9  C   UNL     1       2.034   3.469  50.906  1.00  0.00     0.000 C 
BRANCH   9  10
ATOM     10  C   UNL     1       0.571   3.070  51.134  1.00  0.00     0.006 C 
BRANCH  10  11
ATOM     11  C   UNL     1      -0.268   3.312  49.876  1.00  0.00     0.053 C 
BRANCH  11  12
ATOM     12  C   UNL     1      -1.494   4.108  50.201  1.00  0.00     0.041 C 
ATOM     13  O   UNL     1      -1.436   5.365  50.261  1.00  0.00    -0.550 OA
ATOM     14  O   UNL     1      -2.699   3.462  50.452  1.00  0.00    -0.550 OA
ENDBRANCH  11  12
ENDBRANCH  10  11
ENDBRANCH   9  10
ENDBRANCH   8   9
ENDBRANCH   7   8
ENDBRANCH   6   7
ENDBRANCH   5   6
ENDBRANCH   4   5
ENDBRANCH   3   4
ENDBRANCH   2   3
ENDBRANCH   1   2
BRANCH   1  15
ATOM     15  C   UNL     1       8.974   5.210  54.364  1.00  0.00     0.000 C 
BRANCH  15  16
ATOM     16  C   UNL     1       9.180   4.777  52.903  1.00  0.00     0.000 C 
BRANCH  16  17
ATOM     17  C   UNL     1       8.602   5.787  51.897  1.00  0.00     0.000 C 
BRANCH  17  18
ATOM     18  C   UNL     1       9.145   5.582  50.472  1.00  0.00    -0.000 C 
BRANCH  18  19
ATOM     19  C   UNL     1      10.345   6.494  50.155  1.00  0.00    -0.000 C 
BRANCH  19  20
ATOM     20  C   UNL     1      11.635   6.182  50.942  1.00  0.00    -0.000 C 
BRANCH  20  21
ATOM     21  C   UNL     1      11.516   5.057  51.987  1.00  0.00    -0.000 C 
BRANCH  21  22
ATOM     22  C   UNL     1      12.551   3.939  51.784  1.00  0.00    -0.000 C 
BRANCH  22  23
ATOM     23  C   UNL     1      11.926   2.532  51.809  1.00  0.00    -0.000 C 
BRANCH  23  24
ATOM     24  C   UNL     1      10.386   2.500  51.840  1.00  0.00    -0.000 C 
BRANCH  24  25
ATOM     25  C   UNL     1       9.771   1.920  50.557  1.00  0.00    -0.003 C 
ATOM     26  C   UNL     1       8.247   1.943  50.619  1.00  0.00     0.004 C 
ENDBRANCH  24  25
ENDBRANCH  23  24
ENDBRANCH  22  23
ENDBRANCH  21  22
ENDBRANCH  20  21
ENDBRANCH  19  20
ENDBRANCH  18  19
ENDBRANCH  17  18
ENDBRANCH  16  17
ENDBRANCH  15  16
ENDBRANCH   1  15
TORSDOF 22
ENDMDL
