MODEL 1
REMARK VINA RESULT:    -4.296      0.000      0.000
REMARK INTER + INTRA:         -14.727
REMARK INTER:                 -10.825
REMARK INTRA:                  -3.903
REMARK UNBOUND:                -3.903
REMARK SMILES CCCCCCCCCCCCCCCCCCCCCCCCCCCC(=O)[O-]
REMARK SMILES IDX 15 1 16 2 17 3 18 4 19 5 20 6 21 7 22 8 23 9 24 10 25 11
REMARK SMILES IDX 26 12 27 13 28 14 29 15 30 16 14 17 13 18 12 19 11 20 10 21
REMARK SMILES IDX 9 22 8 23 7 24 6 25 5 26 4 27 3 28 2 29 1 30
REMARK H PARENT
REMARK Flexibility Score: inf
ROOT
ATOM      1  C   UNL     1       2.554  43.552   8.653  1.00  0.00     0.000 C 
ENDROOT
BRANCH   1   2
ATOM      2  C   UNL     1       1.103  43.587   8.145  1.00  0.00     0.000 C 
BRANCH   2   3
ATOM      3  C   UNL     1       0.415  44.936   8.407  1.00  0.00     0.000 C 
BRANCH   3   4
ATOM      4  C   UNL     1      -0.351  45.463   7.181  1.00  0.00     0.000 C 
BRANCH   4   5
ATOM      5  C   UNL     1      -0.949  46.868   7.407  1.00  0.00     0.000 C 
BRANCH   5   6
ATOM      6  C   UNL     1      -0.775  47.401   8.843  1.00  0.00     0.000 C 
BRANCH   6   7
ATOM      7  C   UNL     1      -0.129  48.795   8.950  1.00  0.00     0.000 C 
BRANCH   7   8
ATOM      8  C   UNL     1       0.590  49.285   7.676  1.00  0.00     0.000 C 
BRANCH   8   9
ATOM      9  C   UNL     1       2.127  49.225   7.734  1.00  0.00     0.000 C 
BRANCH   9  10
ATOM     10  C   UNL     1       2.674  47.794   7.630  1.00  0.00     0.000 C 
BRANCH  10  11
ATOM     11  C   UNL     1       3.062  47.256   9.015  1.00  0.00     0.000 C 
BRANCH  11  12
ATOM     12  C   UNL     1       4.402  46.497   9.005  1.00  0.00     0.006 C 
BRANCH  12  13
ATOM     13  C   UNL     1       5.439  47.039  10.003  1.00  0.00     0.053 C 
BRANCH  13  14
ATOM     14  C   UNL     1       6.548  47.777   9.319  1.00  0.00     0.041 C 
ATOM     15  O   UNL     1       7.748  47.456   9.531  1.00  0.00    -0.550 OA
ATOM     16  O   UNL     1       6.259  48.841   8.476  1.00  0.00    -0.550 OA
ENDBRANCH  13  14
ENDBRANCH  12  13
ENDBRANCH  11  12
ENDBRANCH  10  11
ENDBRANCH   9  10
ENDBRANCH   8   9
ENDBRANCH   7   8
ENDBRANCH   6   7
ENDBRANCH   5   6
ENDBRANCH   4   5
ENDBRANCH   3   4
ENDBRANCH   2   3
ENDBRANCH   1   2
BRANCH   1  17
ATOM     17  C   UNL     1       2.783  42.486   9.737  1.00  0.00     0.000 C 
BRANCH  17  18
ATOM     18  C   UNL     1       3.818  42.901  10.806  1.00  0.00     0.000 C 
BRANCH  18  19
ATOM     19  C   UNL     1       3.183  43.526  12.069  1.00  0.00     0.000 C 
BRANCH  19  20
ATOM     20  C   UNL     1       2.058  44.534  11.764  1.00  0.00     0.000 C 
BRANCH  20  21
ATOM     21  C   UNL     1       0.637  44.016  12.038  1.00  0.00     0.000 C 
BRANCH  21  22
ATOM     22  C   UNL     1       0.627  42.696  12.831  1.00  0.00    -0.000 C 
BRANCH  22  23
ATOM     23  C   UNL     1      -0.772  42.346  13.371  1.00  0.00    -0.000 C 
BRANCH  23  24
ATOM     24  C   UNL     1      -0.805  41.100  14.276  1.00  0.00    -0.000 C 
BRANCH  24  25
ATOM     25  C   UNL     1       0.512  40.304  14.228  1.00  0.00    -0.000 C 
BRANCH  25  26
ATOM     26  C   UNL     1       0.435  39.094  13.285  1.00  0.00    -0.000 C 
BRANCH  26  27
ATOM     27  C   UNL     1       1.823  38.536  12.919  1.00  0.00    -0.000 C 
BRANCH  27  28
ATOM     28  C   UNL     1       2.864  39.643  12.671  1.00  0.00    -0.000 C 
BRANCH  28  29
ATOM     29  C   UNL     1       4.319  39.230  12.953  1.00  0.00    -0.003 C 
ATOM     30  C   UNL     1       5.212  40.410  13.338  1.00  0.00     0.004 C 
ENDBRANCH  28  29
ENDBRANCH  27  28
ENDBRANCH  26  27
ENDBRANCH  25  26
ENDBRANCH  24  25
ENDBRANCH  23  24
ENDBRANCH  22  23
ENDBRANCH  21  22
ENDBRANCH  20  21
ENDBRANCH  19  20
ENDBRANCH  18  19
ENDBRANCH  17  18
ENDBRANCH   1  17
TORSDOF 26
ENDMDL
MODEL 2
REMARK VINA RESULT:    -3.990      2.745      8.300
REMARK INTER + INTRA:         -13.958
REMARK INTER:                 -10.909
REMARK INTRA:                  -3.049
REMARK UNBOUND:                -3.903
REMARK SMILES CCCCCCCCCCCCCCCCCCCCCCCCCCCC(=O)[O-]
REMARK SMILES IDX 15 1 16 2 17 3 18 4 19 5 20 6 21 7 22 8 23 9 24 10 25 11
REMARK SMILES IDX 26 12 27 13 28 14 29 15 30 16 14 17 13 18 12 19 11 20 10 21
REMARK SMILES IDX 9 22 8 23 7 24 6 25 5 26 4 27 3 28 2 29 1 30
REMARK H PARENT
REMARK Flexibility Score: inf
ROOT
ATOM      1  C   UNL     1       1.398  44.761   9.157  1.00  0.00     0.000 C 
ENDROOT
BRANCH   1   2
ATOM      2  C   UNL     1       2.040  43.425   8.749  1.00  0.00     0.000 C 
BRANCH   2   3
ATOM      3  C   UNL     1       3.515  43.321   9.172  1.00  0.00     0.000 C 
BRANCH   3   4
ATOM      4  C   UNL     1       3.693  42.670  10.555  1.00  0.00     0.000 C 
BRANCH   4   5
ATOM      5  C   UNL     1       3.759  43.705  11.699  1.00  0.00     0.000 C 
BRANCH   5   6
ATOM      6  C   UNL     1       2.403  43.975  12.381  1.00  0.00     0.000 C 
BRANCH   6   7
ATOM      7  C   UNL     1       1.369  42.840  12.255  1.00  0.00     0.000 C 
BRANCH   7   8
ATOM      8  C   UNL     1      -0.081  43.233  12.604  1.00  0.00     0.000 C 
BRANCH   8   9
ATOM      9  C   UNL     1      -0.777  42.312  13.622  1.00  0.00     0.000 C 
BRANCH   9  10
ATOM     10  C   UNL     1       0.181  41.302  14.268  1.00  0.00     0.000 C 
BRANCH  10  11
ATOM     11  C   UNL     1      -0.194  39.865  13.879  1.00  0.00     0.000 C 
BRANCH  11  12
ATOM     12  C   UNL     1       0.974  39.099  13.232  1.00  0.00     0.006 C 
BRANCH  12  13
ATOM     13  C   UNL     1       2.263  39.925  13.084  1.00  0.00     0.053 C 
BRANCH  13  14
ATOM     14  C   UNL     1       3.457  39.063  12.815  1.00  0.00     0.041 C 
ATOM     15  O   UNL     1       3.336  38.002  12.146  1.00  0.00    -0.550 OA
ATOM     16  O   UNL     1       4.697  39.411  13.333  1.00  0.00    -0.550 OA
ENDBRANCH  13  14
ENDBRANCH  12  13
ENDBRANCH  11  12
ENDBRANCH  10  11
ENDBRANCH   9  10
ENDBRANCH   8   9
ENDBRANCH   7   8
ENDBRANCH   6   7
ENDBRANCH   5   6
ENDBRANCH   4   5
ENDBRANCH   3   4
ENDBRANCH   2   3
ENDBRANCH   1   2
BRANCH   1  17
ATOM     17  C   UNL     1       0.002  44.965   8.545  1.00  0.00     0.000 C 
BRANCH  17  18
ATOM     18  C   UNL     1       0.033  45.513   7.101  1.00  0.00     0.000 C 
BRANCH  18  19
ATOM     19  C   UNL     1      -0.791  46.807   6.915  1.00  0.00     0.000 C 
BRANCH  19  20
ATOM     20  C   UNL     1      -0.681  47.789   8.098  1.00  0.00     0.000 C 
BRANCH  20  21
ATOM     21  C   UNL     1      -0.412  49.250   7.700  1.00  0.00     0.000 C 
BRANCH  21  22
ATOM     22  C   UNL     1       0.889  49.803   8.310  1.00  0.00    -0.000 C 
BRANCH  22  23
ATOM     23  C   UNL     1       1.891  50.265   7.236  1.00  0.00    -0.000 C 
BRANCH  23  24
ATOM     24  C   UNL     1       3.233  49.509   7.259  1.00  0.00    -0.000 C 
BRANCH  24  25
ATOM     25  C   UNL     1       3.047  47.982   7.311  1.00  0.00    -0.000 C 
BRANCH  25  26
ATOM     26  C   UNL     1       3.170  47.421   8.737  1.00  0.00    -0.000 C 
BRANCH  26  27
ATOM     27  C   UNL     1       4.482  46.646   8.960  1.00  0.00    -0.000 C 
BRANCH  27  28
ATOM     28  C   UNL     1       5.449  47.372   9.913  1.00  0.00    -0.000 C 
BRANCH  28  29
ATOM     29  C   UNL     1       6.787  47.787   9.276  1.00  0.00    -0.003 C 
ATOM     30  C   UNL     1       6.767  49.208   8.713  1.00  0.00     0.004 C 
ENDBRANCH  28  29
ENDBRANCH  27  28
ENDBRANCH  26  27
ENDBRANCH  25  26
ENDBRANCH  24  25
ENDBRANCH  23  24
ENDBRANCH  22  23
ENDBRANCH  21  22
ENDBRANCH  20  21
ENDBRANCH  19  20
ENDBRANCH  18  19
ENDBRANCH  17  18
ENDBRANCH   1  17
TORSDOF 26
ENDMDL
MODEL 3
REMARK VINA RESULT:    -3.969      0.917      3.587
REMARK INTER + INTRA:         -13.903
REMARK INTER:                  -9.895
REMARK INTRA:                  -4.008
REMARK UNBOUND:                -3.903
REMARK SMILES CCCCCCCCCCCCCCCCCCCCCCCCCCCC(=O)[O-]
REMARK SMILES IDX 15 1 16 2 17 3 18 4 19 5 20 6 21 7 22 8 23 9 24 10 25 11
REMARK SMILES IDX 26 12 27 13 28 14 29 15 30 16 14 17 13 18 12 19 11 20 10 21
REMARK SMILES IDX 9 22 8 23 7 24 6 25 5 26 4 27 3 28 2 29 1 30
REMARK H PARENT
REMARK Flexibility Score: inf
ROOT
ATOM      1  C   UNL     1       0.383  44.161  11.545  1.00  0.00     0.000 C 
ENDROOT
BRANCH   1   2
ATOM      2  C   UNL     1      -0.731  45.190  11.798  1.00  0.00     0.000 C 
BRANCH   2   3
ATOM      3  C   UNL     1      -0.862  46.215  10.659  1.00  0.00     0.000 C 
BRANCH   3   4
ATOM      4  C   UNL     1      -0.435  45.647   9.294  1.00  0.00     0.000 C 
BRANCH   4   5
ATOM      5  C   UNL     1      -0.741  46.608   8.125  1.00  0.00     0.000 C 
BRANCH   5   6
ATOM      6  C   UNL     1      -0.937  48.076   8.553  1.00  0.00     0.000 C 
BRANCH   6   7
ATOM      7  C   UNL     1      -0.002  49.089   7.866  1.00  0.00     0.000 C 
BRANCH   7   8
ATOM      8  C   UNL     1       1.415  49.188   8.467  1.00  0.00     0.000 C 
BRANCH   8   9
ATOM      9  C   UNL     1       2.519  48.496   7.648  1.00  0.00     0.000 C 
BRANCH   9  10
ATOM     10  C   UNL     1       2.903  47.118   8.205  1.00  0.00     0.000 C 
BRANCH  10  11
ATOM     11  C   UNL     1       2.842  47.112   9.740  1.00  0.00     0.000 C 
BRANCH  11  12
ATOM     12  C   UNL     1       4.237  47.134  10.391  1.00  0.00     0.006 C 
BRANCH  12  13
ATOM     13  C   UNL     1       5.368  46.639   9.474  1.00  0.00     0.053 C 
BRANCH  13  14
ATOM     14  C   UNL     1       6.393  47.700   9.221  1.00  0.00     0.041 C 
ATOM     15  O   UNL     1       7.559  47.580   9.685  1.00  0.00    -0.550 OA
ATOM     16  O   UNL     1       6.053  48.839   8.503  1.00  0.00    -0.550 OA
ENDBRANCH  13  14
ENDBRANCH  12  13
ENDBRANCH  11  12
ENDBRANCH  10  11
ENDBRANCH   9  10
ENDBRANCH   8   9
ENDBRANCH   7   8
ENDBRANCH   6   7
ENDBRANCH   5   6
ENDBRANCH   4   5
ENDBRANCH   3   4
ENDBRANCH   2   3
ENDBRANCH   1   2
BRANCH   1  17
ATOM     17  C   UNL     1       0.551  43.165  12.705  1.00  0.00     0.000 C 
BRANCH  17  18
ATOM     18  C   UNL     1      -0.778  42.539  13.182  1.00  0.00     0.000 C 
BRANCH  18  19
ATOM     19  C   UNL     1      -0.597  41.478  14.290  1.00  0.00     0.000 C 
BRANCH  19  20
ATOM     20  C   UNL     1       0.652  40.594  14.105  1.00  0.00     0.000 C 
BRANCH  20  21
ATOM     21  C   UNL     1       0.454  39.386  13.174  1.00  0.00     0.000 C 
BRANCH  21  22
ATOM     22  C   UNL     1       1.663  38.433  13.170  1.00  0.00    -0.000 C 
BRANCH  22  23
ATOM     23  C   UNL     1       2.849  38.992  12.363  1.00  0.00    -0.000 C 
BRANCH  23  24
ATOM     24  C   UNL     1       4.095  39.311  13.211  1.00  0.00    -0.000 C 
BRANCH  24  25
ATOM     25  C   UNL     1       4.686  40.695  12.889  1.00  0.00    -0.000 C 
BRANCH  25  26
ATOM     26  C   UNL     1       3.711  41.583  12.100  1.00  0.00    -0.000 C 
BRANCH  26  27
ATOM     27  C   UNL     1       4.095  43.074  12.144  1.00  0.00    -0.000 C 
BRANCH  27  28
ATOM     28  C   UNL     1       3.783  43.810  10.829  1.00  0.00    -0.000 C 
BRANCH  28  29
ATOM     29  C   UNL     1       3.543  42.890   9.619  1.00  0.00    -0.003 C 
ATOM     30  C   UNL     1       2.320  43.293   8.795  1.00  0.00     0.004 C 
ENDBRANCH  28  29
ENDBRANCH  27  28
ENDBRANCH  26  27
ENDBRANCH  25  26
ENDBRANCH  24  25
ENDBRANCH  23  24
ENDBRANCH  22  23
ENDBRANCH  21  22
ENDBRANCH  20  21
ENDBRANCH  19  20
ENDBRANCH  18  19
ENDBRANCH  17  18
ENDBRANCH   1  17
TORSDOF 26
ENDMDL
MODEL 4
REMARK VINA RESULT:    -3.903      2.379      7.848
REMARK INTER + INTRA:         -13.739
REMARK INTER:                  -9.892
REMARK INTRA:                  -3.847
REMARK UNBOUND:                -3.903
REMARK SMILES CCCCCCCCCCCCCCCCCCCCCCCCCCCC(=O)[O-]
REMARK SMILES IDX 15 1 16 2 17 3 18 4 19 5 20 6 21 7 22 8 23 9 24 10 25 11
REMARK SMILES IDX 26 12 27 13 28 14 29 15 30 16 14 17 13 18 12 19 11 20 10 21
REMARK SMILES IDX 9 22 8 23 7 24 6 25 5 26 4 27 3 28 2 29 1 30
REMARK H PARENT
REMARK Flexibility Score: inf
ROOT
ATOM      1  C   UNL     1       3.085  42.989   8.645  1.00  0.00     0.000 C 
ENDROOT
BRANCH   1   2
ATOM      2  C   UNL     1       3.062  42.493  10.100  1.00  0.00     0.000 C 
BRANCH   2   3
ATOM      3  C   UNL     1       3.674  43.505  11.082  1.00  0.00     0.000 C 
BRANCH   3   4
ATOM      4  C   UNL     1       2.692  43.933  12.186  1.00  0.00     0.000 C 
BRANCH   4   5
ATOM      5  C   UNL     1       1.438  44.642  11.629  1.00  0.00     0.000 C 
BRANCH   5   6
ATOM      6  C   UNL     1       0.107  44.000  12.068  1.00  0.00     0.000 C 
BRANCH   6   7
ATOM      7  C   UNL     1       0.243  42.785  13.005  1.00  0.00     0.000 C 
BRANCH   7   8
ATOM      8  C   UNL     1      -1.089  42.195  13.513  1.00  0.00     0.000 C 
BRANCH   8   9
ATOM      9  C   UNL     1      -1.017  40.730  13.977  1.00  0.00     0.000 C 
BRANCH   9  10
ATOM     10  C   UNL     1       0.423  40.222  14.135  1.00  0.00     0.000 C 
BRANCH  10  11
ATOM     11  C   UNL     1       0.673  39.002  13.238  1.00  0.00     0.000 C 
BRANCH  11  12
ATOM     12  C   UNL     1       2.167  38.780  12.936  1.00  0.00     0.006 C 
BRANCH  12  13
ATOM     13  C   UNL     1       2.954  40.075  12.670  1.00  0.00     0.053 C 
BRANCH  13  14
ATOM     14  C   UNL     1       4.419  39.907  12.931  1.00  0.00     0.041 C 
ATOM     15  O   UNL     1       4.947  38.765  12.873  1.00  0.00    -0.550 OA
ATOM     16  O   UNL     1       5.194  41.007  13.271  1.00  0.00    -0.550 OA
ENDBRANCH  13  14
ENDBRANCH  12  13
ENDBRANCH  11  12
ENDBRANCH  10  11
ENDBRANCH   9  10
ENDBRANCH   8   9
ENDBRANCH   7   8
ENDBRANCH   6   7
ENDBRANCH   5   6
ENDBRANCH   4   5
ENDBRANCH   3   4
ENDBRANCH   2   3
ENDBRANCH   1   2
BRANCH   1  17
ATOM     17  C   UNL     1       2.211  44.236   8.424  1.00  0.00     0.000 C 
BRANCH  17  18
ATOM     18  C   UNL     1       0.705  43.920   8.287  1.00  0.00     0.000 C 
BRANCH  18  19
ATOM     19  C   UNL     1       0.021  44.674   7.124  1.00  0.00     0.000 C 
BRANCH  19  20
ATOM     20  C   UNL     1      -0.490  46.076   7.508  1.00  0.00     0.000 C 
BRANCH  20  21
ATOM     21  C   UNL     1      -0.997  46.204   8.955  1.00  0.00     0.000 C 
BRANCH  21  22
ATOM     22  C   UNL     1      -0.811  47.620   9.528  1.00  0.00    -0.000 C 
BRANCH  22  23
ATOM     23  C   UNL     1       0.647  48.104   9.436  1.00  0.00    -0.000 C 
BRANCH  23  24
ATOM     24  C   UNL     1       0.836  49.380   8.592  1.00  0.00    -0.000 C 
BRANCH  24  25
ATOM     25  C   UNL     1       1.991  49.250   7.583  1.00  0.00    -0.000 C 
BRANCH  25  26
ATOM     26  C   UNL     1       2.600  47.839   7.562  1.00  0.00    -0.000 C 
BRANCH  26  27
ATOM     27  C   UNL     1       4.088  47.828   7.958  1.00  0.00    -0.000 C 
BRANCH  27  28
ATOM     28  C   UNL     1       4.374  46.938   9.181  1.00  0.00    -0.000 C 
BRANCH  28  29
ATOM     29  C   UNL     1       5.781  47.103   9.781  1.00  0.00    -0.003 C 
ATOM     30  C   UNL     1       6.617  48.163   9.063  1.00  0.00     0.004 C 
ENDBRANCH  28  29
ENDBRANCH  27  28
ENDBRANCH  26  27
ENDBRANCH  25  26
ENDBRANCH  24  25
ENDBRANCH  23  24
ENDBRANCH  22  23
ENDBRANCH  21  22
ENDBRANCH  20  21
ENDBRANCH  19  20
ENDBRANCH  18  19
ENDBRANCH  17  18
ENDBRANCH   1  17
TORSDOF 26
ENDMDL
MODEL 5
REMARK VINA RESULT:    -3.646      0.949      2.816
REMARK INTER + INTRA:         -13.090
REMARK INTER:                  -9.912
REMARK INTRA:                  -3.178
REMARK UNBOUND:                -3.903
REMARK SMILES CCCCCCCCCCCCCCCCCCCCCCCCCCCC(=O)[O-]
REMARK SMILES IDX 15 1 16 2 17 3 18 4 19 5 20 6 21 7 22 8 23 9 24 10 25 11
REMARK SMILES IDX 26 12 27 13 28 14 29 15 30 16 14 17 13 18 12 19 11 20 10 21
REMARK SMILES IDX 9 22 8 23 7 24 6 25 5 26 4 27 3 28 2 29 1 30
REMARK H PARENT
REMARK Flexibility Score: inf
ROOT
ATOM      1  C   UNL     1       2.127  43.588   9.248  1.00  0.00     0.000 C 
ENDROOT
BRANCH   1   2
ATOM      2  C   UNL     1       1.647  43.994   7.845  1.00  0.00     0.000 C 
BRANCH   2   3
ATOM      3  C   UNL     1       0.115  44.064   7.739  1.00  0.00     0.000 C 
BRANCH   3   4
ATOM      4  C   UNL     1      -0.379  45.369   7.090  1.00  0.00     0.000 C 
BRANCH   4   5
ATOM      5  C   UNL     1      -0.798  46.431   8.129  1.00  0.00     0.000 C 
BRANCH   5   6
ATOM      6  C   UNL     1      -0.920  47.857   7.556  1.00  0.00     0.000 C 
BRANCH   6   7
ATOM      7  C   UNL     1      -0.185  48.950   8.355  1.00  0.00     0.000 C 
BRANCH   7   8
ATOM      8  C   UNL     1       0.826  49.787   7.545  1.00  0.00     0.000 C 
BRANCH   8   9
ATOM      9  C   UNL     1       2.284  49.300   7.622  1.00  0.00     0.000 C 
BRANCH   9  10
ATOM     10  C   UNL     1       2.402  47.771   7.685  1.00  0.00     0.000 C 
BRANCH  10  11
ATOM     11  C   UNL     1       3.008  47.324   9.023  1.00  0.00     0.000 C 
BRANCH  11  12
ATOM     12  C   UNL     1       4.307  46.515   8.847  1.00  0.00     0.006 C 
BRANCH  12  13
ATOM     13  C   UNL     1       5.399  46.846   9.879  1.00  0.00     0.053 C 
BRANCH  13  14
ATOM     14  C   UNL     1       6.494  47.680   9.291  1.00  0.00     0.041 C 
ATOM     15  O   UNL     1       7.661  47.617   9.761  1.00  0.00    -0.550 OA
ATOM     16  O   UNL     1       6.219  48.554   8.248  1.00  0.00    -0.550 OA
ENDBRANCH  13  14
ENDBRANCH  12  13
ENDBRANCH  11  12
ENDBRANCH  10  11
ENDBRANCH   9  10
ENDBRANCH   8   9
ENDBRANCH   7   8
ENDBRANCH   6   7
ENDBRANCH   5   6
ENDBRANCH   4   5
ENDBRANCH   3   4
ENDBRANCH   2   3
ENDBRANCH   1   2
BRANCH   1  17
ATOM     17  C   UNL     1       1.171  44.046  10.363  1.00  0.00     0.000 C 
BRANCH  17  18
ATOM     18  C   UNL     1       1.457  43.391  11.732  1.00  0.00     0.000 C 
BRANCH  18  19
ATOM     19  C   UNL     1       2.584  44.090  12.526  1.00  0.00     0.000 C 
BRANCH  19  20
ATOM     20  C   UNL     1       3.907  43.300  12.551  1.00  0.00     0.000 C 
BRANCH  20  21
ATOM     21  C   UNL     1       3.821  41.879  11.971  1.00  0.00     0.000 C 
BRANCH  21  22
ATOM     22  C   UNL     1       4.933  40.953  12.496  1.00  0.00    -0.000 C 
BRANCH  22  23
ATOM     23  C   UNL     1       4.402  39.565  12.897  1.00  0.00    -0.000 C 
BRANCH  23  24
ATOM     24  C   UNL     1       3.077  39.599  13.682  1.00  0.00    -0.000 C 
BRANCH  24  25
ATOM     25  C   UNL     1       1.939  38.871  12.945  1.00  0.00    -0.000 C 
BRANCH  25  26
ATOM     26  C   UNL     1       0.551  39.413  13.322  1.00  0.00    -0.000 C 
BRANCH  26  27
ATOM     27  C   UNL     1       0.611  40.824  13.936  1.00  0.00    -0.000 C 
BRANCH  27  28
ATOM     28  C   UNL     1      -0.758  41.312  14.445  1.00  0.00    -0.000 C 
BRANCH  28  29
ATOM     29  C   UNL     1      -1.078  40.922  15.899  1.00  0.00    -0.003 C 
ATOM     30  C   UNL     1      -0.769  42.036  16.899  1.00  0.00     0.004 C 
ENDBRANCH  28  29
ENDBRANCH  27  28
ENDBRANCH  26  27
ENDBRANCH  25  26
ENDBRANCH  24  25
ENDBRANCH  23  24
ENDBRANCH  22  23
ENDBRANCH  21  22
ENDBRANCH  20  21
ENDBRANCH  19  20
ENDBRANCH  18  19
ENDBRANCH  17  18
ENDBRANCH   1  17
TORSDOF 26
ENDMDL
MODEL 6
REMARK VINA RESULT:    -3.535      1.677      7.796
REMARK INTER + INTRA:         -12.812
REMARK INTER:                  -9.368
REMARK INTRA:                  -3.444
REMARK UNBOUND:                -3.903
REMARK SMILES CCCCCCCCCCCCCCCCCCCCCCCCCCCC(=O)[O-]
REMARK SMILES IDX 15 1 16 2 17 3 18 4 19 5 20 6 21 7 22 8 23 9 24 10 25 11
REMARK SMILES IDX 26 12 27 13 28 14 29 15 30 16 14 17 13 18 12 19 11 20 10 21
REMARK SMILES IDX 9 22 8 23 7 24 6 25 5 26 4 27 3 28 2 29 1 30
REMARK H PARENT
REMARK Flexibility Score: inf
ROOT
ATOM      1  C   UNL     1       1.107  44.100   9.660  1.00  0.00     0.000 C 
ENDROOT
BRANCH   1   2
ATOM      2  C   UNL     1       0.697  44.946  10.875  1.00  0.00     0.000 C 
BRANCH   2   3
ATOM      3  C   UNL     1      -0.291  44.217  11.801  1.00  0.00     0.000 C 
BRANCH   3   4
ATOM      4  C   UNL     1       0.356  43.042  12.556  1.00  0.00     0.000 C 
BRANCH   4   5
ATOM      5  C   UNL     1      -0.588  42.411  13.602  1.00  0.00     0.000 C 
BRANCH   5   6
ATOM      6  C   UNL     1      -0.215  40.968  13.996  1.00  0.00     0.000 C 
BRANCH   6   7
ATOM      7  C   UNL     1       1.219  40.540  13.630  1.00  0.00     0.000 C 
BRANCH   7   8
ATOM      8  C   UNL     1       1.368  39.077  13.162  1.00  0.00     0.000 C 
BRANCH   8   9
ATOM      9  C   UNL     1       2.787  38.674  12.727  1.00  0.00     0.000 C 
BRANCH   9  10
ATOM     10  C   UNL     1       3.884  39.349  13.564  1.00  0.00     0.000 C 
BRANCH  10  11
ATOM     11  C   UNL     1       4.838  40.152  12.669  1.00  0.00     0.000 C 
BRANCH  11  12
ATOM     12  C   UNL     1       4.551  41.665  12.697  1.00  0.00     0.006 C 
BRANCH  12  13
ATOM     13  C   UNL     1       3.676  42.161  11.534  1.00  0.00     0.053 C 
BRANCH  13  14
ATOM     14  C   UNL     1       4.073  43.529  11.074  1.00  0.00     0.041 C 
ATOM     15  O   UNL     1       4.372  43.730   9.866  1.00  0.00    -0.550 OA
ATOM     16  O   UNL     1       4.148  44.574  11.984  1.00  0.00    -0.550 OA
ENDBRANCH  13  14
ENDBRANCH  12  13
ENDBRANCH  11  12
ENDBRANCH  10  11
ENDBRANCH   9  10
ENDBRANCH   8   9
ENDBRANCH   7   8
ENDBRANCH   6   7
ENDBRANCH   5   6
ENDBRANCH   4   5
ENDBRANCH   3   4
ENDBRANCH   2   3
ENDBRANCH   1   2
BRANCH   1  17
ATOM     17  C   UNL     1       1.101  44.898   8.345  1.00  0.00     0.000 C 
BRANCH  17  18
ATOM     18  C   UNL     1      -0.127  44.612   7.452  1.00  0.00     0.000 C 
BRANCH  18  19
ATOM     19  C   UNL     1      -0.833  45.891   6.948  1.00  0.00     0.000 C 
BRANCH  19  20
ATOM     20  C   UNL     1      -1.099  46.931   8.054  1.00  0.00     0.000 C 
BRANCH  20  21
ATOM     21  C   UNL     1      -1.099  48.393   7.577  1.00  0.00     0.000 C 
BRANCH  21  22
ATOM     22  C   UNL     1       0.004  49.236   8.243  1.00  0.00    -0.000 C 
BRANCH  22  23
ATOM     23  C   UNL     1       1.307  49.250   7.423  1.00  0.00    -0.000 C 
BRANCH  23  24
ATOM     24  C   UNL     1       2.405  48.316   7.966  1.00  0.00    -0.000 C 
BRANCH  24  25
ATOM     25  C   UNL     1       2.211  47.987   9.457  1.00  0.00    -0.000 C 
BRANCH  25  26
ATOM     26  C   UNL     1       3.344  47.114  10.020  1.00  0.00    -0.000 C 
BRANCH  26  27
ATOM     27  C   UNL     1       4.504  46.931   9.025  1.00  0.00    -0.000 C 
BRANCH  27  28
ATOM     28  C   UNL     1       5.882  46.914   9.711  1.00  0.00    -0.000 C 
BRANCH  28  29
ATOM     29  C   UNL     1       6.792  48.103   9.356  1.00  0.00    -0.003 C 
ATOM     30  C   UNL     1       6.145  49.077   8.370  1.00  0.00     0.004 C 
ENDBRANCH  28  29
ENDBRANCH  27  28
ENDBRANCH  26  27
ENDBRANCH  25  26
ENDBRANCH  24  25
ENDBRANCH  23  24
ENDBRANCH  22  23
ENDBRANCH  21  22
ENDBRANCH  20  21
ENDBRANCH  19  20
ENDBRANCH  18  19
ENDBRANCH  17  18
ENDBRANCH   1  17
TORSDOF 26
ENDMDL
MODEL 7
REMARK VINA RESULT:    -3.515      2.480      7.853
REMARK INTER + INTRA:         -12.760
REMARK INTER:                  -9.323
REMARK INTRA:                  -3.437
REMARK UNBOUND:                -3.903
REMARK SMILES CCCCCCCCCCCCCCCCCCCCCCCCCCCC(=O)[O-]
REMARK SMILES IDX 15 1 16 2 17 3 18 4 19 5 20 6 21 7 22 8 23 9 24 10 25 11
REMARK SMILES IDX 26 12 27 13 28 14 29 15 30 16 14 17 13 18 12 19 11 20 10 21
REMARK SMILES IDX 9 22 8 23 7 24 6 25 5 26 4 27 3 28 2 29 1 30
REMARK H PARENT
REMARK Flexibility Score: inf
ROOT
ATOM      1  C   UNL     1       2.994  47.422   8.818  1.00  0.00     0.000 C 
ENDROOT
BRANCH   1   2
ATOM      2  C   UNL     1       4.511  47.361   9.061  1.00  0.00     0.000 C 
BRANCH   2   3
ATOM      3  C   UNL     1       4.914  46.227  10.018  1.00  0.00     0.000 C 
BRANCH   3   4
ATOM      4  C   UNL     1       3.819  45.900  11.049  1.00  0.00     0.000 C 
BRANCH   4   5
ATOM      5  C   UNL     1       3.950  44.475  11.627  1.00  0.00     0.000 C 
BRANCH   5   6
ATOM      6  C   UNL     1       2.898  44.134  12.702  1.00  0.00     0.000 C 
BRANCH   6   7
ATOM      7  C   UNL     1       1.930  42.994  12.333  1.00  0.00     0.000 C 
BRANCH   7   8
ATOM      8  C   UNL     1       0.432  43.333  12.477  1.00  0.00     0.000 C 
BRANCH   8   9
ATOM      9  C   UNL     1      -0.417  42.249  13.164  1.00  0.00     0.000 C 
BRANCH   9  10
ATOM     10  C   UNL     1       0.396  41.373  14.127  1.00  0.00     0.000 C 
BRANCH  10  11
ATOM     11  C   UNL     1       0.504  39.935  13.598  1.00  0.00     0.000 C 
BRANCH  11  12
ATOM     12  C   UNL     1       1.945  39.392  13.640  1.00  0.00     0.006 C 
BRANCH  12  13
ATOM     13  C   UNL     1       2.845  39.908  12.506  1.00  0.00     0.053 C 
BRANCH  13  14
ATOM     14  C   UNL     1       4.266  40.077  12.947  1.00  0.00     0.041 C 
ATOM     15  O   UNL     1       4.864  39.137  13.536  1.00  0.00    -0.550 OA
ATOM     16  O   UNL     1       4.919  41.284  12.739  1.00  0.00    -0.550 OA
ENDBRANCH  13  14
ENDBRANCH  12  13
ENDBRANCH  11  12
ENDBRANCH  10  11
ENDBRANCH   9  10
ENDBRANCH   8   9
ENDBRANCH   7   8
ENDBRANCH   6   7
ENDBRANCH   5   6
ENDBRANCH   4   5
ENDBRANCH   3   4
ENDBRANCH   2   3
ENDBRANCH   1   2
BRANCH   1  17
ATOM     17  C   UNL     1       2.630  48.070   7.471  1.00  0.00     0.000 C 
BRANCH  17  18
ATOM     18  C   UNL     1       3.334  49.423   7.224  1.00  0.00     0.000 C 
BRANCH  18  19
ATOM     19  C   UNL     1       2.356  50.579   6.914  1.00  0.00     0.000 C 
BRANCH  19  20
ATOM     20  C   UNL     1       1.253  50.760   7.974  1.00  0.00     0.000 C 
BRANCH  20  21
ATOM     21  C   UNL     1      -0.131  51.121   7.409  1.00  0.00     0.000 C 
BRANCH  21  22
ATOM     22  C   UNL     1      -1.122  49.944   7.466  1.00  0.00    -0.000 C 
BRANCH  22  23
ATOM     23  C   UNL     1      -0.946  49.089   8.734  1.00  0.00    -0.000 C 
BRANCH  23  24
ATOM     24  C   UNL     1      -1.003  47.570   8.484  1.00  0.00    -0.000 C 
BRANCH  24  25
ATOM     25  C   UNL     1      -1.014  47.222   6.985  1.00  0.00    -0.000 C 
BRANCH  25  26
ATOM     26  C   UNL     1      -0.208  45.952   6.669  1.00  0.00    -0.000 C 
BRANCH  26  27
ATOM     27  C   UNL     1      -0.456  44.822   7.685  1.00  0.00    -0.000 C 
BRANCH  27  28
ATOM     28  C   UNL     1       0.686  43.791   7.722  1.00  0.00    -0.000 C 
BRANCH  28  29
ATOM     29  C   UNL     1       1.659  43.953   8.903  1.00  0.00    -0.003 C 
ATOM     30  C   UNL     1       2.792  42.927   8.890  1.00  0.00     0.004 C 
ENDBRANCH  28  29
ENDBRANCH  27  28
ENDBRANCH  26  27
ENDBRANCH  25  26
ENDBRANCH  24  25
ENDBRANCH  23  24
ENDBRANCH  22  23
ENDBRANCH  21  22
ENDBRANCH  20  21
ENDBRANCH  19  20
ENDBRANCH  18  19
ENDBRANCH  17  18
ENDBRANCH   1  17
TORSDOF 26
ENDMDL
MODEL 8
REMARK VINA RESULT:    -3.410      2.530      4.214
REMARK INTER + INTRA:         -12.496
REMARK INTER:                  -9.130
REMARK INTRA:                  -3.366
REMARK UNBOUND:                -3.903
REMARK SMILES CCCCCCCCCCCCCCCCCCCCCCCCCCCC(=O)[O-]
REMARK SMILES IDX 15 1 16 2 17 3 18 4 19 5 20 6 21 7 22 8 23 9 24 10 25 11
REMARK SMILES IDX 26 12 27 13 28 14 29 15 30 16 14 17 13 18 12 19 11 20 10 21
REMARK SMILES IDX 9 22 8 23 7 24 6 25 5 26 4 27 3 28 2 29 1 30
REMARK H PARENT
REMARK Flexibility Score: inf
ROOT
ATOM      1  C   UNL     1       4.716  44.110  11.195  1.00  0.00     0.000 C 
ENDROOT
BRANCH   1   2
ATOM      2  C   UNL     1       3.952  45.324  11.746  1.00  0.00     0.000 C 
BRANCH   2   3
ATOM      3  C   UNL     1       3.724  46.414  10.687  1.00  0.00     0.000 C 
BRANCH   3   4
ATOM      4  C   UNL     1       4.862  46.487   9.652  1.00  0.00     0.000 C 
BRANCH   4   5
ATOM      5  C   UNL     1       4.794  47.757   8.777  1.00  0.00     0.000 C 
BRANCH   5   6
ATOM      6  C   UNL     1       3.677  47.729   7.715  1.00  0.00     0.000 C 
BRANCH   6   7
ATOM      7  C   UNL     1       3.627  48.956   6.786  1.00  0.00     0.000 C 
BRANCH   7   8
ATOM      8  C   UNL     1       2.753  50.124   7.288  1.00  0.00     0.000 C 
BRANCH   8   9
ATOM      9  C   UNL     1       1.306  49.746   7.648  1.00  0.00     0.000 C 
BRANCH   9  10
ATOM     10  C   UNL     1       1.148  49.302   9.109  1.00  0.00     0.000 C 
BRANCH  10  11
ATOM     11  C   UNL     1       0.228  48.078   9.213  1.00  0.00     0.000 C 
BRANCH  11  12
ATOM     12  C   UNL     1      -0.218  47.549   7.837  1.00  0.00     0.006 C 
BRANCH  12  13
ATOM     13  C   UNL     1      -0.674  46.080   7.845  1.00  0.00     0.053 C 
BRANCH  13  14
ATOM     14  C   UNL     1      -0.751  45.507   6.464  1.00  0.00     0.041 C 
ATOM     15  O   UNL     1      -1.100  46.232   5.494  1.00  0.00    -0.550 OA
ATOM     16  O   UNL     1      -0.473  44.164   6.252  1.00  0.00    -0.550 OA
ENDBRANCH  13  14
ENDBRANCH  12  13
ENDBRANCH  11  12
ENDBRANCH  10  11
ENDBRANCH   9  10
ENDBRANCH   8   9
ENDBRANCH   7   8
ENDBRANCH   6   7
ENDBRANCH   5   6
ENDBRANCH   4   5
ENDBRANCH   3   4
ENDBRANCH   2   3
ENDBRANCH   1   2
BRANCH   1  17
ATOM     17  C   UNL     1       3.793  43.071  10.537  1.00  0.00     0.000 C 
BRANCH  17  18
ATOM     18  C   UNL     1       3.618  43.273   9.015  1.00  0.00     0.000 C 
BRANCH  18  19
ATOM     19  C   UNL     1       2.228  43.824   8.623  1.00  0.00     0.000 C 
BRANCH  19  20
ATOM     20  C   UNL     1       1.142  43.585   9.690  1.00  0.00     0.000 C 
BRANCH  20  21
ATOM     21  C   UNL     1       0.837  44.801  10.582  1.00  0.00     0.000 C 
BRANCH  21  22
ATOM     22  C   UNL     1      -0.063  44.449  11.780  1.00  0.00    -0.000 C 
BRANCH  22  23
ATOM     23  C   UNL     1       0.501  43.288  12.618  1.00  0.00    -0.000 C 
BRANCH  23  24
ATOM     24  C   UNL     1      -0.554  42.546  13.461  1.00  0.00    -0.000 C 
BRANCH  24  25
ATOM     25  C   UNL     1      -0.146  41.094  13.767  1.00  0.00    -0.000 C 
BRANCH  25  26
ATOM     26  C   UNL     1       1.308  40.794  13.371  1.00  0.00    -0.000 C 
BRANCH  26  27
ATOM     27  C   UNL     1       1.614  39.285  13.330  1.00  0.00    -0.000 C 
BRANCH  27  28
ATOM     28  C   UNL     1       2.969  38.969  12.671  1.00  0.00    -0.000 C 
BRANCH  28  29
ATOM     29  C   UNL     1       3.910  40.178  12.525  1.00  0.00    -0.003 C 
ATOM     30  C   UNL     1       5.075  40.151  13.514  1.00  0.00     0.004 C 
ENDBRANCH  28  29
ENDBRANCH  27  28
ENDBRANCH  26  27
ENDBRANCH  25  26
ENDBRANCH  24  25
ENDBRANCH  23  24
ENDBRANCH  22  23
ENDBRANCH  21  22
ENDBRANCH  20  21
ENDBRANCH  19  20
ENDBRANCH  18  19
ENDBRANCH  17  18
ENDBRANCH   1  17
TORSDOF 26
ENDMDL
MODEL 9
REMARK VINA RESULT:    -3.282      2.411      4.626
REMARK INTER + INTRA:         -12.174
REMARK INTER:                  -9.467
REMARK INTRA:                  -2.708
REMARK UNBOUND:                -3.903
REMARK SMILES CCCCCCCCCCCCCCCCCCCCCCCCCCCC(=O)[O-]
REMARK SMILES IDX 15 1 16 2 17 3 18 4 19 5 20 6 21 7 22 8 23 9 24 10 25 11
REMARK SMILES IDX 26 12 27 13 28 14 29 15 30 16 14 17 13 18 12 19 11 20 10 21
REMARK SMILES IDX 9 22 8 23 7 24 6 25 5 26 4 27 3 28 2 29 1 30
REMARK H PARENT
REMARK Flexibility Score: inf
ROOT
ATOM      1  C   UNL     1       4.275  46.602   9.409  1.00  0.00     0.000 C 
ENDROOT
BRANCH   1   2
ATOM      2  C   UNL     1       2.946  47.374   9.364  1.00  0.00     0.000 C 
BRANCH   2   3
ATOM      3  C   UNL     1       2.545  47.783   7.938  1.00  0.00     0.000 C 
BRANCH   3   4
ATOM      4  C   UNL     1       3.646  48.576   7.212  1.00  0.00     0.000 C 
BRANCH   4   5
ATOM      5  C   UNL     1       3.408  50.100   7.249  1.00  0.00     0.000 C 
BRANCH   5   6
ATOM      6  C   UNL     1       1.974  50.522   6.871  1.00  0.00     0.000 C 
BRANCH   6   7
ATOM      7  C   UNL     1       1.100  50.999   8.046  1.00  0.00     0.000 C 
BRANCH   7   8
ATOM      8  C   UNL     1      -0.406  51.122   7.736  1.00  0.00     0.000 C 
BRANCH   8   9
ATOM      9  C   UNL     1      -1.040  49.878   7.088  1.00  0.00     0.000 C 
BRANCH   9  10
ATOM     10  C   UNL     1      -1.125  48.682   8.045  1.00  0.00     0.000 C 
BRANCH  10  11
ATOM     11  C   UNL     1      -0.996  47.358   7.279  1.00  0.00     0.000 C 
BRANCH  11  12
ATOM     12  C   UNL     1      -0.895  46.137   8.212  1.00  0.00     0.006 C 
BRANCH  12  13
ATOM     13  C   UNL     1      -0.426  46.471   9.638  1.00  0.00     0.053 C 
BRANCH  13  14
ATOM     14  C   UNL     1       0.026  45.254  10.382  1.00  0.00     0.041 C 
ATOM     15  O   UNL     1       0.727  44.381   9.805  1.00  0.00    -0.550 OA
ATOM     16  O   UNL     1      -0.357  45.065  11.703  1.00  0.00    -0.550 OA
ENDBRANCH  13  14
ENDBRANCH  12  13
ENDBRANCH  11  12
ENDBRANCH  10  11
ENDBRANCH   9  10
ENDBRANCH   8   9
ENDBRANCH   7   8
ENDBRANCH   6   7
ENDBRANCH   5   6
ENDBRANCH   4   5
ENDBRANCH   3   4
ENDBRANCH   2   3
ENDBRANCH   1   2
BRANCH   1  17
ATOM     17  C   UNL     1       4.078  45.079   9.500  1.00  0.00     0.000 C 
BRANCH  17  18
ATOM     18  C   UNL     1       4.515  44.478  10.854  1.00  0.00     0.000 C 
BRANCH  18  19
ATOM     19  C   UNL     1       3.406  44.514  11.930  1.00  0.00     0.000 C 
BRANCH  19  20
ATOM     20  C   UNL     1       2.915  43.120  12.364  1.00  0.00     0.000 C 
BRANCH  20  21
ATOM     21  C   UNL     1       3.722  41.944  11.787  1.00  0.00     0.000 C 
BRANCH  21  22
ATOM     22  C   UNL     1       4.843  41.472  12.730  1.00  0.00    -0.000 C 
BRANCH  22  23
ATOM     23  C   UNL     1       4.879  39.940  12.879  1.00  0.00    -0.000 C 
BRANCH  23  24
ATOM     24  C   UNL     1       3.667  39.350  13.624  1.00  0.00    -0.000 C 
BRANCH  24  25
ATOM     25  C   UNL     1       2.482  39.063  12.684  1.00  0.00    -0.000 C 
BRANCH  25  26
ATOM     26  C   UNL     1       1.123  39.215  13.385  1.00  0.00    -0.000 C 
BRANCH  26  27
ATOM     27  C   UNL     1       0.688  40.686  13.526  1.00  0.00    -0.000 C 
BRANCH  27  28
ATOM     28  C   UNL     1      -0.579  40.854  14.383  1.00  0.00    -0.000 C 
BRANCH  28  29
ATOM     29  C   UNL     1      -0.363  40.653  15.894  1.00  0.00    -0.003 C 
ATOM     30  C   UNL     1      -0.722  41.889  16.719  1.00  0.00     0.004 C 
ENDBRANCH  28  29
ENDBRANCH  27  28
ENDBRANCH  26  27
ENDBRANCH  25  26
ENDBRANCH  24  25
ENDBRANCH  23  24
ENDBRANCH  22  23
ENDBRANCH  21  22
ENDBRANCH  20  21
ENDBRANCH  19  20
ENDBRANCH  18  19
ENDBRANCH  17  18
ENDBRANCH   1  17
TORSDOF 26
ENDMDL
