MODEL 1
REMARK VINA RESULT:    -8.558      0.000      0.000
REMARK INTER + INTRA:         -10.662
REMARK INTER:                 -10.309
REMARK INTRA:                  -0.352
REMARK UNBOUND:                -0.352
REMARK SMILES Oc1cc(O)c2cc(O)c(-c3ccc(O)c(O)c3)[o+]c2c1
REMARK SMILES IDX 10 1 19 2 20 3 21 4 2 5 3 6 4 7 6 8 7 9 8 10 11 11 12 12
REMARK SMILES IDX 13 13 14 14 18 15 16 16 15 17 17 19 9 21 1 23 5 25
REMARK H PARENT 15 18 17 20 9 22 1 24 5 26
REMARK Flexibility Score: inf
ROOT
ATOM      1  C   UNL     1      -2.766   0.086  10.252  1.00  0.00     0.402 A 
ATOM      2  O   UNL     1      -4.038  -0.219  10.006  1.00  0.00    -0.202 OA
ATOM      3  C   UNL     1      -4.753  -1.040  10.769  1.00  0.00     0.368 A 
ATOM      4  C   UNL     1      -6.083  -1.297  10.430  1.00  0.00     0.162 A 
ATOM      5  C   UNL     1      -6.858  -2.153  11.214  1.00  0.00     0.128 A 
ATOM      6  C   UNL     1      -6.300  -2.757  12.346  1.00  0.00     0.093 A 
ATOM      7  C   UNL     1      -4.969  -2.516  12.708  1.00  0.00     0.136 A 
ATOM      8  C   UNL     1      -4.177  -1.648  11.910  1.00  0.00     0.125 A 
ATOM      9  C   UNL     1      -2.831  -1.359  12.188  1.00  0.00     0.078 A 
ATOM     10  C   UNL     1      -2.112  -0.497  11.353  1.00  0.00     0.223 A 
ENDROOT
BRANCH   1  11
ATOM     11  C   UNL     1      -2.080   1.022   9.334  1.00  0.00     0.087 A 
ATOM     12  C   UNL     1      -1.552   0.542   8.127  1.00  0.00     0.022 A 
ATOM     13  C   UNL     1      -0.917   1.410   7.238  1.00  0.00     0.051 A 
ATOM     14  C   UNL     1      -0.812   2.776   7.525  1.00  0.00     0.157 A 
ATOM     15  C   UNL     1      -1.996   2.396   9.616  1.00  0.00     0.068 A 
ATOM     16  C   UNL     1      -1.364   3.277   8.728  1.00  0.00     0.158 A 
BRANCH  14  17
ATOM     17  O   UNL     1      -0.159   3.590   6.598  1.00  0.00    -0.504 OA
ATOM     18  H   UNL     1      -0.008   4.581   6.723  1.00  0.00     0.293 HD
ENDBRANCH  14  17
BRANCH  16  19
ATOM     19  O   UNL     1      -1.315   4.628   9.075  1.00  0.00    -0.504 OA
ATOM     20  H   UNL     1      -1.574   5.380   8.452  1.00  0.00     0.293 HD
ENDBRANCH  16  19
ENDBRANCH   1  11
BRANCH  10  21
ATOM     21  O   UNL     1      -0.763  -0.249  11.600  1.00  0.00    -0.500 OA
ATOM     22  H   UNL     1      -0.044  -0.926  11.367  1.00  0.00     0.294 HD
ENDBRANCH  10  21
BRANCH   5  23
ATOM     23  O   UNL     1      -8.184  -2.396  10.860  1.00  0.00    -0.507 OA
ATOM     24  H   UNL     1      -8.942  -2.249  11.515  1.00  0.00     0.293 HD
ENDBRANCH   5  23
BRANCH   7  25
ATOM     25  O   UNL     1      -4.487  -3.154  13.853  1.00  0.00    -0.507 OA
ATOM     26  H   UNL     1      -4.689  -4.112  14.102  1.00  0.00     0.293 HD
ENDBRANCH   7  25
TORSDOF 6
ENDMDL
MODEL 2
REMARK VINA RESULT:    -8.550      1.831      2.956
REMARK INTER + INTRA:         -10.652
REMARK INTER:                 -10.322
REMARK INTRA:                  -0.330
REMARK UNBOUND:                -0.352
REMARK SMILES Oc1cc(O)c2cc(O)c(-c3ccc(O)c(O)c3)[o+]c2c1
REMARK SMILES IDX 10 1 19 2 20 3 21 4 2 5 3 6 4 7 6 8 7 9 8 10 11 11 12 12
REMARK SMILES IDX 13 13 14 14 18 15 16 16 15 17 17 19 9 21 1 23 5 25
REMARK H PARENT 15 18 17 20 9 22 1 24 5 26
REMARK Flexibility Score: inf
ROOT
ATOM      1  C   UNL     1      -3.519   0.333  10.047  1.00  0.00     0.402 A 
ATOM      2  O   UNL     1      -2.863  -0.812  10.220  1.00  0.00    -0.202 OA
ATOM      3  C   UNL     1      -3.267  -1.766  11.054  1.00  0.00     0.368 A 
ATOM      4  C   UNL     1      -2.512  -2.935  11.165  1.00  0.00     0.162 A 
ATOM      5  C   UNL     1      -2.913  -3.954  12.029  1.00  0.00     0.128 A 
ATOM      6  C   UNL     1      -4.078  -3.805  12.789  1.00  0.00     0.093 A 
ATOM      7  C   UNL     1      -4.854  -2.643  12.695  1.00  0.00     0.136 A 
ATOM      8  C   UNL     1      -4.447  -1.602  11.819  1.00  0.00     0.125 A 
ATOM      9  C   UNL     1      -5.153  -0.398  11.671  1.00  0.00     0.078 A 
ATOM     10  C   UNL     1      -4.687   0.584  10.790  1.00  0.00     0.223 A 
ENDROOT
BRANCH   1  11
ATOM     11  C   UNL     1      -2.973   1.314   9.082  1.00  0.00     0.087 A 
ATOM     12  C   UNL     1      -1.846   2.071   9.430  1.00  0.00     0.022 A 
ATOM     13  C   UNL     1      -1.304   2.988   8.529  1.00  0.00     0.051 A 
ATOM     14  C   UNL     1      -1.864   3.156   7.257  1.00  0.00     0.157 A 
ATOM     15  C   UNL     1      -3.526   1.463   7.798  1.00  0.00     0.068 A 
ATOM     16  C   UNL     1      -2.986   2.378   6.885  1.00  0.00     0.158 A 
BRANCH  14  17
ATOM     17  O   UNL     1      -1.279   4.094   6.405  1.00  0.00    -0.504 OA
ATOM     18  H   UNL     1      -0.311   4.376   6.454  1.00  0.00     0.293 HD
ENDBRANCH  14  17
BRANCH  16  19
ATOM     19  O   UNL     1      -3.587   2.476   5.628  1.00  0.00    -0.504 OA
ATOM     20  H   UNL     1      -4.506   2.865   5.471  1.00  0.00     0.293 HD
ENDBRANCH  16  19
ENDBRANCH   1  11
BRANCH  10  21
ATOM     21  O   UNL     1      -5.360   1.800  10.680  1.00  0.00    -0.500 OA
ATOM     22  H   UNL     1      -6.373   1.852  10.690  1.00  0.00     0.294 HD
ENDBRANCH  10  21
BRANCH   5  23
ATOM     23  O   UNL     1      -2.146  -5.114  12.126  1.00  0.00    -0.507 OA
ATOM     24  H   UNL     1      -2.049  -5.752  11.345  1.00  0.00     0.293 HD
ENDBRANCH   5  23
BRANCH   7  25
ATOM     25  O   UNL     1      -6.005  -2.571  13.484  1.00  0.00    -0.507 OA
ATOM     26  H   UNL     1      -6.883  -3.015  13.254  1.00  0.00     0.293 HD
ENDBRANCH   7  25
TORSDOF 6
ENDMDL
MODEL 3
REMARK VINA RESULT:    -8.443      1.384      3.085
REMARK INTER + INTRA:         -10.523
REMARK INTER:                 -10.322
REMARK INTRA:                  -0.201
REMARK UNBOUND:                -0.352
REMARK SMILES Oc1cc(O)c2cc(O)c(-c3ccc(O)c(O)c3)[o+]c2c1
REMARK SMILES IDX 10 1 19 2 20 3 21 4 2 5 3 6 4 7 6 8 7 9 8 10 11 11 12 12
REMARK SMILES IDX 13 13 14 14 18 15 16 16 15 17 17 19 9 21 1 23 5 25
REMARK H PARENT 15 18 17 20 9 22 1 24 5 26
REMARK Flexibility Score: inf
ROOT
ATOM      1  C   UNL     1      -3.865   0.304   9.046  1.00  0.00     0.402 A 
ATOM      2  O   UNL     1      -3.589  -0.109  10.281  1.00  0.00    -0.202 OA
ATOM      3  C   UNL     1      -4.417  -0.859  11.002  1.00  0.00     0.368 A 
ATOM      4  C   UNL     1      -4.037  -1.245  12.289  1.00  0.00     0.162 A 
ATOM      5  C   UNL     1      -4.884  -2.034  13.067  1.00  0.00     0.128 A 
ATOM      6  C   UNL     1      -6.121  -2.442  12.556  1.00  0.00     0.093 A 
ATOM      7  C   UNL     1      -6.525  -2.070  11.268  1.00  0.00     0.136 A 
ATOM      8  C   UNL     1      -5.666  -1.264  10.474  1.00  0.00     0.125 A 
ATOM      9  C   UNL     1      -5.994  -0.831   9.179  1.00  0.00     0.078 A 
ATOM     10  C   UNL     1      -5.098  -0.034   8.459  1.00  0.00     0.223 A 
ENDROOT
BRANCH   1  11
ATOM     11  C   UNL     1      -2.856   1.127   8.341  1.00  0.00     0.087 A 
ATOM     12  C   UNL     1      -3.134   2.474   8.068  1.00  0.00     0.022 A 
ATOM     13  C   UNL     1      -2.191   3.274   7.421  1.00  0.00     0.051 A 
ATOM     14  C   UNL     1      -0.946   2.752   7.049  1.00  0.00     0.157 A 
ATOM     15  C   UNL     1      -1.600   0.605   7.990  1.00  0.00     0.068 A 
ATOM     16  C   UNL     1      -0.644   1.401   7.344  1.00  0.00     0.158 A 
BRANCH  14  17
ATOM     17  O   UNL     1      -0.050   3.601   6.398  1.00  0.00    -0.504 OA
ATOM     18  H   UNL     1       0.234   4.503   6.754  1.00  0.00     0.293 HD
ENDBRANCH  14  17
BRANCH  16  19
ATOM     19  O   UNL     1       0.582   0.815   7.022  1.00  0.00    -0.504 OA
ATOM     20  H   UNL     1       1.285   1.258   6.448  1.00  0.00     0.293 HD
ENDBRANCH  16  19
ENDBRANCH   1  11
BRANCH  10  21
ATOM     21  O   UNL     1      -5.443   0.437   7.193  1.00  0.00    -0.500 OA
ATOM     22  H   UNL     1      -6.384   0.342   6.826  1.00  0.00     0.294 HD
ENDBRANCH  10  21
BRANCH   5  23
ATOM     23  O   UNL     1      -4.488  -2.410  14.350  1.00  0.00    -0.507 OA
ATOM     24  H   UNL     1      -5.055  -2.199  15.162  1.00  0.00     0.293 HD
ENDBRANCH   5  23
BRANCH   7  25
ATOM     25  O   UNL     1      -7.772  -2.520  10.828  1.00  0.00    -0.507 OA
ATOM     26  H   UNL     1      -8.084  -2.490   9.868  1.00  0.00     0.293 HD
ENDBRANCH   7  25
TORSDOF 6
ENDMDL
MODEL 4
REMARK VINA RESULT:    -8.431      1.962      2.595
REMARK INTER + INTRA:         -10.509
REMARK INTER:                 -10.326
REMARK INTRA:                  -0.183
REMARK UNBOUND:                -0.352
REMARK SMILES Oc1cc(O)c2cc(O)c(-c3ccc(O)c(O)c3)[o+]c2c1
REMARK SMILES IDX 10 1 19 2 20 3 21 4 2 5 3 6 4 7 6 8 7 9 8 10 11 11 12 12
REMARK SMILES IDX 13 13 14 14 18 15 16 16 15 17 17 19 9 21 1 23 5 25
REMARK H PARENT 15 18 17 20 9 22 1 24 5 26
REMARK Flexibility Score: inf
ROOT
ATOM      1  C   UNL     1      -2.866   1.162  10.533  1.00  0.00     0.402 A 
ATOM      2  O   UNL     1      -3.180  -0.131  10.586  1.00  0.00    -0.202 OA
ATOM      3  C   UNL     1      -3.585  -0.738  11.697  1.00  0.00     0.368 A 
ATOM      4  C   UNL     1      -3.894  -2.099  11.653  1.00  0.00     0.162 A 
ATOM      5  C   UNL     1      -4.324  -2.763  12.802  1.00  0.00     0.128 A 
ATOM      6  C   UNL     1      -4.447  -2.061  14.007  1.00  0.00     0.093 A 
ATOM      7  C   UNL     1      -4.144  -0.696  14.078  1.00  0.00     0.136 A 
ATOM      8  C   UNL     1      -3.703  -0.018  12.910  1.00  0.00     0.125 A 
ATOM      9  C   UNL     1      -3.364   1.344  12.891  1.00  0.00     0.078 A 
ATOM     10  C   UNL     1      -2.932   1.942  11.703  1.00  0.00     0.223 A 
ENDROOT
BRANCH   1  11
ATOM     11  C   UNL     1      -2.438   1.726   9.233  1.00  0.00     0.087 A 
ATOM     12  C   UNL     1      -1.121   2.183   9.080  1.00  0.00     0.022 A 
ATOM     13  C   UNL     1      -0.691   2.701   7.858  1.00  0.00     0.051 A 
ATOM     14  C   UNL     1      -1.558   2.758   6.761  1.00  0.00     0.157 A 
ATOM     15  C   UNL     1      -3.306   1.761   8.128  1.00  0.00     0.068 A 
ATOM     16  C   UNL     1      -2.881   2.276   6.896  1.00  0.00     0.158 A 
BRANCH  14  17
ATOM     17  O   UNL     1      -1.068   3.295   5.569  1.00  0.00    -0.504 OA
ATOM     18  H   UNL     1      -0.794   4.260   5.454  1.00  0.00     0.293 HD
ENDBRANCH  14  17
BRANCH  16  19
ATOM     19  O   UNL     1      -3.797   2.282   5.842  1.00  0.00    -0.504 OA
ATOM     20  H   UNL     1      -4.798   2.343   5.965  1.00  0.00     0.293 HD
ENDBRANCH  16  19
ENDBRANCH   1  11
BRANCH  10  21
ATOM     21  O   UNL     1      -2.548   3.283  11.693  1.00  0.00    -0.500 OA
ATOM     22  H   UNL     1      -3.206   4.024  11.481  1.00  0.00     0.294 HD
ENDBRANCH  10  21
BRANCH   5  23
ATOM     23  O   UNL     1      -4.628  -4.121  12.739  1.00  0.00    -0.507 OA
ATOM     24  H   UNL     1      -5.540  -4.473  13.004  1.00  0.00     0.293 HD
ENDBRANCH   5  23
BRANCH   7  25
ATOM     25  O   UNL     1      -4.295  -0.066  15.316  1.00  0.00    -0.507 OA
ATOM     26  H   UNL     1      -4.966  -0.341  16.019  1.00  0.00     0.293 HD
ENDBRANCH   7  25
TORSDOF 6
ENDMDL
MODEL 5
REMARK VINA RESULT:    -8.418      1.900      2.753
REMARK INTER + INTRA:         -10.492
REMARK INTER:                 -10.144
REMARK INTRA:                  -0.349
REMARK UNBOUND:                -0.352
REMARK SMILES Oc1cc(O)c2cc(O)c(-c3ccc(O)c(O)c3)[o+]c2c1
REMARK SMILES IDX 10 1 19 2 20 3 21 4 2 5 3 6 4 7 6 8 7 9 8 10 11 11 12 12
REMARK SMILES IDX 13 13 14 14 18 15 16 16 15 17 17 19 9 21 1 23 5 25
REMARK H PARENT 15 18 17 20 9 22 1 24 5 26
REMARK Flexibility Score: inf
ROOT
ATOM      1  C   UNL     1      -2.817  -0.003   9.559  1.00  0.00     0.402 A 
ATOM      2  O   UNL     1      -2.973   0.406  10.816  1.00  0.00    -0.202 OA
ATOM      3  C   UNL     1      -3.451  -0.372  11.783  1.00  0.00     0.368 A 
ATOM      4  C   UNL     1      -3.576   0.146  13.073  1.00  0.00     0.162 A 
ATOM      5  C   UNL     1      -4.072  -0.647  14.107  1.00  0.00     0.128 A 
ATOM      6  C   UNL     1      -4.446  -1.971  13.852  1.00  0.00     0.093 A 
ATOM      7  C   UNL     1      -4.330  -2.516  12.566  1.00  0.00     0.136 A 
ATOM      8  C   UNL     1      -3.828  -1.709  11.511  1.00  0.00     0.125 A 
ATOM      9  C   UNL     1      -3.691  -2.166  10.190  1.00  0.00     0.078 A 
ATOM     10  C   UNL     1      -3.193  -1.311   9.201  1.00  0.00     0.223 A 
ENDROOT
BRANCH   1  11
ATOM     11  C   UNL     1      -2.264   0.955   8.575  1.00  0.00     0.087 A 
ATOM     12  C   UNL     1      -3.136   1.780   7.851  1.00  0.00     0.022 A 
ATOM     13  C   UNL     1      -2.636   2.703   6.931  1.00  0.00     0.051 A 
ATOM     14  C   UNL     1      -1.258   2.834   6.728  1.00  0.00     0.157 A 
ATOM     15  C   UNL     1      -0.878   1.098   8.390  1.00  0.00     0.068 A 
ATOM     16  C   UNL     1      -0.366   2.025   7.472  1.00  0.00     0.158 A 
BRANCH  14  17
ATOM     17  O   UNL     1      -0.822   3.771   5.789  1.00  0.00    -0.504 OA
ATOM     18  H   UNL     1      -0.971   4.766   5.872  1.00  0.00     0.293 HD
ENDBRANCH  14  17
BRANCH  16  19
ATOM     19  O   UNL     1       1.021   2.112   7.339  1.00  0.00    -0.504 OA
ATOM     20  H   UNL     1       1.523   2.979   7.219  1.00  0.00     0.293 HD
ENDBRANCH  16  19
ENDBRANCH   1  11
BRANCH  10  21
ATOM     21  O   UNL     1      -3.102  -1.747   7.880  1.00  0.00    -0.500 OA
ATOM     22  H   UNL     1      -3.375  -1.155   7.103  1.00  0.00     0.294 HD
ENDBRANCH  10  21
BRANCH   5  23
ATOM     23  O   UNL     1      -4.189  -0.112  15.389  1.00  0.00    -0.507 OA
ATOM     24  H   UNL     1      -3.669   0.711  15.668  1.00  0.00     0.293 HD
ENDBRANCH   5  23
BRANCH   7  25
ATOM     25  O   UNL     1      -4.721  -3.846  12.392  1.00  0.00    -0.507 OA
ATOM     26  H   UNL     1      -5.426  -4.153  11.738  1.00  0.00     0.293 HD
ENDBRANCH   7  25
TORSDOF 6
ENDMDL
MODEL 6
REMARK VINA RESULT:    -8.374      1.585      1.842
REMARK INTER + INTRA:         -10.440
REMARK INTER:                 -10.276
REMARK INTRA:                  -0.164
REMARK UNBOUND:                -0.352
REMARK SMILES Oc1cc(O)c2cc(O)c(-c3ccc(O)c(O)c3)[o+]c2c1
REMARK SMILES IDX 10 1 19 2 20 3 21 4 2 5 3 6 4 7 6 8 7 9 8 10 11 11 12 12
REMARK SMILES IDX 13 13 14 14 18 15 16 16 15 17 17 19 9 21 1 23 5 25
REMARK H PARENT 15 18 17 20 9 22 1 24 5 26
REMARK Flexibility Score: inf
ROOT
ATOM      1  C   UNL     1      -2.064  -0.285   9.535  1.00  0.00     0.402 A 
ATOM      2  O   UNL     1      -3.196  -0.353  10.232  1.00  0.00    -0.202 OA
ATOM      3  C   UNL     1      -3.525  -1.394  10.990  1.00  0.00     0.368 A 
ATOM      4  C   UNL     1      -4.735  -1.372  11.686  1.00  0.00     0.162 A 
ATOM      5  C   UNL     1      -5.106  -2.449  12.491  1.00  0.00     0.128 A 
ATOM      6  C   UNL     1      -4.260  -3.559  12.603  1.00  0.00     0.093 A 
ATOM      7  C   UNL     1      -3.040  -3.605  11.916  1.00  0.00     0.136 A 
ATOM      8  C   UNL     1      -2.662  -2.511  11.093  1.00  0.00     0.125 A 
ATOM      9  C   UNL     1      -1.466  -2.478  10.358  1.00  0.00     0.078 A 
ATOM     10  C   UNL     1      -1.164  -1.366   9.564  1.00  0.00     0.223 A 
ENDROOT
BRANCH   1  11
ATOM     11  C   UNL     1      -1.806   0.934   8.736  1.00  0.00     0.087 A 
ATOM     12  C   UNL     1      -1.730   0.839   7.339  1.00  0.00     0.022 A 
ATOM     13  C   UNL     1      -1.506   1.978   6.564  1.00  0.00     0.051 A 
ATOM     14  C   UNL     1      -1.370   3.235   7.164  1.00  0.00     0.157 A 
ATOM     15  C   UNL     1      -1.692   2.197   9.341  1.00  0.00     0.068 A 
ATOM     16  C   UNL     1      -1.470   3.347   8.572  1.00  0.00     0.158 A 
BRANCH  14  17
ATOM     17  O   UNL     1      -1.139   4.334   6.334  1.00  0.00    -0.504 OA
ATOM     18  H   UNL     1      -0.302   4.897   6.362  1.00  0.00     0.293 HD
ENDBRANCH  14  17
BRANCH  16  19
ATOM     19  O   UNL     1      -1.365   4.568   9.240  1.00  0.00    -0.504 OA
ATOM     20  H   UNL     1      -0.935   4.680  10.147  1.00  0.00     0.293 HD
ENDBRANCH  16  19
ENDBRANCH   1  11
BRANCH  10  21
ATOM     21  O   UNL     1      -0.001  -1.352   8.795  1.00  0.00    -0.500 OA
ATOM     22  H   UNL     1       0.493  -2.206   8.559  1.00  0.00     0.294 HD
ENDBRANCH  10  21
BRANCH   5  23
ATOM     23  O   UNL     1      -6.318  -2.409  13.178  1.00  0.00    -0.507 OA
ATOM     24  H   UNL     1      -6.606  -3.165  13.788  1.00  0.00     0.293 HD
ENDBRANCH   5  23
BRANCH   7  25
ATOM     25  O   UNL     1      -2.251  -4.746  12.082  1.00  0.00    -0.507 OA
ATOM     26  H   UNL     1      -2.382  -5.610  11.577  1.00  0.00     0.293 HD
ENDBRANCH   7  25
TORSDOF 6
ENDMDL
MODEL 7
REMARK VINA RESULT:    -8.186      1.929      6.831
REMARK INTER + INTRA:         -10.213
REMARK INTER:                 -10.073
REMARK INTRA:                  -0.140
REMARK UNBOUND:                -0.352
REMARK SMILES Oc1cc(O)c2cc(O)c(-c3ccc(O)c(O)c3)[o+]c2c1
REMARK SMILES IDX 10 1 19 2 20 3 21 4 2 5 3 6 4 7 6 8 7 9 8 10 11 11 12 12
REMARK SMILES IDX 13 13 14 14 18 15 16 16 15 17 17 19 9 21 1 23 5 25
REMARK H PARENT 15 18 17 20 9 22 1 24 5 26
REMARK Flexibility Score: inf
ROOT
ATOM      1  C   UNL     1      -2.792   0.056  10.946  1.00  0.00     0.402 A 
ATOM      2  O   UNL     1      -2.863   0.082   9.617  1.00  0.00    -0.202 OA
ATOM      3  C   UNL     1      -2.517   1.139   8.888  1.00  0.00     0.368 A 
ATOM      4  C   UNL     1      -2.625   1.070   7.498  1.00  0.00     0.162 A 
ATOM      5  C   UNL     1      -2.265   2.161   6.707  1.00  0.00     0.128 A 
ATOM      6  C   UNL     1      -1.794   3.333   7.310  1.00  0.00     0.093 A 
ATOM      7  C   UNL     1      -1.675   3.428   8.702  1.00  0.00     0.136 A 
ATOM      8  C   UNL     1      -2.042   2.319   9.510  1.00  0.00     0.125 A 
ATOM      9  C   UNL     1      -1.970   2.329  10.912  1.00  0.00     0.078 A 
ATOM     10  C   UNL     1      -2.355   1.199  11.642  1.00  0.00     0.223 A 
ENDROOT
BRANCH   1  11
ATOM     11  C   UNL     1      -3.197  -1.184  11.645  1.00  0.00     0.087 A 
ATOM     12  C   UNL     1      -4.286  -1.153  12.529  1.00  0.00     0.022 A 
ATOM     13  C   UNL     1      -4.697  -2.315  13.184  1.00  0.00     0.051 A 
ATOM     14  C   UNL     1      -4.043  -3.532  12.960  1.00  0.00     0.157 A 
ATOM     15  C   UNL     1      -2.552  -2.408  11.400  1.00  0.00     0.068 A 
ATOM     16  C   UNL     1      -2.959  -3.580  12.050  1.00  0.00     0.158 A 
BRANCH  14  17
ATOM     17  O   UNL     1      -4.498  -4.655  13.653  1.00  0.00    -0.504 OA
ATOM     18  H   UNL     1      -5.041  -4.613  14.503  1.00  0.00     0.293 HD
ENDBRANCH  14  17
BRANCH  16  19
ATOM     19  O   UNL     1      -2.271  -4.760  11.761  1.00  0.00    -0.504 OA
ATOM     20  H   UNL     1      -2.376  -5.278  10.901  1.00  0.00     0.293 HD
ENDBRANCH  16  19
ENDBRANCH   1  11
BRANCH  10  21
ATOM     21  O   UNL     1      -2.331   1.225  13.036  1.00  0.00    -0.500 OA
ATOM     22  H   UNL     1      -1.662   0.679  13.568  1.00  0.00     0.294 HD
ENDBRANCH  10  21
BRANCH   5  23
ATOM     23  O   UNL     1      -2.380   2.073   5.321  1.00  0.00    -0.507 OA
ATOM     24  H   UNL     1      -1.793   2.623   4.705  1.00  0.00     0.293 HD
ENDBRANCH   5  23
BRANCH   7  25
ATOM     25  O   UNL     1      -1.192   4.629   9.227  1.00  0.00    -0.507 OA
ATOM     26  H   UNL     1      -1.434   5.544   8.875  1.00  0.00     0.293 HD
ENDBRANCH   7  25
TORSDOF 6
ENDMDL
MODEL 8
REMARK VINA RESULT:    -8.182      1.924      7.045
REMARK INTER + INTRA:         -10.208
REMARK INTER:                 -10.072
REMARK INTRA:                  -0.136
REMARK UNBOUND:                -0.352
REMARK SMILES Oc1cc(O)c2cc(O)c(-c3ccc(O)c(O)c3)[o+]c2c1
REMARK SMILES IDX 10 1 19 2 20 3 21 4 2 5 3 6 4 7 6 8 7 9 8 10 11 11 12 12
REMARK SMILES IDX 13 13 14 14 18 15 16 16 15 17 17 19 9 21 1 23 5 25
REMARK H PARENT 15 18 17 20 9 22 1 24 5 26
REMARK Flexibility Score: inf
ROOT
ATOM      1  C   UNL     1      -4.099   0.076  10.238  1.00  0.00     0.402 A 
ATOM      2  O   UNL     1      -2.831   0.411  10.009  1.00  0.00    -0.202 OA
ATOM      3  C   UNL     1      -2.431   1.048   8.913  1.00  0.00     0.368 A 
ATOM      4  C   UNL     1      -1.079   1.358   8.763  1.00  0.00     0.162 A 
ATOM      5  C   UNL     1      -0.630   2.028   7.625  1.00  0.00     0.128 A 
ATOM      6  C   UNL     1      -1.541   2.392   6.626  1.00  0.00     0.093 A 
ATOM      7  C   UNL     1      -2.903   2.092   6.752  1.00  0.00     0.136 A 
ATOM      8  C   UNL     1      -3.362   1.408   7.909  1.00  0.00     0.125 A 
ATOM      9  C   UNL     1      -4.706   1.054   8.113  1.00  0.00     0.078 A 
ATOM     10  C   UNL     1      -5.082   0.376   9.277  1.00  0.00     0.223 A 
ENDROOT
BRANCH   1  11
ATOM     11  C   UNL     1      -4.421  -0.622  11.503  1.00  0.00     0.087 A 
ATOM     12  C   UNL     1      -4.956  -1.918  11.459  1.00  0.00     0.022 A 
ATOM     13  C   UNL     1      -5.250  -2.602  12.639  1.00  0.00     0.051 A 
ATOM     14  C   UNL     1      -5.001  -2.016  13.885  1.00  0.00     0.157 A 
ATOM     15  C   UNL     1      -4.150  -0.039  12.753  1.00  0.00     0.068 A 
ATOM     16  C   UNL     1      -4.438  -0.719  13.943  1.00  0.00     0.158 A 
BRANCH  14  17
ATOM     17  O   UNL     1      -5.325  -2.750  15.028  1.00  0.00    -0.504 OA
ATOM     18  H   UNL     1      -5.384  -2.355  15.956  1.00  0.00     0.293 HD
ENDBRANCH  14  17
BRANCH  16  19
ATOM     19  O   UNL     1      -4.144  -0.078  15.148  1.00  0.00    -0.504 OA
ATOM     20  H   UNL     1      -3.271   0.390  15.340  1.00  0.00     0.293 HD
ENDBRANCH  16  19
ENDBRANCH   1  11
BRANCH  10  21
ATOM     21  O   UNL     1      -6.407  -0.019   9.459  1.00  0.00    -0.500 OA
ATOM     22  H   UNL     1      -6.712  -0.492  10.303  1.00  0.00     0.294 HD
ENDBRANCH  10  21
BRANCH   5  23
ATOM     23  O   UNL     1       0.724   2.330   7.493  1.00  0.00    -0.507 OA
ATOM     24  H   UNL     1       1.175   3.014   8.090  1.00  0.00     0.293 HD
ENDBRANCH   5  23
BRANCH   7  25
ATOM     25  O   UNL     1      -3.749   2.492   5.715  1.00  0.00    -0.507 OA
ATOM     26  H   UNL     1      -4.139   3.419   5.620  1.00  0.00     0.293 HD
ENDBRANCH   7  25
TORSDOF 6
ENDMDL
MODEL 9
REMARK VINA RESULT:    -8.061      1.392      6.950
REMARK INTER + INTRA:         -10.062
REMARK INTER:                  -9.876
REMARK INTRA:                  -0.187
REMARK UNBOUND:                -0.352
REMARK SMILES Oc1cc(O)c2cc(O)c(-c3ccc(O)c(O)c3)[o+]c2c1
REMARK SMILES IDX 10 1 19 2 20 3 21 4 2 5 3 6 4 7 6 8 7 9 8 10 11 11 12 12
REMARK SMILES IDX 13 13 14 14 18 15 16 16 15 17 17 19 9 21 1 23 5 25
REMARK H PARENT 15 18 17 20 9 22 1 24 5 26
REMARK Flexibility Score: inf
ROOT
ATOM      1  C   UNL     1      -3.155  -0.897   9.952  1.00  0.00     0.402 A 
ATOM      2  O   UNL     1      -3.274   0.421   9.809  1.00  0.00    -0.202 OA
ATOM      3  C   UNL     1      -2.452   1.151   9.061  1.00  0.00     0.368 A 
ATOM      4  C   UNL     1      -2.659   2.529   8.971  1.00  0.00     0.162 A 
ATOM      5  C   UNL     1      -1.815   3.320   8.191  1.00  0.00     0.128 A 
ATOM      6  C   UNL     1      -0.754   2.730   7.494  1.00  0.00     0.093 A 
ATOM      7  C   UNL     1      -0.525   1.350   7.567  1.00  0.00     0.136 A 
ATOM      8  C   UNL     1      -1.382   0.543   8.363  1.00  0.00     0.125 A 
ATOM      9  C   UNL     1      -1.219  -0.845   8.506  1.00  0.00     0.078 A 
ATOM     10  C   UNL     1      -2.101  -1.573   9.311  1.00  0.00     0.223 A 
ENDROOT
BRANCH   1  11
ATOM     11  C   UNL     1      -4.140  -1.600  10.805  1.00  0.00     0.087 A 
ATOM     12  C   UNL     1      -3.716  -2.191  12.004  1.00  0.00     0.022 A 
ATOM     13  C   UNL     1      -4.630  -2.843  12.833  1.00  0.00     0.051 A 
ATOM     14  C   UNL     1      -5.986  -2.905  12.492  1.00  0.00     0.157 A 
ATOM     15  C   UNL     1      -5.504  -1.640  10.469  1.00  0.00     0.068 A 
ATOM     16  C   UNL     1      -6.430  -2.289  11.297  1.00  0.00     0.158 A 
BRANCH  14  17
ATOM     17  O   UNL     1      -6.848  -3.578  13.359  1.00  0.00    -0.504 OA
ATOM     18  H   UNL     1      -6.567  -4.347  13.950  1.00  0.00     0.293 HD
ENDBRANCH  14  17
BRANCH  16  19
ATOM     19  O   UNL     1      -7.768  -2.292  10.900  1.00  0.00    -0.504 OA
ATOM     20  H   UNL     1      -8.133  -1.734  10.142  1.00  0.00     0.293 HD
ENDBRANCH  16  19
ENDBRANCH   1  11
BRANCH  10  21
ATOM     21  O   UNL     1      -1.911  -2.943   9.494  1.00  0.00    -0.500 OA
ATOM     22  H   UNL     1      -2.631  -3.532   9.898  1.00  0.00     0.294 HD
ENDBRANCH  10  21
BRANCH   5  23
ATOM     23  O   UNL     1      -2.038   4.693   8.113  1.00  0.00    -0.507 OA
ATOM     24  H   UNL     1      -2.783   5.078   7.544  1.00  0.00     0.293 HD
ENDBRANCH   5  23
BRANCH   7  25
ATOM     25  O   UNL     1       0.551   0.836   6.840  1.00  0.00    -0.507 OA
ATOM     26  H   UNL     1       1.437   0.568   7.244  1.00  0.00     0.293 HD
ENDBRANCH   7  25
TORSDOF 6
ENDMDL
