MODEL 1
REMARK VINA RESULT:     4.300      0.000      0.000
REMARK INTER + INTRA:           6.718
REMARK INTER:                   7.316
REMARK INTRA:                  -0.598
REMARK UNBOUND:                -0.598
REMARK SMILES CCCCCCCCCCCCCC(=O)[O-]
REMARK SMILES IDX 8 1 9 2 10 3 11 4 12 5 13 6 14 7 15 8 16 9 7 10 6 11 5 12
REMARK SMILES IDX 4 13 3 14 2 15 1 16
REMARK H PARENT
REMARK Flexibility Score: inf
ROOT
ATOM      1  C   UNL     1      -7.577  28.436 -16.717  1.00  0.00     0.000 C 
ENDROOT
BRANCH   1   2
ATOM      2  C   UNL     1      -7.470  28.927 -15.264  1.00  0.00     0.000 C 
BRANCH   2   3
ATOM      3  C   UNL     1      -8.621  29.865 -14.869  1.00  0.00     0.000 C 
BRANCH   3   4
ATOM      4  C   UNL     1      -9.452  30.260 -16.096  1.00  0.00     0.000 C 
BRANCH   4   5
ATOM      5  C   UNL     1      -8.797  31.426 -16.853  1.00  0.00     0.006 C 
BRANCH   5   6
ATOM      6  C   UNL     1      -9.292  32.790 -16.357  1.00  0.00     0.053 C 
BRANCH   6   7
ATOM      7  C   UNL     1      -8.393  33.357 -15.301  1.00  0.00     0.041 C 
ATOM      8  O   UNL     1      -7.273  33.839 -15.614  1.00  0.00    -0.550 OA
ATOM      9  O   UNL     1      -8.807  33.381 -13.975  1.00  0.00    -0.550 OA
ENDBRANCH   6   7
ENDBRANCH   5   6
ENDBRANCH   4   5
ENDBRANCH   3   4
ENDBRANCH   2   3
ENDBRANCH   1   2
BRANCH   1  10
ATOM     10  C   UNL     1      -6.283  28.670 -17.516  1.00  0.00     0.000 C 
BRANCH  10  11
ATOM     11  C   UNL     1      -6.400  28.238 -18.988  1.00  0.00    -0.000 C 
BRANCH  11  12
ATOM     12  C   UNL     1      -7.466  28.984 -19.812  1.00  0.00    -0.000 C 
BRANCH  12  13
ATOM     13  C   UNL     1      -7.020  29.262 -21.258  1.00  0.00    -0.000 C 
BRANCH  13  14
ATOM     14  C   UNL     1      -5.731  28.512 -21.630  1.00  0.00    -0.000 C 
BRANCH  14  15
ATOM     15  C   UNL     1      -5.809  27.851 -23.014  1.00  0.00    -0.003 C 
ATOM     16  C   UNL     1      -4.875  26.646 -23.100  1.00  0.00     0.004 C 
ENDBRANCH  14  15
ENDBRANCH  13  14
ENDBRANCH  12  13
ENDBRANCH  11  12
ENDBRANCH  10  11
ENDBRANCH   1  10
TORSDOF 12
ENDMDL
MODEL 2
REMARK VINA RESULT:     4.515      1.529      1.678
REMARK INTER + INTRA:           7.085
REMARK INTER:                   6.222
REMARK INTRA:                   0.864
REMARK UNBOUND:                -0.598
REMARK SMILES CCCCCCCCCCCCCC(=O)[O-]
REMARK SMILES IDX 8 1 9 2 10 3 11 4 12 5 13 6 14 7 15 8 16 9 7 10 6 11 5 12
REMARK SMILES IDX 4 13 3 14 2 15 1 16
REMARK H PARENT
REMARK Flexibility Score: inf
ROOT
ATOM      1  C   UNL     1      -7.519  28.412 -16.785  1.00  0.00     0.000 C 
ENDROOT
BRANCH   1   2
ATOM      2  C   UNL     1      -7.256  28.518 -15.274  1.00  0.00     0.000 C 
BRANCH   2   3
ATOM      3  C   UNL     1      -8.306  29.372 -14.548  1.00  0.00     0.000 C 
BRANCH   3   4
ATOM      4  C   UNL     1      -8.992  30.340 -15.520  1.00  0.00     0.000 C 
BRANCH   4   5
ATOM      5  C   UNL     1      -8.999  31.771 -14.960  1.00  0.00     0.006 C 
BRANCH   5   6
ATOM      6  C   UNL     1      -8.792  32.824 -16.056  1.00  0.00     0.053 C 
BRANCH   6   7
ATOM      7  C   UNL     1      -9.227  32.321 -17.398  1.00  0.00     0.041 C 
ATOM      8  O   UNL     1      -9.470  33.132 -18.331  1.00  0.00    -0.550 OA
ATOM      9  O   UNL     1      -9.333  30.956 -17.628  1.00  0.00    -0.550 OA
ENDBRANCH   6   7
ENDBRANCH   5   6
ENDBRANCH   4   5
ENDBRANCH   3   4
ENDBRANCH   2   3
ENDBRANCH   1   2
BRANCH   1  10
ATOM     10  C   UNL     1      -6.279  28.764 -17.626  1.00  0.00     0.000 C 
BRANCH  10  11
ATOM     11  C   UNL     1      -6.345  28.203 -19.057  1.00  0.00    -0.000 C 
BRANCH  11  12
ATOM     12  C   UNL     1      -7.266  28.971 -20.024  1.00  0.00    -0.000 C 
BRANCH  12  13
ATOM     13  C   UNL     1      -6.808  28.876 -21.490  1.00  0.00    -0.000 C 
BRANCH  13  14
ATOM     14  C   UNL     1      -5.346  28.419 -21.622  1.00  0.00    -0.000 C 
BRANCH  14  15
ATOM     15  C   UNL     1      -5.014  27.894 -23.026  1.00  0.00    -0.003 C 
ATOM     16  C   UNL     1      -5.267  26.392 -23.125  1.00  0.00     0.004 C 
ENDBRANCH  14  15
ENDBRANCH  13  14
ENDBRANCH  12  13
ENDBRANCH  11  12
ENDBRANCH  10  11
ENDBRANCH   1  10
TORSDOF 12
ENDMDL
MODEL 3
REMARK VINA RESULT:     5.073      3.777      7.223
REMARK INTER + INTRA:           8.034
REMARK INTER:                   7.339
REMARK INTRA:                   0.695
REMARK UNBOUND:                -0.598
REMARK SMILES CCCCCCCCCCCCCC(=O)[O-]
REMARK SMILES IDX 8 1 9 2 10 3 11 4 12 5 13 6 14 7 15 8 16 9 7 10 6 11 5 12
REMARK SMILES IDX 4 13 3 14 2 15 1 16
REMARK H PARENT
REMARK Flexibility Score: inf
ROOT
ATOM      1  C   UNL     1      -7.969  29.055 -16.504  1.00  0.00     0.000 C 
ENDROOT
BRANCH   1   2
ATOM      2  C   UNL     1      -6.731  28.255 -16.941  1.00  0.00     0.000 C 
BRANCH   2   3
ATOM      3  C   UNL     1      -6.428  28.403 -18.440  1.00  0.00     0.000 C 
BRANCH   3   4
ATOM      4  C   UNL     1      -7.601  29.065 -19.173  1.00  0.00     0.000 C 
BRANCH   4   5
ATOM      5  C   UNL     1      -7.503  28.837 -20.689  1.00  0.00     0.006 C 
BRANCH   5   6
ATOM      6  C   UNL     1      -6.052  28.673 -21.158  1.00  0.00     0.053 C 
BRANCH   6   7
ATOM      7  C   UNL     1      -5.961  27.846 -22.404  1.00  0.00     0.041 C 
ATOM      8  O   UNL     1      -4.876  27.770 -23.037  1.00  0.00    -0.550 OA
ATOM      9  O   UNL     1      -7.068  27.132 -22.845  1.00  0.00    -0.550 OA
ENDBRANCH   6   7
ENDBRANCH   5   6
ENDBRANCH   4   5
ENDBRANCH   3   4
ENDBRANCH   2   3
ENDBRANCH   1   2
BRANCH   1  10
ATOM     10  C   UNL     1      -7.938  29.420 -15.009  1.00  0.00     0.000 C 
BRANCH  10  11
ATOM     11  C   UNL     1      -9.224  30.121 -14.536  1.00  0.00    -0.000 C 
BRANCH  11  12
ATOM     12  C   UNL     1     -10.059  30.786 -15.647  1.00  0.00    -0.000 C 
BRANCH  12  13
ATOM     13  C   UNL     1      -9.198  31.550 -16.668  1.00  0.00    -0.000 C 
BRANCH  13  14
ATOM     14  C   UNL     1      -8.625  32.856 -16.095  1.00  0.00    -0.000 C 
BRANCH  14  15
ATOM     15  C   UNL     1      -8.507  32.830 -14.564  1.00  0.00    -0.003 C 
ATOM     16  C   UNL     1      -9.012  34.135 -13.952  1.00  0.00     0.004 C 
ENDBRANCH  14  15
ENDBRANCH  13  14
ENDBRANCH  12  13
ENDBRANCH  11  12
ENDBRANCH  10  11
ENDBRANCH   1  10
TORSDOF 12
ENDMDL
MODEL 4
REMARK VINA RESULT:     5.277      3.922      7.168
REMARK INTER + INTRA:           8.382
REMARK INTER:                   8.831
REMARK INTRA:                  -0.449
REMARK UNBOUND:                -0.598
REMARK SMILES CCCCCCCCCCCCCC(=O)[O-]
REMARK SMILES IDX 8 1 9 2 10 3 11 4 12 5 13 6 14 7 15 8 16 9 7 10 6 11 5 12
REMARK SMILES IDX 4 13 3 14 2 15 1 16
REMARK H PARENT
REMARK Flexibility Score: inf
ROOT
ATOM      1  C   UNL     1      -7.827  28.780 -16.940  1.00  0.00     0.000 C 
ENDROOT
BRANCH   1   2
ATOM      2  C   UNL     1      -6.710  28.164 -17.798  1.00  0.00     0.000 C 
BRANCH   2   3
ATOM      3  C   UNL     1      -6.309  29.060 -18.980  1.00  0.00     0.000 C 
BRANCH   3   4
ATOM      4  C   UNL     1      -6.204  28.244 -20.275  1.00  0.00     0.000 C 
BRANCH   4   5
ATOM      5  C   UNL     1      -6.109  29.166 -21.501  1.00  0.00     0.006 C 
BRANCH   5   6
ATOM      6  C   UNL     1      -5.348  28.511 -22.661  1.00  0.00     0.053 C 
BRANCH   6   7
ATOM      7  C   UNL     1      -5.837  27.121 -22.931  1.00  0.00     0.041 C 
ATOM      8  O   UNL     1      -7.062  26.906 -23.125  1.00  0.00    -0.550 OA
ATOM      9  O   UNL     1      -4.933  26.069 -23.002  1.00  0.00    -0.550 OA
ENDBRANCH   6   7
ENDBRANCH   5   6
ENDBRANCH   4   5
ENDBRANCH   3   4
ENDBRANCH   2   3
ENDBRANCH   1   2
BRANCH   1  10
ATOM     10  C   UNL     1      -7.525  28.701 -15.433  1.00  0.00     0.000 C 
BRANCH  10  11
ATOM     11  C   UNL     1      -8.249  29.788 -14.618  1.00  0.00    -0.000 C 
BRANCH  11  12
ATOM     12  C   UNL     1      -9.446  30.453 -15.324  1.00  0.00    -0.000 C 
BRANCH  12  13
ATOM     13  C   UNL     1      -9.121  31.858 -15.858  1.00  0.00    -0.000 C 
BRANCH  13  14
ATOM     14  C   UNL     1      -9.449  32.011 -17.352  1.00  0.00    -0.000 C 
BRANCH  14  15
ATOM     15  C   UNL     1      -9.183  33.430 -17.876  1.00  0.00    -0.003 C 
ATOM     16  C   UNL     1      -9.519  33.539 -19.361  1.00  0.00     0.004 C 
ENDBRANCH  14  15
ENDBRANCH  13  14
ENDBRANCH  12  13
ENDBRANCH  11  12
ENDBRANCH  10  11
ENDBRANCH   1  10
TORSDOF 12
ENDMDL
MODEL 5
REMARK VINA RESULT:     5.545      3.950      7.065
REMARK INTER + INTRA:           8.837
REMARK INTER:                   7.063
REMARK INTRA:                   1.773
REMARK UNBOUND:                -0.598
REMARK SMILES CCCCCCCCCCCCCC(=O)[O-]
REMARK SMILES IDX 8 1 9 2 10 3 11 4 12 5 13 6 14 7 15 8 16 9 7 10 6 11 5 12
REMARK SMILES IDX 4 13 3 14 2 15 1 16
REMARK H PARENT
REMARK Flexibility Score: inf
ROOT
ATOM      1  C   UNL     1      -6.654  27.864 -16.737  1.00  0.00     0.000 C 
ENDROOT
BRANCH   1   2
ATOM      2  C   UNL     1      -5.885  28.315 -17.990  1.00  0.00     0.000 C 
BRANCH   2   3
ATOM      3  C   UNL     1      -6.817  28.691 -19.153  1.00  0.00     0.000 C 
BRANCH   3   4
ATOM      4  C   UNL     1      -6.324  28.078 -20.469  1.00  0.00     0.000 C 
BRANCH   4   5
ATOM      5  C   UNL     1      -5.937  29.172 -21.476  1.00  0.00     0.006 C 
BRANCH   5   6
ATOM      6  C   UNL     1      -5.344  28.590 -22.765  1.00  0.00     0.053 C 
BRANCH   6   7
ATOM      7  C   UNL     1      -5.806  27.185 -23.004  1.00  0.00     0.041 C 
ATOM      8  O   UNL     1      -7.033  26.933 -23.125  1.00  0.00    -0.550 OA
ATOM      9  O   UNL     1      -4.876  26.160 -23.125  1.00  0.00    -0.550 OA
ENDBRANCH   6   7
ENDBRANCH   5   6
ENDBRANCH   4   5
ENDBRANCH   3   4
ENDBRANCH   2   3
ENDBRANCH   1   2
BRANCH   1  10
ATOM     10  C   UNL     1      -7.706  28.893 -16.287  1.00  0.00     0.000 C 
BRANCH  10  11
ATOM     11  C   UNL     1      -7.651  29.188 -14.778  1.00  0.00    -0.000 C 
BRANCH  11  12
ATOM     12  C   UNL     1      -8.752  30.126 -14.249  1.00  0.00    -0.000 C 
BRANCH  12  13
ATOM     13  C   UNL     1      -9.000  31.335 -15.167  1.00  0.00    -0.000 C 
BRANCH  13  14
ATOM     14  C   UNL     1      -9.958  31.009 -16.325  1.00  0.00    -0.000 C 
BRANCH  14  15
ATOM     15  C   UNL     1      -9.234  30.424 -17.546  1.00  0.00    -0.003 C 
ATOM     16  C   UNL     1     -10.107  29.398 -18.263  1.00  0.00     0.004 C 
ENDBRANCH  14  15
ENDBRANCH  13  14
ENDBRANCH  12  13
ENDBRANCH  11  12
ENDBRANCH  10  11
ENDBRANCH   1  10
TORSDOF 12
ENDMDL
MODEL 6
REMARK VINA RESULT:     5.550      1.267      2.041
REMARK INTER + INTRA:           8.846
REMARK INTER:                   5.731
REMARK INTRA:                   3.115
REMARK UNBOUND:                -0.598
REMARK SMILES CCCCCCCCCCCCCC(=O)[O-]
REMARK SMILES IDX 8 1 9 2 10 3 11 4 12 5 13 6 14 7 15 8 16 9 7 10 6 11 5 12
REMARK SMILES IDX 4 13 3 14 2 15 1 16
REMARK H PARENT
REMARK Flexibility Score: inf
ROOT
ATOM      1  C   UNL     1      -8.714  29.551 -18.028  1.00  0.00     0.000 C 
ENDROOT
BRANCH   1   2
ATOM      2  C   UNL     1      -7.293  28.990 -17.849  1.00  0.00     0.000 C 
BRANCH   2   3
ATOM      3  C   UNL     1      -7.094  28.302 -16.490  1.00  0.00     0.000 C 
BRANCH   3   4
ATOM      4  C   UNL     1      -7.846  29.049 -15.382  1.00  0.00     0.000 C 
BRANCH   4   5
ATOM      5  C   UNL     1      -8.915  29.981 -15.973  1.00  0.00     0.006 C 
BRANCH   5   6
ATOM      6  C   UNL     1      -9.370  31.050 -14.971  1.00  0.00     0.053 C 
BRANCH   6   7
ATOM      7  C   UNL     1      -8.925  32.421 -15.383  1.00  0.00     0.041 C 
ATOM      8  O   UNL     1      -8.839  32.720 -16.602  1.00  0.00    -0.550 OA
ATOM      9  O   UNL     1      -8.639  33.377 -14.417  1.00  0.00    -0.550 OA
ENDBRANCH   6   7
ENDBRANCH   5   6
ENDBRANCH   4   5
ENDBRANCH   3   4
ENDBRANCH   2   3
ENDBRANCH   1   2
BRANCH   1  10
ATOM     10  C   UNL     1      -8.979  30.040 -19.463  1.00  0.00     0.000 C 
BRANCH  10  11
ATOM     11  C   UNL     1      -8.170  29.267 -20.520  1.00  0.00    -0.000 C 
BRANCH  11  12
ATOM     12  C   UNL     1      -6.655  29.181 -20.257  1.00  0.00    -0.000 C 
BRANCH  12  13
ATOM     13  C   UNL     1      -6.055  27.820 -20.651  1.00  0.00    -0.000 C 
BRANCH  13  14
ATOM     14  C   UNL     1      -6.775  27.185 -21.852  1.00  0.00    -0.000 C 
BRANCH  14  15
ATOM     15  C   UNL     1      -5.898  27.137 -23.112  1.00  0.00    -0.003 C 
ATOM     16  C   UNL     1      -4.876  28.271 -23.112  1.00  0.00     0.004 C 
ENDBRANCH  14  15
ENDBRANCH  13  14
ENDBRANCH  12  13
ENDBRANCH  11  12
ENDBRANCH  10  11
ENDBRANCH   1  10
TORSDOF 12
ENDMDL
MODEL 7
REMARK VINA RESULT:     6.022      3.818      7.182
REMARK INTER + INTRA:           9.649
REMARK INTER:                   7.855
REMARK INTRA:                   1.794
REMARK UNBOUND:                -0.598
REMARK SMILES CCCCCCCCCCCCCC(=O)[O-]
REMARK SMILES IDX 8 1 9 2 10 3 11 4 12 5 13 6 14 7 15 8 16 9 7 10 6 11 5 12
REMARK SMILES IDX 4 13 3 14 2 15 1 16
REMARK H PARENT
REMARK Flexibility Score: inf
ROOT
ATOM      1  C   UNL     1      -7.471  28.570 -17.139  1.00  0.00     0.000 C 
ENDROOT
BRANCH   1   2
ATOM      2  C   UNL     1      -6.069  28.350 -17.731  1.00  0.00     0.000 C 
BRANCH   2   3
ATOM      3  C   UNL     1      -6.106  27.978 -19.221  1.00  0.00     0.000 C 
BRANCH   3   4
ATOM      4  C   UNL     1      -7.034  28.920 -19.998  1.00  0.00     0.000 C 
BRANCH   4   5
ATOM      5  C   UNL     1      -6.407  29.328 -21.340  1.00  0.00     0.006 C 
BRANCH   5   6
ATOM      6  C   UNL     1      -5.238  28.417 -21.735  1.00  0.00     0.053 C 
BRANCH   6   7
ATOM      7  C   UNL     1      -5.677  27.317 -22.652  1.00  0.00     0.041 C 
ATOM      8  O   UNL     1      -4.875  26.401 -22.974  1.00  0.00    -0.550 OA
ATOM      9  O   UNL     1      -6.983  27.285 -23.124  1.00  0.00    -0.550 OA
ENDBRANCH   6   7
ENDBRANCH   5   6
ENDBRANCH   4   5
ENDBRANCH   3   4
ENDBRANCH   2   3
ENDBRANCH   1   2
BRANCH   1  10
ATOM     10  C   UNL     1      -8.400  29.339 -18.094  1.00  0.00     0.000 C 
BRANCH  10  11
ATOM     11  C   UNL     1      -9.378  30.273 -17.358  1.00  0.00    -0.000 C 
BRANCH  11  12
ATOM     12  C   UNL     1      -8.914  31.735 -17.218  1.00  0.00    -0.000 C 
BRANCH  12  13
ATOM     13  C   UNL     1      -9.372  32.386 -15.902  1.00  0.00    -0.000 C 
BRANCH  13  14
ATOM     14  C   UNL     1      -8.733  31.730 -14.667  1.00  0.00    -0.000 C 
BRANCH  14  15
ATOM     15  C   UNL     1      -9.054  30.232 -14.558  1.00  0.00    -0.003 C 
ATOM     16  C   UNL     1      -7.812  29.430 -14.176  1.00  0.00     0.004 C 
ENDBRANCH  14  15
ENDBRANCH  13  14
ENDBRANCH  12  13
ENDBRANCH  11  12
ENDBRANCH  10  11
ENDBRANCH   1  10
TORSDOF 12
ENDMDL
MODEL 8
REMARK VINA RESULT:     6.059      1.846      2.601
REMARK INTER + INTRA:           9.712
REMARK INTER:                   8.050
REMARK INTRA:                   1.662
REMARK UNBOUND:                -0.598
REMARK SMILES CCCCCCCCCCCCCC(=O)[O-]
REMARK SMILES IDX 8 1 9 2 10 3 11 4 12 5 13 6 14 7 15 8 16 9 7 10 6 11 5 12
REMARK SMILES IDX 4 13 3 14 2 15 1 16
REMARK H PARENT
REMARK Flexibility Score: inf
ROOT
ATOM      1  C   UNL     1      -7.807  28.614 -17.904  1.00  0.00     0.000 C 
ENDROOT
BRANCH   1   2
ATOM      2  C   UNL     1      -8.721  29.670 -18.547  1.00  0.00     0.000 C 
BRANCH   2   3
ATOM      3  C   UNL     1      -9.732  30.263 -17.554  1.00  0.00     0.000 C 
BRANCH   3   4
ATOM      4  C   UNL     1      -9.371  31.712 -17.204  1.00  0.00     0.000 C 
BRANCH   4   5
ATOM      5  C   UNL     1      -8.976  31.840 -15.725  1.00  0.00     0.006 C 
BRANCH   5   6
ATOM      6  C   UNL     1      -9.517  30.681 -14.878  1.00  0.00     0.053 C 
BRANCH   6   7
ATOM      7  C   UNL     1      -8.415  29.801 -14.373  1.00  0.00     0.041 C 
ATOM      8  O   UNL     1      -8.144  29.764 -13.144  1.00  0.00    -0.550 OA
ATOM      9  O   UNL     1      -7.708  28.996 -15.258  1.00  0.00    -0.550 OA
ENDBRANCH   6   7
ENDBRANCH   5   6
ENDBRANCH   4   5
ENDBRANCH   3   4
ENDBRANCH   2   3
ENDBRANCH   1   2
BRANCH   1  10
ATOM     10  C   UNL     1      -6.335  28.774 -18.322  1.00  0.00     0.000 C 
BRANCH  10  11
ATOM     11  C   UNL     1      -6.017  28.098 -19.668  1.00  0.00    -0.000 C 
BRANCH  11  12
ATOM     12  C   UNL     1      -6.654  28.759 -20.904  1.00  0.00    -0.000 C 
BRANCH  12  13
ATOM     13  C   UNL     1      -5.621  29.139 -21.979  1.00  0.00    -0.000 C 
BRANCH  13  14
ATOM     14  C   UNL     1      -4.875  27.916 -22.538  1.00  0.00    -0.000 C 
BRANCH  14  15
ATOM     15  C   UNL     1      -5.824  26.860 -23.122  1.00  0.00    -0.003 C 
ATOM     16  C   UNL     1      -7.274  27.160 -22.754  1.00  0.00     0.004 C 
ENDBRANCH  14  15
ENDBRANCH  13  14
ENDBRANCH  12  13
ENDBRANCH  11  12
ENDBRANCH  10  11
ENDBRANCH   1  10
TORSDOF 12
ENDMDL
