MODEL 1
REMARK VINA RESULT:    -5.726      0.000      0.000
REMARK INTER + INTRA:          -6.715
REMARK INTER:                  -6.562
REMARK INTRA:                  -0.153
REMARK UNBOUND:                -0.153
REMARK SMILES O=C([O-])C=Cc1ccc(O)cc1
REMARK SMILES IDX 6 1 7 2 12 3 8 4 11 5 9 6 5 7 4 8 2 9 1 10 3 11 10 12
REMARK H PARENT 10 13
REMARK Flexibility Score: inf
ROOT
ATOM      1  C   UNL     1     -12.583   0.380  -9.875  1.00  0.00    -0.025 A 
ATOM      2  C   UNL     1     -13.949   0.195 -10.153  1.00  0.00     0.012 A 
ATOM      3  C   UNL     1     -11.710  -0.721 -10.002  1.00  0.00     0.012 A 
ATOM      4  C   UNL     1     -14.429  -1.049 -10.571  1.00  0.00     0.047 A 
ATOM      5  C   UNL     1     -12.195  -1.964 -10.420  1.00  0.00     0.047 A 
ATOM      6  C   UNL     1     -13.552  -2.131 -10.708  1.00  0.00     0.115 A 
ENDROOT
BRANCH   1   7
ATOM      7  C   UNL     1     -12.125   1.717  -9.425  1.00  0.00     0.010 C 
ATOM      8  C   UNL     1     -12.954   2.729  -9.130  1.00  0.00     0.025 C 
BRANCH   8   9
ATOM      9  C   UNL     1     -12.463   4.040  -8.676  1.00  0.00     0.064 C 
ATOM     10  O   UNL     1     -13.245   5.017  -8.535  1.00  0.00    -0.545 OA
ATOM     11  O   UNL     1     -11.112   4.203  -8.397  1.00  0.00    -0.545 OA
ENDBRANCH   8   9
ENDBRANCH   1   7
BRANCH   6  12
ATOM     12  O   UNL     1     -14.018  -3.377 -11.125  1.00  0.00    -0.508 OA
ATOM     13  H   UNL     1     -14.825  -3.464 -11.732  1.00  0.00     0.293 HD
ENDBRANCH   6  12
TORSDOF 3
ENDMDL
MODEL 2
REMARK VINA RESULT:    -5.596      2.001      5.672
REMARK INTER + INTRA:          -6.567
REMARK INTER:                  -6.422
REMARK INTRA:                  -0.145
REMARK UNBOUND:                -0.153
REMARK SMILES O=C([O-])C=Cc1ccc(O)cc1
REMARK SMILES IDX 6 1 7 2 12 3 8 4 11 5 9 6 5 7 4 8 2 9 1 10 3 11 10 12
REMARK H PARENT 10 13
REMARK Flexibility Score: inf
ROOT
ATOM      1  C   UNL     1     -12.309   0.944  -9.630  1.00  0.00    -0.025 A 
ATOM      2  C   UNL     1     -11.413   1.929  -9.179  1.00  0.00     0.012 A 
ATOM      3  C   UNL     1     -13.689   1.235  -9.635  1.00  0.00     0.012 A 
ATOM      4  C   UNL     1     -11.878   3.180  -8.767  1.00  0.00     0.047 A 
ATOM      5  C   UNL     1     -14.150   2.488  -9.220  1.00  0.00     0.047 A 
ATOM      6  C   UNL     1     -13.248   3.464  -8.789  1.00  0.00     0.115 A 
ENDROOT
BRANCH   1   7
ATOM      7  C   UNL     1     -11.767  -0.372 -10.049  1.00  0.00     0.010 C 
ATOM      8  C   UNL     1     -10.762  -0.998  -9.419  1.00  0.00     0.025 C 
BRANCH   8   9
ATOM      9  C   UNL     1     -10.256  -2.310  -9.857  1.00  0.00     0.064 C 
ATOM     10  O   UNL     1      -9.064  -2.456 -10.236  1.00  0.00    -0.545 OA
ATOM     11  O   UNL     1     -11.109  -3.406  -9.850  1.00  0.00    -0.545 OA
ENDBRANCH   8   9
ENDBRANCH   1   7
BRANCH   6  12
ATOM     12  O   UNL     1     -13.724   4.708  -8.380  1.00  0.00    -0.508 OA
ATOM     13  H   UNL     1     -14.112   4.849  -7.454  1.00  0.00     0.293 HD
ENDBRANCH   6  12
TORSDOF 3
ENDMDL
MODEL 3
REMARK VINA RESULT:    -5.557     16.197     17.650
REMARK INTER + INTRA:          -6.523
REMARK INTER:                  -6.370
REMARK INTRA:                  -0.152
REMARK UNBOUND:                -0.153
REMARK SMILES O=C([O-])C=Cc1ccc(O)cc1
REMARK SMILES IDX 6 1 7 2 12 3 8 4 11 5 9 6 5 7 4 8 2 9 1 10 3 11 10 12
REMARK H PARENT 10 13
REMARK Flexibility Score: inf
ROOT
ATOM      1  C   UNL     1      -9.355   6.455   6.675  1.00  0.00    -0.025 A 
ATOM      2  C   UNL     1      -9.880   6.099   5.421  1.00  0.00     0.012 A 
ATOM      3  C   UNL     1      -9.722   5.695   7.805  1.00  0.00     0.012 A 
ATOM      4  C   UNL     1     -10.729   4.997   5.291  1.00  0.00     0.047 A 
ATOM      5  C   UNL     1     -10.573   4.593   7.671  1.00  0.00     0.047 A 
ATOM      6  C   UNL     1     -11.075   4.239   6.416  1.00  0.00     0.115 A 
ENDROOT
BRANCH   1   7
ATOM      7  C   UNL     1      -8.466   7.640   6.763  1.00  0.00     0.010 C 
ATOM      8  C   UNL     1      -8.381   8.579   5.810  1.00  0.00     0.025 C 
BRANCH   8   9
ATOM      9  C   UNL     1      -7.494   9.748   5.936  1.00  0.00     0.064 C 
ATOM     10  O   UNL     1      -7.107  10.155   7.063  1.00  0.00    -0.545 OA
ATOM     11  O   UNL     1      -7.075  10.413   4.791  1.00  0.00    -0.545 OA
ENDBRANCH   8   9
ENDBRANCH   1   7
BRANCH   6  12
ATOM     12  O   UNL     1     -11.921   3.138   6.299  1.00  0.00    -0.508 OA
ATOM     13  H   UNL     1     -12.905   3.246   6.082  1.00  0.00     0.293 HD
ENDBRANCH   6  12
TORSDOF 3
ENDMDL
MODEL 4
REMARK VINA RESULT:    -5.485      2.896      5.441
REMARK INTER + INTRA:          -6.440
REMARK INTER:                  -6.304
REMARK INTRA:                  -0.136
REMARK UNBOUND:                -0.153
REMARK SMILES O=C([O-])C=Cc1ccc(O)cc1
REMARK SMILES IDX 6 1 7 2 12 3 8 4 11 5 9 6 5 7 4 8 2 9 1 10 3 11 10 12
REMARK H PARENT 10 13
REMARK Flexibility Score: inf
ROOT
ATOM      1  C   UNL     1     -11.767  -0.400  -9.905  1.00  0.00    -0.025 A 
ATOM      2  C   UNL     1     -11.458   0.891  -9.441  1.00  0.00     0.012 A 
ATOM      3  C   UNL     1     -13.100  -0.694 -10.257  1.00  0.00     0.012 A 
ATOM      4  C   UNL     1     -12.449   1.872  -9.356  1.00  0.00     0.047 A 
ATOM      5  C   UNL     1     -14.089   0.291 -10.169  1.00  0.00     0.047 A 
ATOM      6  C   UNL     1     -13.767   1.575  -9.722  1.00  0.00     0.115 A 
ENDROOT
BRANCH   1   7
ATOM      7  C   UNL     1     -10.681  -1.410  -9.968  1.00  0.00     0.010 C 
ATOM      8  C   UNL     1     -10.335  -2.197  -8.940  1.00  0.00     0.025 C 
BRANCH   8   9
ATOM      9  C   UNL     1      -9.258  -3.197  -9.043  1.00  0.00     0.064 C 
ATOM     10  O   UNL     1      -9.244  -4.046  -9.972  1.00  0.00    -0.545 OA
ATOM     11  O   UNL     1      -8.240  -3.202  -8.098  1.00  0.00    -0.545 OA
ENDBRANCH   8   9
ENDBRANCH   1   7
BRANCH   6  12
ATOM     12  O   UNL     1     -14.764   2.546  -9.641  1.00  0.00    -0.508 OA
ATOM     13  H   UNL     1     -14.584   3.458  -9.237  1.00  0.00     0.293 HD
ENDBRANCH   6  12
TORSDOF 3
ENDMDL
MODEL 5
REMARK VINA RESULT:    -5.174      5.384      8.288
REMARK INTER + INTRA:          -6.084
REMARK INTER:                  -5.946
REMARK INTRA:                  -0.138
REMARK UNBOUND:                -0.153
REMARK SMILES O=C([O-])C=Cc1ccc(O)cc1
REMARK SMILES IDX 6 1 7 2 12 3 8 4 11 5 9 6 5 7 4 8 2 9 1 10 3 11 10 12
REMARK H PARENT 10 13
REMARK Flexibility Score: inf
ROOT
ATOM      1  C   UNL     1     -10.609  -4.813  -7.554  1.00  0.00    -0.025 A 
ATOM      2  C   UNL     1      -9.845  -3.734  -7.075  1.00  0.00     0.012 A 
ATOM      3  C   UNL     1     -11.126  -4.750  -8.865  1.00  0.00     0.012 A 
ATOM      4  C   UNL     1      -9.582  -2.631  -7.891  1.00  0.00     0.047 A 
ATOM      5  C   UNL     1     -10.861  -3.643  -9.677  1.00  0.00     0.047 A 
ATOM      6  C   UNL     1     -10.088  -2.584  -9.195  1.00  0.00     0.115 A 
ENDROOT
BRANCH   1   7
ATOM      7  C   UNL     1     -10.868  -5.958  -6.646  1.00  0.00     0.010 C 
ATOM      8  C   UNL     1     -12.085  -6.283  -6.187  1.00  0.00     0.025 C 
BRANCH   8   9
ATOM      9  C   UNL     1     -12.307  -7.434  -5.295  1.00  0.00     0.064 C 
ATOM     10  O   UNL     1     -11.355  -7.958  -4.658  1.00  0.00    -0.545 OA
ATOM     11  O   UNL     1     -13.588  -7.949  -5.152  1.00  0.00    -0.545 OA
ENDBRANCH   8   9
ENDBRANCH   1   7
BRANCH   6  12
ATOM     12  O   UNL     1      -9.832  -1.488 -10.018  1.00  0.00    -0.508 OA
ATOM     13  H   UNL     1     -10.497  -1.187 -10.721  1.00  0.00     0.293 HD
ENDBRANCH   6  12
TORSDOF 3
ENDMDL
MODEL 6
REMARK VINA RESULT:    -4.707     17.667     18.636
REMARK INTER + INTRA:          -5.548
REMARK INTER:                  -5.411
REMARK INTRA:                  -0.136
REMARK UNBOUND:                -0.153
REMARK SMILES O=C([O-])C=Cc1ccc(O)cc1
REMARK SMILES IDX 6 1 7 2 12 3 8 4 11 5 9 6 5 7 4 8 2 9 1 10 3 11 10 12
REMARK H PARENT 10 13
REMARK Flexibility Score: inf
ROOT
ATOM      1  C   UNL     1      -9.614   8.350   6.014  1.00  0.00    -0.025 A 
ATOM      2  C   UNL     1     -10.360   9.541   6.056  1.00  0.00     0.012 A 
ATOM      3  C   UNL     1      -8.300   8.390   5.502  1.00  0.00     0.012 A 
ATOM      4  C   UNL     1      -9.803  10.746   5.623  1.00  0.00     0.047 A 
ATOM      5  C   UNL     1      -7.747   9.598   5.069  1.00  0.00     0.047 A 
ATOM      6  C   UNL     1      -8.493  10.778   5.131  1.00  0.00     0.115 A 
ENDROOT
BRANCH   1   7
ATOM      7  C   UNL     1     -10.255   7.093   6.476  1.00  0.00     0.010 C 
ATOM      8  C   UNL     1      -9.578   6.060   6.998  1.00  0.00     0.025 C 
BRANCH   8   9
ATOM      9  C   UNL     1     -10.249   4.833   7.456  1.00  0.00     0.064 C 
ATOM     10  O   UNL     1     -10.151   4.442   8.650  1.00  0.00    -0.545 OA
ATOM     11  O   UNL     1     -11.005   4.092   6.557  1.00  0.00    -0.545 OA
ENDBRANCH   8   9
ENDBRANCH   1   7
BRANCH   6  12
ATOM     12  O   UNL     1      -7.925  11.975   4.696  1.00  0.00    -0.508 OA
ATOM     13  H   UNL     1      -8.437  12.619   4.105  1.00  0.00     0.293 HD
ENDBRANCH   6  12
TORSDOF 3
ENDMDL
MODEL 7
REMARK VINA RESULT:    -4.590      3.994      7.257
REMARK INTER + INTRA:          -5.414
REMARK INTER:                  -5.261
REMARK INTRA:                  -0.152
REMARK UNBOUND:                -0.153
REMARK SMILES O=C([O-])C=Cc1ccc(O)cc1
REMARK SMILES IDX 6 1 7 2 12 3 8 4 11 5 9 6 5 7 4 8 2 9 1 10 3 11 10 12
REMARK H PARENT 10 13
REMARK Flexibility Score: inf
ROOT
ATOM      1  C   UNL     1     -11.212  -3.369  -9.255  1.00  0.00    -0.025 A 
ATOM      2  C   UNL     1     -10.207  -2.469  -8.861  1.00  0.00     0.012 A 
ATOM      3  C   UNL     1     -12.312  -2.879  -9.990  1.00  0.00     0.012 A 
ATOM      4  C   UNL     1     -10.283  -1.118  -9.212  1.00  0.00     0.047 A 
ATOM      5  C   UNL     1     -12.384  -1.527 -10.338  1.00  0.00     0.047 A 
ATOM      6  C   UNL     1     -11.371  -0.645  -9.954  1.00  0.00     0.115 A 
ENDROOT
BRANCH   1   7
ATOM      7  C   UNL     1     -11.090  -4.792  -8.850  1.00  0.00     0.010 C 
ATOM      8  C   UNL     1     -10.166  -5.245  -7.991  1.00  0.00     0.025 C 
BRANCH   8   9
ATOM      9  C   UNL     1     -10.081  -6.663  -7.604  1.00  0.00     0.064 C 
ATOM     10  O   UNL     1     -10.212  -7.581  -8.456  1.00  0.00    -0.545 OA
ATOM     11  O   UNL     1      -9.852  -6.994  -6.275  1.00  0.00    -0.545 OA
ENDBRANCH   8   9
ENDBRANCH   1   7
BRANCH   6  12
ATOM     12  O   UNL     1     -11.458   0.700 -10.310  1.00  0.00    -0.508 OA
ATOM     13  H   UNL     1     -12.228   1.051 -10.868  1.00  0.00     0.293 HD
ENDBRANCH   6  12
TORSDOF 3
ENDMDL
MODEL 8
REMARK VINA RESULT:    -4.537      4.722      6.240
REMARK INTER + INTRA:          -5.353
REMARK INTER:                  -5.212
REMARK INTRA:                  -0.141
REMARK UNBOUND:                -0.153
REMARK SMILES O=C([O-])C=Cc1ccc(O)cc1
REMARK SMILES IDX 6 1 7 2 12 3 8 4 11 5 9 6 5 7 4 8 2 9 1 10 3 11 10 12
REMARK H PARENT 10 13
REMARK Flexibility Score: inf
ROOT
ATOM      1  C   UNL     1     -10.306  -4.362  -8.121  1.00  0.00    -0.025 A 
ATOM      2  C   UNL     1     -10.304  -5.542  -8.885  1.00  0.00     0.012 A 
ATOM      3  C   UNL     1     -10.283  -4.464  -6.714  1.00  0.00     0.012 A 
ATOM      4  C   UNL     1     -10.255  -6.793  -8.263  1.00  0.00     0.047 A 
ATOM      5  C   UNL     1     -10.235  -5.718  -6.096  1.00  0.00     0.047 A 
ATOM      6  C   UNL     1     -10.218  -6.883  -6.867  1.00  0.00     0.115 A 
ENDROOT
BRANCH   1   7
ATOM      7  C   UNL     1     -10.368  -3.059  -8.828  1.00  0.00     0.010 C 
ATOM      8  C   UNL     1     -11.398  -2.677  -9.596  1.00  0.00     0.025 C 
BRANCH   8   9
ATOM      9  C   UNL     1     -11.429  -1.370 -10.274  1.00  0.00     0.064 C 
ATOM     10  O   UNL     1     -12.485  -0.937 -10.807  1.00  0.00    -0.545 OA
ATOM     11  O   UNL     1     -10.274  -0.601 -10.327  1.00  0.00    -0.545 OA
ENDBRANCH   8   9
ENDBRANCH   1   7
BRANCH   6  12
ATOM     12  O   UNL     1     -10.169  -8.125  -6.235  1.00  0.00    -0.508 OA
ATOM     13  H   UNL     1      -9.410  -8.775  -6.405  1.00  0.00     0.293 HD
ENDBRANCH   6  12
TORSDOF 3
ENDMDL
MODEL 9
REMARK VINA RESULT:    -4.533      6.311      7.699
REMARK INTER + INTRA:          -5.349
REMARK INTER:                  -5.196
REMARK INTRA:                  -0.153
REMARK UNBOUND:                -0.153
REMARK SMILES O=C([O-])C=Cc1ccc(O)cc1
REMARK SMILES IDX 6 1 7 2 12 3 8 4 11 5 9 6 5 7 4 8 2 9 1 10 3 11 10 12
REMARK H PARENT 10 13
REMARK Flexibility Score: inf
ROOT
ATOM      1  C   UNL     1     -11.138  -5.987  -6.695  1.00  0.00    -0.025 A 
ATOM      2  C   UNL     1     -12.428  -5.849  -7.236  1.00  0.00     0.012 A 
ATOM      3  C   UNL     1     -10.955  -6.836  -5.584  1.00  0.00     0.012 A 
ATOM      4  C   UNL     1     -13.505  -6.559  -6.699  1.00  0.00     0.047 A 
ATOM      5  C   UNL     1     -12.035  -7.544  -5.049  1.00  0.00     0.047 A 
ATOM      6  C   UNL     1     -13.310  -7.411  -5.605  1.00  0.00     0.115 A 
ENDROOT
BRANCH   1   7
ATOM      7  C   UNL     1     -10.029  -5.204  -7.295  1.00  0.00     0.010 C 
ATOM      8  C   UNL     1     -10.199  -4.292  -8.263  1.00  0.00     0.025 C 
BRANCH   8   9
ATOM      9  C   UNL     1      -9.076  -3.526  -8.827  1.00  0.00     0.064 C 
ATOM     10  O   UNL     1      -9.163  -2.977  -9.957  1.00  0.00    -0.545 OA
ATOM     11  O   UNL     1      -7.899  -3.405  -8.099  1.00  0.00    -0.545 OA
ENDBRANCH   8   9
ENDBRANCH   1   7
BRANCH   6  12
ATOM     12  O   UNL     1     -14.376  -8.125  -5.061  1.00  0.00    -0.508 OA
ATOM     13  H   UNL     1     -14.889  -8.809  -5.606  1.00  0.00     0.293 HD
ENDBRANCH   6  12
TORSDOF 3
ENDMDL
