MODEL 1
REMARK VINA RESULT:    -3.725      0.000      0.000
REMARK INTER + INTRA:         -12.945
REMARK INTER:                  -8.516
REMARK INTRA:                  -4.429
REMARK UNBOUND:                -4.429
REMARK SMILES CCCCCCCCCCCCCCCCCCCCCCCC(=O)[O-]
REMARK SMILES IDX 13 1 14 2 15 3 16 4 17 5 18 6 19 7 20 8 21 9 22 10 23 11
REMARK SMILES IDX 24 12 25 13 26 14 12 15 11 16 10 17 9 18 8 19 7 20 6 21 5 22
REMARK SMILES IDX 4 23 3 24 2 25 1 26
REMARK H PARENT
REMARK Flexibility Score: inf
ROOT
ATOM      1  C   UNL     1       5.202  27.716 113.835  1.00  0.00     0.000 C 
ENDROOT
BRANCH   1   2
ATOM      2  C   UNL     1       4.439  28.721 112.957  1.00  0.00     0.000 C 
BRANCH   2   3
ATOM      3  C   UNL     1       4.019  28.121 111.602  1.00  0.00     0.000 C 
BRANCH   3   4
ATOM      4  C   UNL     1       2.559  27.640 111.597  1.00  0.00     0.000 C 
BRANCH   4   5
ATOM      5  C   UNL     1       2.440  26.115 111.457  1.00  0.00     0.000 C 
BRANCH   5   6
ATOM      6  C   UNL     1       3.798  25.490 111.103  1.00  0.00     0.000 C 
BRANCH   6   7
ATOM      7  C   UNL     1       4.287  24.484 112.160  1.00  0.00     0.000 C 
BRANCH   7   8
ATOM      8  C   UNL     1       5.717  23.946 111.940  1.00  0.00     0.000 C 
BRANCH   8   9
ATOM      9  C   UNL     1       6.801  24.596 112.818  1.00  0.00     0.000 C 
BRANCH   9  10
ATOM     10  C   UNL     1       8.014  25.081 112.005  1.00  0.00     0.006 C 
BRANCH  10  11
ATOM     11  C   UNL     1       7.680  25.248 110.517  1.00  0.00     0.053 C 
BRANCH  11  12
ATOM     12  C   UNL     1       7.253  26.648 110.200  1.00  0.00     0.041 C 
ATOM     13  O   UNL     1       7.529  27.591 110.988  1.00  0.00    -0.550 OA
ATOM     14  O   UNL     1       6.518  26.907 109.049  1.00  0.00    -0.550 OA
ENDBRANCH  11  12
ENDBRANCH  10  11
ENDBRANCH   9  10
ENDBRANCH   8   9
ENDBRANCH   7   8
ENDBRANCH   6   7
ENDBRANCH   5   6
ENDBRANCH   4   5
ENDBRANCH   3   4
ENDBRANCH   2   3
ENDBRANCH   1   2
BRANCH   1  15
ATOM     15  C   UNL     1       4.531  27.493 115.198  1.00  0.00     0.000 C 
BRANCH  15  16
ATOM     16  C   UNL     1       3.256  26.653 115.051  1.00  0.00     0.000 C 
BRANCH  16  17
ATOM     17  C   UNL     1       2.014  27.462 115.459  1.00  0.00     0.000 C 
BRANCH  17  18
ATOM     18  C   UNL     1       0.719  26.934 114.815  1.00  0.00    -0.000 C 
BRANCH  18  19
ATOM     19  C   UNL     1       0.085  25.724 115.528  1.00  0.00    -0.000 C 
BRANCH  19  20
ATOM     20  C   UNL     1      -0.613  24.710 114.599  1.00  0.00    -0.000 C 
BRANCH  20  21
ATOM     21  C   UNL     1       0.329  23.936 113.655  1.00  0.00    -0.000 C 
BRANCH  21  22
ATOM     22  C   UNL     1       1.643  23.451 114.295  1.00  0.00    -0.000 C 
BRANCH  22  23
ATOM     23  C   UNL     1       2.008  22.012 113.890  1.00  0.00    -0.000 C 
BRANCH  23  24
ATOM     24  C   UNL     1       3.247  21.487 114.633  1.00  0.00    -0.000 C 
BRANCH  24  25
ATOM     25  C   UNL     1       3.640  22.372 115.825  1.00  0.00    -0.003 C 
ATOM     26  C   UNL     1       4.967  23.080 115.569  1.00  0.00     0.004 C 
ENDBRANCH  24  25
ENDBRANCH  23  24
ENDBRANCH  22  23
ENDBRANCH  21  22
ENDBRANCH  20  21
ENDBRANCH  19  20
ENDBRANCH  18  19
ENDBRANCH  17  18
ENDBRANCH  16  17
ENDBRANCH  15  16
ENDBRANCH   1  15
TORSDOF 22
ENDMDL
MODEL 2
REMARK VINA RESULT:    -3.695      1.838      5.573
REMARK INTER + INTRA:         -12.875
REMARK INTER:                  -8.184
REMARK INTRA:                  -4.691
REMARK UNBOUND:                -4.429
REMARK SMILES CCCCCCCCCCCCCCCCCCCCCCCC(=O)[O-]
REMARK SMILES IDX 13 1 14 2 15 3 16 4 17 5 18 6 19 7 20 8 21 9 22 10 23 11
REMARK SMILES IDX 24 12 25 13 26 14 12 15 11 16 10 17 9 18 8 19 7 20 6 21 5 22
REMARK SMILES IDX 4 23 3 24 2 25 1 26
REMARK H PARENT
REMARK Flexibility Score: inf
ROOT
ATOM      1  C   UNL     1       3.627  22.623 113.832  1.00  0.00     0.000 C 
ENDROOT
BRANCH   1   2
ATOM      2  C   UNL     1       2.443  22.530 114.808  1.00  0.00     0.000 C 
BRANCH   2   3
ATOM      3  C   UNL     1       1.084  22.479 114.086  1.00  0.00     0.000 C 
BRANCH   3   4
ATOM      4  C   UNL     1       0.776  23.772 113.313  1.00  0.00     0.000 C 
BRANCH   4   5
ATOM      5  C   UNL     1       0.790  25.016 114.215  1.00  0.00     0.000 C 
BRANCH   5   6
ATOM      6  C   UNL     1       1.519  26.180 113.531  1.00  0.00     0.000 C 
BRANCH   6   7
ATOM      7  C   UNL     1       2.157  25.781 112.188  1.00  0.00     0.000 C 
BRANCH   7   8
ATOM      8  C   UNL     1       3.431  26.564 111.808  1.00  0.00     0.000 C 
BRANCH   8   9
ATOM      9  C   UNL     1       4.558  25.716 111.189  1.00  0.00     0.000 C 
BRANCH   9  10
ATOM     10  C   UNL     1       5.770  26.560 110.758  1.00  0.00     0.006 C 
BRANCH  10  11
ATOM     11  C   UNL     1       7.021  26.237 111.586  1.00  0.00     0.053 C 
BRANCH  11  12
ATOM     12  C   UNL     1       7.437  24.807 111.423  1.00  0.00     0.041 C 
ATOM     13  O   UNL     1       7.474  24.283 110.278  1.00  0.00    -0.550 OA
ATOM     14  O   UNL     1       7.751  24.042 112.540  1.00  0.00    -0.550 OA
ENDBRANCH  11  12
ENDBRANCH  10  11
ENDBRANCH   9  10
ENDBRANCH   8   9
ENDBRANCH   7   8
ENDBRANCH   6   7
ENDBRANCH   5   6
ENDBRANCH   4   5
ENDBRANCH   3   4
ENDBRANCH   2   3
ENDBRANCH   1   2
BRANCH   1  15
ATOM     15  C   UNL     1       4.672  23.659 114.268  1.00  0.00     0.000 C 
BRANCH  15  16
ATOM     16  C   UNL     1       4.169  24.478 115.464  1.00  0.00     0.000 C 
BRANCH  16  17
ATOM     17  C   UNL     1       5.231  25.490 115.924  1.00  0.00     0.000 C 
BRANCH  17  18
ATOM     18  C   UNL     1       5.609  26.500 114.825  1.00  0.00    -0.000 C 
BRANCH  18  19
ATOM     19  C   UNL     1       4.838  27.833 114.873  1.00  0.00    -0.000 C 
BRANCH  19  20
ATOM     20  C   UNL     1       5.498  28.997 114.106  1.00  0.00    -0.000 C 
BRANCH  20  21
ATOM     21  C   UNL     1       4.518  30.049 113.548  1.00  0.00    -0.000 C 
BRANCH  21  22
ATOM     22  C   UNL     1       3.026  29.722 113.746  1.00  0.00    -0.000 C 
BRANCH  22  23
ATOM     23  C   UNL     1       2.169  30.085 112.521  1.00  0.00    -0.000 C 
BRANCH  23  24
ATOM     24  C   UNL     1       3.018  30.377 111.273  1.00  0.00    -0.000 C 
BRANCH  24  25
ATOM     25  C   UNL     1       2.361  29.871 109.980  1.00  0.00    -0.003 C 
ATOM     26  C   UNL     1       1.192  28.940 110.287  1.00  0.00     0.004 C 
ENDBRANCH  24  25
ENDBRANCH  23  24
ENDBRANCH  22  23
ENDBRANCH  21  22
ENDBRANCH  20  21
ENDBRANCH  19  20
ENDBRANCH  18  19
ENDBRANCH  17  18
ENDBRANCH  16  17
ENDBRANCH  15  16
ENDBRANCH   1  15
TORSDOF 22
ENDMDL
MODEL 3
REMARK VINA RESULT:    -3.664      2.550      5.385
REMARK INTER + INTRA:         -12.806
REMARK INTER:                  -8.296
REMARK INTRA:                  -4.510
REMARK UNBOUND:                -4.429
REMARK SMILES CCCCCCCCCCCCCCCCCCCCCCCC(=O)[O-]
REMARK SMILES IDX 13 1 14 2 15 3 16 4 17 5 18 6 19 7 20 8 21 9 22 10 23 11
REMARK SMILES IDX 24 12 25 13 26 14 12 15 11 16 10 17 9 18 8 19 7 20 6 21 5 22
REMARK SMILES IDX 4 23 3 24 2 25 1 26
REMARK H PARENT
REMARK Flexibility Score: inf
ROOT
ATOM      1  C   UNL     1       1.441  30.346 111.123  1.00  0.00     0.000 C 
ENDROOT
BRANCH   1   2
ATOM      2  C   UNL     1       2.313  29.504 110.178  1.00  0.00     0.000 C 
BRANCH   2   3
ATOM      3  C   UNL     1       2.184  27.993 110.443  1.00  0.00     0.000 C 
BRANCH   3   4
ATOM      4  C   UNL     1       3.515  27.246 110.261  1.00  0.00     0.000 C 
BRANCH   4   5
ATOM      5  C   UNL     1       3.409  25.756 110.620  1.00  0.00     0.000 C 
BRANCH   5   6
ATOM      6  C   UNL     1       3.031  25.574 112.097  1.00  0.00     0.000 C 
BRANCH   6   7
ATOM      7  C   UNL     1       4.129  24.870 112.914  1.00  0.00     0.000 C 
BRANCH   7   8
ATOM      8  C   UNL     1       5.154  25.810 113.582  1.00  0.00     0.000 C 
BRANCH   8   9
ATOM      9  C   UNL     1       6.319  26.254 112.679  1.00  0.00     0.000 C 
BRANCH   9  10
ATOM     10  C   UNL     1       7.230  25.086 112.263  1.00  0.00     0.006 C 
BRANCH  10  11
ATOM     11  C   UNL     1       7.116  24.771 110.766  1.00  0.00     0.053 C 
BRANCH  11  12
ATOM     12  C   UNL     1       7.720  25.855 109.926  1.00  0.00     0.041 C 
ATOM     13  O   UNL     1       8.971  25.955 109.822  1.00  0.00    -0.550 OA
ATOM     14  O   UNL     1       6.901  26.777 109.286  1.00  0.00    -0.550 OA
ENDBRANCH  11  12
ENDBRANCH  10  11
ENDBRANCH   9  10
ENDBRANCH   8   9
ENDBRANCH   7   8
ENDBRANCH   6   7
ENDBRANCH   5   6
ENDBRANCH   4   5
ENDBRANCH   3   4
ENDBRANCH   2   3
ENDBRANCH   1   2
BRANCH   1  15
ATOM     15  C   UNL     1       0.615  29.486 112.089  1.00  0.00     0.000 C 
BRANCH  15  16
ATOM     16  C   UNL     1       0.448  30.186 113.444  1.00  0.00     0.000 C 
BRANCH  16  17
ATOM     17  C   UNL     1       0.969  29.302 114.588  1.00  0.00     0.000 C 
BRANCH  17  18
ATOM     18  C   UNL     1       2.174  28.438 114.174  1.00  0.00    -0.000 C 
BRANCH  18  19
ATOM     19  C   UNL     1       3.553  29.060 114.471  1.00  0.00    -0.000 C 
BRANCH  19  20
ATOM     20  C   UNL     1       4.388  29.423 113.227  1.00  0.00    -0.000 C 
BRANCH  20  21
ATOM     21  C   UNL     1       4.779  30.911 113.115  1.00  0.00    -0.000 C 
BRANCH  21  22
ATOM     22  C   UNL     1       3.712  31.906 113.606  1.00  0.00    -0.000 C 
BRANCH  22  23
ATOM     23  C   UNL     1       4.170  32.714 114.832  1.00  0.00    -0.000 C 
BRANCH  23  24
ATOM     24  C   UNL     1       3.415  32.322 116.112  1.00  0.00    -0.000 C 
BRANCH  24  25
ATOM     25  C   UNL     1       4.328  31.669 117.160  1.00  0.00    -0.003 C 
ATOM     26  C   UNL     1       5.769  31.595 116.663  1.00  0.00     0.004 C 
ENDBRANCH  24  25
ENDBRANCH  23  24
ENDBRANCH  22  23
ENDBRANCH  21  22
ENDBRANCH  20  21
ENDBRANCH  19  20
ENDBRANCH  18  19
ENDBRANCH  17  18
ENDBRANCH  16  17
ENDBRANCH  15  16
ENDBRANCH   1  15
TORSDOF 22
ENDMDL
MODEL 4
REMARK VINA RESULT:    -3.611      1.658      4.774
REMARK INTER + INTRA:         -12.684
REMARK INTER:                  -8.323
REMARK INTRA:                  -4.360
REMARK UNBOUND:                -4.429
REMARK SMILES CCCCCCCCCCCCCCCCCCCCCCCC(=O)[O-]
REMARK SMILES IDX 13 1 14 2 15 3 16 4 17 5 18 6 19 7 20 8 21 9 22 10 23 11
REMARK SMILES IDX 24 12 25 13 26 14 12 15 11 16 10 17 9 18 8 19 7 20 6 21 5 22
REMARK SMILES IDX 4 23 3 24 2 25 1 26
REMARK H PARENT
REMARK Flexibility Score: inf
ROOT
ATOM      1  C   UNL     1       2.389  21.501 113.854  1.00  0.00     0.000 C 
ENDROOT
BRANCH   1   2
ATOM      2  C   UNL     1       3.694  22.064 114.439  1.00  0.00     0.000 C 
BRANCH   2   3
ATOM      3  C   UNL     1       4.372  23.081 113.503  1.00  0.00     0.000 C 
BRANCH   3   4
ATOM      4  C   UNL     1       4.382  24.504 114.084  1.00  0.00     0.000 C 
BRANCH   4   5
ATOM      5  C   UNL     1       3.828  25.547 113.102  1.00  0.00     0.000 C 
BRANCH   5   6
ATOM      6  C   UNL     1       3.597  24.926 111.717  1.00  0.00     0.000 C 
BRANCH   6   7
ATOM      7  C   UNL     1       3.362  25.979 110.620  1.00  0.00     0.000 C 
BRANCH   7   8
ATOM      8  C   UNL     1       4.542  26.941 110.369  1.00  0.00     0.000 C 
BRANCH   8   9
ATOM      9  C   UNL     1       5.483  26.535 109.220  1.00  0.00     0.000 C 
BRANCH   9  10
ATOM     10  C   UNL     1       6.890  26.151 109.709  1.00  0.00     0.006 C 
BRANCH  10  11
ATOM     11  C   UNL     1       7.070  26.414 111.210  1.00  0.00     0.053 C 
BRANCH  11  12
ATOM     12  C   UNL     1       7.362  25.152 111.961  1.00  0.00     0.041 C 
ATOM     13  O   UNL     1       7.196  24.031 111.410  1.00  0.00    -0.550 OA
ATOM     14  O   UNL     1       7.784  25.211 113.284  1.00  0.00    -0.550 OA
ENDBRANCH  11  12
ENDBRANCH  10  11
ENDBRANCH   9  10
ENDBRANCH   8   9
ENDBRANCH   7   8
ENDBRANCH   6   7
ENDBRANCH   5   6
ENDBRANCH   4   5
ENDBRANCH   3   4
ENDBRANCH   2   3
ENDBRANCH   1   2
BRANCH   1  15
ATOM     15  C   UNL     1       1.143  22.216 114.393  1.00  0.00     0.000 C 
BRANCH  15  16
ATOM     16  C   UNL     1       0.696  23.334 113.442  1.00  0.00     0.000 C 
BRANCH  16  17
ATOM     17  C   UNL     1       0.007  24.470 114.213  1.00  0.00     0.000 C 
BRANCH  17  18
ATOM     18  C   UNL     1       0.911  25.093 115.293  1.00  0.00    -0.000 C 
BRANCH  18  19
ATOM     19  C   UNL     1       0.784  26.622 115.444  1.00  0.00    -0.000 C 
BRANCH  19  20
ATOM     20  C   UNL     1       0.156  27.348 114.237  1.00  0.00    -0.000 C 
BRANCH  20  21
ATOM     21  C   UNL     1       1.115  27.599 113.055  1.00  0.00    -0.000 C 
BRANCH  21  22
ATOM     22  C   UNL     1       1.132  29.044 112.523  1.00  0.00    -0.000 C 
BRANCH  22  23
ATOM     23  C   UNL     1       2.513  29.710 112.651  1.00  0.00    -0.000 C 
BRANCH  23  24
ATOM     24  C   UNL     1       2.947  29.890 114.115  1.00  0.00    -0.000 C 
BRANCH  24  25
ATOM     25  C   UNL     1       4.254  29.151 114.440  1.00  0.00    -0.003 C 
ATOM     26  C   UNL     1       5.126  29.007 113.196  1.00  0.00     0.004 C 
ENDBRANCH  24  25
ENDBRANCH  23  24
ENDBRANCH  22  23
ENDBRANCH  21  22
ENDBRANCH  20  21
ENDBRANCH  19  20
ENDBRANCH  18  19
ENDBRANCH  17  18
ENDBRANCH  16  17
ENDBRANCH  15  16
ENDBRANCH   1  15
TORSDOF 22
ENDMDL
MODEL 5
REMARK VINA RESULT:    -3.564      1.539      5.390
REMARK INTER + INTRA:         -12.576
REMARK INTER:                  -8.558
REMARK INTRA:                  -4.018
REMARK UNBOUND:                -4.429
REMARK SMILES CCCCCCCCCCCCCCCCCCCCCCCC(=O)[O-]
REMARK SMILES IDX 13 1 14 2 15 3 16 4 17 5 18 6 19 7 20 8 21 9 22 10 23 11
REMARK SMILES IDX 24 12 25 13 26 14 12 15 11 16 10 17 9 18 8 19 7 20 6 21 5 22
REMARK SMILES IDX 4 23 3 24 2 25 1 26
REMARK H PARENT
REMARK Flexibility Score: inf
ROOT
ATOM      1  C   UNL     1       0.475  23.647 113.442  1.00  0.00     0.000 C 
ENDROOT
BRANCH   1   2
ATOM      2  C   UNL     1       1.054  22.614 114.422  1.00  0.00     0.000 C 
BRANCH   2   3
ATOM      3  C   UNL     1       1.898  21.537 113.716  1.00  0.00     0.000 C 
BRANCH   3   4
ATOM      4  C   UNL     1       3.406  21.715 113.959  1.00  0.00     0.000 C 
BRANCH   4   5
ATOM      5  C   UNL     1       3.719  22.892 114.895  1.00  0.00     0.000 C 
BRANCH   5   6
ATOM      6  C   UNL     1       4.721  23.856 114.245  1.00  0.00     0.000 C 
BRANCH   6   7
ATOM      7  C   UNL     1       4.434  24.103 112.753  1.00  0.00     0.000 C 
BRANCH   7   8
ATOM      8  C   UNL     1       4.142  25.570 112.375  1.00  0.00     0.000 C 
BRANCH   8   9
ATOM      9  C   UNL     1       3.911  25.824 110.874  1.00  0.00     0.000 C 
BRANCH   9  10
ATOM     10  C   UNL     1       5.140  26.435 110.178  1.00  0.00     0.006 C 
BRANCH  10  11
ATOM     11  C   UNL     1       6.403  25.590 110.391  1.00  0.00     0.053 C 
BRANCH  11  12
ATOM     12  C   UNL     1       7.527  26.408 110.948  1.00  0.00     0.041 C 
ATOM     13  O   UNL     1       7.349  27.621 111.233  1.00  0.00    -0.550 OA
ATOM     14  O   UNL     1       8.782  25.838 111.120  1.00  0.00    -0.550 OA
ENDBRANCH  11  12
ENDBRANCH  10  11
ENDBRANCH   9  10
ENDBRANCH   8   9
ENDBRANCH   7   8
ENDBRANCH   6   7
ENDBRANCH   5   6
ENDBRANCH   4   5
ENDBRANCH   3   4
ENDBRANCH   2   3
ENDBRANCH   1   2
BRANCH   1  15
ATOM     15  C   UNL     1       0.027  24.939 114.140  1.00  0.00     0.000 C 
BRANCH  15  16
ATOM     16  C   UNL     1       1.034  26.071 113.900  1.00  0.00     0.000 C 
BRANCH  16  17
ATOM     17  C   UNL     1       1.789  26.419 115.192  1.00  0.00     0.000 C 
BRANCH  17  18
ATOM     18  C   UNL     1       2.081  27.925 115.326  1.00  0.00    -0.000 C 
BRANCH  18  19
ATOM     19  C   UNL     1       3.400  28.392 114.680  1.00  0.00    -0.000 C 
BRANCH  19  20
ATOM     20  C   UNL     1       3.556  29.920 114.546  1.00  0.00    -0.000 C 
BRANCH  20  21
ATOM     21  C   UNL     1       3.762  30.432 113.106  1.00  0.00    -0.000 C 
BRANCH  21  22
ATOM     22  C   UNL     1       3.790  29.338 112.022  1.00  0.00    -0.000 C 
BRANCH  22  23
ATOM     23  C   UNL     1       2.649  29.482 111.000  1.00  0.00    -0.000 C 
BRANCH  23  24
ATOM     24  C   UNL     1       1.419  28.636 111.368  1.00  0.00    -0.000 C 
BRANCH  24  25
ATOM     25  C   UNL     1       0.154  29.485 111.561  1.00  0.00    -0.003 C 
ATOM     26  C   UNL     1      -0.076  29.800 113.036  1.00  0.00     0.004 C 
ENDBRANCH  24  25
ENDBRANCH  23  24
ENDBRANCH  22  23
ENDBRANCH  21  22
ENDBRANCH  20  21
ENDBRANCH  19  20
ENDBRANCH  18  19
ENDBRANCH  17  18
ENDBRANCH  16  17
ENDBRANCH  15  16
ENDBRANCH   1  15
TORSDOF 22
ENDMDL
MODEL 6
REMARK VINA RESULT:    -3.542      2.478      4.750
REMARK INTER + INTRA:         -12.526
REMARK INTER:                  -8.203
REMARK INTRA:                  -4.324
REMARK UNBOUND:                -4.429
REMARK SMILES CCCCCCCCCCCCCCCCCCCCCCCC(=O)[O-]
REMARK SMILES IDX 13 1 14 2 15 3 16 4 17 5 18 6 19 7 20 8 21 9 22 10 23 11
REMARK SMILES IDX 24 12 25 13 26 14 12 15 11 16 10 17 9 18 8 19 7 20 6 21 5 22
REMARK SMILES IDX 4 23 3 24 2 25 1 26
REMARK H PARENT
REMARK Flexibility Score: inf
ROOT
ATOM      1  C   UNL     1       5.999  27.191 112.904  1.00  0.00     0.000 C 
ENDROOT
BRANCH   1   2
ATOM      2  C   UNL     1       6.751  26.120 112.097  1.00  0.00     0.000 C 
BRANCH   2   3
ATOM      3  C   UNL     1       5.899  25.531 110.958  1.00  0.00     0.000 C 
BRANCH   3   4
ATOM      4  C   UNL     1       4.822  26.509 110.460  1.00  0.00     0.000 C 
BRANCH   4   5
ATOM      5  C   UNL     1       3.400  25.946 110.606  1.00  0.00     0.000 C 
BRANCH   5   6
ATOM      6  C   UNL     1       2.427  27.034 111.082  1.00  0.00     0.000 C 
BRANCH   6   7
ATOM      7  C   UNL     1       3.057  28.438 111.093  1.00  0.00     0.000 C 
BRANCH   7   8
ATOM      8  C   UNL     1       2.993  29.175 112.447  1.00  0.00     0.000 C 
BRANCH   8   9
ATOM      9  C   UNL     1       3.937  30.383 112.579  1.00  0.00     0.000 C 
BRANCH   9  10
ATOM     10  C   UNL     1       4.447  30.587 114.016  1.00  0.00     0.006 C 
BRANCH  10  11
ATOM     11  C   UNL     1       5.932  30.972 114.051  1.00  0.00     0.053 C 
BRANCH  11  12
ATOM     12  C   UNL     1       6.309  31.601 115.358  1.00  0.00     0.041 C 
ATOM     13  O   UNL     1       5.434  31.805 116.241  1.00  0.00    -0.550 OA
ATOM     14  O   UNL     1       7.622  31.995 115.587  1.00  0.00    -0.550 OA
ENDBRANCH  11  12
ENDBRANCH  10  11
ENDBRANCH   9  10
ENDBRANCH   8   9
ENDBRANCH   7   8
ENDBRANCH   6   7
ENDBRANCH   5   6
ENDBRANCH   4   5
ENDBRANCH   3   4
ENDBRANCH   2   3
ENDBRANCH   1   2
BRANCH   1  15
ATOM     15  C   UNL     1       5.645  26.724 114.322  1.00  0.00     0.000 C 
BRANCH  15  16
ATOM     16  C   UNL     1       4.181  26.272 114.403  1.00  0.00     0.000 C 
BRANCH  16  17
ATOM     17  C   UNL     1       4.080  24.814 114.875  1.00  0.00     0.000 C 
BRANCH  17  18
ATOM     18  C   UNL     1       4.119  23.805 113.712  1.00  0.00    -0.000 C 
BRANCH  18  19
ATOM     19  C   UNL     1       3.883  22.337 114.115  1.00  0.00    -0.000 C 
BRANCH  19  20
ATOM     20  C   UNL     1       2.439  21.831 113.923  1.00  0.00    -0.000 C 
BRANCH  20  21
ATOM     21  C   UNL     1       1.492  22.093 115.111  1.00  0.00    -0.000 C 
BRANCH  21  22
ATOM     22  C   UNL     1       0.337  23.069 114.822  1.00  0.00    -0.000 C 
BRANCH  22  23
ATOM     23  C   UNL     1       0.370  23.625 113.388  1.00  0.00    -0.000 C 
BRANCH  23  24
ATOM     24  C   UNL     1       0.757  25.112 113.341  1.00  0.00    -0.000 C 
BRANCH  24  25
ATOM     25  C   UNL     1       0.446  25.846 114.654  1.00  0.00    -0.003 C 
ATOM     26  C   UNL     1       0.179  27.327 114.405  1.00  0.00     0.004 C 
ENDBRANCH  24  25
ENDBRANCH  23  24
ENDBRANCH  22  23
ENDBRANCH  21  22
ENDBRANCH  20  21
ENDBRANCH  19  20
ENDBRANCH  18  19
ENDBRANCH  17  18
ENDBRANCH  16  17
ENDBRANCH  15  16
ENDBRANCH   1  15
TORSDOF 22
ENDMDL
MODEL 7
REMARK VINA RESULT:    -3.520      2.408      4.340
REMARK INTER + INTRA:         -12.476
REMARK INTER:                  -8.288
REMARK INTRA:                  -4.189
REMARK UNBOUND:                -4.429
REMARK SMILES CCCCCCCCCCCCCCCCCCCCCCCC(=O)[O-]
REMARK SMILES IDX 13 1 14 2 15 3 16 4 17 5 18 6 19 7 20 8 21 9 22 10 23 11
REMARK SMILES IDX 24 12 25 13 26 14 12 15 11 16 10 17 9 18 8 19 7 20 6 21 5 22
REMARK SMILES IDX 4 23 3 24 2 25 1 26
REMARK H PARENT
REMARK Flexibility Score: inf
ROOT
ATOM      1  C   UNL     1       2.530  28.644 110.105  1.00  0.00     0.000 C 
ENDROOT
BRANCH   1   2
ATOM      2  C   UNL     1       1.955  27.715 111.186  1.00  0.00     0.000 C 
BRANCH   2   3
ATOM      3  C   UNL     1       2.519  26.285 111.098  1.00  0.00     0.000 C 
BRANCH   3   4
ATOM      4  C   UNL     1       3.848  26.220 110.326  1.00  0.00     0.000 C 
BRANCH   4   5
ATOM      5  C   UNL     1       4.939  25.458 111.092  1.00  0.00     0.000 C 
BRANCH   5   6
ATOM      6  C   UNL     1       6.332  26.003 110.747  1.00  0.00     0.000 C 
BRANCH   6   7
ATOM      7  C   UNL     1       6.706  27.252 111.565  1.00  0.00     0.000 C 
BRANCH   7   8
ATOM      8  C   UNL     1       5.842  27.497 112.820  1.00  0.00     0.000 C 
BRANCH   8   9
ATOM      9  C   UNL     1       5.213  28.899 112.916  1.00  0.00     0.000 C 
BRANCH   9  10
ATOM     10  C   UNL     1       5.495  29.586 114.264  1.00  0.00     0.006 C 
BRANCH  10  11
ATOM     11  C   UNL     1       5.605  31.110 114.121  1.00  0.00     0.053 C 
BRANCH  11  12
ATOM     12  C   UNL     1       7.003  31.588 114.371  1.00  0.00     0.041 C 
ATOM     13  O   UNL     1       7.350  31.962 115.523  1.00  0.00    -0.550 OA
ATOM     14  O   UNL     1       7.913  31.656 113.323  1.00  0.00    -0.550 OA
ENDBRANCH  11  12
ENDBRANCH  10  11
ENDBRANCH   9  10
ENDBRANCH   8   9
ENDBRANCH   7   8
ENDBRANCH   6   7
ENDBRANCH   5   6
ENDBRANCH   4   5
ENDBRANCH   3   4
ENDBRANCH   2   3
ENDBRANCH   1   2
BRANCH   1  15
ATOM     15  C   UNL     1       2.531  30.118 110.531  1.00  0.00     0.000 C 
BRANCH  15  16
ATOM     16  C   UNL     1       1.457  30.383 111.594  1.00  0.00     0.000 C 
BRANCH  16  17
ATOM     17  C   UNL     1       2.092  30.844 112.915  1.00  0.00     0.000 C 
BRANCH  17  18
ATOM     18  C   UNL     1       1.337  30.328 114.154  1.00  0.00    -0.000 C 
BRANCH  18  19
ATOM     19  C   UNL     1       1.894  29.024 114.758  1.00  0.00    -0.000 C 
BRANCH  19  20
ATOM     20  C   UNL     1       0.913  27.835 114.761  1.00  0.00    -0.000 C 
BRANCH  20  21
ATOM     21  C   UNL     1       1.570  26.446 114.623  1.00  0.00    -0.000 C 
BRANCH  21  22
ATOM     22  C   UNL     1       3.070  26.397 114.965  1.00  0.00    -0.000 C 
BRANCH  22  23
ATOM     23  C   UNL     1       3.723  25.054 114.592  1.00  0.00    -0.000 C 
BRANCH  23  24
ATOM     24  C   UNL     1       2.739  24.090 113.910  1.00  0.00    -0.000 C 
BRANCH  24  25
ATOM     25  C   UNL     1       2.499  22.813 114.729  1.00  0.00    -0.003 C 
ATOM     26  C   UNL     1       1.708  21.786 113.925  1.00  0.00     0.004 C 
ENDBRANCH  24  25
ENDBRANCH  23  24
ENDBRANCH  22  23
ENDBRANCH  21  22
ENDBRANCH  20  21
ENDBRANCH  19  20
ENDBRANCH  18  19
ENDBRANCH  17  18
ENDBRANCH  16  17
ENDBRANCH  15  16
ENDBRANCH   1  15
TORSDOF 22
ENDMDL
MODEL 8
REMARK VINA RESULT:    -3.504      1.537      5.130
REMARK INTER + INTRA:         -12.438
REMARK INTER:                  -8.204
REMARK INTRA:                  -4.235
REMARK UNBOUND:                -4.429
REMARK SMILES CCCCCCCCCCCCCCCCCCCCCCCC(=O)[O-]
REMARK SMILES IDX 13 1 14 2 15 3 16 4 17 5 18 6 19 7 20 8 21 9 22 10 23 11
REMARK SMILES IDX 24 12 25 13 26 14 12 15 11 16 10 17 9 18 8 19 7 20 6 21 5 22
REMARK SMILES IDX 4 23 3 24 2 25 1 26
REMARK H PARENT
REMARK Flexibility Score: inf
ROOT
ATOM      1  C   UNL     1       0.912  22.796 114.524  1.00  0.00     0.000 C 
ENDROOT
BRANCH   1   2
ATOM      2  C   UNL     1       0.245  23.947 113.753  1.00  0.00     0.000 C 
BRANCH   2   3
ATOM      3  C   UNL     1       0.017  25.192 114.629  1.00  0.00     0.000 C 
BRANCH   3   4
ATOM      4  C   UNL     1       0.722  26.441 114.077  1.00  0.00     0.000 C 
BRANCH   4   5
ATOM      5  C   UNL     1       1.566  26.139 112.829  1.00  0.00     0.000 C 
BRANCH   5   6
ATOM      6  C   UNL     1       1.697  27.386 111.942  1.00  0.00     0.000 C 
BRANCH   6   7
ATOM      7  C   UNL     1       2.834  27.271 110.912  1.00  0.00     0.000 C 
BRANCH   7   8
ATOM      8  C   UNL     1       3.496  25.880 110.818  1.00  0.00     0.000 C 
BRANCH   8   9
ATOM      9  C   UNL     1       5.030  25.894 110.693  1.00  0.00     0.000 C 
BRANCH   9  10
ATOM     10  C   UNL     1       5.692  26.955 111.589  1.00  0.00     0.006 C 
BRANCH  10  11
ATOM     11  C   UNL     1       6.633  26.328 112.626  1.00  0.00     0.053 C 
BRANCH  11  12
ATOM     12  C   UNL     1       7.631  25.413 111.985  1.00  0.00     0.041 C 
ATOM     13  O   UNL     1       8.530  25.878 111.236  1.00  0.00    -0.550 OA
ATOM     14  O   UNL     1       7.545  24.040 112.186  1.00  0.00    -0.550 OA
ENDBRANCH  11  12
ENDBRANCH  10  11
ENDBRANCH   9  10
ENDBRANCH   8   9
ENDBRANCH   7   8
ENDBRANCH   6   7
ENDBRANCH   5   6
ENDBRANCH   4   5
ENDBRANCH   3   4
ENDBRANCH   2   3
ENDBRANCH   1   2
BRANCH   1  15
ATOM     15  C   UNL     1       1.833  21.946 113.639  1.00  0.00     0.000 C 
BRANCH  15  16
ATOM     16  C   UNL     1       3.292  22.052 114.102  1.00  0.00     0.000 C 
BRANCH  16  17
ATOM     17  C   UNL     1       3.969  23.297 113.506  1.00  0.00     0.000 C 
BRANCH  17  18
ATOM     18  C   UNL     1       4.953  23.967 114.482  1.00  0.00    -0.000 C 
BRANCH  18  19
ATOM     19  C   UNL     1       4.440  24.107 115.929  1.00  0.00    -0.000 C 
BRANCH  19  20
ATOM     20  C   UNL     1       3.398  25.221 116.147  1.00  0.00    -0.000 C 
BRANCH  20  21
ATOM     21  C   UNL     1       3.983  26.596 116.531  1.00  0.00    -0.000 C 
BRANCH  21  22
ATOM     22  C   UNL     1       3.932  27.661 115.421  1.00  0.00    -0.000 C 
BRANCH  22  23
ATOM     23  C   UNL     1       5.202  28.527 115.366  1.00  0.00    -0.000 C 
BRANCH  23  24
ATOM     24  C   UNL     1       4.919  29.959 114.883  1.00  0.00    -0.000 C 
BRANCH  24  25
ATOM     25  C   UNL     1       5.082  30.113 113.363  1.00  0.00    -0.003 C 
ATOM     26  C   UNL     1       3.754  30.468 112.702  1.00  0.00     0.004 C 
ENDBRANCH  24  25
ENDBRANCH  23  24
ENDBRANCH  22  23
ENDBRANCH  21  22
ENDBRANCH  20  21
ENDBRANCH  19  20
ENDBRANCH  18  19
ENDBRANCH  17  18
ENDBRANCH  16  17
ENDBRANCH  15  16
ENDBRANCH   1  15
TORSDOF 22
ENDMDL
MODEL 9
REMARK VINA RESULT:    -3.488      3.519      6.919
REMARK INTER + INTRA:         -12.403
REMARK INTER:                  -8.935
REMARK INTRA:                  -3.469
REMARK UNBOUND:                -4.429
REMARK SMILES CCCCCCCCCCCCCCCCCCCCCCCC(=O)[O-]
REMARK SMILES IDX 13 1 14 2 15 3 16 4 17 5 18 6 19 7 20 8 21 9 22 10 23 11
REMARK SMILES IDX 24 12 25 13 26 14 12 15 11 16 10 17 9 18 8 19 7 20 6 21 5 22
REMARK SMILES IDX 4 23 3 24 2 25 1 26
REMARK H PARENT
REMARK Flexibility Score: inf
ROOT
ATOM      1  C   UNL     1       3.518  29.027 111.672  1.00  0.00     0.000 C 
ENDROOT
BRANCH   1   2
ATOM      2  C   UNL     1       2.686  30.297 111.435  1.00  0.00     0.000 C 
BRANCH   2   3
ATOM      3  C   UNL     1       1.210  29.988 111.125  1.00  0.00     0.000 C 
BRANCH   3   4
ATOM      4  C   UNL     1       0.242  30.705 112.080  1.00  0.00     0.000 C 
BRANCH   4   5
ATOM      5  C   UNL     1      -0.319  29.771 113.163  1.00  0.00     0.000 C 
BRANCH   5   6
ATOM      6  C   UNL     1       0.362  30.028 114.515  1.00  0.00     0.000 C 
BRANCH   6   7
ATOM      7  C   UNL     1       0.505  31.526 114.837  1.00  0.00     0.000 C 
BRANCH   7   8
ATOM      8  C   UNL     1       1.915  31.971 115.279  1.00  0.00     0.000 C 
BRANCH   8   9
ATOM      9  C   UNL     1       2.901  30.824 115.568  1.00  0.00     0.000 C 
BRANCH   9  10
ATOM     10  C   UNL     1       4.315  31.104 115.030  1.00  0.00     0.006 C 
BRANCH  10  11
ATOM     11  C   UNL     1       5.342  31.256 116.159  1.00  0.00     0.053 C 
BRANCH  11  12
ATOM     12  C   UNL     1       6.067  32.564 116.075  1.00  0.00     0.041 C 
ATOM     13  O   UNL     1       5.425  33.640 115.958  1.00  0.00    -0.550 OA
ATOM     14  O   UNL     1       7.456  32.590 116.089  1.00  0.00    -0.550 OA
ENDBRANCH  11  12
ENDBRANCH  10  11
ENDBRANCH   9  10
ENDBRANCH   8   9
ENDBRANCH   7   8
ENDBRANCH   6   7
ENDBRANCH   5   6
ENDBRANCH   4   5
ENDBRANCH   3   4
ENDBRANCH   2   3
ENDBRANCH   1   2
BRANCH   1  15
ATOM     15  C   UNL     1       3.126  28.296 112.963  1.00  0.00     0.000 C 
BRANCH  15  16
ATOM     16  C   UNL     1       2.601  26.886 112.660  1.00  0.00     0.000 C 
BRANCH  16  17
ATOM     17  C   UNL     1       2.624  26.604 111.149  1.00  0.00     0.000 C 
BRANCH  17  18
ATOM     18  C   UNL     1       3.608  25.485 110.765  1.00  0.00    -0.000 C 
BRANCH  18  19
ATOM     19  C   UNL     1       4.338  24.824 111.951  1.00  0.00    -0.000 C 
BRANCH  19  20
ATOM     20  C   UNL     1       5.876  24.925 111.909  1.00  0.00    -0.000 C 
BRANCH  20  21
ATOM     21  C   UNL     1       6.445  26.330 112.195  1.00  0.00    -0.000 C 
BRANCH  21  22
ATOM     22  C   UNL     1       7.085  27.034 110.984  1.00  0.00    -0.000 C 
BRANCH  22  23
ATOM     23  C   UNL     1       7.250  26.102 109.771  1.00  0.00    -0.000 C 
BRANCH  23  24
ATOM     24  C   UNL     1       6.327  26.485 108.603  1.00  0.00    -0.000 C 
BRANCH  24  25
ATOM     25  C   UNL     1       7.030  26.397 107.241  1.00  0.00    -0.003 C 
ATOM     26  C   UNL     1       8.309  25.570 107.336  1.00  0.00     0.004 C 
ENDBRANCH  24  25
ENDBRANCH  23  24
ENDBRANCH  22  23
ENDBRANCH  21  22
ENDBRANCH  20  21
ENDBRANCH  19  20
ENDBRANCH  18  19
ENDBRANCH  17  18
ENDBRANCH  16  17
ENDBRANCH  15  16
ENDBRANCH   1  15
TORSDOF 22
ENDMDL
