MODEL 1
REMARK VINA RESULT:    -6.611      0.000      0.000
REMARK INTER + INTRA:          -7.715
REMARK INTER:                  -7.577
REMARK INTRA:                  -0.138
REMARK UNBOUND:                -0.138
REMARK SMILES O=C([O-])C=Cc1ccc(O)cc1
REMARK SMILES IDX 6 1 7 2 12 3 8 4 11 5 9 6 5 7 4 8 2 9 1 10 3 11 10 12
REMARK H PARENT 10 13
REMARK Flexibility Score: inf
ROOT
ATOM      1  C   UNL     1      10.476 110.956  15.820  1.00  0.00    -0.025 A 
ATOM      2  C   UNL     1      10.808 110.059  16.850  1.00  0.00     0.012 A 
ATOM      3  C   UNL     1      10.823 112.315  15.965  1.00  0.00     0.012 A 
ATOM      4  C   UNL     1      11.492 110.501  17.987  1.00  0.00     0.047 A 
ATOM      5  C   UNL     1      11.507 112.752  17.104  1.00  0.00     0.047 A 
ATOM      6  C   UNL     1      11.846 111.846  18.116  1.00  0.00     0.115 A 
ENDROOT
BRANCH   1   7
ATOM      7  C   UNL     1       9.740 110.440  14.640  1.00  0.00     0.010 C 
ATOM      8  C   UNL     1       8.403 110.410  14.551  1.00  0.00     0.025 C 
BRANCH   8   9
ATOM      9  C   UNL     1       7.715 109.900  13.354  1.00  0.00     0.064 C 
ATOM     10  O   UNL     1       8.363 109.740  12.287  1.00  0.00    -0.545 OA
ATOM     11  O   UNL     1       6.360 109.593  13.382  1.00  0.00    -0.545 OA
ENDBRANCH   8   9
ENDBRANCH   1   7
BRANCH   6  12
ATOM     12  O   UNL     1      12.528 112.273  19.253  1.00  0.00    -0.508 OA
ATOM     13  H   UNL     1      12.662 111.663  20.051  1.00  0.00     0.293 HD
ENDBRANCH   6  12
TORSDOF 3
ENDMDL
MODEL 2
REMARK VINA RESULT:    -6.563     13.661     16.460
REMARK INTER + INTRA:          -7.661
REMARK INTER:                  -7.513
REMARK INTRA:                  -0.148
REMARK UNBOUND:                -0.138
REMARK SMILES O=C([O-])C=Cc1ccc(O)cc1
REMARK SMILES IDX 6 1 7 2 12 3 8 4 11 5 9 6 5 7 4 8 2 9 1 10 3 11 10 12
REMARK H PARENT 10 13
REMARK Flexibility Score: inf
ROOT
ATOM      1  C   UNL     1      18.376 123.883  15.918  1.00  0.00    -0.025 A 
ATOM      2  C   UNL     1      17.993 123.112  17.029  1.00  0.00     0.012 A 
ATOM      3  C   UNL     1      18.376 123.282  14.642  1.00  0.00     0.012 A 
ATOM      4  C   UNL     1      17.596 121.781  16.870  1.00  0.00     0.047 A 
ATOM      5  C   UNL     1      17.978 121.950  14.489  1.00  0.00     0.047 A 
ATOM      6  C   UNL     1      17.584 121.197  15.602  1.00  0.00     0.115 A 
ENDROOT
BRANCH   1   7
ATOM      7  C   UNL     1      18.800 125.287  16.140  1.00  0.00     0.010 C 
ATOM      8  C   UNL     1      18.332 126.058  17.131  1.00  0.00     0.025 C 
BRANCH   8   9
ATOM      9  C   UNL     1      18.790 127.443  17.321  1.00  0.00     0.064 C 
ATOM     10  O   UNL     1      18.480 128.062  18.372  1.00  0.00    -0.545 OA
ATOM     11  O   UNL     1      19.560 128.083  16.356  1.00  0.00    -0.545 OA
ENDBRANCH   8   9
ENDBRANCH   1   7
BRANCH   6  12
ATOM     12  O   UNL     1      17.186 119.871  15.457  1.00  0.00    -0.508 OA
ATOM     13  H   UNL     1      16.263 119.560  15.739  1.00  0.00     0.293 HD
ENDBRANCH   6  12
TORSDOF 3
ENDMDL
MODEL 3
REMARK VINA RESULT:    -6.257     14.390     16.525
REMARK INTER + INTRA:          -7.310
REMARK INTER:                  -7.155
REMARK INTRA:                  -0.154
REMARK UNBOUND:                -0.138
REMARK SMILES O=C([O-])C=Cc1ccc(O)cc1
REMARK SMILES IDX 6 1 7 2 12 3 8 4 11 5 9 6 5 7 4 8 2 9 1 10 3 11 10 12
REMARK H PARENT 10 13
REMARK Flexibility Score: inf
ROOT
ATOM      1  C   UNL     1      18.627 125.324  16.114  1.00  0.00    -0.025 A 
ATOM      2  C   UNL     1      18.189 125.328  17.450  1.00  0.00     0.012 A 
ATOM      3  C   UNL     1      19.218 126.493  15.591  1.00  0.00     0.012 A 
ATOM      4  C   UNL     1      18.359 126.460  18.253  1.00  0.00     0.047 A 
ATOM      5  C   UNL     1      19.385 127.623  16.398  1.00  0.00     0.047 A 
ATOM      6  C   UNL     1      18.959 127.608  17.732  1.00  0.00     0.115 A 
ENDROOT
BRANCH   1   7
ATOM      7  C   UNL     1      18.414 124.103  15.300  1.00  0.00     0.010 C 
ATOM      8  C   UNL     1      18.020 122.928  15.810  1.00  0.00     0.025 C 
BRANCH   8   9
ATOM      9  C   UNL     1      17.809 121.744  14.962  1.00  0.00     0.064 C 
ATOM     10  O   UNL     1      18.078 121.804  13.734  1.00  0.00    -0.545 OA
ATOM     11  O   UNL     1      17.316 120.558  15.494  1.00  0.00    -0.545 OA
ENDBRANCH   8   9
ENDBRANCH   1   7
BRANCH   6  12
ATOM     12  O   UNL     1      19.122 128.728  18.542  1.00  0.00    -0.508 OA
ATOM     13  H   UNL     1      19.785 128.736  19.310  1.00  0.00     0.293 HD
ENDBRANCH   6  12
TORSDOF 3
ENDMDL
MODEL 4
REMARK VINA RESULT:    -6.230      3.433      4.817
REMARK INTER + INTRA:          -7.279
REMARK INTER:                  -7.126
REMARK INTRA:                  -0.153
REMARK UNBOUND:                -0.138
REMARK SMILES O=C([O-])C=Cc1ccc(O)cc1
REMARK SMILES IDX 6 1 7 2 12 3 8 4 11 5 9 6 5 7 4 8 2 9 1 10 3 11 10 12
REMARK H PARENT 10 13
REMARK Flexibility Score: inf
ROOT
ATOM      1  C   UNL     1      11.235 112.607  16.031  1.00  0.00    -0.025 A 
ATOM      2  C   UNL     1      11.657 112.859  17.347  1.00  0.00     0.012 A 
ATOM      3  C   UNL     1      10.798 111.309  15.694  1.00  0.00     0.012 A 
ATOM      4  C   UNL     1      11.620 111.848  18.313  1.00  0.00     0.047 A 
ATOM      5  C   UNL     1      10.764 110.301  16.663  1.00  0.00     0.047 A 
ATOM      6  C   UNL     1      11.172 110.569  17.976  1.00  0.00     0.115 A 
ENDROOT
BRANCH   1   7
ATOM      7  C   UNL     1      11.304 113.709  15.040  1.00  0.00     0.010 C 
ATOM      8  C   UNL     1      11.714 114.950  15.334  1.00  0.00     0.025 C 
BRANCH   8   9
ATOM      9  C   UNL     1      11.777 116.010  14.315  1.00  0.00     0.064 C 
ATOM     10  O   UNL     1      10.776 116.229  13.585  1.00  0.00    -0.545 OA
ATOM     11  O   UNL     1      12.925 116.774  14.145  1.00  0.00    -0.545 OA
ENDBRANCH   8   9
ENDBRANCH   1   7
BRANCH   6  12
ATOM     12  O   UNL     1      11.140 109.572  18.948  1.00  0.00    -0.508 OA
ATOM     13  H   UNL     1      10.630 108.708  18.804  1.00  0.00     0.293 HD
ENDBRANCH   6  12
TORSDOF 3
ENDMDL
MODEL 5
REMARK VINA RESULT:    -6.006     17.566     19.803
REMARK INTER + INTRA:          -7.022
REMARK INTER:                  -6.882
REMARK INTRA:                  -0.141
REMARK UNBOUND:                -0.138
REMARK SMILES O=C([O-])C=Cc1ccc(O)cc1
REMARK SMILES IDX 6 1 7 2 12 3 8 4 11 5 9 6 5 7 4 8 2 9 1 10 3 11 10 12
REMARK H PARENT 10 13
REMARK Flexibility Score: inf
ROOT
ATOM      1  C   UNL     1      19.646 127.269  15.606  1.00  0.00    -0.025 A 
ATOM      2  C   UNL     1      19.370 128.307  16.513  1.00  0.00     0.012 A 
ATOM      3  C   UNL     1      19.256 125.956  15.938  1.00  0.00     0.012 A 
ATOM      4  C   UNL     1      18.700 128.046  17.712  1.00  0.00     0.047 A 
ATOM      5  C   UNL     1      18.585 125.699  17.138  1.00  0.00     0.047 A 
ATOM      6  C   UNL     1      18.302 126.744  18.026  1.00  0.00     0.115 A 
ENDROOT
BRANCH   1   7
ATOM      7  C   UNL     1      20.371 127.595  14.353  1.00  0.00     0.010 C 
ATOM      8  C   UNL     1      21.629 128.058  14.319  1.00  0.00     0.025 C 
BRANCH   8   9
ATOM      9  C   UNL     1      22.313 128.357  13.052  1.00  0.00     0.064 C 
ATOM     10  O   UNL     1      23.512 128.738  13.068  1.00  0.00    -0.545 OA
ATOM     11  O   UNL     1      21.656 128.227  11.834  1.00  0.00    -0.545 OA
ENDBRANCH   8   9
ENDBRANCH   1   7
BRANCH   6  12
ATOM     12  O   UNL     1      17.633 126.498  19.223  1.00  0.00    -0.508 OA
ATOM     13  H   UNL     1      18.030 125.899  19.938  1.00  0.00     0.293 HD
ENDBRANCH   6  12
TORSDOF 3
ENDMDL
MODEL 6
REMARK VINA RESULT:    -5.943     13.767     16.088
REMARK INTER + INTRA:          -6.950
REMARK INTER:                  -6.807
REMARK INTRA:                  -0.142
REMARK UNBOUND:                -0.138
REMARK SMILES O=C([O-])C=Cc1ccc(O)cc1
REMARK SMILES IDX 6 1 7 2 12 3 8 4 11 5 9 6 5 7 4 8 2 9 1 10 3 11 10 12
REMARK H PARENT 10 13
REMARK Flexibility Score: inf
ROOT
ATOM      1  C   UNL     1      18.332 124.644  16.172  1.00  0.00    -0.025 A 
ATOM      2  C   UNL     1      18.728 125.419  15.068  1.00  0.00     0.012 A 
ATOM      3  C   UNL     1      18.322 125.240  17.451  1.00  0.00     0.012 A 
ATOM      4  C   UNL     1      19.082 126.761  15.230  1.00  0.00     0.047 A 
ATOM      5  C   UNL     1      18.677 126.583  17.607  1.00  0.00     0.047 A 
ATOM      6  C   UNL     1      19.055 127.348  16.497  1.00  0.00     0.115 A 
ENDROOT
BRANCH   1   7
ATOM      7  C   UNL     1      17.976 123.221  15.951  1.00  0.00     0.010 C 
ATOM      8  C   UNL     1      17.611 122.384  16.931  1.00  0.00     0.025 C 
BRANCH   8   9
ATOM      9  C   UNL     1      17.255 120.982  16.663  1.00  0.00     0.064 C 
ATOM     10  O   UNL     1      17.341 120.532  15.491  1.00  0.00    -0.545 OA
ATOM     11  O   UNL     1      16.823 120.143  17.684  1.00  0.00    -0.545 OA
ENDBRANCH   8   9
ENDBRANCH   1   7
BRANCH   6  12
ATOM     12  O   UNL     1      19.410 128.687  16.644  1.00  0.00    -0.508 OA
ATOM     13  H   UNL     1      19.948 129.174  15.937  1.00  0.00     0.293 HD
ENDBRANCH   6  12
TORSDOF 3
ENDMDL
MODEL 7
REMARK VINA RESULT:    -5.843      3.506      5.228
REMARK INTER + INTRA:          -6.836
REMARK INTER:                  -6.702
REMARK INTRA:                  -0.134
REMARK UNBOUND:                -0.138
REMARK SMILES O=C([O-])C=Cc1ccc(O)cc1
REMARK SMILES IDX 6 1 7 2 12 3 8 4 11 5 9 6 5 7 4 8 2 9 1 10 3 11 10 12
REMARK H PARENT 10 13
REMARK Flexibility Score: inf
ROOT
ATOM      1  C   UNL     1      11.353 114.204  16.024  1.00  0.00    -0.025 A 
ATOM      2  C   UNL     1      11.320 114.464  14.643  1.00  0.00     0.012 A 
ATOM      3  C   UNL     1      11.792 115.222  16.896  1.00  0.00     0.012 A 
ATOM      4  C   UNL     1      11.692 115.716  14.144  1.00  0.00     0.047 A 
ATOM      5  C   UNL     1      12.164 116.473  16.392  1.00  0.00     0.047 A 
ATOM      6  C   UNL     1      12.111 116.724  15.016  1.00  0.00     0.115 A 
ENDROOT
BRANCH   1   7
ATOM      7  C   UNL     1      10.960 112.857  16.502  1.00  0.00     0.010 C 
ATOM      8  C   UNL     1      11.836 111.886  16.797  1.00  0.00     0.025 C 
BRANCH   8   9
ATOM      9  C   UNL     1      11.401 110.566  17.280  1.00  0.00     0.064 C 
ATOM     10  O   UNL     1      11.705 110.200  18.445  1.00  0.00    -0.545 OA
ATOM     11  O   UNL     1      10.659 109.714  16.470  1.00  0.00    -0.545 OA
ENDBRANCH   8   9
ENDBRANCH   1   7
BRANCH   6  12
ATOM     12  O   UNL     1      12.478 117.967  14.506  1.00  0.00    -0.508 OA
ATOM     13  H   UNL     1      12.128 118.829  14.908  1.00  0.00     0.293 HD
ENDBRANCH   6  12
TORSDOF 3
ENDMDL
MODEL 8
REMARK VINA RESULT:    -5.713     10.051     11.780
REMARK INTER + INTRA:          -6.686
REMARK INTER:                  -6.536
REMARK INTRA:                  -0.150
REMARK UNBOUND:                -0.138
REMARK SMILES O=C([O-])C=Cc1ccc(O)cc1
REMARK SMILES IDX 6 1 7 2 12 3 8 4 11 5 9 6 5 7 4 8 2 9 1 10 3 11 10 12
REMARK H PARENT 10 13
REMARK Flexibility Score: inf
ROOT
ATOM      1  C   UNL     1      15.136 119.314  19.947  1.00  0.00    -0.025 A 
ATOM      2  C   UNL     1      14.015 119.099  19.127  1.00  0.00     0.012 A 
ATOM      3  C   UNL     1      16.378 119.591  19.340  1.00  0.00     0.012 A 
ATOM      4  C   UNL     1      14.123 119.182  17.736  1.00  0.00     0.047 A 
ATOM      5  C   UNL     1      16.481 119.674  17.947  1.00  0.00     0.047 A 
ATOM      6  C   UNL     1      15.353 119.473  17.142  1.00  0.00     0.115 A 
ENDROOT
BRANCH   1   7
ATOM      7  C   UNL     1      14.972 119.202  21.417  1.00  0.00     0.010 C 
ATOM      8  C   UNL     1      13.796 119.330  22.047  1.00  0.00     0.025 C 
BRANCH   8   9
ATOM      9  C   UNL     1      13.679 119.199  23.508  1.00  0.00     0.064 C 
ATOM     10  O   UNL     1      12.818 119.879  24.125  1.00  0.00    -0.545 OA
ATOM     11  O   UNL     1      14.506 118.339  24.221  1.00  0.00    -0.545 OA
ENDBRANCH   8   9
ENDBRANCH   1   7
BRANCH   6  12
ATOM     12  O   UNL     1      15.447 119.554  15.755  1.00  0.00    -0.508 OA
ATOM     13  H   UNL     1      14.925 120.246  15.228  1.00  0.00     0.293 HD
ENDBRANCH   6  12
TORSDOF 3
ENDMDL
MODEL 9
REMARK VINA RESULT:    -5.671      9.882     12.390
REMARK INTER + INTRA:          -6.638
REMARK INTER:                  -6.484
REMARK INTRA:                  -0.154
REMARK UNBOUND:                -0.138
REMARK SMILES O=C([O-])C=Cc1ccc(O)cc1
REMARK SMILES IDX 6 1 7 2 12 3 8 4 11 5 9 6 5 7 4 8 2 9 1 10 3 11 10 12
REMARK H PARENT 10 13
REMARK Flexibility Score: inf
ROOT
ATOM      1  C   UNL     1      15.026 119.307  19.910  1.00  0.00    -0.025 A 
ATOM      2  C   UNL     1      16.222 119.547  19.213  1.00  0.00     0.012 A 
ATOM      3  C   UNL     1      13.841 119.100  19.174  1.00  0.00     0.012 A 
ATOM      4  C   UNL     1      16.243 119.557  17.815  1.00  0.00     0.047 A 
ATOM      5  C   UNL     1      13.867 119.110  17.775  1.00  0.00     0.047 A 
ATOM      6  C   UNL     1      15.068 119.336  17.093  1.00  0.00     0.115 A 
ENDROOT
BRANCH   1   7
ATOM      7  C   UNL     1      15.053 119.318  21.393  1.00  0.00     0.010 C 
ATOM      8  C   UNL     1      16.080 119.789  22.115  1.00  0.00     0.025 C 
BRANCH   8   9
ATOM      9  C   UNL     1      16.059 119.791  23.586  1.00  0.00     0.064 C 
ATOM     10  O   UNL     1      15.357 118.944  24.199  1.00  0.00    -0.545 OA
ATOM     11  O   UNL     1      16.800 120.715  24.314  1.00  0.00    -0.545 OA
ENDBRANCH   8   9
ENDBRANCH   1   7
BRANCH   6  12
ATOM     12  O   UNL     1      15.103 119.347  15.701  1.00  0.00    -0.508 OA
ATOM     13  H   UNL     1      15.289 120.198  15.182  1.00  0.00     0.293 HD
ENDBRANCH   6  12
TORSDOF 3
ENDMDL
