MODEL 1
REMARK VINA RESULT:    -4.089      0.000      0.000
REMARK INTER + INTRA:         -15.366
REMARK INTER:                 -10.782
REMARK INTRA:                  -4.584
REMARK UNBOUND:                -4.584
REMARK SMILES CCCCCCCCCCCCCCCCCCCCCCCCCCCCCC(=O)[O-]
REMARK SMILES IDX 16 1 17 2 18 3 19 4 20 5 21 6 22 7 23 8 24 9 25 10 26 11
REMARK SMILES IDX 27 12 28 13 29 14 30 15 31 16 32 17 15 18 14 19 13 20 12 21
REMARK SMILES IDX 11 22 10 23 9 24 8 25 7 26 6 27 5 28 4 29 3 30 2 31 1 32
REMARK H PARENT
REMARK Flexibility Score: inf
ROOT
ATOM      1  C   UNL     1      12.793  11.258  13.873  1.00  0.00     0.000 C 
ENDROOT
BRANCH   1   2
ATOM      2  C   UNL     1      14.121  10.868  14.547  1.00  0.00     0.000 C 
BRANCH   2   3
ATOM      3  C   UNL     1      15.157  12.004  14.528  1.00  0.00     0.000 C 
BRANCH   3   4
ATOM      4  C   UNL     1      16.605  11.483  14.498  1.00  0.00     0.000 C 
BRANCH   4   5
ATOM      5  C   UNL     1      17.624  12.507  15.032  1.00  0.00     0.000 C 
BRANCH   5   6
ATOM      6  C   UNL     1      19.036  11.950  15.294  1.00  0.00     0.000 C 
BRANCH   6   7
ATOM      7  C   UNL     1      19.314  11.691  16.783  1.00  0.00     0.000 C 
BRANCH   7   8
ATOM      8  C   UNL     1      18.536  12.671  17.671  1.00  0.00     0.000 C 
BRANCH   8   9
ATOM      9  C   UNL     1      17.941  11.952  18.890  1.00  0.00     0.000 C 
BRANCH   9  10
ATOM     10  C   UNL     1      16.473  12.333  19.152  1.00  0.00     0.000 C 
BRANCH  10  11
ATOM     11  C   UNL     1      15.489  11.972  18.021  1.00  0.00     0.000 C 
BRANCH  11  12
ATOM     12  C   UNL     1      14.203  12.815  17.980  1.00  0.00     0.000 C 
BRANCH  12  13
ATOM     13  C   UNL     1      12.935  11.964  17.790  1.00  0.00     0.006 C 
BRANCH  13  14
ATOM     14  C   UNL     1      11.688  12.646  18.370  1.00  0.00     0.053 C 
BRANCH  14  15
ATOM     15  C   UNL     1      11.150  11.906  19.556  1.00  0.00     0.041 C 
ATOM     16  O   UNL     1      10.439  12.503  20.407  1.00  0.00    -0.550 OA
ATOM     17  O   UNL     1      11.471  10.566  19.743  1.00  0.00    -0.550 OA
ENDBRANCH  14  15
ENDBRANCH  13  14
ENDBRANCH  12  13
ENDBRANCH  11  12
ENDBRANCH  10  11
ENDBRANCH   9  10
ENDBRANCH   8   9
ENDBRANCH   7   8
ENDBRANCH   6   7
ENDBRANCH   5   6
ENDBRANCH   4   5
ENDBRANCH   3   4
ENDBRANCH   2   3
ENDBRANCH   1   2
BRANCH   1  18
ATOM     18  C   UNL     1      13.010  12.139  12.631  1.00  0.00     0.000 C 
BRANCH  18  19
ATOM     19  C   UNL     1      12.423  11.514  11.354  1.00  0.00     0.000 C 
BRANCH  19  20
ATOM     20  C   UNL     1      11.593  10.244  11.644  1.00  0.00     0.000 C 
BRANCH  20  21
ATOM     21  C   UNL     1      10.184  10.256  11.021  1.00  0.00     0.000 C 
BRANCH  21  22
ATOM     22  C   UNL     1       9.378  11.549  11.242  1.00  0.00     0.000 C 
BRANCH  22  23
ATOM     23  C   UNL     1       9.021  11.861  12.711  1.00  0.00     0.000 C 
BRANCH  23  24
ATOM     24  C   UNL     1       9.567  13.195  13.248  1.00  0.00    -0.000 C 
BRANCH  24  25
ATOM     25  C   UNL     1       9.409  14.353  12.248  1.00  0.00    -0.000 C 
BRANCH  25  26
ATOM     26  C   UNL     1      10.752  15.017  11.901  1.00  0.00    -0.000 C 
BRANCH  26  27
ATOM     27  C   UNL     1      11.107  14.880  10.409  1.00  0.00    -0.000 C 
BRANCH  27  28
ATOM     28  C   UNL     1       9.864  14.731   9.519  1.00  0.00    -0.000 C 
BRANCH  28  29
ATOM     29  C   UNL     1      10.196  14.167   8.126  1.00  0.00    -0.000 C 
BRANCH  29  30
ATOM     30  C   UNL     1       9.419  12.878   7.811  1.00  0.00    -0.000 C 
BRANCH  30  31
ATOM     31  C   UNL     1      10.345  11.676   7.570  1.00  0.00    -0.003 C 
ATOM     32  C   UNL     1      11.782  12.004   7.964  1.00  0.00     0.004 C 
ENDBRANCH  30  31
ENDBRANCH  29  30
ENDBRANCH  28  29
ENDBRANCH  27  28
ENDBRANCH  26  27
ENDBRANCH  25  26
ENDBRANCH  24  25
ENDBRANCH  23  24
ENDBRANCH  22  23
ENDBRANCH  21  22
ENDBRANCH  20  21
ENDBRANCH  19  20
ENDBRANCH  18  19
ENDBRANCH   1  18
TORSDOF 28
ENDMDL
MODEL 2
REMARK VINA RESULT:    -3.973      1.187      2.175
REMARK INTER + INTRA:         -15.060
REMARK INTER:                 -11.140
REMARK INTRA:                  -3.920
REMARK UNBOUND:                -4.584
REMARK SMILES CCCCCCCCCCCCCCCCCCCCCCCCCCCCCC(=O)[O-]
REMARK SMILES IDX 16 1 17 2 18 3 19 4 20 5 21 6 22 7 23 8 24 9 25 10 26 11
REMARK SMILES IDX 27 12 28 13 29 14 30 15 31 16 32 17 15 18 14 19 13 20 12 21
REMARK SMILES IDX 11 22 10 23 9 24 8 25 7 26 6 27 5 28 4 29 3 30 2 31 1 32
REMARK H PARENT
REMARK Flexibility Score: inf
ROOT
ATOM      1  C   UNL     1      13.794  11.903  13.955  1.00  0.00     0.000 C 
ENDROOT
BRANCH   1   2
ATOM      2  C   UNL     1      14.877  11.131  14.731  1.00  0.00     0.000 C 
BRANCH   2   3
ATOM      3  C   UNL     1      16.103  11.997  15.065  1.00  0.00     0.000 C 
BRANCH   3   4
ATOM      4  C   UNL     1      17.206  11.900  13.997  1.00  0.00     0.000 C 
BRANCH   4   5
ATOM      5  C   UNL     1      18.625  11.993  14.586  1.00  0.00     0.000 C 
BRANCH   5   6
ATOM      6  C   UNL     1      18.705  12.557  16.017  1.00  0.00     0.000 C 
BRANCH   6   7
ATOM      7  C   UNL     1      19.564  11.694  16.956  1.00  0.00     0.000 C 
BRANCH   7   8
ATOM      8  C   UNL     1      18.883  11.511  18.318  1.00  0.00     0.000 C 
BRANCH   8   9
ATOM      9  C   UNL     1      17.766  12.546  18.515  1.00  0.00     0.000 C 
BRANCH   9  10
ATOM     10  C   UNL     1      16.427  11.911  18.929  1.00  0.00     0.000 C 
BRANCH  10  11
ATOM     11  C   UNL     1      15.195  12.409  18.146  1.00  0.00     0.000 C 
BRANCH  11  12
ATOM     12  C   UNL     1      13.862  11.745  18.534  1.00  0.00     0.000 C 
BRANCH  12  13
ATOM     13  C   UNL     1      12.662  12.308  17.753  1.00  0.00     0.006 C 
BRANCH  13  14
ATOM     14  C   UNL     1      11.385  12.345  18.602  1.00  0.00     0.053 C 
BRANCH  14  15
ATOM     15  C   UNL     1      10.265  11.588  17.955  1.00  0.00     0.041 C 
ATOM     16  O   UNL     1       9.692  12.053  16.935  1.00  0.00    -0.550 OA
ATOM     17  O   UNL     1       9.828  10.389  18.506  1.00  0.00    -0.550 OA
ENDBRANCH  14  15
ENDBRANCH  13  14
ENDBRANCH  12  13
ENDBRANCH  11  12
ENDBRANCH  10  11
ENDBRANCH   9  10
ENDBRANCH   8   9
ENDBRANCH   7   8
ENDBRANCH   6   7
ENDBRANCH   5   6
ENDBRANCH   4   5
ENDBRANCH   3   4
ENDBRANCH   2   3
ENDBRANCH   1   2
BRANCH   1  18
ATOM     18  C   UNL     1      12.595  11.011  13.589  1.00  0.00     0.000 C 
BRANCH  18  19
ATOM     19  C   UNL     1      11.251  11.627  14.011  1.00  0.00     0.000 C 
BRANCH  19  20
ATOM     20  C   UNL     1      10.113  11.305  13.018  1.00  0.00     0.000 C 
BRANCH  20  21
ATOM     21  C   UNL     1       9.746  12.470  12.079  1.00  0.00     0.000 C 
BRANCH  21  22
ATOM     22  C   UNL     1       9.470  13.815  12.776  1.00  0.00     0.000 C 
BRANCH  22  23
ATOM     23  C   UNL     1      10.259  15.020  12.221  1.00  0.00     0.000 C 
BRANCH  23  24
ATOM     24  C   UNL     1      11.480  14.659  11.358  1.00  0.00    -0.000 C 
BRANCH  24  25
ATOM     25  C   UNL     1      11.437  15.304   9.962  1.00  0.00    -0.000 C 
BRANCH  25  26
ATOM     26  C   UNL     1      10.105  15.046   9.237  1.00  0.00    -0.000 C 
BRANCH  26  27
ATOM     27  C   UNL     1      10.265  14.098   8.035  1.00  0.00    -0.000 C 
BRANCH  27  28
ATOM     28  C   UNL     1      10.136  12.619   8.431  1.00  0.00    -0.000 C 
BRANCH  28  29
ATOM     29  C   UNL     1      11.243  11.742   7.819  1.00  0.00    -0.000 C 
BRANCH  29  30
ATOM     30  C   UNL     1      12.612  11.972   8.479  1.00  0.00    -0.000 C 
BRANCH  30  31
ATOM     31  C   UNL     1      12.604  11.644   9.980  1.00  0.00    -0.003 C 
ATOM     32  C   UNL     1      12.225  10.186  10.220  1.00  0.00     0.004 C 
ENDBRANCH  30  31
ENDBRANCH  29  30
ENDBRANCH  28  29
ENDBRANCH  27  28
ENDBRANCH  26  27
ENDBRANCH  25  26
ENDBRANCH  24  25
ENDBRANCH  23  24
ENDBRANCH  22  23
ENDBRANCH  21  22
ENDBRANCH  20  21
ENDBRANCH  19  20
ENDBRANCH  18  19
ENDBRANCH   1  18
TORSDOF 28
ENDMDL
MODEL 3
REMARK VINA RESULT:    -3.896      1.212      2.812
REMARK INTER + INTRA:         -14.856
REMARK INTER:                 -10.880
REMARK INTRA:                  -3.976
REMARK UNBOUND:                -4.584
REMARK SMILES CCCCCCCCCCCCCCCCCCCCCCCCCCCCCC(=O)[O-]
REMARK SMILES IDX 16 1 17 2 18 3 19 4 20 5 21 6 22 7 23 8 24 9 25 10 26 11
REMARK SMILES IDX 27 12 28 13 29 14 30 15 31 16 32 17 15 18 14 19 13 20 12 21
REMARK SMILES IDX 11 22 10 23 9 24 8 25 7 26 6 27 5 28 4 29 3 30 2 31 1 32
REMARK H PARENT
REMARK Flexibility Score: inf
ROOT
ATOM      1  C   UNL     1      15.061  12.123  14.398  1.00  0.00     0.000 C 
ENDROOT
BRANCH   1   2
ATOM      2  C   UNL     1      16.448  11.636  14.854  1.00  0.00     0.000 C 
BRANCH   2   3
ATOM      3  C   UNL     1      17.601  12.375  14.153  1.00  0.00     0.000 C 
BRANCH   3   4
ATOM      4  C   UNL     1      18.960  12.133  14.833  1.00  0.00     0.000 C 
BRANCH   4   5
ATOM      5  C   UNL     1      19.043  12.739  16.246  1.00  0.00     0.000 C 
BRANCH   5   6
ATOM      6  C   UNL     1      19.712  11.844  17.306  1.00  0.00     0.000 C 
BRANCH   6   7
ATOM      7  C   UNL     1      18.777  11.492  18.474  1.00  0.00     0.000 C 
BRANCH   7   8
ATOM      8  C   UNL     1      17.720  12.584  18.685  1.00  0.00     0.000 C 
BRANCH   8   9
ATOM      9  C   UNL     1      16.322  11.969  18.839  1.00  0.00     0.000 C 
BRANCH   9  10
ATOM     10  C   UNL     1      15.266  12.652  17.951  1.00  0.00     0.000 C 
BRANCH  10  11
ATOM     11  C   UNL     1      13.908  11.924  17.870  1.00  0.00     0.000 C 
BRANCH  11  12
ATOM     12  C   UNL     1      12.674  12.820  18.075  1.00  0.00     0.000 C 
BRANCH  12  13
ATOM     13  C   UNL     1      11.369  12.018  18.219  1.00  0.00     0.006 C 
BRANCH  13  14
ATOM     14  C   UNL     1      10.714  12.220  19.592  1.00  0.00     0.053 C 
BRANCH  14  15
ATOM     15  C   UNL     1      11.028  11.093  20.529  1.00  0.00     0.041 C 
ATOM     16  O   UNL     1      11.199  11.319  21.756  1.00  0.00    -0.550 OA
ATOM     17  O   UNL     1      11.173   9.801  20.038  1.00  0.00    -0.550 OA
ENDBRANCH  14  15
ENDBRANCH  13  14
ENDBRANCH  12  13
ENDBRANCH  11  12
ENDBRANCH  10  11
ENDBRANCH   9  10
ENDBRANCH   8   9
ENDBRANCH   7   8
ENDBRANCH   6   7
ENDBRANCH   5   6
ENDBRANCH   4   5
ENDBRANCH   3   4
ENDBRANCH   2   3
ENDBRANCH   1   2
BRANCH   1  18
ATOM     18  C   UNL     1      14.036  10.978  14.337  1.00  0.00     0.000 C 
BRANCH  18  19
ATOM     19  C   UNL     1      12.691  11.423  13.738  1.00  0.00     0.000 C 
BRANCH  19  20
ATOM     20  C   UNL     1      12.190  10.469  12.632  1.00  0.00     0.000 C 
BRANCH  20  21
ATOM     21  C   UNL     1      10.859  10.897  11.985  1.00  0.00     0.000 C 
BRANCH  21  22
ATOM     22  C   UNL     1      10.813  10.798  10.449  1.00  0.00     0.000 C 
BRANCH  22  23
ATOM     23  C   UNL     1      12.188  10.765   9.749  1.00  0.00     0.000 C 
BRANCH  23  24
ATOM     24  C   UNL     1      12.249  11.489   8.393  1.00  0.00    -0.000 C 
BRANCH  24  25
ATOM     25  C   UNL     1      10.873  11.613   7.718  1.00  0.00    -0.000 C 
BRANCH  25  26
ATOM     26  C   UNL     1      10.427  13.076   7.557  1.00  0.00    -0.000 C 
BRANCH  26  27
ATOM     27  C   UNL     1       9.047  13.342   8.187  1.00  0.00    -0.000 C 
BRANCH  27  28
ATOM     28  C   UNL     1       9.146  14.089   9.526  1.00  0.00    -0.000 C 
BRANCH  28  29
ATOM     29  C   UNL     1      10.414  14.955   9.631  1.00  0.00    -0.000 C 
BRANCH  29  30
ATOM     30  C   UNL     1      11.360  14.485  10.748  1.00  0.00    -0.000 C 
BRANCH  30  31
ATOM     31  C   UNL     1      12.822  14.398  10.284  1.00  0.00    -0.003 C 
ATOM     32  C   UNL     1      13.695  13.738  11.346  1.00  0.00     0.004 C 
ENDBRANCH  30  31
ENDBRANCH  29  30
ENDBRANCH  28  29
ENDBRANCH  27  28
ENDBRANCH  26  27
ENDBRANCH  25  26
ENDBRANCH  24  25
ENDBRANCH  23  24
ENDBRANCH  22  23
ENDBRANCH  21  22
ENDBRANCH  20  21
ENDBRANCH  19  20
ENDBRANCH  18  19
ENDBRANCH   1  18
TORSDOF 28
ENDMDL
MODEL 4
REMARK VINA RESULT:    -3.861      1.546      4.824
REMARK INTER + INTRA:         -14.765
REMARK INTER:                 -11.448
REMARK INTRA:                  -3.317
REMARK UNBOUND:                -4.584
REMARK SMILES CCCCCCCCCCCCCCCCCCCCCCCCCCCCCC(=O)[O-]
REMARK SMILES IDX 16 1 17 2 18 3 19 4 20 5 21 6 22 7 23 8 24 9 25 10 26 11
REMARK SMILES IDX 27 12 28 13 29 14 30 15 31 16 32 17 15 18 14 19 13 20 12 21
REMARK SMILES IDX 11 22 10 23 9 24 8 25 7 26 6 27 5 28 4 29 3 30 2 31 1 32
REMARK H PARENT
REMARK Flexibility Score: inf
ROOT
ATOM      1  C   UNL     1      19.026  12.816  15.874  1.00  0.00     0.000 C 
ENDROOT
BRANCH   1   2
ATOM      2  C   UNL     1      19.543  11.581  16.633  1.00  0.00     0.000 C 
BRANCH   2   3
ATOM      3  C   UNL     1      19.005  11.496  18.071  1.00  0.00     0.000 C 
BRANCH   3   4
ATOM      4  C   UNL     1      18.264  12.773  18.503  1.00  0.00     0.000 C 
BRANCH   4   5
ATOM      5  C   UNL     1      17.249  12.528  19.634  1.00  0.00     0.000 C 
BRANCH   5   6
ATOM      6  C   UNL     1      16.019  11.687  19.241  1.00  0.00     0.000 C 
BRANCH   6   7
ATOM      7  C   UNL     1      15.075  12.418  18.274  1.00  0.00     0.000 C 
BRANCH   7   8
ATOM      8  C   UNL     1      13.759  11.648  18.096  1.00  0.00     0.000 C 
BRANCH   8   9
ATOM      9  C   UNL     1      12.586  12.614  17.879  1.00  0.00     0.000 C 
BRANCH   9  10
ATOM     10  C   UNL     1      11.242  12.042  18.367  1.00  0.00     0.000 C 
BRANCH  10  11
ATOM     11  C   UNL     1      10.345  13.037  19.131  1.00  0.00     0.000 C 
BRANCH  11  12
ATOM     12  C   UNL     1       9.499  12.420  20.259  1.00  0.00     0.000 C 
BRANCH  12  13
ATOM     13  C   UNL     1      10.345  11.955  21.456  1.00  0.00     0.006 C 
BRANCH  13  14
ATOM     14  C   UNL     1      10.009  10.518  21.878  1.00  0.00     0.053 C 
BRANCH  14  15
ATOM     15  C   UNL     1      10.880   9.516  21.182  1.00  0.00     0.041 C 
ATOM     16  O   UNL     1      10.460   8.347  20.974  1.00  0.00    -0.550 OA
ATOM     17  O   UNL     1      12.170   9.863  20.801  1.00  0.00    -0.550 OA
ENDBRANCH  14  15
ENDBRANCH  13  14
ENDBRANCH  12  13
ENDBRANCH  11  12
ENDBRANCH  10  11
ENDBRANCH   9  10
ENDBRANCH   8   9
ENDBRANCH   7   8
ENDBRANCH   6   7
ENDBRANCH   5   6
ENDBRANCH   4   5
ENDBRANCH   3   4
ENDBRANCH   2   3
ENDBRANCH   1   2
BRANCH   1  18
ATOM     18  C   UNL     1      18.834  12.537  14.373  1.00  0.00     0.000 C 
BRANCH  18  19
ATOM     19  C   UNL     1      17.564  11.719  14.084  1.00  0.00     0.000 C 
BRANCH  19  20
ATOM     20  C   UNL     1      16.444  11.978  15.114  1.00  0.00     0.000 C 
BRANCH  20  21
ATOM     21  C   UNL     1      15.161  11.159  14.872  1.00  0.00     0.000 C 
BRANCH  21  22
ATOM     22  C   UNL     1      13.971  11.953  14.302  1.00  0.00     0.000 C 
BRANCH  22  23
ATOM     23  C   UNL     1      13.009  11.145  13.406  1.00  0.00     0.000 C 
BRANCH  23  24
ATOM     24  C   UNL     1      11.513  11.373  13.680  1.00  0.00    -0.000 C 
BRANCH  24  25
ATOM     25  C   UNL     1      10.613  10.895  12.528  1.00  0.00    -0.000 C 
BRANCH  25  26
ATOM     26  C   UNL     1      11.402  10.155  11.435  1.00  0.00    -0.000 C 
BRANCH  26  27
ATOM     27  C   UNL     1      11.312  10.857  10.068  1.00  0.00    -0.000 C 
BRANCH  27  28
ATOM     28  C   UNL     1      12.629  11.543   9.672  1.00  0.00    -0.000 C 
BRANCH  28  29
ATOM     29  C   UNL     1      12.416  12.970   9.136  1.00  0.00    -0.000 C 
BRANCH  29  30
ATOM     30  C   UNL     1      12.567  14.040  10.230  1.00  0.00    -0.000 C 
BRANCH  30  31
ATOM     31  C   UNL     1      11.261  14.806  10.488  1.00  0.00    -0.003 C 
ATOM     32  C   UNL     1      10.789  14.616  11.927  1.00  0.00     0.004 C 
ENDBRANCH  30  31
ENDBRANCH  29  30
ENDBRANCH  28  29
ENDBRANCH  27  28
ENDBRANCH  26  27
ENDBRANCH  25  26
ENDBRANCH  24  25
ENDBRANCH  23  24
ENDBRANCH  22  23
ENDBRANCH  21  22
ENDBRANCH  20  21
ENDBRANCH  19  20
ENDBRANCH  18  19
ENDBRANCH   1  18
TORSDOF 28
ENDMDL
MODEL 5
REMARK VINA RESULT:    -3.830      0.980      2.068
REMARK INTER + INTRA:         -14.683
REMARK INTER:                 -10.307
REMARK INTRA:                  -4.376
REMARK UNBOUND:                -4.584
REMARK SMILES CCCCCCCCCCCCCCCCCCCCCCCCCCCCCC(=O)[O-]
REMARK SMILES IDX 16 1 17 2 18 3 19 4 20 5 21 6 22 7 23 8 24 9 25 10 26 11
REMARK SMILES IDX 27 12 28 13 29 14 30 15 31 16 32 17 15 18 14 19 13 20 12 21
REMARK SMILES IDX 11 22 10 23 9 24 8 25 7 26 6 27 5 28 4 29 3 30 2 31 1 32
REMARK H PARENT
REMARK Flexibility Score: inf
ROOT
ATOM      1  C   UNL     1      15.038  12.054  14.629  1.00  0.00     0.000 C 
ENDROOT
BRANCH   1   2
ATOM      2  C   UNL     1      16.486  11.644  14.950  1.00  0.00     0.000 C 
BRANCH   2   3
ATOM      3  C   UNL     1      17.489  12.107  13.880  1.00  0.00     0.000 C 
BRANCH   3   4
ATOM      4  C   UNL     1      18.881  12.406  14.464  1.00  0.00     0.000 C 
BRANCH   4   5
ATOM      5  C   UNL     1      19.002  12.037  15.954  1.00  0.00     0.000 C 
BRANCH   5   6
ATOM      6  C   UNL     1      19.387  13.200  16.888  1.00  0.00     0.000 C 
BRANCH   6   7
ATOM      7  C   UNL     1      18.630  13.172  18.226  1.00  0.00     0.000 C 
BRANCH   7   8
ATOM      8  C   UNL     1      18.140  11.756  18.556  1.00  0.00     0.000 C 
BRANCH   8   9
ATOM      9  C   UNL     1      16.750  11.797  19.208  1.00  0.00     0.000 C 
BRANCH   9  10
ATOM     10  C   UNL     1      15.653  12.293  18.249  1.00  0.00     0.000 C 
BRANCH  10  11
ATOM     11  C   UNL     1      14.247  11.714  18.505  1.00  0.00     0.000 C 
BRANCH  11  12
ATOM     12  C   UNL     1      13.105  12.410  17.743  1.00  0.00     0.000 C 
BRANCH  12  13
ATOM     13  C   UNL     1      11.733  12.209  18.407  1.00  0.00     0.006 C 
BRANCH  13  14
ATOM     14  C   UNL     1      11.729  11.024  19.382  1.00  0.00     0.053 C 
BRANCH  14  15
ATOM     15  C   UNL     1      10.726  11.210  20.480  1.00  0.00     0.041 C 
ATOM     16  O   UNL     1       9.496  11.252  20.214  1.00  0.00    -0.550 OA
ATOM     17  O   UNL     1      11.155  11.379  21.791  1.00  0.00    -0.550 OA
ENDBRANCH  14  15
ENDBRANCH  13  14
ENDBRANCH  12  13
ENDBRANCH  11  12
ENDBRANCH  10  11
ENDBRANCH   9  10
ENDBRANCH   8   9
ENDBRANCH   7   8
ENDBRANCH   6   7
ENDBRANCH   5   6
ENDBRANCH   4   5
ENDBRANCH   3   4
ENDBRANCH   2   3
ENDBRANCH   1   2
BRANCH   1  18
ATOM     18  C   UNL     1      14.129  10.836  14.393  1.00  0.00     0.000 C 
BRANCH  18  19
ATOM     19  C   UNL     1      12.729  11.232  13.893  1.00  0.00     0.000 C 
BRANCH  19  20
ATOM     20  C   UNL     1      12.746  11.767  12.445  1.00  0.00     0.000 C 
BRANCH  20  21
ATOM     21  C   UNL     1      12.275  10.747  11.390  1.00  0.00     0.000 C 
BRANCH  21  22
ATOM     22  C   UNL     1      11.184   9.769  11.863  1.00  0.00     0.000 C 
BRANCH  22  23
ATOM     23  C   UNL     1       9.743  10.321  11.827  1.00  0.00     0.000 C 
BRANCH  23  24
ATOM     24  C   UNL     1       9.127  10.632  13.202  1.00  0.00    -0.000 C 
BRANCH  24  25
ATOM     25  C   UNL     1       9.116  12.135  13.527  1.00  0.00    -0.000 C 
BRANCH  25  26
ATOM     26  C   UNL     1       9.124  13.010  12.261  1.00  0.00    -0.000 C 
BRANCH  26  27
ATOM     27  C   UNL     1       9.946  14.299  12.443  1.00  0.00    -0.000 C 
BRANCH  27  28
ATOM     28  C   UNL     1      10.738  14.675  11.181  1.00  0.00    -0.000 C 
BRANCH  28  29
ATOM     29  C   UNL     1      10.462  13.724  10.002  1.00  0.00    -0.000 C 
BRANCH  29  30
ATOM     30  C   UNL     1      11.681  13.555   9.082  1.00  0.00    -0.000 C 
BRANCH  30  31
ATOM     31  C   UNL     1      11.572  12.315   8.182  1.00  0.00    -0.003 C 
ATOM     32  C   UNL     1      10.214  11.639   8.343  1.00  0.00     0.004 C 
ENDBRANCH  30  31
ENDBRANCH  29  30
ENDBRANCH  28  29
ENDBRANCH  27  28
ENDBRANCH  26  27
ENDBRANCH  25  26
ENDBRANCH  24  25
ENDBRANCH  23  24
ENDBRANCH  22  23
ENDBRANCH  21  22
ENDBRANCH  20  21
ENDBRANCH  19  20
ENDBRANCH  18  19
ENDBRANCH   1  18
TORSDOF 28
ENDMDL
MODEL 6
REMARK VINA RESULT:    -3.806      1.227      2.936
REMARK INTER + INTRA:         -14.620
REMARK INTER:                 -10.438
REMARK INTRA:                  -4.182
REMARK UNBOUND:                -4.584
REMARK SMILES CCCCCCCCCCCCCCCCCCCCCCCCCCCCCC(=O)[O-]
REMARK SMILES IDX 16 1 17 2 18 3 19 4 20 5 21 6 22 7 23 8 24 9 25 10 26 11
REMARK SMILES IDX 27 12 28 13 29 14 30 15 31 16 32 17 15 18 14 19 13 20 12 21
REMARK SMILES IDX 11 22 10 23 9 24 8 25 7 26 6 27 5 28 4 29 3 30 2 31 1 32
REMARK H PARENT
REMARK Flexibility Score: inf
ROOT
ATOM      1  C   UNL     1      15.266  12.142  14.015  1.00  0.00     0.000 C 
ENDROOT
BRANCH   1   2
ATOM      2  C   UNL     1      16.524  11.983  14.886  1.00  0.00     0.000 C 
BRANCH   2   3
ATOM      3  C   UNL     1      17.825  11.999  14.066  1.00  0.00     0.000 C 
BRANCH   3   4
ATOM      4  C   UNL     1      18.972  12.727  14.789  1.00  0.00     0.000 C 
BRANCH   4   5
ATOM      5  C   UNL     1      19.367  12.057  16.118  1.00  0.00     0.000 C 
BRANCH   5   6
ATOM      6  C   UNL     1      18.923  12.808  17.388  1.00  0.00     0.000 C 
BRANCH   6   7
ATOM      7  C   UNL     1      18.237  11.895  18.416  1.00  0.00     0.000 C 
BRANCH   7   8
ATOM      8  C   UNL     1      17.250  12.685  19.287  1.00  0.00     0.000 C 
BRANCH   8   9
ATOM      9  C   UNL     1      15.890  11.975  19.353  1.00  0.00     0.000 C 
BRANCH   9  10
ATOM     10  C   UNL     1      15.146  11.981  18.005  1.00  0.00     0.000 C 
BRANCH  10  11
ATOM     11  C   UNL     1      13.828  12.781  17.988  1.00  0.00     0.000 C 
BRANCH  11  12
ATOM     12  C   UNL     1      12.561  11.947  17.724  1.00  0.00     0.000 C 
BRANCH  12  13
ATOM     13  C   UNL     1      11.617  11.892  18.937  1.00  0.00     0.006 C 
BRANCH  13  14
ATOM     14  C   UNL     1      12.012  10.791  19.930  1.00  0.00     0.053 C 
BRANCH  14  15
ATOM     15  C   UNL     1      10.831   9.966  20.344  1.00  0.00     0.041 C 
ATOM     16  O   UNL     1       9.670  10.296  19.985  1.00  0.00    -0.550 OA
ATOM     17  O   UNL     1      11.011   8.856  21.161  1.00  0.00    -0.550 OA
ENDBRANCH  14  15
ENDBRANCH  13  14
ENDBRANCH  12  13
ENDBRANCH  11  12
ENDBRANCH  10  11
ENDBRANCH   9  10
ENDBRANCH   8   9
ENDBRANCH   7   8
ENDBRANCH   6   7
ENDBRANCH   5   6
ENDBRANCH   4   5
ENDBRANCH   3   4
ENDBRANCH   2   3
ENDBRANCH   1   2
BRANCH   1  18
ATOM     18  C   UNL     1      14.112  11.245  14.493  1.00  0.00     0.000 C 
BRANCH  18  19
ATOM     19  C   UNL     1      12.989  11.122  13.450  1.00  0.00     0.000 C 
BRANCH  19  20
ATOM     20  C   UNL     1      11.618  11.576  13.996  1.00  0.00     0.000 C 
BRANCH  20  21
ATOM     21  C   UNL     1      10.411  11.002  13.230  1.00  0.00     0.000 C 
BRANCH  21  22
ATOM     22  C   UNL     1      10.752  10.274  11.916  1.00  0.00     0.000 C 
BRANCH  22  23
ATOM     23  C   UNL     1       9.686  10.386  10.805  1.00  0.00     0.000 C 
BRANCH  23  24
ATOM     24  C   UNL     1       9.081  11.788  10.619  1.00  0.00    -0.000 C 
BRANCH  24  25
ATOM     25  C   UNL     1       9.282  12.343   9.199  1.00  0.00    -0.000 C 
BRANCH  25  26
ATOM     26  C   UNL     1      10.366  11.581   8.418  1.00  0.00    -0.000 C 
BRANCH  26  27
ATOM     27  C   UNL     1      11.687  12.366   8.326  1.00  0.00    -0.000 C 
BRANCH  27  28
ATOM     28  C   UNL     1      12.797  11.755   9.194  1.00  0.00    -0.000 C 
BRANCH  28  29
ATOM     29  C   UNL     1      13.347  12.743  10.238  1.00  0.00    -0.000 C 
BRANCH  29  30
ATOM     30  C   UNL     1      12.508  14.028  10.334  1.00  0.00    -0.000 C 
BRANCH  30  31
ATOM     31  C   UNL     1      11.795  14.166  11.687  1.00  0.00    -0.003 C 
ATOM     32  C   UNL     1      10.516  14.987  11.552  1.00  0.00     0.004 C 
ENDBRANCH  30  31
ENDBRANCH  29  30
ENDBRANCH  28  29
ENDBRANCH  27  28
ENDBRANCH  26  27
ENDBRANCH  25  26
ENDBRANCH  24  25
ENDBRANCH  23  24
ENDBRANCH  22  23
ENDBRANCH  21  22
ENDBRANCH  20  21
ENDBRANCH  19  20
ENDBRANCH  18  19
ENDBRANCH   1  18
TORSDOF 28
ENDMDL
MODEL 7
REMARK VINA RESULT:    -3.766      1.065      2.135
REMARK INTER + INTRA:         -14.514
REMARK INTER:                 -10.754
REMARK INTRA:                  -3.759
REMARK UNBOUND:                -4.584
REMARK SMILES CCCCCCCCCCCCCCCCCCCCCCCCCCCCCC(=O)[O-]
REMARK SMILES IDX 16 1 17 2 18 3 19 4 20 5 21 6 22 7 23 8 24 9 25 10 26 11
REMARK SMILES IDX 27 12 28 13 29 14 30 15 31 16 32 17 15 18 14 19 13 20 12 21
REMARK SMILES IDX 11 22 10 23 9 24 8 25 7 26 6 27 5 28 4 29 3 30 2 31 1 32
REMARK H PARENT
REMARK Flexibility Score: inf
ROOT
ATOM      1  C   UNL     1      14.837  12.010  14.088  1.00  0.00     0.000 C 
ENDROOT
BRANCH   1   2
ATOM      2  C   UNL     1      16.170  11.626  14.754  1.00  0.00     0.000 C 
BRANCH   2   3
ATOM      3  C   UNL     1      17.373  12.382  14.164  1.00  0.00     0.000 C 
BRANCH   3   4
ATOM      4  C   UNL     1      18.695  12.031  14.867  1.00  0.00     0.000 C 
BRANCH   4   5
ATOM      5  C   UNL     1      18.903  12.806  16.182  1.00  0.00     0.000 C 
BRANCH   5   6
ATOM      6  C   UNL     1      19.599  12.016  17.306  1.00  0.00     0.000 C 
BRANCH   6   7
ATOM      7  C   UNL     1      18.623  11.519  18.385  1.00  0.00     0.000 C 
BRANCH   7   8
ATOM      8  C   UNL     1      17.670  12.637  18.827  1.00  0.00     0.000 C 
BRANCH   8   9
ATOM      9  C   UNL     1      16.248  12.095  19.028  1.00  0.00     0.000 C 
BRANCH   9  10
ATOM     10  C   UNL     1      15.422  12.081  17.729  1.00  0.00     0.000 C 
BRANCH  10  11
ATOM     11  C   UNL     1      14.022  12.718  17.835  1.00  0.00     0.000 C 
BRANCH  11  12
ATOM     12  C   UNL     1      12.873  11.729  18.097  1.00  0.00     0.000 C 
BRANCH  12  13
ATOM     13  C   UNL     1      11.493  12.409  18.129  1.00  0.00     0.006 C 
BRANCH  13  14
ATOM     14  C   UNL     1      10.397  11.469  18.650  1.00  0.00     0.053 C 
BRANCH  14  15
ATOM     15  C   UNL     1      10.827  10.747  19.891  1.00  0.00     0.041 C 
ATOM     16  O   UNL     1      11.143  11.396  20.923  1.00  0.00    -0.550 OA
ATOM     17  O   UNL     1      10.917   9.361  19.893  1.00  0.00    -0.550 OA
ENDBRANCH  14  15
ENDBRANCH  13  14
ENDBRANCH  12  13
ENDBRANCH  11  12
ENDBRANCH  10  11
ENDBRANCH   9  10
ENDBRANCH   8   9
ENDBRANCH   7   8
ENDBRANCH   6   7
ENDBRANCH   5   6
ENDBRANCH   4   5
ENDBRANCH   3   4
ENDBRANCH   2   3
ENDBRANCH   1   2
BRANCH   1  18
ATOM     18  C   UNL     1      13.707  11.028  14.442  1.00  0.00     0.000 C 
BRANCH  18  19
ATOM     19  C   UNL     1      12.633  10.946  13.345  1.00  0.00     0.000 C 
BRANCH  19  20
ATOM     20  C   UNL     1      11.252  11.437  13.829  1.00  0.00     0.000 C 
BRANCH  20  21
ATOM     21  C   UNL     1      10.082  11.039  12.909  1.00  0.00     0.000 C 
BRANCH  21  22
ATOM     22  C   UNL     1       9.389  12.207  12.184  1.00  0.00     0.000 C 
BRANCH  22  23
ATOM     23  C   UNL     1       9.960  13.608  12.493  1.00  0.00     0.000 C 
BRANCH  23  24
ATOM     24  C   UNL     1       9.957  14.591  11.310  1.00  0.00    -0.000 C 
BRANCH  24  25
ATOM     25  C   UNL     1      11.373  14.993  10.864  1.00  0.00    -0.000 C 
BRANCH  25  26
ATOM     26  C   UNL     1      12.451  14.030  11.389  1.00  0.00    -0.000 C 
BRANCH  26  27
ATOM     27  C   UNL     1      13.126  13.232  10.258  1.00  0.00    -0.000 C 
BRANCH  27  28
ATOM     28  C   UNL     1      12.565  11.807  10.127  1.00  0.00    -0.000 C 
BRANCH  28  29
ATOM     29  C   UNL     1      12.437  11.352   8.662  1.00  0.00    -0.000 C 
BRANCH  29  30
ATOM     30  C   UNL     1      11.374  12.148   7.888  1.00  0.00    -0.000 C 
BRANCH  30  31
ATOM     31  C   UNL     1       9.949  11.636   8.149  1.00  0.00    -0.003 C 
ATOM     32  C   UNL     1       8.987  12.794   8.397  1.00  0.00     0.004 C 
ENDBRANCH  30  31
ENDBRANCH  29  30
ENDBRANCH  28  29
ENDBRANCH  27  28
ENDBRANCH  26  27
ENDBRANCH  25  26
ENDBRANCH  24  25
ENDBRANCH  23  24
ENDBRANCH  22  23
ENDBRANCH  21  22
ENDBRANCH  20  21
ENDBRANCH  19  20
ENDBRANCH  18  19
ENDBRANCH   1  18
TORSDOF 28
ENDMDL
MODEL 8
REMARK VINA RESULT:    -3.730      1.373      3.731
REMARK INTER + INTRA:         -14.419
REMARK INTER:                 -10.779
REMARK INTRA:                  -3.641
REMARK UNBOUND:                -4.584
REMARK SMILES CCCCCCCCCCCCCCCCCCCCCCCCCCCCCC(=O)[O-]
REMARK SMILES IDX 16 1 17 2 18 3 19 4 20 5 21 6 22 7 23 8 24 9 25 10 26 11
REMARK SMILES IDX 27 12 28 13 29 14 30 15 31 16 32 17 15 18 14 19 13 20 12 21
REMARK SMILES IDX 11 22 10 23 9 24 8 25 7 26 6 27 5 28 4 29 3 30 2 31 1 32
REMARK H PARENT
REMARK Flexibility Score: inf
ROOT
ATOM      1  C   UNL     1      17.271  12.029  14.240  1.00  0.00     0.000 C 
ENDROOT
BRANCH   1   2
ATOM      2  C   UNL     1      18.189  12.638  15.315  1.00  0.00     0.000 C 
BRANCH   2   3
ATOM      3  C   UNL     1      19.282  11.666  15.788  1.00  0.00     0.000 C 
BRANCH   3   4
ATOM      4  C   UNL     1      19.412  11.620  17.321  1.00  0.00     0.000 C 
BRANCH   4   5
ATOM      5  C   UNL     1      18.301  12.405  18.043  1.00  0.00     0.000 C 
BRANCH   5   6
ATOM      6  C   UNL     1      17.764  11.747  19.328  1.00  0.00     0.000 C 
BRANCH   6   7
ATOM      7  C   UNL     1      16.245  11.912  19.498  1.00  0.00     0.000 C 
BRANCH   7   8
ATOM      8  C   UNL     1      15.590  12.389  18.196  1.00  0.00     0.000 C 
BRANCH   8   9
ATOM      9  C   UNL     1      14.235  11.700  17.980  1.00  0.00     0.000 C 
BRANCH   9  10
ATOM     10  C   UNL     1      13.067  12.696  17.869  1.00  0.00     0.000 C 
BRANCH  10  11
ATOM     11  C   UNL     1      11.668  12.095  18.109  1.00  0.00     0.000 C 
BRANCH  11  12
ATOM     12  C   UNL     1      11.008  12.488  19.443  1.00  0.00     0.000 C 
BRANCH  12  13
ATOM     13  C   UNL     1      10.992  11.339  20.465  1.00  0.00     0.006 C 
BRANCH  13  14
ATOM     14  C   UNL     1       9.790  10.405  20.266  1.00  0.00     0.053 C 
BRANCH  14  15
ATOM     15  C   UNL     1      10.198   8.962  20.291  1.00  0.00     0.041 C 
ATOM     16  O   UNL     1      10.579   8.429  21.366  1.00  0.00    -0.550 OA
ATOM     17  O   UNL     1      10.196   8.220  19.116  1.00  0.00    -0.550 OA
ENDBRANCH  14  15
ENDBRANCH  13  14
ENDBRANCH  12  13
ENDBRANCH  11  12
ENDBRANCH  10  11
ENDBRANCH   9  10
ENDBRANCH   8   9
ENDBRANCH   7   8
ENDBRANCH   6   7
ENDBRANCH   5   6
ENDBRANCH   4   5
ENDBRANCH   3   4
ENDBRANCH   2   3
ENDBRANCH   1   2
BRANCH   1  18
ATOM     18  C   UNL     1      16.029  11.358  14.850  1.00  0.00     0.000 C 
BRANCH  18  19
ATOM     19  C   UNL     1      14.719  12.029  14.405  1.00  0.00     0.000 C 
BRANCH  19  20
ATOM     20  C   UNL     1      13.624  11.006  14.032  1.00  0.00     0.000 C 
BRANCH  20  21
ATOM     21  C   UNL     1      12.246  11.632  13.745  1.00  0.00     0.000 C 
BRANCH  21  22
ATOM     22  C   UNL     1      11.306  10.780  12.872  1.00  0.00     0.000 C 
BRANCH  22  23
ATOM     23  C   UNL     1      11.940  10.205  11.588  1.00  0.00     0.000 C 
BRANCH  23  24
ATOM     24  C   UNL     1      11.623  10.981  10.298  1.00  0.00    -0.000 C 
BRANCH  24  25
ATOM     25  C   UNL     1      12.773  11.901   9.855  1.00  0.00    -0.000 C 
BRANCH  25  26
ATOM     26  C   UNL     1      12.319  12.960   8.836  1.00  0.00    -0.000 C 
BRANCH  26  27
ATOM     27  C   UNL     1      11.060  12.529   8.062  1.00  0.00    -0.000 C 
BRANCH  27  28
ATOM     28  C   UNL     1       9.946  13.586   8.115  1.00  0.00    -0.000 C 
BRANCH  28  29
ATOM     29  C   UNL     1      10.034  14.478   9.366  1.00  0.00    -0.000 C 
BRANCH  29  30
ATOM     30  C   UNL     1       9.084  14.020  10.485  1.00  0.00    -0.000 C 
BRANCH  30  31
ATOM     31  C   UNL     1       9.707  14.165  11.882  1.00  0.00    -0.003 C 
ATOM     32  C   UNL     1      11.093  14.797  11.801  1.00  0.00     0.004 C 
ENDBRANCH  30  31
ENDBRANCH  29  30
ENDBRANCH  28  29
ENDBRANCH  27  28
ENDBRANCH  26  27
ENDBRANCH  25  26
ENDBRANCH  24  25
ENDBRANCH  23  24
ENDBRANCH  22  23
ENDBRANCH  21  22
ENDBRANCH  20  21
ENDBRANCH  19  20
ENDBRANCH  18  19
ENDBRANCH   1  18
TORSDOF 28
ENDMDL
MODEL 9
REMARK VINA RESULT:    -3.717      1.342      3.601
REMARK INTER + INTRA:         -14.384
REMARK INTER:                 -10.827
REMARK INTRA:                  -3.557
REMARK UNBOUND:                -4.584
REMARK SMILES CCCCCCCCCCCCCCCCCCCCCCCCCCCCCC(=O)[O-]
REMARK SMILES IDX 16 1 17 2 18 3 19 4 20 5 21 6 22 7 23 8 24 9 25 10 26 11
REMARK SMILES IDX 27 12 28 13 29 14 30 15 31 16 32 17 15 18 14 19 13 20 12 21
REMARK SMILES IDX 11 22 10 23 9 24 8 25 7 26 6 27 5 28 4 29 3 30 2 31 1 32
REMARK H PARENT
REMARK Flexibility Score: inf
ROOT
ATOM      1  C   UNL     1      17.522  12.371  14.387  1.00  0.00     0.000 C 
ENDROOT
BRANCH   1   2
ATOM      2  C   UNL     1      18.800  12.144  15.213  1.00  0.00     0.000 C 
BRANCH   2   3
ATOM      3  C   UNL     1      18.702  12.717  16.636  1.00  0.00     0.000 C 
BRANCH   3   4
ATOM      4  C   UNL     1      19.153  11.712  17.711  1.00  0.00     0.000 C 
BRANCH   4   5
ATOM      5  C   UNL     1      18.227  11.689  18.941  1.00  0.00     0.000 C 
BRANCH   5   6
ATOM      6  C   UNL     1      17.022  12.646  18.872  1.00  0.00     0.000 C 
BRANCH   6   7
ATOM      7  C   UNL     1      15.728  11.952  18.416  1.00  0.00     0.000 C 
BRANCH   7   8
ATOM      8  C   UNL     1      14.636  12.978  18.085  1.00  0.00     0.000 C 
BRANCH   8   9
ATOM      9  C   UNL     1      13.407  12.290  17.475  1.00  0.00     0.000 C 
BRANCH   9  10
ATOM     10  C   UNL     1      12.485  11.662  18.535  1.00  0.00     0.000 C 
BRANCH  10  11
ATOM     11  C   UNL     1      11.016  12.130  18.486  1.00  0.00     0.000 C 
BRANCH  11  12
ATOM     12  C   UNL     1      10.454  12.655  19.819  1.00  0.00     0.000 C 
BRANCH  12  13
ATOM     13  C   UNL     1       9.497  11.661  20.499  1.00  0.00     0.006 C 
BRANCH  13  14
ATOM     14  C   UNL     1      10.241  10.672  21.407  1.00  0.00     0.053 C 
BRANCH  14  15
ATOM     15  C   UNL     1      10.232   9.284  20.842  1.00  0.00     0.041 C 
ATOM     16  O   UNL     1      10.691   8.323  21.515  1.00  0.00    -0.550 OA
ATOM     17  O   UNL     1       9.756   9.060  19.556  1.00  0.00    -0.550 OA
ENDBRANCH  14  15
ENDBRANCH  13  14
ENDBRANCH  12  13
ENDBRANCH  11  12
ENDBRANCH  10  11
ENDBRANCH   9  10
ENDBRANCH   8   9
ENDBRANCH   7   8
ENDBRANCH   6   7
ENDBRANCH   5   6
ENDBRANCH   4   5
ENDBRANCH   3   4
ENDBRANCH   2   3
ENDBRANCH   1   2
BRANCH   1  18
ATOM     18  C   UNL     1      16.331  11.559  14.925  1.00  0.00     0.000 C 
BRANCH  18  19
ATOM     19  C   UNL     1      14.983  12.056  14.378  1.00  0.00     0.000 C 
BRANCH  19  20
ATOM     20  C   UNL     1      13.887  10.970  14.425  1.00  0.00     0.000 C 
BRANCH  20  21
ATOM     21  C   UNL     1      12.880  11.037  13.261  1.00  0.00     0.000 C 
BRANCH  21  22
ATOM     22  C   UNL     1      11.468  11.521  13.640  1.00  0.00     0.000 C 
BRANCH  22  23
ATOM     23  C   UNL     1      10.321  10.944  12.782  1.00  0.00     0.000 C 
BRANCH  23  24
ATOM     24  C   UNL     1       9.229  11.952  12.388  1.00  0.00    -0.000 C 
BRANCH  24  25
ATOM     25  C   UNL     1       9.466  13.353  12.976  1.00  0.00    -0.000 C 
BRANCH  25  26
ATOM     26  C   UNL     1       9.525  14.443  11.892  1.00  0.00    -0.000 C 
BRANCH  26  27
ATOM     27  C   UNL     1      10.903  15.126  11.821  1.00  0.00    -0.000 C 
BRANCH  27  28
ATOM     28  C   UNL     1      11.705  14.705  10.580  1.00  0.00    -0.000 C 
BRANCH  28  29
ATOM     29  C   UNL     1      12.902  13.801  10.926  1.00  0.00    -0.000 C 
BRANCH  29  30
ATOM     30  C   UNL     1      13.032  12.603   9.971  1.00  0.00    -0.000 C 
BRANCH  30  31
ATOM     31  C   UNL     1      11.669  12.050   9.531  1.00  0.00    -0.003 C 
ATOM     32  C   UNL     1      11.555  12.019   8.010  1.00  0.00     0.004 C 
ENDBRANCH  30  31
ENDBRANCH  29  30
ENDBRANCH  28  29
ENDBRANCH  27  28
ENDBRANCH  26  27
ENDBRANCH  25  26
ENDBRANCH  24  25
ENDBRANCH  23  24
ENDBRANCH  22  23
ENDBRANCH  21  22
ENDBRANCH  20  21
ENDBRANCH  19  20
ENDBRANCH  18  19
ENDBRANCH   1  18
TORSDOF 28
ENDMDL
