MODEL 1
REMARK VINA RESULT:    -4.661      0.000      0.000
REMARK INTER + INTRA:         -16.149
REMARK INTER:                 -12.291
REMARK INTRA:                  -3.858
REMARK UNBOUND:                -3.858
REMARK SMILES CCCCCCCCCCCCCCCCCCCCCCCCCCCCCC(=O)[O-]
REMARK SMILES IDX 16 1 17 2 18 3 19 4 20 5 21 6 22 7 23 8 24 9 25 10 26 11
REMARK SMILES IDX 27 12 28 13 29 14 30 15 31 16 32 17 15 18 14 19 13 20 12 21
REMARK SMILES IDX 11 22 10 23 9 24 8 25 7 26 6 27 5 28 4 29 3 30 2 31 1 32
REMARK H PARENT
REMARK Flexibility Score: inf
ROOT
ATOM      1  C   UNL     1       0.890  45.767  16.085  1.00  0.00     0.000 C 
ENDROOT
BRANCH   1   2
ATOM      2  C   UNL     1       1.824  46.978  16.203  1.00  0.00     0.000 C 
BRANCH   2   3
ATOM      3  C   UNL     1       3.101  46.681  17.009  1.00  0.00     0.000 C 
BRANCH   3   4
ATOM      4  C   UNL     1       3.436  47.748  18.072  1.00  0.00     0.000 C 
BRANCH   4   5
ATOM      5  C   UNL     1       4.455  47.238  19.107  1.00  0.00     0.000 C 
BRANCH   5   6
ATOM      6  C   UNL     1       5.197  45.977  18.636  1.00  0.00     0.000 C 
BRANCH   6   7
ATOM      7  C   UNL     1       5.058  44.811  19.630  1.00  0.00     0.000 C 
BRANCH   7   8
ATOM      8  C   UNL     1       4.216  43.647  19.078  1.00  0.00     0.000 C 
BRANCH   8   9
ATOM      9  C   UNL     1       2.905  43.364  19.839  1.00  0.00     0.000 C 
BRANCH   9  10
ATOM     10  C   UNL     1       2.740  44.134  21.164  1.00  0.00     0.000 C 
BRANCH  10  11
ATOM     11  C   UNL     1       1.938  43.390  22.250  1.00  0.00     0.000 C 
BRANCH  11  12
ATOM     12  C   UNL     1       2.303  43.765  23.700  1.00  0.00     0.000 C 
BRANCH  12  13
ATOM     13  C   UNL     1       3.768  44.198  23.915  1.00  0.00     0.006 C 
BRANCH  13  14
ATOM     14  C   UNL     1       4.678  43.101  24.488  1.00  0.00     0.053 C 
BRANCH  14  15
ATOM     15  C   UNL     1       5.440  42.389  23.415  1.00  0.00     0.041 C 
ATOM     16  O   UNL     1       5.009  41.303  22.942  1.00  0.00    -0.550 OA
ATOM     17  O   UNL     1       6.648  42.902  22.960  1.00  0.00    -0.550 OA
ENDBRANCH  14  15
ENDBRANCH  13  14
ENDBRANCH  12  13
ENDBRANCH  11  12
ENDBRANCH  10  11
ENDBRANCH   9  10
ENDBRANCH   8   9
ENDBRANCH   7   8
ENDBRANCH   6   7
ENDBRANCH   5   6
ENDBRANCH   4   5
ENDBRANCH   3   4
ENDBRANCH   2   3
ENDBRANCH   1   2
BRANCH   1  18
ATOM     18  C   UNL     1       1.558  44.494  16.627  1.00  0.00     0.000 C 
BRANCH  18  19
ATOM     19  C   UNL     1       0.553  43.361  16.891  1.00  0.00     0.000 C 
BRANCH  19  20
ATOM     20  C   UNL     1      -0.788  43.808  17.503  1.00  0.00     0.000 C 
BRANCH  20  21
ATOM     21  C   UNL     1      -2.016  43.493  16.622  1.00  0.00     0.000 C 
BRANCH  21  22
ATOM     22  C   UNL     1      -2.855  42.332  17.182  1.00  0.00     0.000 C 
BRANCH  22  23
ATOM     23  C   UNL     1      -3.929  42.801  18.178  1.00  0.00     0.000 C 
BRANCH  23  24
ATOM     24  C   UNL     1      -4.246  44.299  18.044  1.00  0.00    -0.000 C 
BRANCH  24  25
ATOM     25  C   UNL     1      -3.843  45.064  19.314  1.00  0.00    -0.000 C 
BRANCH  25  26
ATOM     26  C   UNL     1      -3.445  44.126  20.465  1.00  0.00    -0.000 C 
BRANCH  26  27
ATOM     27  C   UNL     1      -1.974  44.298  20.885  1.00  0.00    -0.000 C 
BRANCH  27  28
ATOM     28  C   UNL     1      -1.720  43.837  22.331  1.00  0.00    -0.000 C 
BRANCH  28  29
ATOM     29  C   UNL     1      -1.869  44.965  23.377  1.00  0.00    -0.000 C 
BRANCH  29  30
ATOM     30  C   UNL     1      -3.210  44.932  24.134  1.00  0.00    -0.000 C 
BRANCH  30  31
ATOM     31  C   UNL     1      -4.352  45.692  23.440  1.00  0.00    -0.003 C 
ATOM     32  C   UNL     1      -4.096  47.197  23.353  1.00  0.00     0.004 C 
ENDBRANCH  30  31
ENDBRANCH  29  30
ENDBRANCH  28  29
ENDBRANCH  27  28
ENDBRANCH  26  27
ENDBRANCH  25  26
ENDBRANCH  24  25
ENDBRANCH  23  24
ENDBRANCH  22  23
ENDBRANCH  21  22
ENDBRANCH  20  21
ENDBRANCH  19  20
ENDBRANCH  18  19
ENDBRANCH   1  18
TORSDOF 28
ENDMDL
MODEL 2
REMARK VINA RESULT:    -4.652      1.997      5.445
REMARK INTER + INTRA:         -16.125
REMARK INTER:                 -10.517
REMARK INTRA:                  -5.609
REMARK UNBOUND:                -3.858
REMARK SMILES CCCCCCCCCCCCCCCCCCCCCCCCCCCCCC(=O)[O-]
REMARK SMILES IDX 16 1 17 2 18 3 19 4 20 5 21 6 22 7 23 8 24 9 25 10 26 11
REMARK SMILES IDX 27 12 28 13 29 14 30 15 31 16 32 17 15 18 14 19 13 20 12 21
REMARK SMILES IDX 11 22 10 23 9 24 8 25 7 26 6 27 5 28 4 29 3 30 2 31 1 32
REMARK H PARENT
REMARK Flexibility Score: inf
ROOT
ATOM      1  C   UNL     1      -3.608  45.262  19.500  1.00  0.00     0.000 C 
ENDROOT
BRANCH   1   2
ATOM      2  C   UNL     1      -4.604  44.142  19.172  1.00  0.00     0.000 C 
BRANCH   2   3
ATOM      3  C   UNL     1      -3.992  43.022  18.311  1.00  0.00     0.000 C 
BRANCH   3   4
ATOM      4  C   UNL     1      -3.683  43.443  16.859  1.00  0.00     0.000 C 
BRANCH   4   5
ATOM      5  C   UNL     1      -2.338  42.883  16.364  1.00  0.00     0.000 C 
BRANCH   5   6
ATOM      6  C   UNL     1      -1.269  42.850  17.468  1.00  0.00     0.000 C 
BRANCH   6   7
ATOM      7  C   UNL     1      -0.446  44.148  17.525  1.00  0.00     0.000 C 
BRANCH   7   8
ATOM      8  C   UNL     1       1.034  43.908  17.873  1.00  0.00     0.000 C 
BRANCH   8   9
ATOM      9  C   UNL     1       1.411  42.441  18.163  1.00  0.00     0.000 C 
BRANCH   9  10
ATOM     10  C   UNL     1       1.906  42.164  19.597  1.00  0.00     0.000 C 
BRANCH  10  11
ATOM     11  C   UNL     1       2.890  43.210  20.156  1.00  0.00     0.000 C 
BRANCH  11  12
ATOM     12  C   UNL     1       2.951  43.290  21.694  1.00  0.00     0.000 C 
BRANCH  12  13
ATOM     13  C   UNL     1       3.616  44.563  22.257  1.00  0.00     0.006 C 
BRANCH  13  14
ATOM     14  C   UNL     1       4.382  44.352  23.572  1.00  0.00     0.053 C 
BRANCH  14  15
ATOM     15  C   UNL     1       5.179  43.085  23.559  1.00  0.00     0.041 C 
ATOM     16  O   UNL     1       4.862  42.127  24.313  1.00  0.00    -0.550 OA
ATOM     17  O   UNL     1       6.298  42.974  22.743  1.00  0.00    -0.550 OA
ENDBRANCH  14  15
ENDBRANCH  13  14
ENDBRANCH  12  13
ENDBRANCH  11  12
ENDBRANCH  10  11
ENDBRANCH   9  10
ENDBRANCH   8   9
ENDBRANCH   7   8
ENDBRANCH   6   7
ENDBRANCH   5   6
ENDBRANCH   4   5
ENDBRANCH   3   4
ENDBRANCH   2   3
ENDBRANCH   1   2
BRANCH   1  18
ATOM     18  C   UNL     1      -3.444  45.435  21.017  1.00  0.00     0.000 C 
BRANCH  18  19
ATOM     19  C   UNL     1      -4.542  44.718  21.820  1.00  0.00     0.000 C 
BRANCH  19  20
ATOM     20  C   UNL     1      -4.931  45.401  23.145  1.00  0.00     0.000 C 
BRANCH  20  21
ATOM     21  C   UNL     1      -3.808  45.399  24.205  1.00  0.00     0.000 C 
BRANCH  21  22
ATOM     22  C   UNL     1      -3.553  43.996  24.783  1.00  0.00     0.000 C 
BRANCH  22  23
ATOM     23  C   UNL     1      -2.055  43.670  24.910  1.00  0.00     0.000 C 
BRANCH  23  24
ATOM     24  C   UNL     1      -1.187  44.487  23.941  1.00  0.00    -0.000 C 
BRANCH  24  25
ATOM     25  C   UNL     1      -0.339  43.566  23.049  1.00  0.00    -0.000 C 
BRANCH  25  26
ATOM     26  C   UNL     1      -0.713  43.679  21.563  1.00  0.00    -0.000 C 
BRANCH  26  27
ATOM     27  C   UNL     1      -1.452  42.432  21.044  1.00  0.00    -0.000 C 
BRANCH  27  28
ATOM     28  C   UNL     1      -1.436  41.277  22.061  1.00  0.00    -0.000 C 
BRANCH  28  29
ATOM     29  C   UNL     1      -2.838  40.895  22.588  1.00  0.00    -0.000 C 
BRANCH  29  30
ATOM     30  C   UNL     1      -3.984  41.291  21.638  1.00  0.00    -0.000 C 
BRANCH  30  31
ATOM     31  C   UNL     1      -5.392  40.992  22.179  1.00  0.00    -0.003 C 
ATOM     32  C   UNL     1      -5.472  41.074  23.704  1.00  0.00     0.004 C 
ENDBRANCH  30  31
ENDBRANCH  29  30
ENDBRANCH  28  29
ENDBRANCH  27  28
ENDBRANCH  26  27
ENDBRANCH  25  26
ENDBRANCH  24  25
ENDBRANCH  23  24
ENDBRANCH  22  23
ENDBRANCH  21  22
ENDBRANCH  20  21
ENDBRANCH  19  20
ENDBRANCH  18  19
ENDBRANCH   1  18
TORSDOF 28
ENDMDL
MODEL 3
REMARK VINA RESULT:    -4.636      3.259      7.500
REMARK INTER + INTRA:         -16.082
REMARK INTER:                 -10.859
REMARK INTRA:                  -5.223
REMARK UNBOUND:                -3.858
REMARK SMILES CCCCCCCCCCCCCCCCCCCCCCCCCCCCCC(=O)[O-]
REMARK SMILES IDX 16 1 17 2 18 3 19 4 20 5 21 6 22 7 23 8 24 9 25 10 26 11
REMARK SMILES IDX 27 12 28 13 29 14 30 15 31 16 32 17 15 18 14 19 13 20 12 21
REMARK SMILES IDX 11 22 10 23 9 24 8 25 7 26 6 27 5 28 4 29 3 30 2 31 1 32
REMARK H PARENT
REMARK Flexibility Score: inf
ROOT
ATOM      1  C   UNL     1      -4.194  43.852  17.424  1.00  0.00     0.000 C 
ENDROOT
BRANCH   1   2
ATOM      2  C   UNL     1      -4.351  44.660  18.719  1.00  0.00     0.000 C 
BRANCH   2   3
ATOM      3  C   UNL     1      -5.070  43.879  19.834  1.00  0.00     0.000 C 
BRANCH   3   4
ATOM      4  C   UNL     1      -4.687  44.325  21.261  1.00  0.00     0.000 C 
BRANCH   4   5
ATOM      5  C   UNL     1      -3.347  45.080  21.294  1.00  0.00     0.000 C 
BRANCH   5   6
ATOM      6  C   UNL     1      -2.403  44.563  22.391  1.00  0.00     0.000 C 
BRANCH   6   7
ATOM      7  C   UNL     1      -1.090  44.004  21.817  1.00  0.00     0.000 C 
BRANCH   7   8
ATOM      8  C   UNL     1      -0.624  42.717  22.523  1.00  0.00     0.000 C 
BRANCH   8   9
ATOM      9  C   UNL     1      -0.767  41.425  21.694  1.00  0.00     0.000 C 
BRANCH   9  10
ATOM     10  C   UNL     1      -1.400  41.607  20.300  1.00  0.00     0.000 C 
BRANCH  10  11
ATOM     11  C   UNL     1      -2.674  40.776  20.052  1.00  0.00     0.000 C 
BRANCH  11  12
ATOM     12  C   UNL     1      -3.231  40.054  21.295  1.00  0.00     0.000 C 
BRANCH  12  13
ATOM     13  C   UNL     1      -4.307  40.836  22.078  1.00  0.00     0.006 C 
BRANCH  13  14
ATOM     14  C   UNL     1      -4.009  41.000  23.576  1.00  0.00     0.053 C 
BRANCH  14  15
ATOM     15  C   UNL     1      -5.057  41.815  24.269  1.00  0.00     0.041 C 
ATOM     16  O   UNL     1      -4.860  43.038  24.502  1.00  0.00    -0.550 OA
ATOM     17  O   UNL     1      -6.237  41.217  24.693  1.00  0.00    -0.550 OA
ENDBRANCH  14  15
ENDBRANCH  13  14
ENDBRANCH  12  13
ENDBRANCH  11  12
ENDBRANCH  10  11
ENDBRANCH   9  10
ENDBRANCH   8   9
ENDBRANCH   7   8
ENDBRANCH   6   7
ENDBRANCH   5   6
ENDBRANCH   4   5
ENDBRANCH   3   4
ENDBRANCH   2   3
ENDBRANCH   1   2
BRANCH   1  18
ATOM     18  C   UNL     1      -2.734  43.428  17.205  1.00  0.00     0.000 C 
BRANCH  18  19
ATOM     19  C   UNL     1      -1.751  44.188  18.111  1.00  0.00     0.000 C 
BRANCH  19  20
ATOM     20  C   UNL     1      -0.262  43.965  17.789  1.00  0.00     0.000 C 
BRANCH  20  21
ATOM     21  C   UNL     1       0.170  44.507  16.410  1.00  0.00     0.000 C 
BRANCH  21  22
ATOM     22  C   UNL     1       1.587  45.106  16.435  1.00  0.00     0.000 C 
BRANCH  22  23
ATOM     23  C   UNL     1       1.587  46.639  16.310  1.00  0.00     0.000 C 
BRANCH  23  24
ATOM     24  C   UNL     1       2.986  47.247  16.495  1.00  0.00    -0.000 C 
BRANCH  24  25
ATOM     25  C   UNL     1       3.145  47.848  17.901  1.00  0.00    -0.000 C 
BRANCH  25  26
ATOM     26  C   UNL     1       4.450  47.410  18.584  1.00  0.00    -0.000 C 
BRANCH  26  27
ATOM     27  C   UNL     1       4.299  46.083  19.350  1.00  0.00    -0.000 C 
BRANCH  27  28
ATOM     28  C   UNL     1       4.741  44.871  18.511  1.00  0.00    -0.000 C 
BRANCH  28  29
ATOM     29  C   UNL     1       4.136  43.531  18.990  1.00  0.00    -0.000 C 
BRANCH  29  30
ATOM     30  C   UNL     1       2.776  43.686  19.697  1.00  0.00    -0.000 C 
BRANCH  30  31
ATOM     31  C   UNL     1       2.661  42.931  21.031  1.00  0.00    -0.003 C 
ATOM     32  C   UNL     1       2.940  43.822  22.243  1.00  0.00     0.004 C 
ENDBRANCH  30  31
ENDBRANCH  29  30
ENDBRANCH  28  29
ENDBRANCH  27  28
ENDBRANCH  26  27
ENDBRANCH  25  26
ENDBRANCH  24  25
ENDBRANCH  23  24
ENDBRANCH  22  23
ENDBRANCH  21  22
ENDBRANCH  20  21
ENDBRANCH  19  20
ENDBRANCH  18  19
ENDBRANCH   1  18
TORSDOF 28
ENDMDL
MODEL 4
REMARK VINA RESULT:    -4.560      5.491      8.224
REMARK INTER + INTRA:         -15.883
REMARK INTER:                 -11.050
REMARK INTRA:                  -4.832
REMARK UNBOUND:                -3.858
REMARK SMILES CCCCCCCCCCCCCCCCCCCCCCCCCCCCCC(=O)[O-]
REMARK SMILES IDX 16 1 17 2 18 3 19 4 20 5 21 6 22 7 23 8 24 9 25 10 26 11
REMARK SMILES IDX 27 12 28 13 29 14 30 15 31 16 32 17 15 18 14 19 13 20 12 21
REMARK SMILES IDX 11 22 10 23 9 24 8 25 7 26 6 27 5 28 4 29 3 30 2 31 1 32
REMARK H PARENT
REMARK Flexibility Score: inf
ROOT
ATOM      1  C   UNL     1      -3.269  39.514  24.340  1.00  0.00     0.000 C 
ENDROOT
BRANCH   1   2
ATOM      2  C   UNL     1      -2.079  40.457  24.557  1.00  0.00     0.000 C 
BRANCH   2   3
ATOM      3  C   UNL     1      -2.219  41.324  25.821  1.00  0.00     0.000 C 
BRANCH   3   4
ATOM      4  C   UNL     1      -1.380  40.830  27.018  1.00  0.00     0.000 C 
BRANCH   4   5
ATOM      5  C   UNL     1      -2.092  39.716  27.806  1.00  0.00     0.000 C 
BRANCH   5   6
ATOM      6  C   UNL     1      -1.240  39.174  28.966  1.00  0.00     0.000 C 
BRANCH   6   7
ATOM      7  C   UNL     1       0.268  39.309  28.696  1.00  0.00     0.000 C 
BRANCH   7   8
ATOM      8  C   UNL     1       0.924  37.983  28.272  1.00  0.00     0.000 C 
BRANCH   8   9
ATOM      9  C   UNL     1       1.140  37.812  26.755  1.00  0.00     0.000 C 
BRANCH   9  10
ATOM     10  C   UNL     1      -0.067  37.245  25.982  1.00  0.00     0.000 C 
BRANCH  10  11
ATOM     11  C   UNL     1      -0.854  36.146  26.724  1.00  0.00     0.000 C 
BRANCH  11  12
ATOM     12  C   UNL     1      -0.168  34.767  26.761  1.00  0.00     0.000 C 
BRANCH  12  13
ATOM     13  C   UNL     1       0.552  34.359  25.459  1.00  0.00     0.006 C 
BRANCH  13  14
ATOM     14  C   UNL     1       2.068  34.159  25.606  1.00  0.00     0.053 C 
BRANCH  14  15
ATOM     15  C   UNL     1       2.823  34.729  24.446  1.00  0.00     0.041 C 
ATOM     16  O   UNL     1       2.538  35.873  24.002  1.00  0.00    -0.550 OA
ATOM     17  O   UNL     1       3.818  33.982  23.827  1.00  0.00    -0.550 OA
ENDBRANCH  14  15
ENDBRANCH  13  14
ENDBRANCH  12  13
ENDBRANCH  11  12
ENDBRANCH  10  11
ENDBRANCH   9  10
ENDBRANCH   8   9
ENDBRANCH   7   8
ENDBRANCH   6   7
ENDBRANCH   5   6
ENDBRANCH   4   5
ENDBRANCH   3   4
ENDBRANCH   2   3
ENDBRANCH   1   2
BRANCH   1  18
ATOM     18  C   UNL     1      -4.459  40.253  23.711  1.00  0.00     0.000 C 
BRANCH  18  19
ATOM     19  C   UNL     1      -4.134  40.836  22.326  1.00  0.00     0.000 C 
BRANCH  19  20
ATOM     20  C   UNL     1      -5.146  41.871  21.800  1.00  0.00     0.000 C 
BRANCH  20  21
ATOM     21  C   UNL     1      -5.422  41.764  20.285  1.00  0.00     0.000 C 
BRANCH  21  22
ATOM     22  C   UNL     1      -4.622  42.796  19.471  1.00  0.00     0.000 C 
BRANCH  22  23
ATOM     23  C   UNL     1      -4.731  44.219  20.044  1.00  0.00     0.000 C 
BRANCH  23  24
ATOM     24  C   UNL     1      -3.395  44.977  20.003  1.00  0.00    -0.000 C 
BRANCH  24  25
ATOM     25  C   UNL     1      -2.214  44.006  19.848  1.00  0.00    -0.000 C 
BRANCH  25  26
ATOM     26  C   UNL     1      -1.217  44.101  21.014  1.00  0.00    -0.000 C 
BRANCH  26  27
ATOM     27  C   UNL     1      -1.754  43.459  22.305  1.00  0.00    -0.000 C 
BRANCH  27  28
ATOM     28  C   UNL     1      -1.379  44.266  23.560  1.00  0.00    -0.000 C 
BRANCH  28  29
ATOM     29  C   UNL     1      -2.600  44.786  24.352  1.00  0.00    -0.000 C 
BRANCH  29  30
ATOM     30  C   UNL     1      -3.952  44.441  23.699  1.00  0.00    -0.000 C 
BRANCH  30  31
ATOM     31  C   UNL     1      -4.855  45.654  23.421  1.00  0.00    -0.003 C 
ATOM     32  C   UNL     1      -4.062  46.938  23.173  1.00  0.00     0.004 C 
ENDBRANCH  30  31
ENDBRANCH  29  30
ENDBRANCH  28  29
ENDBRANCH  27  28
ENDBRANCH  26  27
ENDBRANCH  25  26
ENDBRANCH  24  25
ENDBRANCH  23  24
ENDBRANCH  22  23
ENDBRANCH  21  22
ENDBRANCH  20  21
ENDBRANCH  19  20
ENDBRANCH  18  19
ENDBRANCH   1  18
TORSDOF 28
ENDMDL
MODEL 5
REMARK VINA RESULT:    -4.554      6.248     10.039
REMARK INTER + INTRA:         -15.866
REMARK INTER:                 -11.412
REMARK INTRA:                  -4.454
REMARK UNBOUND:                -3.858
REMARK SMILES CCCCCCCCCCCCCCCCCCCCCCCCCCCCCC(=O)[O-]
REMARK SMILES IDX 16 1 17 2 18 3 19 4 20 5 21 6 22 7 23 8 24 9 25 10 26 11
REMARK SMILES IDX 27 12 28 13 29 14 30 15 31 16 32 17 15 18 14 19 13 20 12 21
REMARK SMILES IDX 11 22 10 23 9 24 8 25 7 26 6 27 5 28 4 29 3 30 2 31 1 32
REMARK H PARENT
REMARK Flexibility Score: inf
ROOT
ATOM      1  C   UNL     1      -5.709  42.273  20.738  1.00  0.00     0.000 C 
ENDROOT
BRANCH   1   2
ATOM      2  C   UNL     1      -4.748  41.410  19.910  1.00  0.00     0.000 C 
BRANCH   2   3
ATOM      3  C   UNL     1      -3.538  40.908  20.719  1.00  0.00     0.000 C 
BRANCH   3   4
ATOM      4  C   UNL     1      -3.436  41.509  22.136  1.00  0.00     0.000 C 
BRANCH   4   5
ATOM      5  C   UNL     1      -3.595  40.441  23.233  1.00  0.00     0.000 C 
BRANCH   5   6
ATOM      6  C   UNL     1      -4.378  40.955  24.452  1.00  0.00     0.000 C 
BRANCH   6   7
ATOM      7  C   UNL     1      -5.887  40.681  24.334  1.00  0.00     0.000 C 
BRANCH   7   8
ATOM      8  C   UNL     1      -6.423  39.776  25.458  1.00  0.00     0.000 C 
BRANCH   8   9
ATOM      9  C   UNL     1      -7.879  39.300  25.281  1.00  0.00     0.000 C 
BRANCH   9  10
ATOM     10  C   UNL     1      -8.574  38.823  26.572  1.00  0.00     0.000 C 
BRANCH  10  11
ATOM     11  C   UNL     1      -9.894  39.547  26.903  1.00  0.00     0.000 C 
BRANCH  11  12
ATOM     12  C   UNL     1      -9.737  40.857  27.699  1.00  0.00     0.000 C 
BRANCH  12  13
ATOM     13  C   UNL     1      -8.765  40.783  28.895  1.00  0.00     0.006 C 
BRANCH  13  14
ATOM     14  C   UNL     1      -9.443  40.536  30.251  1.00  0.00     0.053 C 
BRANCH  14  15
ATOM     15  C   UNL     1      -8.982  39.259  30.882  1.00  0.00     0.041 C 
ATOM     16  O   UNL     1      -8.685  39.225  32.107  1.00  0.00    -0.550 OA
ATOM     17  O   UNL     1      -8.843  38.111  30.111  1.00  0.00    -0.550 OA
ENDBRANCH  14  15
ENDBRANCH  13  14
ENDBRANCH  12  13
ENDBRANCH  11  12
ENDBRANCH  10  11
ENDBRANCH   9  10
ENDBRANCH   8   9
ENDBRANCH   7   8
ENDBRANCH   6   7
ENDBRANCH   5   6
ENDBRANCH   4   5
ENDBRANCH   3   4
ENDBRANCH   2   3
ENDBRANCH   1   2
BRANCH   1  18
ATOM     18  C   UNL     1      -5.456  43.770  20.503  1.00  0.00     0.000 C 
BRANCH  18  19
ATOM     19  C   UNL     1      -4.772  44.053  19.155  1.00  0.00     0.000 C 
BRANCH  19  20
ATOM     20  C   UNL     1      -3.547  44.983  19.229  1.00  0.00     0.000 C 
BRANCH  20  21
ATOM     21  C   UNL     1      -2.201  44.267  18.986  1.00  0.00     0.000 C 
BRANCH  21  22
ATOM     22  C   UNL     1      -1.454  43.967  20.297  1.00  0.00     0.000 C 
BRANCH  22  23
ATOM     23  C   UNL     1      -0.380  42.878  20.133  1.00  0.00     0.000 C 
BRANCH  23  24
ATOM     24  C   UNL     1       0.130  42.342  21.480  1.00  0.00    -0.000 C 
BRANCH  24  25
ATOM     25  C   UNL     1       1.115  43.328  22.128  1.00  0.00    -0.000 C 
BRANCH  25  26
ATOM     26  C   UNL     1       0.823  43.558  23.619  1.00  0.00    -0.000 C 
BRANCH  26  27
ATOM     27  C   UNL     1      -0.386  42.745  24.116  1.00  0.00    -0.000 C 
BRANCH  27  28
ATOM     28  C   UNL     1      -1.541  43.644  24.591  1.00  0.00    -0.000 C 
BRANCH  28  29
ATOM     29  C   UNL     1      -1.907  44.765  23.591  1.00  0.00    -0.000 C 
BRANCH  29  30
ATOM     30  C   UNL     1      -3.415  44.855  23.289  1.00  0.00    -0.000 C 
BRANCH  30  31
ATOM     31  C   UNL     1      -3.899  46.253  22.870  1.00  0.00    -0.003 C 
ATOM     32  C   UNL     1      -3.767  47.286  23.990  1.00  0.00     0.004 C 
ENDBRANCH  30  31
ENDBRANCH  29  30
ENDBRANCH  28  29
ENDBRANCH  27  28
ENDBRANCH  26  27
ENDBRANCH  25  26
ENDBRANCH  24  25
ENDBRANCH  23  24
ENDBRANCH  22  23
ENDBRANCH  21  22
ENDBRANCH  20  21
ENDBRANCH  19  20
ENDBRANCH  18  19
ENDBRANCH   1  18
TORSDOF 28
ENDMDL
MODEL 6
REMARK VINA RESULT:    -4.551      2.366      7.554
REMARK INTER + INTRA:         -15.857
REMARK INTER:                 -11.061
REMARK INTRA:                  -4.796
REMARK UNBOUND:                -3.858
REMARK SMILES CCCCCCCCCCCCCCCCCCCCCCCCCCCCCC(=O)[O-]
REMARK SMILES IDX 16 1 17 2 18 3 19 4 20 5 21 6 22 7 23 8 24 9 25 10 26 11
REMARK SMILES IDX 27 12 28 13 29 14 30 15 31 16 32 17 15 18 14 19 13 20 12 21
REMARK SMILES IDX 11 22 10 23 9 24 8 25 7 26 6 27 5 28 4 29 3 30 2 31 1 32
REMARK H PARENT
REMARK Flexibility Score: inf
ROOT
ATOM      1  C   UNL     1      -0.670  42.639  18.396  1.00  0.00     0.000 C 
ENDROOT
BRANCH   1   2
ATOM      2  C   UNL     1      -1.061  43.444  17.150  1.00  0.00     0.000 C 
BRANCH   2   3
ATOM      3  C   UNL     1      -2.569  43.392  16.847  1.00  0.00     0.000 C 
BRANCH   3   4
ATOM      4  C   UNL     1      -3.348  42.370  17.702  1.00  0.00     0.000 C 
BRANCH   4   5
ATOM      5  C   UNL     1      -4.307  43.052  18.693  1.00  0.00     0.000 C 
BRANCH   5   6
ATOM      6  C   UNL     1      -4.378  44.575  18.496  1.00  0.00     0.000 C 
BRANCH   6   7
ATOM      7  C   UNL     1      -3.633  45.343  19.602  1.00  0.00     0.000 C 
BRANCH   7   8
ATOM      8  C   UNL     1      -3.931  44.804  21.013  1.00  0.00     0.000 C 
BRANCH   8   9
ATOM      9  C   UNL     1      -3.733  45.817  22.159  1.00  0.00     0.000 C 
BRANCH   9  10
ATOM     10  C   UNL     1      -3.182  45.221  23.470  1.00  0.00     0.000 C 
BRANCH  10  11
ATOM     11  C   UNL     1      -4.256  44.707  24.449  1.00  0.00     0.000 C 
BRANCH  11  12
ATOM     12  C   UNL     1      -4.513  43.188  24.395  1.00  0.00     0.000 C 
BRANCH  12  13
ATOM     13  C   UNL     1      -3.298  42.334  23.974  1.00  0.00     0.006 C 
BRANCH  13  14
ATOM     14  C   UNL     1      -2.797  41.365  25.056  1.00  0.00     0.053 C 
BRANCH  14  15
ATOM     15  C   UNL     1      -1.744  41.987  25.920  1.00  0.00     0.041 C 
ATOM     16  O   UNL     1      -1.412  41.445  27.008  1.00  0.00    -0.550 OA
ATOM     17  O   UNL     1      -1.153  43.187  25.543  1.00  0.00    -0.550 OA
ENDBRANCH  14  15
ENDBRANCH  13  14
ENDBRANCH  12  13
ENDBRANCH  11  12
ENDBRANCH  10  11
ENDBRANCH   9  10
ENDBRANCH   8   9
ENDBRANCH   7   8
ENDBRANCH   6   7
ENDBRANCH   5   6
ENDBRANCH   4   5
ENDBRANCH   3   4
ENDBRANCH   2   3
ENDBRANCH   1   2
BRANCH   1  18
ATOM     18  C   UNL     1      -0.386  43.563  19.590  1.00  0.00     0.000 C 
BRANCH  18  19
ATOM     19  C   UNL     1      -0.850  42.966  20.928  1.00  0.00     0.000 C 
BRANCH  19  20
ATOM     20  C   UNL     1      -0.183  43.570  22.178  1.00  0.00     0.000 C 
BRANCH  20  21
ATOM     21  C   UNL     1       1.024  42.761  22.698  1.00  0.00     0.000 C 
BRANCH  21  22
ATOM     22  C   UNL     1       2.040  43.642  23.446  1.00  0.00     0.000 C 
BRANCH  22  23
ATOM     23  C   UNL     1       3.191  44.118  22.544  1.00  0.00     0.000 C 
BRANCH  23  24
ATOM     24  C   UNL     1       3.397  43.213  21.320  1.00  0.00    -0.000 C 
BRANCH  24  25
ATOM     25  C   UNL     1       3.162  43.989  20.014  1.00  0.00    -0.000 C 
BRANCH  25  26
ATOM     26  C   UNL     1       3.814  43.309  18.800  1.00  0.00    -0.000 C 
BRANCH  26  27
ATOM     27  C   UNL     1       2.838  43.145  17.621  1.00  0.00    -0.000 C 
BRANCH  27  28
ATOM     28  C   UNL     1       3.002  44.253  16.566  1.00  0.00    -0.000 C 
BRANCH  28  29
ATOM     29  C   UNL     1       2.226  45.548  16.900  1.00  0.00    -0.000 C 
BRANCH  29  30
ATOM     30  C   UNL     1       3.001  46.836  16.563  1.00  0.00    -0.000 C 
BRANCH  30  31
ATOM     31  C   UNL     1       3.200  47.790  17.752  1.00  0.00    -0.003 C 
ATOM     32  C   UNL     1       4.236  47.280  18.754  1.00  0.00     0.004 C 
ENDBRANCH  30  31
ENDBRANCH  29  30
ENDBRANCH  28  29
ENDBRANCH  27  28
ENDBRANCH  26  27
ENDBRANCH  25  26
ENDBRANCH  24  25
ENDBRANCH  23  24
ENDBRANCH  22  23
ENDBRANCH  21  22
ENDBRANCH  20  21
ENDBRANCH  19  20
ENDBRANCH  18  19
ENDBRANCH   1  18
TORSDOF 28
ENDMDL
MODEL 7
REMARK VINA RESULT:    -4.519      3.013      6.123
REMARK INTER + INTRA:         -15.775
REMARK INTER:                  -9.321
REMARK INTRA:                  -6.454
REMARK UNBOUND:                -3.858
REMARK SMILES CCCCCCCCCCCCCCCCCCCCCCCCCCCCCC(=O)[O-]
REMARK SMILES IDX 16 1 17 2 18 3 19 4 20 5 21 6 22 7 23 8 24 9 25 10 26 11
REMARK SMILES IDX 27 12 28 13 29 14 30 15 31 16 32 17 15 18 14 19 13 20 12 21
REMARK SMILES IDX 11 22 10 23 9 24 8 25 7 26 6 27 5 28 4 29 3 30 2 31 1 32
REMARK H PARENT
REMARK Flexibility Score: inf
ROOT
ATOM      1  C   UNL     1      -2.568  43.029  24.844  1.00  0.00     0.000 C 
ENDROOT
BRANCH   1   2
ATOM      2  C   UNL     1      -1.093  42.978  25.261  1.00  0.00     0.000 C 
BRANCH   2   3
ATOM      3  C   UNL     1      -0.129  43.346  24.118  1.00  0.00     0.000 C 
BRANCH   3   4
ATOM      4  C   UNL     1      -0.762  44.231  23.023  1.00  0.00     0.000 C 
BRANCH   4   5
ATOM      5  C   UNL     1      -0.613  43.615  21.620  1.00  0.00     0.000 C 
BRANCH   5   6
ATOM      6  C   UNL     1      -1.522  42.394  21.410  1.00  0.00     0.000 C 
BRANCH   6   7
ATOM      7  C   UNL     1      -0.971  41.431  20.344  1.00  0.00     0.000 C 
BRANCH   7   8
ATOM      8  C   UNL     1      -0.461  40.106  20.937  1.00  0.00     0.000 C 
BRANCH   8   9
ATOM      9  C   UNL     1      -0.404  40.053  22.477  1.00  0.00     0.000 C 
BRANCH   9  10
ATOM     10  C   UNL     1       0.954  39.624  23.067  1.00  0.00     0.000 C 
BRANCH  10  11
ATOM     11  C   UNL     1       2.187  40.148  22.304  1.00  0.00     0.000 C 
BRANCH  11  12
ATOM     12  C   UNL     1       2.775  41.466  22.844  1.00  0.00     0.000 C 
BRANCH  12  13
ATOM     13  C   UNL     1       2.970  42.576  21.789  1.00  0.00     0.006 C 
BRANCH  13  14
ATOM     14  C   UNL     1       3.068  43.995  22.369  1.00  0.00     0.053 C 
BRANCH  14  15
ATOM     15  C   UNL     1       4.046  44.071  23.500  1.00  0.00     0.041 C 
ATOM     16  O   UNL     1       3.653  44.364  24.661  1.00  0.00    -0.550 OA
ATOM     17  O   UNL     1       5.399  43.855  23.268  1.00  0.00    -0.550 OA
ENDBRANCH  14  15
ENDBRANCH  13  14
ENDBRANCH  12  13
ENDBRANCH  11  12
ENDBRANCH  10  11
ENDBRANCH   9  10
ENDBRANCH   8   9
ENDBRANCH   7   8
ENDBRANCH   6   7
ENDBRANCH   5   6
ENDBRANCH   4   5
ENDBRANCH   3   4
ENDBRANCH   2   3
ENDBRANCH   1   2
BRANCH   1  18
ATOM     18  C   UNL     1      -3.336  44.095  25.640  1.00  0.00     0.000 C 
BRANCH  18  19
ATOM     19  C   UNL     1      -4.366  44.850  24.783  1.00  0.00     0.000 C 
BRANCH  19  20
ATOM     20  C   UNL     1      -3.809  46.060  24.009  1.00  0.00     0.000 C 
BRANCH  20  21
ATOM     21  C   UNL     1      -3.869  45.905  22.475  1.00  0.00     0.000 C 
BRANCH  21  22
ATOM     22  C   UNL     1      -4.596  44.619  22.045  1.00  0.00     0.000 C 
BRANCH  22  23
ATOM     23  C   UNL     1      -4.564  44.397  20.524  1.00  0.00     0.000 C 
BRANCH  23  24
ATOM     24  C   UNL     1      -3.362  45.079  19.852  1.00  0.00    -0.000 C 
BRANCH  24  25
ATOM     25  C   UNL     1      -3.065  44.449  18.482  1.00  0.00    -0.000 C 
BRANCH  25  26
ATOM     26  C   UNL     1      -4.185  43.507  18.012  1.00  0.00    -0.000 C 
BRANCH  26  27
ATOM     27  C   UNL     1      -3.759  42.028  18.030  1.00  0.00    -0.000 C 
BRANCH  27  28
ATOM     28  C   UNL     1      -4.771  41.137  18.771  1.00  0.00    -0.000 C 
BRANCH  28  29
ATOM     29  C   UNL     1      -4.149  39.851  19.362  1.00  0.00    -0.000 C 
BRANCH  29  30
ATOM     30  C   UNL     1      -4.830  39.375  20.659  1.00  0.00    -0.000 C 
BRANCH  30  31
ATOM     31  C   UNL     1      -4.088  39.764  21.948  1.00  0.00    -0.003 C 
ATOM     32  C   UNL     1      -4.704  40.981  22.641  1.00  0.00     0.004 C 
ENDBRANCH  30  31
ENDBRANCH  29  30
ENDBRANCH  28  29
ENDBRANCH  27  28
ENDBRANCH  26  27
ENDBRANCH  25  26
ENDBRANCH  24  25
ENDBRANCH  23  24
ENDBRANCH  22  23
ENDBRANCH  21  22
ENDBRANCH  20  21
ENDBRANCH  19  20
ENDBRANCH  18  19
ENDBRANCH   1  18
TORSDOF 28
ENDMDL
MODEL 8
REMARK VINA RESULT:    -4.515      2.117      5.336
REMARK INTER + INTRA:         -15.763
REMARK INTER:                 -10.399
REMARK INTRA:                  -5.364
REMARK UNBOUND:                -3.858
REMARK SMILES CCCCCCCCCCCCCCCCCCCCCCCCCCCCCC(=O)[O-]
REMARK SMILES IDX 16 1 17 2 18 3 19 4 20 5 21 6 22 7 23 8 24 9 25 10 26 11
REMARK SMILES IDX 27 12 28 13 29 14 30 15 31 16 32 17 15 18 14 19 13 20 12 21
REMARK SMILES IDX 11 22 10 23 9 24 8 25 7 26 6 27 5 28 4 29 3 30 2 31 1 32
REMARK H PARENT
REMARK Flexibility Score: inf
ROOT
ATOM      1  C   UNL     1      -4.328  44.521  20.542  1.00  0.00     0.000 C 
ENDROOT
BRANCH   1   2
ATOM      2  C   UNL     1      -3.528  45.019  19.332  1.00  0.00     0.000 C 
BRANCH   2   3
ATOM      3  C   UNL     1      -3.639  44.090  18.110  1.00  0.00     0.000 C 
BRANCH   3   4
ATOM      4  C   UNL     1      -2.342  43.320  17.784  1.00  0.00     0.000 C 
BRANCH   4   5
ATOM      5  C   UNL     1      -1.104  43.968  18.430  1.00  0.00     0.000 C 
BRANCH   5   6
ATOM      6  C   UNL     1       0.178  43.742  17.612  1.00  0.00     0.000 C 
BRANCH   6   7
ATOM      7  C   UNL     1       0.127  44.438  16.241  1.00  0.00     0.000 C 
BRANCH   7   8
ATOM      8  C   UNL     1       0.969  45.726  16.190  1.00  0.00     0.000 C 
BRANCH   8   9
ATOM      9  C   UNL     1       2.487  45.526  16.376  1.00  0.00     0.000 C 
BRANCH   9  10
ATOM     10  C   UNL     1       3.208  46.657  17.137  1.00  0.00     0.000 C 
BRANCH  10  11
ATOM     11  C   UNL     1       3.981  46.203  18.391  1.00  0.00     0.000 C 
BRANCH  11  12
ATOM     12  C   UNL     1       4.031  44.678  18.608  1.00  0.00     0.000 C 
BRANCH  12  13
ATOM     13  C   UNL     1       3.171  44.156  19.778  1.00  0.00     0.006 C 
BRANCH  13  14
ATOM     14  C   UNL     1       3.903  43.192  20.725  1.00  0.00     0.053 C 
BRANCH  14  15
ATOM     15  C   UNL     1       3.597  43.480  22.162  1.00  0.00     0.041 C 
ATOM     16  O   UNL     1       3.668  44.658  22.604  1.00  0.00    -0.550 OA
ATOM     17  O   UNL     1       3.270  42.442  23.026  1.00  0.00    -0.550 OA
ENDBRANCH  14  15
ENDBRANCH  13  14
ENDBRANCH  12  13
ENDBRANCH  11  12
ENDBRANCH  10  11
ENDBRANCH   9  10
ENDBRANCH   8   9
ENDBRANCH   7   8
ENDBRANCH   6   7
ENDBRANCH   5   6
ENDBRANCH   4   5
ENDBRANCH   3   4
ENDBRANCH   2   3
ENDBRANCH   1   2
BRANCH   1  18
ATOM     18  C   UNL     1      -5.397  43.501  20.122  1.00  0.00     0.000 C 
BRANCH  18  19
ATOM     19  C   UNL     1      -5.355  42.214  20.962  1.00  0.00     0.000 C 
BRANCH  19  20
ATOM     20  C   UNL     1      -4.752  42.374  22.370  1.00  0.00     0.000 C 
BRANCH  20  21
ATOM     21  C   UNL     1      -3.735  41.276  22.746  1.00  0.00     0.000 C 
BRANCH  21  22
ATOM     22  C   UNL     1      -3.019  40.695  21.514  1.00  0.00     0.000 C 
BRANCH  22  23
ATOM     23  C   UNL     1      -1.892  41.605  20.997  1.00  0.00     0.000 C 
BRANCH  23  24
ATOM     24  C   UNL     1      -0.680  41.640  21.941  1.00  0.00    -0.000 C 
BRANCH  24  25
ATOM     25  C   UNL     1      -0.124  43.066  22.072  1.00  0.00    -0.000 C 
BRANCH  25  26
ATOM     26  C   UNL     1      -1.235  44.125  22.171  1.00  0.00    -0.000 C 
BRANCH  26  27
ATOM     27  C   UNL     1      -1.350  44.729  23.581  1.00  0.00    -0.000 C 
BRANCH  27  28
ATOM     28  C   UNL     1      -2.790  44.679  24.123  1.00  0.00    -0.000 C 
BRANCH  28  29
ATOM     29  C   UNL     1      -2.948  43.798  25.383  1.00  0.00    -0.000 C 
BRANCH  29  30
ATOM     30  C   UNL     1      -1.745  42.871  25.644  1.00  0.00    -0.000 C 
BRANCH  30  31
ATOM     31  C   UNL     1      -2.121  41.443  26.072  1.00  0.00    -0.003 C 
ATOM     32  C   UNL     1      -1.214  40.380  25.450  1.00  0.00     0.004 C 
ENDBRANCH  30  31
ENDBRANCH  29  30
ENDBRANCH  28  29
ENDBRANCH  27  28
ENDBRANCH  26  27
ENDBRANCH  25  26
ENDBRANCH  24  25
ENDBRANCH  23  24
ENDBRANCH  22  23
ENDBRANCH  21  22
ENDBRANCH  20  21
ENDBRANCH  19  20
ENDBRANCH  18  19
ENDBRANCH   1  18
TORSDOF 28
ENDMDL
MODEL 9
REMARK VINA RESULT:    -4.506      1.345      2.117
REMARK INTER + INTRA:         -15.740
REMARK INTER:                 -11.236
REMARK INTRA:                  -4.505
REMARK UNBOUND:                -3.858
REMARK SMILES CCCCCCCCCCCCCCCCCCCCCCCCCCCCCC(=O)[O-]
REMARK SMILES IDX 16 1 17 2 18 3 19 4 20 5 21 6 22 7 23 8 24 9 25 10 26 11
REMARK SMILES IDX 27 12 28 13 29 14 30 15 31 16 32 17 15 18 14 19 13 20 12 21
REMARK SMILES IDX 11 22 10 23 9 24 8 25 7 26 6 27 5 28 4 29 3 30 2 31 1 32
REMARK H PARENT
REMARK Flexibility Score: inf
ROOT
ATOM      1  C   UNL     1       0.915  45.736  16.106  1.00  0.00     0.000 C 
ENDROOT
BRANCH   1   2
ATOM      2  C   UNL     1       1.759  47.010  16.243  1.00  0.00     0.000 C 
BRANCH   2   3
ATOM      3  C   UNL     1       3.145  46.752  16.862  1.00  0.00     0.000 C 
BRANCH   3   4
ATOM      4  C   UNL     1       3.519  47.730  17.996  1.00  0.00     0.000 C 
BRANCH   4   5
ATOM      5  C   UNL     1       4.271  47.031  19.142  1.00  0.00     0.000 C 
BRANCH   5   6
ATOM      6  C   UNL     1       5.250  45.956  18.640  1.00  0.00     0.000 C 
BRANCH   6   7
ATOM      7  C   UNL     1       4.822  44.538  19.053  1.00  0.00     0.000 C 
BRANCH   7   8
ATOM      8  C   UNL     1       3.637  44.529  20.035  1.00  0.00     0.000 C 
BRANCH   8   9
ATOM      9  C   UNL     1       3.036  43.139  20.327  1.00  0.00     0.000 C 
BRANCH   9  10
ATOM     10  C   UNL     1       1.856  43.132  21.319  1.00  0.00     0.000 C 
BRANCH  10  11
ATOM     11  C   UNL     1       2.223  42.725  22.759  1.00  0.00     0.000 C 
BRANCH  11  12
ATOM     12  C   UNL     1       2.468  43.900  23.725  1.00  0.00     0.000 C 
BRANCH  12  13
ATOM     13  C   UNL     1       3.947  44.159  24.078  1.00  0.00     0.006 C 
BRANCH  13  14
ATOM     14  C   UNL     1       4.761  42.892  24.381  1.00  0.00     0.053 C 
BRANCH  14  15
ATOM     15  C   UNL     1       5.838  42.663  23.367  1.00  0.00     0.041 C 
ATOM     16  O   UNL     1       6.600  41.664  23.463  1.00  0.00    -0.550 OA
ATOM     17  O   UNL     1       6.028  43.573  22.334  1.00  0.00    -0.550 OA
ENDBRANCH  14  15
ENDBRANCH  13  14
ENDBRANCH  12  13
ENDBRANCH  11  12
ENDBRANCH  10  11
ENDBRANCH   9  10
ENDBRANCH   8   9
ENDBRANCH   7   8
ENDBRANCH   6   7
ENDBRANCH   5   6
ENDBRANCH   4   5
ENDBRANCH   3   4
ENDBRANCH   2   3
ENDBRANCH   1   2
BRANCH   1  18
ATOM     18  C   UNL     1       1.586  44.544  16.804  1.00  0.00     0.000 C 
BRANCH  18  19
ATOM     19  C   UNL     1       0.626  43.778  17.729  1.00  0.00     0.000 C 
BRANCH  19  20
ATOM     20  C   UNL     1      -0.863  44.140  17.567  1.00  0.00     0.000 C 
BRANCH  20  21
ATOM     21  C   UNL     1      -1.660  44.122  18.889  1.00  0.00     0.000 C 
BRANCH  21  22
ATOM     22  C   UNL     1      -3.102  43.621  18.695  1.00  0.00     0.000 C 
BRANCH  22  23
ATOM     23  C   UNL     1      -4.138  44.497  19.419  1.00  0.00     0.000 C 
BRANCH  23  24
ATOM     24  C   UNL     1      -3.523  45.314  20.566  1.00  0.00    -0.000 C 
BRANCH  24  25
ATOM     25  C   UNL     1      -3.980  44.779  21.932  1.00  0.00    -0.000 C 
BRANCH  25  26
ATOM     26  C   UNL     1      -2.979  45.095  23.054  1.00  0.00    -0.000 C 
BRANCH  26  27
ATOM     27  C   UNL     1      -1.604  44.444  22.819  1.00  0.00    -0.000 C 
BRANCH  27  28
ATOM     28  C   UNL     1      -1.720  42.971  22.391  1.00  0.00    -0.000 C 
BRANCH  28  29
ATOM     29  C   UNL     1      -2.317  42.053  23.482  1.00  0.00    -0.000 C 
BRANCH  29  30
ATOM     30  C   UNL     1      -3.266  40.973  22.929  1.00  0.00    -0.000 C 
BRANCH  30  31
ATOM     31  C   UNL     1      -3.667  41.168  21.458  1.00  0.00    -0.003 C 
ATOM     32  C   UNL     1      -5.177  41.321  21.271  1.00  0.00     0.004 C 
ENDBRANCH  30  31
ENDBRANCH  29  30
ENDBRANCH  28  29
ENDBRANCH  27  28
ENDBRANCH  26  27
ENDBRANCH  25  26
ENDBRANCH  24  25
ENDBRANCH  23  24
ENDBRANCH  22  23
ENDBRANCH  21  22
ENDBRANCH  20  21
ENDBRANCH  19  20
ENDBRANCH  18  19
ENDBRANCH   1  18
TORSDOF 28
ENDMDL
