MODEL 1
REMARK VINA RESULT:    -3.291      0.000      0.000
REMARK INTER + INTRA:          -6.687
REMARK INTER:                  -5.985
REMARK INTRA:                  -0.702
REMARK UNBOUND:                -0.702
REMARK SMILES CCCCCCCCCCCCCCCC(=O)[O-]
REMARK SMILES IDX 9 1 10 2 11 3 12 4 13 5 14 6 15 7 16 8 17 9 18 10 8 11 7 12
REMARK SMILES IDX 6 13 5 14 4 15 3 16 2 17 1 18
REMARK H PARENT
REMARK Flexibility Score: inf
ROOT
ATOM      1  C   UNL     1      -3.734  20.134  15.912  1.00  0.00     0.000 C 
ENDROOT
BRANCH   1   2
ATOM      2  C   UNL     1      -5.266  20.270  15.883  1.00  0.00     0.000 C 
BRANCH   2   3
ATOM      3  C   UNL     1      -5.749  21.265  14.813  1.00  0.00     0.000 C 
BRANCH   3   4
ATOM      4  C   UNL     1      -7.282  21.306  14.698  1.00  0.00     0.000 C 
BRANCH   4   5
ATOM      5  C   UNL     1      -7.977  20.241  15.567  1.00  0.00     0.000 C 
BRANCH   5   6
ATOM      6  C   UNL     1      -8.837  20.795  16.721  1.00  0.00     0.006 C 
BRANCH   6   7
ATOM      7  C   UNL     1      -8.316  22.104  17.334  1.00  0.00     0.053 C 
BRANCH   7   8
ATOM      8  C   UNL     1      -7.856  21.918  18.747  1.00  0.00     0.041 C 
ATOM      9  O   UNL     1      -8.513  22.417  19.698  1.00  0.00    -0.550 OA
ATOM     10  O   UNL     1      -6.720  21.165  19.017  1.00  0.00    -0.550 OA
ENDBRANCH   7   8
ENDBRANCH   6   7
ENDBRANCH   5   6
ENDBRANCH   4   5
ENDBRANCH   3   4
ENDBRANCH   2   3
ENDBRANCH   1   2
BRANCH   1  11
ATOM     11  C   UNL     1      -3.144  20.334  17.319  1.00  0.00     0.000 C 
BRANCH  11  12
ATOM     12  C   UNL     1      -1.681  19.875  17.485  1.00  0.00    -0.000 C 
BRANCH  12  13
ATOM     13  C   UNL     1      -0.701  20.427  16.432  1.00  0.00    -0.000 C 
BRANCH  13  14
ATOM     14  C   UNL     1       0.758  19.950  16.584  1.00  0.00    -0.000 C 
BRANCH  14  15
ATOM     15  C   UNL     1       1.825  20.987  16.193  1.00  0.00    -0.000 C 
BRANCH  15  16
ATOM     16  C   UNL     1       3.171  20.754  16.895  1.00  0.00    -0.000 C 
BRANCH  16  17
ATOM     17  C   UNL     1       4.253  20.353  15.887  1.00  0.00    -0.003 C 
ATOM     18  C   UNL     1       5.589  21.011  16.221  1.00  0.00     0.004 C 
ENDBRANCH  16  17
ENDBRANCH  15  16
ENDBRANCH  14  15
ENDBRANCH  13  14
ENDBRANCH  12  13
ENDBRANCH  11  12
ENDBRANCH   1  11
TORSDOF 14
ENDMDL
MODEL 2
REMARK VINA RESULT:    -3.117      5.151     10.513
REMARK INTER + INTRA:          -6.371
REMARK INTER:                  -5.749
REMARK INTRA:                  -0.622
REMARK UNBOUND:                -0.702
REMARK SMILES CCCCCCCCCCCCCCCC(=O)[O-]
REMARK SMILES IDX 9 1 10 2 11 3 12 4 13 5 14 6 15 7 16 8 17 9 18 10 8 11 7 12
REMARK SMILES IDX 6 13 5 14 4 15 3 16 2 17 1 18
REMARK H PARENT
REMARK Flexibility Score: inf
ROOT
ATOM      1  C   UNL     1      -1.799  20.666  16.352  1.00  0.00     0.000 C 
ENDROOT
BRANCH   1   2
ATOM      2  C   UNL     1      -0.393  20.235  16.800  1.00  0.00     0.000 C 
BRANCH   2   3
ATOM      3  C   UNL     1       0.680  20.527  15.737  1.00  0.00     0.000 C 
BRANCH   3   4
ATOM      4  C   UNL     1       2.005  21.006  16.354  1.00  0.00     0.000 C 
BRANCH   4   5
ATOM      5  C   UNL     1       3.040  19.875  16.501  1.00  0.00     0.000 C 
BRANCH   5   6
ATOM      6  C   UNL     1       4.382  20.118  15.781  1.00  0.00     0.006 C 
BRANCH   6   7
ATOM      7  C   UNL     1       5.423  20.885  16.611  1.00  0.00     0.053 C 
BRANCH   7   8
ATOM      8  C   UNL     1       6.763  20.914  15.943  1.00  0.00     0.041 C 
ATOM      9  O   UNL     1       6.874  20.586  14.733  1.00  0.00    -0.550 OA
ATOM     10  O   UNL     1       7.883  21.338  16.647  1.00  0.00    -0.550 OA
ENDBRANCH   7   8
ENDBRANCH   6   7
ENDBRANCH   5   6
ENDBRANCH   4   5
ENDBRANCH   3   4
ENDBRANCH   2   3
ENDBRANCH   1   2
BRANCH   1  11
ATOM     11  C   UNL     1      -2.918  19.883  17.062  1.00  0.00     0.000 C 
BRANCH  11  12
ATOM     12  C   UNL     1      -4.277  19.879  16.334  1.00  0.00    -0.000 C 
BRANCH  12  13
ATOM     13  C   UNL     1      -4.529  21.092  15.418  1.00  0.00    -0.000 C 
BRANCH  13  14
ATOM     14  C   UNL     1      -5.703  20.931  14.429  1.00  0.00    -0.000 C 
BRANCH  14  15
ATOM     15  C   UNL     1      -7.072  21.381  14.968  1.00  0.00    -0.000 C 
BRANCH  15  16
ATOM     16  C   UNL     1      -7.866  20.235  15.613  1.00  0.00    -0.000 C 
BRANCH  16  17
ATOM     17  C   UNL     1      -8.606  20.719  16.865  1.00  0.00    -0.003 C 
ATOM     18  C   UNL     1      -8.124  22.102  17.292  1.00  0.00     0.004 C 
ENDBRANCH  16  17
ENDBRANCH  15  16
ENDBRANCH  14  15
ENDBRANCH  13  14
ENDBRANCH  12  13
ENDBRANCH  11  12
ENDBRANCH   1  11
TORSDOF 14
ENDMDL
MODEL 3
REMARK VINA RESULT:    -3.053      1.257      2.733
REMARK INTER + INTRA:          -6.253
REMARK INTER:                  -5.858
REMARK INTRA:                  -0.395
REMARK UNBOUND:                -0.702
REMARK SMILES CCCCCCCCCCCCCCCC(=O)[O-]
REMARK SMILES IDX 9 1 10 2 11 3 12 4 13 5 14 6 15 7 16 8 17 9 18 10 8 11 7 12
REMARK SMILES IDX 6 13 5 14 4 15 3 16 2 17 1 18
REMARK H PARENT
REMARK Flexibility Score: inf
ROOT
ATOM      1  C   UNL     1      -1.842  20.570  16.429  1.00  0.00     0.000 C 
ENDROOT
BRANCH   1   2
ATOM      2  C   UNL     1      -2.808  20.050  17.507  1.00  0.00     0.000 C 
BRANCH   2   3
ATOM      3  C   UNL     1      -4.242  19.875  16.978  1.00  0.00     0.000 C 
BRANCH   3   4
ATOM      4  C   UNL     1      -4.402  20.383  15.536  1.00  0.00     0.000 C 
BRANCH   4   5
ATOM      5  C   UNL     1      -5.618  21.311  15.360  1.00  0.00     0.000 C 
BRANCH   5   6
ATOM      6  C   UNL     1      -6.783  20.718  14.540  1.00  0.00     0.006 C 
BRANCH   6   7
ATOM      7  C   UNL     1      -8.041  20.393  15.360  1.00  0.00     0.053 C 
BRANCH   7   8
ATOM      8  C   UNL     1      -7.918  20.849  16.781  1.00  0.00     0.041 C 
ATOM      9  O   UNL     1      -7.575  20.037  17.680  1.00  0.00    -0.550 OA
ATOM     10  O   UNL     1      -8.148  22.180  17.108  1.00  0.00    -0.550 OA
ENDBRANCH   7   8
ENDBRANCH   6   7
ENDBRANCH   5   6
ENDBRANCH   4   5
ENDBRANCH   3   4
ENDBRANCH   2   3
ENDBRANCH   1   2
BRANCH   1  11
ATOM     11  C   UNL     1      -0.401  20.066  16.625  1.00  0.00     0.000 C 
BRANCH  11  12
ATOM     12  C   UNL     1       0.675  20.838  15.836  1.00  0.00    -0.000 C 
BRANCH  12  13
ATOM     13  C   UNL     1       2.035  20.971  16.548  1.00  0.00    -0.000 C 
BRANCH  13  14
ATOM     14  C   UNL     1       3.093  19.926  16.136  1.00  0.00    -0.000 C 
BRANCH  14  15
ATOM     15  C   UNL     1       4.540  20.447  16.097  1.00  0.00    -0.000 C 
BRANCH  15  16
ATOM     16  C   UNL     1       5.286  20.044  14.816  1.00  0.00    -0.000 C 
BRANCH  16  17
ATOM     17  C   UNL     1       6.786  19.882  15.083  1.00  0.00    -0.003 C 
ATOM     18  C   UNL     1       7.293  20.945  16.052  1.00  0.00     0.004 C 
ENDBRANCH  16  17
ENDBRANCH  15  16
ENDBRANCH  14  15
ENDBRANCH  13  14
ENDBRANCH  12  13
ENDBRANCH  11  12
ENDBRANCH   1  11
TORSDOF 14
ENDMDL
MODEL 4
REMARK VINA RESULT:    -2.883      1.365      2.488
REMARK INTER + INTRA:          -5.944
REMARK INTER:                  -5.137
REMARK INTRA:                  -0.807
REMARK UNBOUND:                -0.702
REMARK SMILES CCCCCCCCCCCCCCCC(=O)[O-]
REMARK SMILES IDX 9 1 10 2 11 3 12 4 13 5 14 6 15 7 16 8 17 9 18 10 8 11 7 12
REMARK SMILES IDX 6 13 5 14 4 15 3 16 2 17 1 18
REMARK H PARENT
REMARK Flexibility Score: inf
ROOT
ATOM      1  C   UNL     1      -4.967  21.592  15.067  1.00  0.00     0.000 C 
ENDROOT
BRANCH   1   2
ATOM      2  C   UNL     1      -6.453  21.617  14.674  1.00  0.00     0.000 C 
BRANCH   2   3
ATOM      3  C   UNL     1      -7.172  20.297  15.003  1.00  0.00     0.000 C 
BRANCH   3   4
ATOM      4  C   UNL     1      -8.206  20.456  16.130  1.00  0.00     0.000 C 
BRANCH   4   5
ATOM      5  C   UNL     1      -7.867  21.607  17.096  1.00  0.00     0.000 C 
BRANCH   5   6
ATOM      6  C   UNL     1      -8.550  21.526  18.477  1.00  0.00     0.006 C 
BRANCH   6   7
ATOM      7  C   UNL     1      -7.597  21.679  19.671  1.00  0.00     0.053 C 
BRANCH   7   8
ATOM      8  C   UNL     1      -8.001  22.806  20.571  1.00  0.00     0.041 C 
ATOM      9  O   UNL     1      -9.122  22.789  21.143  1.00  0.00    -0.550 OA
ATOM     10  O   UNL     1      -7.125  23.859  20.805  1.00  0.00    -0.550 OA
ENDBRANCH   7   8
ENDBRANCH   6   7
ENDBRANCH   5   6
ENDBRANCH   4   5
ENDBRANCH   3   4
ENDBRANCH   2   3
ENDBRANCH   1   2
BRANCH   1  11
ATOM     11  C   UNL     1      -4.533  20.247  15.675  1.00  0.00     0.000 C 
BRANCH  11  12
ATOM     12  C   UNL     1      -4.607  20.169  17.213  1.00  0.00    -0.000 C 
BRANCH  12  13
ATOM     13  C   UNL     1      -3.259  19.921  17.918  1.00  0.00    -0.000 C 
BRANCH  13  14
ATOM     14  C   UNL     1      -2.042  20.600  17.258  1.00  0.00    -0.000 C 
BRANCH  14  15
ATOM     15  C   UNL     1      -0.700  19.875  17.468  1.00  0.00    -0.000 C 
BRANCH  15  16
ATOM     16  C   UNL     1       0.344  20.230  16.400  1.00  0.00    -0.000 C 
BRANCH  16  17
ATOM     17  C   UNL     1       1.760  19.898  16.885  1.00  0.00    -0.003 C 
ATOM     18  C   UNL     1       2.753  20.979  16.471  1.00  0.00     0.004 C 
ENDBRANCH  16  17
ENDBRANCH  15  16
ENDBRANCH  14  15
ENDBRANCH  13  14
ENDBRANCH  12  13
ENDBRANCH  11  12
ENDBRANCH   1  11
TORSDOF 14
ENDMDL
MODEL 5
REMARK VINA RESULT:    -2.863      1.673      3.838
REMARK INTER + INTRA:          -5.909
REMARK INTER:                  -5.534
REMARK INTRA:                  -0.376
REMARK UNBOUND:                -0.702
REMARK SMILES CCCCCCCCCCCCCCCC(=O)[O-]
REMARK SMILES IDX 9 1 10 2 11 3 12 4 13 5 14 6 15 7 16 8 17 9 18 10 8 11 7 12
REMARK SMILES IDX 6 13 5 14 4 15 3 16 2 17 1 18
REMARK H PARENT
REMARK Flexibility Score: inf
ROOT
ATOM      1  C   UNL     1      -0.176  20.683  16.012  1.00  0.00     0.000 C 
ENDROOT
BRANCH   1   2
ATOM      2  C   UNL     1      -1.258  20.560  17.099  1.00  0.00     0.000 C 
BRANCH   2   3
ATOM      3  C   UNL     1      -2.538  19.883  16.581  1.00  0.00     0.000 C 
BRANCH   3   4
ATOM      4  C   UNL     1      -3.460  20.863  15.834  1.00  0.00     0.000 C 
BRANCH   4   5
ATOM      5  C   UNL     1      -4.915  20.366  15.745  1.00  0.00     0.000 C 
BRANCH   5   6
ATOM      6  C   UNL     1      -5.813  21.141  14.759  1.00  0.00     0.006 C 
BRANCH   6   7
ATOM      7  C   UNL     1      -7.247  20.602  14.641  1.00  0.00     0.053 C 
BRANCH   7   8
ATOM      8  C   UNL     1      -8.072  20.934  15.846  1.00  0.00     0.041 C 
ATOM      9  O   UNL     1      -9.069  20.226  16.145  1.00  0.00    -0.550 OA
ATOM     10  O   UNL     1      -7.720  22.004  16.658  1.00  0.00    -0.550 OA
ENDBRANCH   7   8
ENDBRANCH   6   7
ENDBRANCH   5   6
ENDBRANCH   4   5
ENDBRANCH   3   4
ENDBRANCH   2   3
ENDBRANCH   1   2
BRANCH   1  11
ATOM     11  C   UNL     1       1.107  19.907  16.357  1.00  0.00     0.000 C 
BRANCH  11  12
ATOM     12  C   UNL     1       2.414  20.717  16.238  1.00  0.00    -0.000 C 
BRANCH  12  13
ATOM     13  C   UNL     1       3.705  19.876  16.246  1.00  0.00    -0.000 C 
BRANCH  13  14
ATOM     14  C   UNL     1       4.960  20.601  15.718  1.00  0.00    -0.000 C 
BRANCH  14  15
ATOM     15  C   UNL     1       5.802  21.308  16.794  1.00  0.00    -0.000 C 
BRANCH  15  16
ATOM     16  C   UNL     1       7.283  20.900  16.758  1.00  0.00    -0.000 C 
BRANCH  16  17
ATOM     17  C   UNL     1       7.695  20.459  15.349  1.00  0.00    -0.003 C 
ATOM     18  C   UNL     1       8.981  21.153  14.908  1.00  0.00     0.004 C 
ENDBRANCH  16  17
ENDBRANCH  15  16
ENDBRANCH  14  15
ENDBRANCH  13  14
ENDBRANCH  12  13
ENDBRANCH  11  12
ENDBRANCH   1  11
TORSDOF 14
ENDMDL
MODEL 6
REMARK VINA RESULT:    -2.806      3.741      6.634
REMARK INTER + INTRA:          -5.804
REMARK INTER:                  -5.353
REMARK INTRA:                  -0.451
REMARK UNBOUND:                -0.702
REMARK SMILES CCCCCCCCCCCCCCCC(=O)[O-]
REMARK SMILES IDX 9 1 10 2 11 3 12 4 13 5 14 6 15 7 16 8 17 9 18 10 8 11 7 12
REMARK SMILES IDX 6 13 5 14 4 15 3 16 2 17 1 18
REMARK H PARENT
REMARK Flexibility Score: inf
ROOT
ATOM      1  C   UNL     1      -8.159  22.716  18.940  1.00  0.00     0.000 C 
ENDROOT
BRANCH   1   2
ATOM      2  C   UNL     1      -9.125  22.158  19.999  1.00  0.00     0.000 C 
BRANCH   2   3
ATOM      3  C   UNL     1      -8.907  20.658  20.262  1.00  0.00     0.000 C 
BRANCH   3   4
ATOM      4  C   UNL     1      -7.653  20.386  21.109  1.00  0.00     0.000 C 
BRANCH   4   5
ATOM      5  C   UNL     1      -7.972  20.170  22.600  1.00  0.00     0.000 C 
BRANCH   5   6
ATOM      6  C   UNL     1      -7.523  21.309  23.538  1.00  0.00     0.006 C 
BRANCH   6   7
ATOM      7  C   UNL     1      -8.190  22.665  23.260  1.00  0.00     0.053 C 
BRANCH   7   8
ATOM      8  C   UNL     1      -7.182  23.745  23.012  1.00  0.00     0.041 C 
ATOM      9  O   UNL     1      -6.452  24.158  23.951  1.00  0.00    -0.550 OA
ATOM     10  O   UNL     1      -7.025  24.272  21.736  1.00  0.00    -0.550 OA
ENDBRANCH   7   8
ENDBRANCH   6   7
ENDBRANCH   5   6
ENDBRANCH   4   5
ENDBRANCH   3   4
ENDBRANCH   2   3
ENDBRANCH   1   2
BRANCH   1  11
ATOM     11  C   UNL     1      -8.523  22.278  17.510  1.00  0.00     0.000 C 
BRANCH  11  12
ATOM     12  C   UNL     1      -7.774  21.031  16.998  1.00  0.00    -0.000 C 
BRANCH  12  13
ATOM     13  C   UNL     1      -7.803  20.836  15.469  1.00  0.00    -0.000 C 
BRANCH  13  14
ATOM     14  C   UNL     1      -6.729  21.622  14.690  1.00  0.00    -0.000 C 
BRANCH  14  15
ATOM     15  C   UNL     1      -5.337  20.967  14.662  1.00  0.00    -0.000 C 
BRANCH  15  16
ATOM     16  C   UNL     1      -4.942  20.346  16.011  1.00  0.00    -0.000 C 
BRANCH  16  17
ATOM     17  C   UNL     1      -3.423  20.166  16.108  1.00  0.00    -0.003 C 
ATOM     18  C   UNL     1      -2.993  19.875  17.543  1.00  0.00     0.004 C 
ENDBRANCH  16  17
ENDBRANCH  15  16
ENDBRANCH  14  15
ENDBRANCH  13  14
ENDBRANCH  12  13
ENDBRANCH  11  12
ENDBRANCH   1  11
TORSDOF 14
ENDMDL
MODEL 7
REMARK VINA RESULT:    -2.613      6.221     11.949
REMARK INTER + INTRA:          -5.453
REMARK INTER:                  -5.040
REMARK INTRA:                  -0.413
REMARK UNBOUND:                -0.702
REMARK SMILES CCCCCCCCCCCCCCCC(=O)[O-]
REMARK SMILES IDX 9 1 10 2 11 3 12 4 13 5 14 6 15 7 16 8 17 9 18 10 8 11 7 12
REMARK SMILES IDX 6 13 5 14 4 15 3 16 2 17 1 18
REMARK H PARENT
REMARK Flexibility Score: inf
ROOT
ATOM      1  C   UNL     1       1.866  20.012  16.016  1.00  0.00     0.000 C 
ENDROOT
BRANCH   1   2
ATOM      2  C   UNL     1       3.128  20.714  16.546  1.00  0.00     0.000 C 
BRANCH   2   3
ATOM      3  C   UNL     1       4.400  19.875  16.337  1.00  0.00     0.000 C 
BRANCH   3   4
ATOM      4  C   UNL     1       5.151  20.257  15.050  1.00  0.00     0.000 C 
BRANCH   4   5
ATOM      5  C   UNL     1       6.393  21.127  15.318  1.00  0.00     0.000 C 
BRANCH   5   6
ATOM      6  C   UNL     1       7.727  20.358  15.401  1.00  0.00     0.006 C 
BRANCH   6   7
ATOM      7  C   UNL     1       8.976  21.214  15.143  1.00  0.00     0.053 C 
BRANCH   7   8
ATOM      8  C   UNL     1       9.334  21.262  13.690  1.00  0.00     0.041 C 
ATOM      9  O   UNL     1       9.374  20.201  13.013  1.00  0.00    -0.550 OA
ATOM     10  O   UNL     1       9.590  22.480  13.074  1.00  0.00    -0.550 OA
ENDBRANCH   7   8
ENDBRANCH   6   7
ENDBRANCH   5   6
ENDBRANCH   4   5
ENDBRANCH   3   4
ENDBRANCH   2   3
ENDBRANCH   1   2
BRANCH   1  11
ATOM     11  C   UNL     1       0.604  20.886  16.132  1.00  0.00     0.000 C 
BRANCH  11  12
ATOM     12  C   UNL     1      -0.646  20.163  16.672  1.00  0.00    -0.000 C 
BRANCH  12  13
ATOM     13  C   UNL     1      -1.992  20.775  16.239  1.00  0.00    -0.000 C 
BRANCH  13  14
ATOM     14  C   UNL     1      -3.219  20.284  17.035  1.00  0.00    -0.000 C 
BRANCH  14  15
ATOM     15  C   UNL     1      -4.470  19.997  16.187  1.00  0.00    -0.000 C 
BRANCH  15  16
ATOM     16  C   UNL     1      -5.778  20.319  16.926  1.00  0.00    -0.000 C 
BRANCH  16  17
ATOM     17  C   UNL     1      -6.784  20.998  15.990  1.00  0.00    -0.003 C 
ATOM     18  C   UNL     1      -6.264  21.037  14.556  1.00  0.00     0.004 C 
ENDBRANCH  16  17
ENDBRANCH  15  16
ENDBRANCH  14  15
ENDBRANCH  13  14
ENDBRANCH  12  13
ENDBRANCH  11  12
ENDBRANCH   1  11
TORSDOF 14
ENDMDL
MODEL 8
REMARK VINA RESULT:    -2.600      4.929     10.534
REMARK INTER + INTRA:          -5.431
REMARK INTER:                  -4.914
REMARK INTRA:                  -0.517
REMARK UNBOUND:                -0.702
REMARK SMILES CCCCCCCCCCCCCCCC(=O)[O-]
REMARK SMILES IDX 9 1 10 2 11 3 12 4 13 5 14 6 15 7 16 8 17 9 18 10 8 11 7 12
REMARK SMILES IDX 6 13 5 14 4 15 3 16 2 17 1 18
REMARK H PARENT
REMARK Flexibility Score: inf
ROOT
ATOM      1  C   UNL     1      -1.887  20.894  16.245  1.00  0.00     0.000 C 
ENDROOT
BRANCH   1   2
ATOM      2  C   UNL     1      -0.770  20.170  17.016  1.00  0.00     0.000 C 
BRANCH   2   3
ATOM      3  C   UNL     1       0.457  19.875  16.136  1.00  0.00     0.000 C 
BRANCH   3   4
ATOM      4  C   UNL     1       1.633  20.821  16.432  1.00  0.00     0.000 C 
BRANCH   4   5
ATOM      5  C   UNL     1       3.000  20.114  16.367  1.00  0.00     0.000 C 
BRANCH   5   6
ATOM      6  C   UNL     1       4.223  21.053  16.329  1.00  0.00     0.006 C 
BRANCH   6   7
ATOM      7  C   UNL     1       5.580  20.335  16.284  1.00  0.00     0.053 C 
BRANCH   7   8
ATOM      8  C   UNL     1       6.276  20.533  14.972  1.00  0.00     0.041 C 
ATOM      9  O   UNL     1       7.501  20.822  14.943  1.00  0.00    -0.550 OA
ATOM     10  O   UNL     1       5.581  20.362  13.782  1.00  0.00    -0.550 OA
ENDBRANCH   7   8
ENDBRANCH   6   7
ENDBRANCH   5   6
ENDBRANCH   4   5
ENDBRANCH   3   4
ENDBRANCH   2   3
ENDBRANCH   1   2
BRANCH   1  11
ATOM     11  C   UNL     1      -3.279  20.292  16.507  1.00  0.00     0.000 C 
BRANCH  11  12
ATOM     12  C   UNL     1      -4.317  20.536  15.393  1.00  0.00    -0.000 C 
BRANCH  12  13
ATOM     13  C   UNL     1      -5.781  20.603  15.870  1.00  0.00    -0.000 C 
BRANCH  13  14
ATOM     14  C   UNL     1      -6.029  20.061  17.293  1.00  0.00    -0.000 C 
BRANCH  14  15
ATOM     15  C   UNL     1      -6.922  20.947  18.179  1.00  0.00    -0.000 C 
BRANCH  15  16
ATOM     16  C   UNL     1      -8.189  21.430  17.457  1.00  0.00    -0.000 C 
BRANCH  16  17
ATOM     17  C   UNL     1      -8.507  22.885  17.820  1.00  0.00    -0.003 C 
ATOM     18  C   UNL     1      -8.490  23.092  19.331  1.00  0.00     0.004 C 
ENDBRANCH  16  17
ENDBRANCH  15  16
ENDBRANCH  14  15
ENDBRANCH  13  14
ENDBRANCH  12  13
ENDBRANCH  11  12
ENDBRANCH   1  11
TORSDOF 14
ENDMDL
MODEL 9
REMARK VINA RESULT:    -2.533      5.567      7.711
REMARK INTER + INTRA:          -5.308
REMARK INTER:                  -3.538
REMARK INTRA:                  -1.770
REMARK UNBOUND:                -0.702
REMARK SMILES CCCCCCCCCCCCCCCC(=O)[O-]
REMARK SMILES IDX 9 1 10 2 11 3 12 4 13 5 14 6 15 7 16 8 17 9 18 10 8 11 7 12
REMARK SMILES IDX 6 13 5 14 4 15 3 16 2 17 1 18
REMARK H PARENT
REMARK Flexibility Score: inf
ROOT
ATOM      1  C   UNL     1      -7.272  23.711  21.218  1.00  0.00     0.000 C 
ENDROOT
BRANCH   1   2
ATOM      2  C   UNL     1      -7.524  22.864  19.959  1.00  0.00     0.000 C 
BRANCH   2   3
ATOM      3  C   UNL     1      -8.675  23.414  19.099  1.00  0.00     0.000 C 
BRANCH   3   4
ATOM      4  C   UNL     1      -9.125  22.421  18.014  1.00  0.00     0.000 C 
BRANCH   4   5
ATOM      5  C   UNL     1      -9.036  20.953  18.472  1.00  0.00     0.000 C 
BRANCH   5   6
ATOM      6  C   UNL     1      -8.167  20.041  17.583  1.00  0.00     0.006 C 
BRANCH   6   7
ATOM      7  C   UNL     1      -8.157  20.421  16.094  1.00  0.00     0.053 C 
BRANCH   7   8
ATOM      8  C   UNL     1      -6.840  20.995  15.671  1.00  0.00     0.041 C 
ATOM      9  O   UNL     1      -6.797  21.922  14.820  1.00  0.00    -0.550 OA
ATOM     10  O   UNL     1      -5.661  20.530  16.240  1.00  0.00    -0.550 OA
ENDBRANCH   7   8
ENDBRANCH   6   7
ENDBRANCH   5   6
ENDBRANCH   4   5
ENDBRANCH   3   4
ENDBRANCH   2   3
ENDBRANCH   1   2
BRANCH   1  11
ATOM     11  C   UNL     1      -8.207  23.340  22.383  1.00  0.00     0.000 C 
BRANCH  11  12
ATOM     12  C   UNL     1      -8.873  21.954  22.270  1.00  0.00    -0.000 C 
BRANCH  12  13
ATOM     13  C   UNL     1      -8.811  21.095  23.549  1.00  0.00    -0.000 C 
BRANCH  13  14
ATOM     14  C   UNL     1      -7.786  19.943  23.513  1.00  0.00    -0.000 C 
BRANCH  14  15
ATOM     15  C   UNL     1      -6.315  20.378  23.641  1.00  0.00    -0.000 C 
BRANCH  15  16
ATOM     16  C   UNL     1      -5.445  19.892  22.472  1.00  0.00    -0.000 C 
BRANCH  16  17
ATOM     17  C   UNL     1      -6.237  19.897  21.160  1.00  0.00    -0.003 C 
ATOM     18  C   UNL     1      -5.305  19.877  19.952  1.00  0.00     0.004 C 
ENDBRANCH  16  17
ENDBRANCH  15  16
ENDBRANCH  14  15
ENDBRANCH  13  14
ENDBRANCH  12  13
ENDBRANCH  11  12
ENDBRANCH   1  11
TORSDOF 14
ENDMDL
