MODEL 1
REMARK VINA RESULT:    -3.734      0.000      0.000
REMARK INTER + INTRA:         -13.687
REMARK INTER:                  -9.847
REMARK INTRA:                  -3.840
REMARK UNBOUND:                -3.840
REMARK SMILES CCCCCCCCCCCCCCCCCCCCCCCCCCCCCC(=O)[O-]
REMARK SMILES IDX 16 1 17 2 18 3 19 4 20 5 21 6 22 7 23 8 24 9 25 10 26 11
REMARK SMILES IDX 27 12 28 13 29 14 30 15 31 16 32 17 15 18 14 19 13 20 12 21
REMARK SMILES IDX 11 22 10 23 9 24 8 25 7 26 6 27 5 28 4 29 3 30 2 31 1 32
REMARK H PARENT
REMARK Flexibility Score: inf
ROOT
ATOM      1  C   UNL     1      53.403  48.532  14.637  1.00  0.00     0.000 C 
ENDROOT
BRANCH   1   2
ATOM      2  C   UNL     1      53.403  47.809  13.277  1.00  0.00     0.000 C 
BRANCH   2   3
ATOM      3  C   UNL     1      51.995  47.687  12.670  1.00  0.00     0.000 C 
BRANCH   3   4
ATOM      4  C   UNL     1      51.626  48.890  11.785  1.00  0.00     0.000 C 
BRANCH   4   5
ATOM      5  C   UNL     1      50.556  49.787  12.426  1.00  0.00     0.000 C 
BRANCH   5   6
ATOM      6  C   UNL     1      49.639  49.014  13.392  1.00  0.00     0.000 C 
BRANCH   6   7
ATOM      7  C   UNL     1      49.573  49.669  14.783  1.00  0.00     0.000 C 
BRANCH   7   8
ATOM      8  C   UNL     1      49.343  48.639  15.901  1.00  0.00     0.000 C 
BRANCH   8   9
ATOM      9  C   UNL     1      50.649  47.987  16.388  1.00  0.00     0.000 C 
BRANCH   9  10
ATOM     10  C   UNL     1      50.470  46.850  17.417  1.00  0.00     0.000 C 
BRANCH  10  11
ATOM     11  C   UNL     1      50.575  45.420  16.853  1.00  0.00     0.000 C 
BRANCH  11  12
ATOM     12  C   UNL     1      50.926  45.389  15.355  1.00  0.00     0.000 C 
BRANCH  12  13
ATOM     13  C   UNL     1      49.689  45.250  14.452  1.00  0.00     0.006 C 
BRANCH  13  14
ATOM     14  C   UNL     1      48.823  44.014  14.757  1.00  0.00     0.053 C 
BRANCH  14  15
ATOM     15  C   UNL     1      47.416  44.370  15.129  1.00  0.00     0.041 C 
ATOM     16  O   UNL     1      47.179  44.995  16.197  1.00  0.00    -0.550 OA
ATOM     17  O   UNL     1      46.361  43.991  14.309  1.00  0.00    -0.550 OA
ENDBRANCH  14  15
ENDBRANCH  13  14
ENDBRANCH  12  13
ENDBRANCH  11  12
ENDBRANCH  10  11
ENDBRANCH   9  10
ENDBRANCH   8   9
ENDBRANCH   7   8
ENDBRANCH   6   7
ENDBRANCH   5   6
ENDBRANCH   4   5
ENDBRANCH   3   4
ENDBRANCH   2   3
ENDBRANCH   1   2
BRANCH   1  18
ATOM     18  C   UNL     1      54.303  49.777  14.645  1.00  0.00     0.000 C 
BRANCH  18  19
ATOM     19  C   UNL     1      55.033  49.989  13.306  1.00  0.00     0.000 C 
BRANCH  19  20
ATOM     20  C   UNL     1      56.570  49.928  13.450  1.00  0.00     0.000 C 
BRANCH  20  21
ATOM     21  C   UNL     1      57.058  49.029  14.603  1.00  0.00     0.000 C 
BRANCH  21  22
ATOM     22  C   UNL     1      57.001  47.519  14.321  1.00  0.00     0.000 C 
BRANCH  22  23
ATOM     23  C   UNL     1      56.806  46.682  15.595  1.00  0.00     0.000 C 
BRANCH  23  24
ATOM     24  C   UNL     1      56.059  45.378  15.290  1.00  0.00    -0.000 C 
BRANCH  24  25
ATOM     25  C   UNL     1      56.967  44.160  15.516  1.00  0.00    -0.000 C 
BRANCH  25  26
ATOM     26  C   UNL     1      58.353  44.536  16.070  1.00  0.00    -0.000 C 
BRANCH  26  27
ATOM     27  C   UNL     1      58.722  43.891  17.424  1.00  0.00    -0.000 C 
BRANCH  27  28
ATOM     28  C   UNL     1      60.164  44.141  17.907  1.00  0.00    -0.000 C 
BRANCH  28  29
ATOM     29  C   UNL     1      60.674  45.576  17.637  1.00  0.00    -0.000 C 
BRANCH  29  30
ATOM     30  C   UNL     1      62.064  45.619  16.976  1.00  0.00    -0.000 C 
BRANCH  30  31
ATOM     31  C   UNL     1      62.683  44.236  16.713  1.00  0.00    -0.003 C 
ATOM     32  C   UNL     1      63.330  44.126  15.333  1.00  0.00     0.004 C 
ENDBRANCH  30  31
ENDBRANCH  29  30
ENDBRANCH  28  29
ENDBRANCH  27  28
ENDBRANCH  26  27
ENDBRANCH  25  26
ENDBRANCH  24  25
ENDBRANCH  23  24
ENDBRANCH  22  23
ENDBRANCH  21  22
ENDBRANCH  20  21
ENDBRANCH  19  20
ENDBRANCH  18  19
ENDBRANCH   1  18
TORSDOF 28
ENDMDL
MODEL 2
REMARK VINA RESULT:    -3.675      2.325      4.314
REMARK INTER + INTRA:         -13.529
REMARK INTER:                  -9.472
REMARK INTRA:                  -4.057
REMARK UNBOUND:                -3.840
REMARK SMILES CCCCCCCCCCCCCCCCCCCCCCCCCCCCCC(=O)[O-]
REMARK SMILES IDX 16 1 17 2 18 3 19 4 20 5 21 6 22 7 23 8 24 9 25 10 26 11
REMARK SMILES IDX 27 12 28 13 29 14 30 15 31 16 32 17 15 18 14 19 13 20 12 21
REMARK SMILES IDX 11 22 10 23 9 24 8 25 7 26 6 27 5 28 4 29 3 30 2 31 1 32
REMARK H PARENT
REMARK Flexibility Score: inf
ROOT
ATOM      1  C   UNL     1      52.128  47.710  12.630  1.00  0.00     0.000 C 
ENDROOT
BRANCH   1   2
ATOM      2  C   UNL     1      51.964  49.154  12.121  1.00  0.00     0.000 C 
BRANCH   2   3
ATOM      3  C   UNL     1      50.529  49.464  11.668  1.00  0.00     0.000 C 
BRANCH   3   4
ATOM      4  C   UNL     1      49.688  50.124  12.775  1.00  0.00     0.000 C 
BRANCH   4   5
ATOM      5  C   UNL     1      48.989  49.095  13.677  1.00  0.00     0.000 C 
BRANCH   5   6
ATOM      6  C   UNL     1      49.582  49.054  15.097  1.00  0.00     0.000 C 
BRANCH   6   7
ATOM      7  C   UNL     1      49.282  47.727  15.816  1.00  0.00     0.000 C 
BRANCH   7   8
ATOM      8  C   UNL     1      48.795  46.636  14.847  1.00  0.00     0.000 C 
BRANCH   8   9
ATOM      9  C   UNL     1      49.837  45.524  14.632  1.00  0.00     0.000 C 
BRANCH   9  10
ATOM     10  C   UNL     1      49.277  44.086  14.666  1.00  0.00     0.000 C 
BRANCH  10  11
ATOM     11  C   UNL     1      47.878  43.933  15.293  1.00  0.00     0.000 C 
BRANCH  11  12
ATOM     12  C   UNL     1      46.808  43.499  14.277  1.00  0.00     0.000 C 
BRANCH  12  13
ATOM     13  C   UNL     1      46.477  41.998  14.357  1.00  0.00     0.006 C 
BRANCH  13  14
ATOM     14  C   UNL     1      45.366  41.653  15.365  1.00  0.00     0.053 C 
BRANCH  14  15
ATOM     15  C   UNL     1      45.688  40.442  16.189  1.00  0.00     0.041 C 
ATOM     16  O   UNL     1      45.879  40.550  17.430  1.00  0.00    -0.550 OA
ATOM     17  O   UNL     1      45.801  39.198  15.584  1.00  0.00    -0.550 OA
ENDBRANCH  14  15
ENDBRANCH  13  14
ENDBRANCH  12  13
ENDBRANCH  11  12
ENDBRANCH  10  11
ENDBRANCH   9  10
ENDBRANCH   8   9
ENDBRANCH   7   8
ENDBRANCH   6   7
ENDBRANCH   5   6
ENDBRANCH   4   5
ENDBRANCH   3   4
ENDBRANCH   2   3
ENDBRANCH   1   2
BRANCH   1  18
ATOM     18  C   UNL     1      53.025  47.619  13.874  1.00  0.00     0.000 C 
BRANCH  18  19
ATOM     19  C   UNL     1      53.130  48.957  14.628  1.00  0.00     0.000 C 
BRANCH  19  20
ATOM     20  C   UNL     1      54.590  49.428  14.803  1.00  0.00     0.000 C 
BRANCH  20  21
ATOM     21  C   UNL     1      55.547  48.932  13.702  1.00  0.00     0.000 C 
BRANCH  21  22
ATOM     22  C   UNL     1      56.767  48.145  14.205  1.00  0.00     0.000 C 
BRANCH  22  23
ATOM     23  C   UNL     1      56.551  46.624  14.171  1.00  0.00     0.000 C 
BRANCH  23  24
ATOM     24  C   UNL     1      56.165  46.089  15.555  1.00  0.00    -0.000 C 
BRANCH  24  25
ATOM     25  C   UNL     1      57.392  45.531  16.290  1.00  0.00    -0.000 C 
BRANCH  25  26
ATOM     26  C   UNL     1      57.830  44.151  15.768  1.00  0.00    -0.000 C 
BRANCH  26  27
ATOM     27  C   UNL     1      57.071  42.945  16.365  1.00  0.00    -0.000 C 
BRANCH  27  28
ATOM     28  C   UNL     1      56.131  43.271  17.543  1.00  0.00    -0.000 C 
BRANCH  28  29
ATOM     29  C   UNL     1      54.727  42.634  17.420  1.00  0.00    -0.000 C 
BRANCH  29  30
ATOM     30  C   UNL     1      53.864  43.259  16.309  1.00  0.00    -0.000 C 
BRANCH  30  31
ATOM     31  C   UNL     1      52.579  43.938  16.813  1.00  0.00    -0.003 C 
ATOM     32  C   UNL     1      52.690  45.462  16.858  1.00  0.00     0.004 C 
ENDBRANCH  30  31
ENDBRANCH  29  30
ENDBRANCH  28  29
ENDBRANCH  27  28
ENDBRANCH  26  27
ENDBRANCH  25  26
ENDBRANCH  24  25
ENDBRANCH  23  24
ENDBRANCH  22  23
ENDBRANCH  21  22
ENDBRANCH  20  21
ENDBRANCH  19  20
ENDBRANCH  18  19
ENDBRANCH   1  18
TORSDOF 28
ENDMDL
MODEL 3
REMARK VINA RESULT:    -3.612      2.524      4.480
REMARK INTER + INTRA:         -13.363
REMARK INTER:                  -8.673
REMARK INTRA:                  -4.690
REMARK UNBOUND:                -3.840
REMARK SMILES CCCCCCCCCCCCCCCCCCCCCCCCCCCCCC(=O)[O-]
REMARK SMILES IDX 16 1 17 2 18 3 19 4 20 5 21 6 22 7 23 8 24 9 25 10 26 11
REMARK SMILES IDX 27 12 28 13 29 14 30 15 31 16 32 17 15 18 14 19 13 20 12 21
REMARK SMILES IDX 11 22 10 23 9 24 8 25 7 26 6 27 5 28 4 29 3 30 2 31 1 32
REMARK H PARENT
REMARK Flexibility Score: inf
ROOT
ATOM      1  C   UNL     1      53.207  48.302  14.719  1.00  0.00     0.000 C 
ENDROOT
BRANCH   1   2
ATOM      2  C   UNL     1      53.207  47.650  13.324  1.00  0.00     0.000 C 
BRANCH   2   3
ATOM      3  C   UNL     1      51.816  47.649  12.670  1.00  0.00     0.000 C 
BRANCH   3   4
ATOM      4  C   UNL     1      51.445  49.014  12.065  1.00  0.00     0.000 C 
BRANCH   4   5
ATOM      5  C   UNL     1      50.228  49.653  12.753  1.00  0.00     0.000 C 
BRANCH   5   6
ATOM      6  C   UNL     1      49.525  48.687  13.724  1.00  0.00     0.000 C 
BRANCH   6   7
ATOM      7  C   UNL     1      49.480  49.235  15.161  1.00  0.00     0.000 C 
BRANCH   7   8
ATOM      8  C   UNL     1      49.234  48.128  16.200  1.00  0.00     0.000 C 
BRANCH   8   9
ATOM      9  C   UNL     1      50.537  47.477  16.696  1.00  0.00     0.000 C 
BRANCH   9  10
ATOM     10  C   UNL     1      50.528  45.934  16.726  1.00  0.00     0.000 C 
BRANCH  10  11
ATOM     11  C   UNL     1      51.027  45.242  15.443  1.00  0.00     0.000 C 
BRANCH  11  12
ATOM     12  C   UNL     1      49.935  45.107  14.369  1.00  0.00     0.000 C 
BRANCH  12  13
ATOM     13  C   UNL     1      48.779  44.187  14.800  1.00  0.00     0.006 C 
BRANCH  13  14
ATOM     14  C   UNL     1      47.447  44.921  15.040  1.00  0.00     0.053 C 
BRANCH  14  15
ATOM     15  C   UNL     1      46.263  44.004  14.990  1.00  0.00     0.041 C 
ATOM     16  O   UNL     1      46.364  42.864  14.464  1.00  0.00    -0.550 OA
ATOM     17  O   UNL     1      45.040  44.418  15.501  1.00  0.00    -0.550 OA
ENDBRANCH  14  15
ENDBRANCH  13  14
ENDBRANCH  12  13
ENDBRANCH  11  12
ENDBRANCH  10  11
ENDBRANCH   9  10
ENDBRANCH   8   9
ENDBRANCH   7   8
ENDBRANCH   6   7
ENDBRANCH   5   6
ENDBRANCH   4   5
ENDBRANCH   3   4
ENDBRANCH   2   3
ENDBRANCH   1   2
BRANCH   1  18
ATOM     18  C   UNL     1      54.440  49.187  14.959  1.00  0.00     0.000 C 
BRANCH  18  19
ATOM     19  C   UNL     1      55.257  49.424  13.675  1.00  0.00     0.000 C 
BRANCH  19  20
ATOM     20  C   UNL     1      56.681  48.832  13.758  1.00  0.00     0.000 C 
BRANCH  20  21
ATOM     21  C   UNL     1      56.880  47.833  14.915  1.00  0.00     0.000 C 
BRANCH  21  22
ATOM     22  C   UNL     1      56.863  46.351  14.507  1.00  0.00     0.000 C 
BRANCH  22  23
ATOM     23  C   UNL     1      55.760  45.551  15.217  1.00  0.00     0.000 C 
BRANCH  23  24
ATOM     24  C   UNL     1      56.164  44.081  15.383  1.00  0.00    -0.000 C 
BRANCH  24  25
ATOM     25  C   UNL     1      55.463  43.453  16.596  1.00  0.00    -0.000 C 
BRANCH  25  26
ATOM     26  C   UNL     1      54.082  44.070  16.880  1.00  0.00    -0.000 C 
BRANCH  26  27
ATOM     27  C   UNL     1      53.369  43.544  18.146  1.00  0.00    -0.000 C 
BRANCH  27  28
ATOM     28  C   UNL     1      52.073  42.749  17.895  1.00  0.00    -0.000 C 
BRANCH  28  29
ATOM     29  C   UNL     1      52.105  41.886  16.612  1.00  0.00    -0.000 C 
BRANCH  29  30
ATOM     30  C   UNL     1      52.937  40.600  16.758  1.00  0.00    -0.000 C 
BRANCH  30  31
ATOM     31  C   UNL     1      52.102  39.327  16.978  1.00  0.00    -0.003 C 
ATOM     32  C   UNL     1      52.383  38.244  15.937  1.00  0.00     0.004 C 
ENDBRANCH  30  31
ENDBRANCH  29  30
ENDBRANCH  28  29
ENDBRANCH  27  28
ENDBRANCH  26  27
ENDBRANCH  25  26
ENDBRANCH  24  25
ENDBRANCH  23  24
ENDBRANCH  22  23
ENDBRANCH  21  22
ENDBRANCH  20  21
ENDBRANCH  19  20
ENDBRANCH  18  19
ENDBRANCH   1  18
TORSDOF 28
ENDMDL
MODEL 4
REMARK VINA RESULT:    -3.598      4.760      9.802
REMARK INTER + INTRA:         -13.328
REMARK INTER:                  -7.232
REMARK INTRA:                  -6.096
REMARK UNBOUND:                -3.840
REMARK SMILES CCCCCCCCCCCCCCCCCCCCCCCCCCCCCC(=O)[O-]
REMARK SMILES IDX 16 1 17 2 18 3 19 4 20 5 21 6 22 7 23 8 24 9 25 10 26 11
REMARK SMILES IDX 27 12 28 13 29 14 30 15 31 16 32 17 15 18 14 19 13 20 12 21
REMARK SMILES IDX 11 22 10 23 9 24 8 25 7 26 6 27 5 28 4 29 3 30 2 31 1 32
REMARK H PARENT
REMARK Flexibility Score: inf
ROOT
ATOM      1  C   UNL     1      48.005  46.704  18.126  1.00  0.00     0.000 C 
ENDROOT
BRANCH   1   2
ATOM      2  C   UNL     1      48.378  47.785  17.095  1.00  0.00     0.000 C 
BRANCH   2   3
ATOM      3  C   UNL     1      49.796  48.341  17.305  1.00  0.00     0.000 C 
BRANCH   3   4
ATOM      4  C   UNL     1      50.708  47.363  18.066  1.00  0.00     0.000 C 
BRANCH   4   5
ATOM      5  C   UNL     1      52.006  47.053  17.302  1.00  0.00     0.000 C 
BRANCH   5   6
ATOM      6  C   UNL     1      52.594  45.679  17.670  1.00  0.00     0.000 C 
BRANCH   6   7
ATOM      7  C   UNL     1      53.116  44.919  16.438  1.00  0.00     0.000 C 
BRANCH   7   8
ATOM      8  C   UNL     1      52.433  43.552  16.264  1.00  0.00     0.000 C 
BRANCH   8   9
ATOM      9  C   UNL     1      50.973  43.549  16.750  1.00  0.00     0.000 C 
BRANCH   9  10
ATOM     10  C   UNL     1      49.912  43.702  15.641  1.00  0.00     0.000 C 
BRANCH  10  11
ATOM     11  C   UNL     1      49.607  45.150  15.208  1.00  0.00     0.000 C 
BRANCH  11  12
ATOM     12  C   UNL     1      50.356  45.565  13.930  1.00  0.00     0.000 C 
BRANCH  12  13
ATOM     13  C   UNL     1      50.716  47.061  13.905  1.00  0.00     0.006 C 
BRANCH  13  14
ATOM     14  C   UNL     1      51.630  47.468  12.735  1.00  0.00     0.053 C 
BRANCH  14  15
ATOM     15  C   UNL     1      52.948  48.015  13.194  1.00  0.00     0.041 C 
ATOM     16  O   UNL     1      53.712  47.316  13.912  1.00  0.00    -0.550 OA
ATOM     17  O   UNL     1      53.324  49.307  12.849  1.00  0.00    -0.550 OA
ENDBRANCH  14  15
ENDBRANCH  13  14
ENDBRANCH  12  13
ENDBRANCH  11  12
ENDBRANCH  10  11
ENDBRANCH   9  10
ENDBRANCH   8   9
ENDBRANCH   7   8
ENDBRANCH   6   7
ENDBRANCH   5   6
ENDBRANCH   4   5
ENDBRANCH   3   4
ENDBRANCH   2   3
ENDBRANCH   1   2
BRANCH   1  18
ATOM     18  C   UNL     1      46.600  46.127  17.896  1.00  0.00     0.000 C 
BRANCH  18  19
ATOM     19  C   UNL     1      46.310  45.847  16.409  1.00  0.00     0.000 C 
BRANCH  19  20
ATOM     20  C   UNL     1      44.938  45.174  16.187  1.00  0.00     0.000 C 
BRANCH  20  21
ATOM     21  C   UNL     1      44.995  43.897  15.327  1.00  0.00     0.000 C 
BRANCH  21  22
ATOM     22  C   UNL     1      46.325  43.665  14.593  1.00  0.00     0.000 C 
BRANCH  22  23
ATOM     23  C   UNL     1      46.699  42.177  14.493  1.00  0.00     0.000 C 
BRANCH  23  24
ATOM     24  C   UNL     1      45.635  41.295  15.156  1.00  0.00    -0.000 C 
BRANCH  24  25
ATOM     25  C   UNL     1      46.211  40.569  16.381  1.00  0.00    -0.000 C 
BRANCH  25  26
ATOM     26  C   UNL     1      45.552  41.001  17.703  1.00  0.00    -0.000 C 
BRANCH  26  27
ATOM     27  C   UNL     1      46.135  42.279  18.347  1.00  0.00    -0.000 C 
BRANCH  27  28
ATOM     28  C   UNL     1      47.652  42.480  18.164  1.00  0.00    -0.000 C 
BRANCH  28  29
ATOM     29  C   UNL     1      48.339  43.184  19.357  1.00  0.00    -0.000 C 
BRANCH  29  30
ATOM     30  C   UNL     1      47.490  43.186  20.641  1.00  0.00    -0.000 C 
BRANCH  30  31
ATOM     31  C   UNL     1      47.238  44.584  21.232  1.00  0.00    -0.003 C 
ATOM     32  C   UNL     1      45.755  44.946  21.292  1.00  0.00     0.004 C 
ENDBRANCH  30  31
ENDBRANCH  29  30
ENDBRANCH  28  29
ENDBRANCH  27  28
ENDBRANCH  26  27
ENDBRANCH  25  26
ENDBRANCH  24  25
ENDBRANCH  23  24
ENDBRANCH  22  23
ENDBRANCH  21  22
ENDBRANCH  20  21
ENDBRANCH  19  20
ENDBRANCH  18  19
ENDBRANCH   1  18
TORSDOF 28
ENDMDL
MODEL 5
REMARK VINA RESULT:    -3.589      2.070      3.325
REMARK INTER + INTRA:         -13.304
REMARK INTER:                  -8.127
REMARK INTRA:                  -5.177
REMARK UNBOUND:                -3.840
REMARK SMILES CCCCCCCCCCCCCCCCCCCCCCCCCCCCCC(=O)[O-]
REMARK SMILES IDX 16 1 17 2 18 3 19 4 20 5 21 6 22 7 23 8 24 9 25 10 26 11
REMARK SMILES IDX 27 12 28 13 29 14 30 15 31 16 32 17 15 18 14 19 13 20 12 21
REMARK SMILES IDX 11 22 10 23 9 24 8 25 7 26 6 27 5 28 4 29 3 30 2 31 1 32
REMARK H PARENT
REMARK Flexibility Score: inf
ROOT
ATOM      1  C   UNL     1      53.318  48.463  14.572  1.00  0.00     0.000 C 
ENDROOT
BRANCH   1   2
ATOM      2  C   UNL     1      53.361  47.829  13.169  1.00  0.00     0.000 C 
BRANCH   2   3
ATOM      3  C   UNL     1      51.976  47.761  12.506  1.00  0.00     0.000 C 
BRANCH   3   4
ATOM      4  C   UNL     1      51.641  49.030  11.703  1.00  0.00     0.000 C 
BRANCH   4   5
ATOM      5  C   UNL     1      50.406  49.764  12.250  1.00  0.00     0.000 C 
BRANCH   5   6
ATOM      6  C   UNL     1      49.728  49.002  13.403  1.00  0.00     0.000 C 
BRANCH   6   7
ATOM      7  C   UNL     1      49.816  49.765  14.737  1.00  0.00     0.000 C 
BRANCH   7   8
ATOM      8  C   UNL     1      49.403  48.894  15.935  1.00  0.00     0.000 C 
BRANCH   8   9
ATOM      9  C   UNL     1      50.589  48.137  16.558  1.00  0.00     0.000 C 
BRANCH   9  10
ATOM     10  C   UNL     1      50.385  46.616  16.719  1.00  0.00     0.000 C 
BRANCH  10  11
ATOM     11  C   UNL     1      51.020  45.740  15.622  1.00  0.00     0.000 C 
BRANCH  11  12
ATOM     12  C   UNL     1      50.053  45.429  14.467  1.00  0.00     0.000 C 
BRANCH  12  13
ATOM     13  C   UNL     1      49.089  44.273  14.786  1.00  0.00     0.006 C 
BRANCH  13  14
ATOM     14  C   UNL     1      49.618  43.287  15.843  1.00  0.00     0.053 C 
BRANCH  14  15
ATOM     15  C   UNL     1      48.651  43.067  16.967  1.00  0.00     0.041 C 
ATOM     16  O   UNL     1      48.666  43.822  17.975  1.00  0.00    -0.550 OA
ATOM     17  O   UNL     1      47.747  42.014  16.912  1.00  0.00    -0.550 OA
ENDBRANCH  14  15
ENDBRANCH  13  14
ENDBRANCH  12  13
ENDBRANCH  11  12
ENDBRANCH  10  11
ENDBRANCH   9  10
ENDBRANCH   8   9
ENDBRANCH   7   8
ENDBRANCH   6   7
ENDBRANCH   5   6
ENDBRANCH   4   5
ENDBRANCH   3   4
ENDBRANCH   2   3
ENDBRANCH   1   2
BRANCH   1  18
ATOM     18  C   UNL     1      54.134  49.762  14.660  1.00  0.00     0.000 C 
BRANCH  18  19
ATOM     19  C   UNL     1      54.874  50.087  13.349  1.00  0.00     0.000 C 
BRANCH  19  20
ATOM     20  C   UNL     1      56.408  49.981  13.491  1.00  0.00     0.000 C 
BRANCH  20  21
ATOM     21  C   UNL     1      56.874  48.984  14.569  1.00  0.00     0.000 C 
BRANCH  21  22
ATOM     22  C   UNL     1      56.892  47.511  14.130  1.00  0.00     0.000 C 
BRANCH  22  23
ATOM     23  C   UNL     1      57.012  46.537  15.313  1.00  0.00     0.000 C 
BRANCH  23  24
ATOM     24  C   UNL     1      56.222  45.250  15.051  1.00  0.00    -0.000 C 
BRANCH  24  25
ATOM     25  C   UNL     1      57.006  44.019  15.527  1.00  0.00    -0.000 C 
BRANCH  25  26
ATOM     26  C   UNL     1      57.482  44.134  16.986  1.00  0.00    -0.000 C 
BRANCH  26  27
ATOM     27  C   UNL     1      57.092  42.955  17.906  1.00  0.00    -0.000 C 
BRANCH  27  28
ATOM     28  C   UNL     1      55.771  43.128  18.680  1.00  0.00    -0.000 C 
BRANCH  28  29
ATOM     29  C   UNL     1      55.188  44.559  18.614  1.00  0.00    -0.000 C 
BRANCH  29  30
ATOM     30  C   UNL     1      53.838  44.639  17.878  1.00  0.00    -0.000 C 
BRANCH  30  31
ATOM     31  C   UNL     1      53.232  43.272  17.518  1.00  0.00    -0.003 C 
ATOM     32  C   UNL     1      53.408  42.914  16.043  1.00  0.00     0.004 C 
ENDBRANCH  30  31
ENDBRANCH  29  30
ENDBRANCH  28  29
ENDBRANCH  27  28
ENDBRANCH  26  27
ENDBRANCH  25  26
ENDBRANCH  24  25
ENDBRANCH  23  24
ENDBRANCH  22  23
ENDBRANCH  21  22
ENDBRANCH  20  21
ENDBRANCH  19  20
ENDBRANCH  18  19
ENDBRANCH   1  18
TORSDOF 28
ENDMDL
MODEL 6
REMARK VINA RESULT:    -3.581      3.381      9.470
REMARK INTER + INTRA:         -13.283
REMARK INTER:                  -7.523
REMARK INTRA:                  -5.760
REMARK UNBOUND:                -3.840
REMARK SMILES CCCCCCCCCCCCCCCCCCCCCCCCCCCCCC(=O)[O-]
REMARK SMILES IDX 16 1 17 2 18 3 19 4 20 5 21 6 22 7 23 8 24 9 25 10 26 11
REMARK SMILES IDX 27 12 28 13 29 14 30 15 31 16 32 17 15 18 14 19 13 20 12 21
REMARK SMILES IDX 11 22 10 23 9 24 8 25 7 26 6 27 5 28 4 29 3 30 2 31 1 32
REMARK H PARENT
REMARK Flexibility Score: inf
ROOT
ATOM      1  C   UNL     1      49.394  43.270  16.086  1.00  0.00     0.000 C 
ENDROOT
BRANCH   1   2
ATOM      2  C   UNL     1      50.326  44.399  16.563  1.00  0.00     0.000 C 
BRANCH   2   3
ATOM      3  C   UNL     1      51.587  44.534  15.695  1.00  0.00     0.000 C 
BRANCH   3   4
ATOM      4  C   UNL     1      52.169  45.959  15.715  1.00  0.00     0.000 C 
BRANCH   4   5
ATOM      5  C   UNL     1      52.240  46.546  17.133  1.00  0.00     0.000 C 
BRANCH   5   6
ATOM      6  C   UNL     1      52.787  47.986  17.150  1.00  0.00     0.000 C 
BRANCH   6   7
ATOM      7  C   UNL     1      54.310  48.028  17.363  1.00  0.00     0.000 C 
BRANCH   7   8
ATOM      8  C   UNL     1      54.800  46.905  18.291  1.00  0.00     0.000 C 
BRANCH   8   9
ATOM      9  C   UNL     1      56.067  46.208  17.763  1.00  0.00     0.000 C 
BRANCH   9  10
ATOM     10  C   UNL     1      55.816  44.924  16.944  1.00  0.00     0.000 C 
BRANCH  10  11
ATOM     11  C   UNL     1      55.768  45.110  15.415  1.00  0.00     0.000 C 
BRANCH  11  12
ATOM     12  C   UNL     1      56.875  46.039  14.888  1.00  0.00     0.000 C 
BRANCH  12  13
ATOM     13  C   UNL     1      56.327  47.347  14.291  1.00  0.00     0.006 C 
BRANCH  13  14
ATOM     14  C   UNL     1      54.942  47.206  13.633  1.00  0.00     0.053 C 
BRANCH  14  15
ATOM     15  C   UNL     1      54.301  48.530  13.342  1.00  0.00     0.041 C 
ATOM     16  O   UNL     1      54.870  49.600  13.685  1.00  0.00    -0.550 OA
ATOM     17  O   UNL     1      53.064  48.581  12.714  1.00  0.00    -0.550 OA
ENDBRANCH  14  15
ENDBRANCH  13  14
ENDBRANCH  12  13
ENDBRANCH  11  12
ENDBRANCH  10  11
ENDBRANCH   9  10
ENDBRANCH   8   9
ENDBRANCH   7   8
ENDBRANCH   6   7
ENDBRANCH   5   6
ENDBRANCH   4   5
ENDBRANCH   3   4
ENDBRANCH   2   3
ENDBRANCH   1   2
BRANCH   1  18
ATOM     18  C   UNL     1      48.546  43.675  14.871  1.00  0.00     0.000 C 
BRANCH  18  19
ATOM     19  C   UNL     1      47.517  42.598  14.480  1.00  0.00     0.000 C 
BRANCH  19  20
ATOM     20  C   UNL     1      46.077  42.971  14.897  1.00  0.00     0.000 C 
BRANCH  20  21
ATOM     21  C   UNL     1      45.888  44.462  15.241  1.00  0.00     0.000 C 
BRANCH  21  22
ATOM     22  C   UNL     1      45.378  44.742  16.663  1.00  0.00     0.000 C 
BRANCH  22  23
ATOM     23  C   UNL     1      46.193  44.014  17.744  1.00  0.00     0.000 C 
BRANCH  23  24
ATOM     24  C   UNL     1      47.004  45.006  18.586  1.00  0.00    -0.000 C 
BRANCH  24  25
ATOM     25  C   UNL     1      46.169  46.249  18.924  1.00  0.00    -0.000 C 
BRANCH  25  26
ATOM     26  C   UNL     1      46.855  47.565  18.515  1.00  0.00    -0.000 C 
BRANCH  26  27
ATOM     27  C   UNL     1      48.394  47.500  18.394  1.00  0.00    -0.000 C 
BRANCH  27  28
ATOM     28  C   UNL     1      48.966  47.880  17.015  1.00  0.00    -0.000 C 
BRANCH  28  29
ATOM     29  C   UNL     1      48.191  47.269  15.824  1.00  0.00    -0.000 C 
BRANCH  29  30
ATOM     30  C   UNL     1      48.954  47.346  14.489  1.00  0.00    -0.000 C 
BRANCH  30  31
ATOM     31  C   UNL     1      49.818  48.609  14.326  1.00  0.00    -0.003 C 
ATOM     32  C   UNL     1      49.138  49.691  13.487  1.00  0.00     0.004 C 
ENDBRANCH  30  31
ENDBRANCH  29  30
ENDBRANCH  28  29
ENDBRANCH  27  28
ENDBRANCH  26  27
ENDBRANCH  25  26
ENDBRANCH  24  25
ENDBRANCH  23  24
ENDBRANCH  22  23
ENDBRANCH  21  22
ENDBRANCH  20  21
ENDBRANCH  19  20
ENDBRANCH  18  19
ENDBRANCH   1  18
TORSDOF 28
ENDMDL
MODEL 7
REMARK VINA RESULT:    -3.574      5.781     10.845
REMARK INTER + INTRA:         -13.264
REMARK INTER:                  -7.312
REMARK INTRA:                  -5.952
REMARK UNBOUND:                -3.840
REMARK SMILES CCCCCCCCCCCCCCCCCCCCCCCCCCCCCC(=O)[O-]
REMARK SMILES IDX 16 1 17 2 18 3 19 4 20 5 21 6 22 7 23 8 24 9 25 10 26 11
REMARK SMILES IDX 27 12 28 13 29 14 30 15 31 16 32 17 15 18 14 19 13 20 12 21
REMARK SMILES IDX 11 22 10 23 9 24 8 25 7 26 6 27 5 28 4 29 3 30 2 31 1 32
REMARK H PARENT
REMARK Flexibility Score: inf
ROOT
ATOM      1  C   UNL     1      64.031  40.976  17.123  1.00  0.00     0.000 C 
ENDROOT
BRANCH   1   2
ATOM      2  C   UNL     1      64.064  41.173  15.597  1.00  0.00     0.000 C 
BRANCH   2   3
ATOM      3  C   UNL     1      64.809  42.452  15.179  1.00  0.00     0.000 C 
BRANCH   3   4
ATOM      4  C   UNL     1      63.853  43.609  14.838  1.00  0.00     0.000 C 
BRANCH   4   5
ATOM      5  C   UNL     1      64.212  44.907  15.578  1.00  0.00     0.000 C 
BRANCH   5   6
ATOM      6  C   UNL     1      63.067  45.412  16.474  1.00  0.00     0.000 C 
BRANCH   6   7
ATOM      7  C   UNL     1      61.936  44.378  16.613  1.00  0.00     0.000 C 
BRANCH   7   8
ATOM      8  C   UNL     1      60.648  44.996  17.181  1.00  0.00     0.000 C 
BRANCH   8   9
ATOM      9  C   UNL     1      60.918  46.219  18.076  1.00  0.00     0.000 C 
BRANCH   9  10
ATOM     10  C   UNL     1      59.709  46.708  18.900  1.00  0.00     0.000 C 
BRANCH  10  11
ATOM     11  C   UNL     1      58.940  45.614  19.666  1.00  0.00     0.000 C 
BRANCH  11  12
ATOM     12  C   UNL     1      59.629  45.202  20.978  1.00  0.00     0.000 C 
BRANCH  12  13
ATOM     13  C   UNL     1      58.731  44.340  21.882  1.00  0.00     0.006 C 
BRANCH  13  14
ATOM     14  C   UNL     1      59.464  43.172  22.566  1.00  0.00     0.053 C 
BRANCH  14  15
ATOM     15  C   UNL     1      58.710  41.880  22.473  1.00  0.00     0.041 C 
ATOM     16  O   UNL     1      59.324  40.781  22.513  1.00  0.00    -0.550 OA
ATOM     17  O   UNL     1      57.330  41.889  22.317  1.00  0.00    -0.550 OA
ENDBRANCH  14  15
ENDBRANCH  13  14
ENDBRANCH  12  13
ENDBRANCH  11  12
ENDBRANCH  10  11
ENDBRANCH   9  10
ENDBRANCH   8   9
ENDBRANCH   7   8
ENDBRANCH   6   7
ENDBRANCH   5   6
ENDBRANCH   4   5
ENDBRANCH   3   4
ENDBRANCH   2   3
ENDBRANCH   1   2
BRANCH   1  18
ATOM     18  C   UNL     1      64.955  41.953  17.867  1.00  0.00     0.000 C 
BRANCH  18  19
ATOM     19  C   UNL     1      64.565  42.128  19.346  1.00  0.00     0.000 C 
BRANCH  19  20
ATOM     20  C   UNL     1      63.662  43.358  19.582  1.00  0.00     0.000 C 
BRANCH  20  21
ATOM     21  C   UNL     1      62.248  43.012  20.088  1.00  0.00     0.000 C 
BRANCH  21  22
ATOM     22  C   UNL     1      61.952  41.509  20.218  1.00  0.00     0.000 C 
BRANCH  22  23
ATOM     23  C   UNL     1      60.934  41.011  19.179  1.00  0.00     0.000 C 
BRANCH  23  24
ATOM     24  C   UNL     1      59.840  42.055  18.932  1.00  0.00    -0.000 C 
BRANCH  24  25
ATOM     25  C   UNL     1      58.452  41.399  18.899  1.00  0.00    -0.000 C 
BRANCH  25  26
ATOM     26  C   UNL     1      57.697  41.652  17.582  1.00  0.00    -0.000 C 
BRANCH  26  27
ATOM     27  C   UNL     1      57.577  43.134  17.161  1.00  0.00    -0.000 C 
BRANCH  27  28
ATOM     28  C   UNL     1      57.406  43.382  15.650  1.00  0.00    -0.000 C 
BRANCH  28  29
ATOM     29  C   UNL     1      57.151  44.863  15.282  1.00  0.00    -0.000 C 
BRANCH  29  30
ATOM     30  C   UNL     1      57.157  45.807  16.498  1.00  0.00    -0.000 C 
BRANCH  30  31
ATOM     31  C   UNL     1      55.776  46.378  16.863  1.00  0.00    -0.003 C 
ATOM     32  C   UNL     1      55.794  47.205  18.148  1.00  0.00     0.004 C 
ENDBRANCH  30  31
ENDBRANCH  29  30
ENDBRANCH  28  29
ENDBRANCH  27  28
ENDBRANCH  26  27
ENDBRANCH  25  26
ENDBRANCH  24  25
ENDBRANCH  23  24
ENDBRANCH  22  23
ENDBRANCH  21  22
ENDBRANCH  20  21
ENDBRANCH  19  20
ENDBRANCH  18  19
ENDBRANCH   1  18
TORSDOF 28
ENDMDL
MODEL 8
REMARK VINA RESULT:    -3.571      3.567      8.452
REMARK INTER + INTRA:         -13.255
REMARK INTER:                  -7.887
REMARK INTRA:                  -5.368
REMARK UNBOUND:                -3.840
REMARK SMILES CCCCCCCCCCCCCCCCCCCCCCCCCCCCCC(=O)[O-]
REMARK SMILES IDX 16 1 17 2 18 3 19 4 20 5 21 6 22 7 23 8 24 9 25 10 26 11
REMARK SMILES IDX 27 12 28 13 29 14 30 15 31 16 32 17 15 18 14 19 13 20 12 21
REMARK SMILES IDX 11 22 10 23 9 24 8 25 7 26 6 27 5 28 4 29 3 30 2 31 1 32
REMARK H PARENT
REMARK Flexibility Score: inf
ROOT
ATOM      1  C   UNL     1      48.473  47.301  16.969  1.00  0.00     0.000 C 
ENDROOT
BRANCH   1   2
ATOM      2  C   UNL     1      48.228  46.910  15.499  1.00  0.00     0.000 C 
BRANCH   2   3
ATOM      3  C   UNL     1      49.472  47.104  14.618  1.00  0.00     0.000 C 
BRANCH   3   4
ATOM      4  C   UNL     1      49.472  48.455  13.882  1.00  0.00     0.000 C 
BRANCH   4   5
ATOM      5  C   UNL     1      50.665  48.605  12.925  1.00  0.00     0.000 C 
BRANCH   5   6
ATOM      6  C   UNL     1      51.635  47.411  12.999  1.00  0.00     0.000 C 
BRANCH   6   7
ATOM      7  C   UNL     1      53.094  47.858  13.198  1.00  0.00     0.000 C 
BRANCH   7   8
ATOM      8  C   UNL     1      53.224  48.977  14.244  1.00  0.00     0.000 C 
BRANCH   8   9
ATOM      9  C   UNL     1      52.958  48.485  15.678  1.00  0.00     0.000 C 
BRANCH   9  10
ATOM     10  C   UNL     1      54.190  48.476  16.607  1.00  0.00     0.000 C 
BRANCH  10  11
ATOM     11  C   UNL     1      55.106  47.243  16.484  1.00  0.00     0.000 C 
BRANCH  11  12
ATOM     12  C   UNL     1      56.321  47.486  15.572  1.00  0.00     0.000 C 
BRANCH  12  13
ATOM     13  C   UNL     1      56.639  46.285  14.664  1.00  0.00     0.006 C 
BRANCH  13  14
ATOM     14  C   UNL     1      56.129  44.937  15.204  1.00  0.00     0.053 C 
BRANCH  14  15
ATOM     15  C   UNL     1      57.211  44.122  15.846  1.00  0.00     0.041 C 
ATOM     16  O   UNL     1      57.084  42.874  15.961  1.00  0.00    -0.550 OA
ATOM     17  O   UNL     1      58.351  44.744  16.339  1.00  0.00    -0.550 OA
ENDBRANCH  14  15
ENDBRANCH  13  14
ENDBRANCH  12  13
ENDBRANCH  11  12
ENDBRANCH  10  11
ENDBRANCH   9  10
ENDBRANCH   8   9
ENDBRANCH   7   8
ENDBRANCH   6   7
ENDBRANCH   5   6
ENDBRANCH   4   5
ENDBRANCH   3   4
ENDBRANCH   2   3
ENDBRANCH   1   2
BRANCH   1  18
ATOM     18  C   UNL     1      47.230  47.103  17.849  1.00  0.00     0.000 C 
BRANCH  18  19
ATOM     19  C   UNL     1      45.957  46.829  17.025  1.00  0.00     0.000 C 
BRANCH  19  20
ATOM     20  C   UNL     1      45.185  45.586  17.519  1.00  0.00     0.000 C 
BRANCH  20  21
ATOM     21  C   UNL     1      45.910  44.251  17.260  1.00  0.00     0.000 C 
BRANCH  21  22
ATOM     22  C   UNL     1      45.546  43.559  15.937  1.00  0.00     0.000 C 
BRANCH  22  23
ATOM     23  C   UNL     1      46.435  44.006  14.766  1.00  0.00     0.000 C 
BRANCH  23  24
ATOM     24  C   UNL     1      47.525  42.970  14.472  1.00  0.00    -0.000 C 
BRANCH  24  25
ATOM     25  C   UNL     1      48.735  43.170  15.396  1.00  0.00    -0.000 C 
BRANCH  25  26
ATOM     26  C   UNL     1      48.845  42.090  16.488  1.00  0.00    -0.000 C 
BRANCH  26  27
ATOM     27  C   UNL     1      49.616  42.509  17.759  1.00  0.00    -0.000 C 
BRANCH  27  28
ATOM     28  C   UNL     1      49.626  44.021  18.060  1.00  0.00    -0.000 C 
BRANCH  28  29
ATOM     29  C   UNL     1      51.029  44.587  18.379  1.00  0.00    -0.000 C 
BRANCH  29  30
ATOM     30  C   UNL     1      51.552  45.568  17.313  1.00  0.00    -0.000 C 
BRANCH  30  31
ATOM     31  C   UNL     1      52.153  44.890  16.070  1.00  0.00    -0.003 C 
ATOM     32  C   UNL     1      52.881  43.586  16.396  1.00  0.00     0.004 C 
ENDBRANCH  30  31
ENDBRANCH  29  30
ENDBRANCH  28  29
ENDBRANCH  27  28
ENDBRANCH  26  27
ENDBRANCH  25  26
ENDBRANCH  24  25
ENDBRANCH  23  24
ENDBRANCH  22  23
ENDBRANCH  21  22
ENDBRANCH  20  21
ENDBRANCH  19  20
ENDBRANCH  18  19
ENDBRANCH   1  18
TORSDOF 28
ENDMDL
MODEL 9
REMARK VINA RESULT:    -3.527      3.822      6.983
REMARK INTER + INTRA:         -13.141
REMARK INTER:                  -7.377
REMARK INTRA:                  -5.764
REMARK UNBOUND:                -3.840
REMARK SMILES CCCCCCCCCCCCCCCCCCCCCCCCCCCCCC(=O)[O-]
REMARK SMILES IDX 16 1 17 2 18 3 19 4 20 5 21 6 22 7 23 8 24 9 25 10 26 11
REMARK SMILES IDX 27 12 28 13 29 14 30 15 31 16 32 17 15 18 14 19 13 20 12 21
REMARK SMILES IDX 11 22 10 23 9 24 8 25 7 26 6 27 5 28 4 29 3 30 2 31 1 32
REMARK H PARENT
REMARK Flexibility Score: inf
ROOT
ATOM      1  C   UNL     1      50.129  44.624  14.908  1.00  0.00     0.000 C 
ENDROOT
BRANCH   1   2
ATOM      2  C   UNL     1      48.862  43.764  15.075  1.00  0.00     0.000 C 
BRANCH   2   3
ATOM      3  C   UNL     1      47.569  44.569  14.874  1.00  0.00     0.000 C 
BRANCH   3   4
ATOM      4  C   UNL     1      46.370  43.680  14.499  1.00  0.00     0.000 C 
BRANCH   4   5
ATOM      5  C   UNL     1      46.787  42.238  14.170  1.00  0.00     0.000 C 
BRANCH   5   6
ATOM      6  C   UNL     1      46.028  41.196  15.013  1.00  0.00     0.000 C 
BRANCH   6   7
ATOM      7  C   UNL     1      46.756  40.869  16.328  1.00  0.00     0.000 C 
BRANCH   7   8
ATOM      8  C   UNL     1      46.179  41.647  17.522  1.00  0.00     0.000 C 
BRANCH   8   9
ATOM      9  C   UNL     1      47.271  42.263  18.415  1.00  0.00     0.000 C 
BRANCH   9  10
ATOM     10  C   UNL     1      47.282  43.805  18.468  1.00  0.00     0.000 C 
BRANCH  10  11
ATOM     11  C   UNL     1      48.665  44.454  18.671  1.00  0.00     0.000 C 
BRANCH  11  12
ATOM     12  C   UNL     1      48.706  45.929  18.236  1.00  0.00     0.000 C 
BRANCH  12  13
ATOM     13  C   UNL     1      47.316  46.494  17.897  1.00  0.00     0.006 C 
BRANCH  13  14
ATOM     14  C   UNL     1      46.971  47.800  18.636  1.00  0.00     0.053 C 
BRANCH  14  15
ATOM     15  C   UNL     1      46.022  47.587  19.776  1.00  0.00     0.041 C 
ATOM     16  O   UNL     1      45.920  46.453  20.315  1.00  0.00    -0.550 OA
ATOM     17  O   UNL     1      45.231  48.635  20.228  1.00  0.00    -0.550 OA
ENDBRANCH  14  15
ENDBRANCH  13  14
ENDBRANCH  12  13
ENDBRANCH  11  12
ENDBRANCH  10  11
ENDBRANCH   9  10
ENDBRANCH   8   9
ENDBRANCH   7   8
ENDBRANCH   6   7
ENDBRANCH   5   6
ENDBRANCH   4   5
ENDBRANCH   3   4
ENDBRANCH   2   3
ENDBRANCH   1   2
BRANCH   1  18
ATOM     18  C   UNL     1      49.810  46.099  14.621  1.00  0.00     0.000 C 
BRANCH  18  19
ATOM     19  C   UNL     1      50.851  46.761  13.699  1.00  0.00     0.000 C 
BRANCH  19  20
ATOM     20  C   UNL     1      50.477  48.212  13.326  1.00  0.00     0.000 C 
BRANCH  20  21
ATOM     21  C   UNL     1      49.310  48.793  14.149  1.00  0.00     0.000 C 
BRANCH  21  22
ATOM     22  C   UNL     1      49.714  49.833  15.206  1.00  0.00     0.000 C 
BRANCH  22  23
ATOM     23  C   UNL     1      49.647  49.282  16.640  1.00  0.00     0.000 C 
BRANCH  23  24
ATOM     24  C   UNL     1      50.988  48.666  17.057  1.00  0.00    -0.000 C 
BRANCH  24  25
ATOM     25  C   UNL     1      52.164  49.490  16.513  1.00  0.00    -0.000 C 
BRANCH  25  26
ATOM     26  C   UNL     1      53.242  48.627  15.835  1.00  0.00    -0.000 C 
BRANCH  26  27
ATOM     27  C   UNL     1      53.315  47.160  16.315  1.00  0.00    -0.000 C 
BRANCH  27  28
ATOM     28  C   UNL     1      54.688  46.478  16.155  1.00  0.00    -0.000 C 
BRANCH  28  29
ATOM     29  C   UNL     1      54.693  44.981  16.542  1.00  0.00    -0.000 C 
BRANCH  29  30
ATOM     30  C   UNL     1      53.308  44.316  16.445  1.00  0.00    -0.000 C 
BRANCH  30  31
ATOM     31  C   UNL     1      52.845  43.625  17.740  1.00  0.00    -0.003 C 
ATOM     32  C   UNL     1      52.318  44.609  18.784  1.00  0.00     0.004 C 
ENDBRANCH  30  31
ENDBRANCH  29  30
ENDBRANCH  28  29
ENDBRANCH  27  28
ENDBRANCH  26  27
ENDBRANCH  25  26
ENDBRANCH  24  25
ENDBRANCH  23  24
ENDBRANCH  22  23
ENDBRANCH  21  22
ENDBRANCH  20  21
ENDBRANCH  19  20
ENDBRANCH  18  19
ENDBRANCH   1  18
TORSDOF 28
ENDMDL
