MODEL 1
REMARK VINA RESULT:    -4.148      0.000      0.000
REMARK INTER + INTRA:          -9.464
REMARK INTER:                  -7.543
REMARK INTRA:                  -1.922
REMARK UNBOUND:                -1.922
REMARK SMILES CCCCCCCCCCCCCCCC(=O)[O-]
REMARK SMILES IDX 9 1 10 2 11 3 12 4 13 5 14 6 15 7 16 8 17 9 18 10 8 11 7 12
REMARK SMILES IDX 6 13 5 14 4 15 3 16 2 17 1 18
REMARK H PARENT
REMARK Flexibility Score: inf
ROOT
ATOM      1  C   UNL     1      -3.548  37.150  20.769  1.00  0.00     0.000 C 
ENDROOT
BRANCH   1   2
ATOM      2  C   UNL     1      -2.698  38.425  20.810  1.00  0.00     0.000 C 
BRANCH   2   3
ATOM      3  C   UNL     1      -1.746  38.491  19.607  1.00  0.00     0.000 C 
BRANCH   3   4
ATOM      4  C   UNL     1      -2.456  38.894  18.303  1.00  0.00     0.000 C 
BRANCH   4   5
ATOM      5  C   UNL     1      -2.416  37.836  17.182  1.00  0.00     0.000 C 
BRANCH   5   6
ATOM      6  C   UNL     1      -1.361  36.726  17.368  1.00  0.00     0.006 C 
BRANCH   6   7
ATOM      7  C   UNL     1      -1.939  35.303  17.417  1.00  0.00     0.053 C 
BRANCH   7   8
ATOM      8  C   UNL     1      -0.931  34.276  17.000  1.00  0.00     0.041 C 
ATOM      9  O   UNL     1      -1.022  33.092  17.419  1.00  0.00    -0.550 OA
ATOM     10  O   UNL     1       0.089  34.621  16.123  1.00  0.00    -0.550 OA
ENDBRANCH   7   8
ENDBRANCH   6   7
ENDBRANCH   5   6
ENDBRANCH   4   5
ENDBRANCH   3   4
ENDBRANCH   2   3
ENDBRANCH   1   2
BRANCH   1  11
ATOM     11  C   UNL     1      -4.304  36.948  22.088  1.00  0.00     0.000 C 
BRANCH  11  12
ATOM     12  C   UNL     1      -4.183  38.186  22.987  1.00  0.00    -0.000 C 
BRANCH  12  13
ATOM     13  C   UNL     1      -5.528  38.903  23.187  1.00  0.00    -0.000 C 
BRANCH  13  14
ATOM     14  C   UNL     1      -6.707  38.133  22.568  1.00  0.00    -0.000 C 
BRANCH  14  15
ATOM     15  C   UNL     1      -7.508  38.996  21.570  1.00  0.00    -0.000 C 
BRANCH  15  16
ATOM     16  C   UNL     1      -6.890  39.045  20.159  1.00  0.00    -0.000 C 
BRANCH  16  17
ATOM     17  C   UNL     1      -6.853  37.694  19.426  1.00  0.00    -0.003 C 
ATOM     18  C   UNL     1      -6.027  37.738  18.141  1.00  0.00     0.004 C 
ENDBRANCH  16  17
ENDBRANCH  15  16
ENDBRANCH  14  15
ENDBRANCH  13  14
ENDBRANCH  12  13
ENDBRANCH  11  12
ENDBRANCH   1  11
TORSDOF 14
ENDMDL
MODEL 2
REMARK VINA RESULT:    -4.134      2.571      4.404
REMARK INTER + INTRA:          -9.438
REMARK INTER:                  -6.554
REMARK INTRA:                  -2.884
REMARK UNBOUND:                -1.922
REMARK SMILES CCCCCCCCCCCCCCCC(=O)[O-]
REMARK SMILES IDX 9 1 10 2 11 3 12 4 13 5 14 6 15 7 16 8 17 9 18 10 8 11 7 12
REMARK SMILES IDX 6 13 5 14 4 15 3 16 2 17 1 18
REMARK H PARENT
REMARK Flexibility Score: inf
ROOT
ATOM      1  C   UNL     1      -6.391  37.321  22.383  1.00  0.00     0.000 C 
ENDROOT
BRANCH   1   2
ATOM      2  C   UNL     1      -5.751  37.081  21.011  1.00  0.00     0.000 C 
BRANCH   2   3
ATOM      3  C   UNL     1      -4.277  36.677  21.154  1.00  0.00     0.000 C 
BRANCH   3   4
ATOM      4  C   UNL     1      -3.385  37.264  20.046  1.00  0.00     0.000 C 
BRANCH   4   5
ATOM      5  C   UNL     1      -4.143  37.973  18.905  1.00  0.00     0.000 C 
BRANCH   5   6
ATOM      6  C   UNL     1      -3.425  39.200  18.307  1.00  0.00     0.006 C 
BRANCH   6   7
ATOM      7  C   UNL     1      -2.200  39.670  19.106  1.00  0.00     0.053 C 
BRANCH   7   8
ATOM      8  C   UNL     1      -0.939  39.575  18.303  1.00  0.00     0.041 C 
ATOM      9  O   UNL     1      -0.200  40.584  18.159  1.00  0.00    -0.550 OA
ATOM     10  O   UNL     1      -0.563  38.361  17.742  1.00  0.00    -0.550 OA
ENDBRANCH   7   8
ENDBRANCH   6   7
ENDBRANCH   5   6
ENDBRANCH   4   5
ENDBRANCH   3   4
ENDBRANCH   2   3
ENDBRANCH   1   2
BRANCH   1  11
ATOM     11  C   UNL     1      -7.275  38.574  22.368  1.00  0.00     0.000 C 
BRANCH  11  12
ATOM     12  C   UNL     1      -7.122  39.340  21.046  1.00  0.00    -0.000 C 
BRANCH  12  13
ATOM     13  C   UNL     1      -6.611  40.775  21.251  1.00  0.00    -0.000 C 
BRANCH  13  14
ATOM     14  C   UNL     1      -5.094  40.900  21.034  1.00  0.00    -0.000 C 
BRANCH  14  15
ATOM     15  C   UNL     1      -4.324  41.057  22.363  1.00  0.00    -0.000 C 
BRANCH  15  16
ATOM     16  C   UNL     1      -3.387  39.875  22.677  1.00  0.00    -0.000 C 
BRANCH  16  17
ATOM     17  C   UNL     1      -3.612  39.223  24.051  1.00  0.00    -0.003 C 
ATOM     18  C   UNL     1      -4.795  39.826  24.808  1.00  0.00     0.004 C 
ENDBRANCH  16  17
ENDBRANCH  15  16
ENDBRANCH  14  15
ENDBRANCH  13  14
ENDBRANCH  12  13
ENDBRANCH  11  12
ENDBRANCH   1  11
TORSDOF 14
ENDMDL
MODEL 3
REMARK VINA RESULT:    -4.126      1.133      2.899
REMARK INTER + INTRA:          -9.424
REMARK INTER:                  -7.372
REMARK INTRA:                  -2.052
REMARK UNBOUND:                -1.922
REMARK SMILES CCCCCCCCCCCCCCCC(=O)[O-]
REMARK SMILES IDX 9 1 10 2 11 3 12 4 13 5 14 6 15 7 16 8 17 9 18 10 8 11 7 12
REMARK SMILES IDX 6 13 5 14 4 15 3 16 2 17 1 18
REMARK H PARENT
REMARK Flexibility Score: inf
ROOT
ATOM      1  C   UNL     1      -5.131  37.662  19.576  1.00  0.00     0.000 C 
ENDROOT
BRANCH   1   2
ATOM      2  C   UNL     1      -4.535  38.886  18.872  1.00  0.00     0.000 C 
BRANCH   2   3
ATOM      3  C   UNL     1      -3.615  39.672  19.817  1.00  0.00     0.000 C 
BRANCH   3   4
ATOM      4  C   UNL     1      -2.134  39.600  19.408  1.00  0.00     0.000 C 
BRANCH   4   5
ATOM      5  C   UNL     1      -1.491  38.202  19.522  1.00  0.00     0.000 C 
BRANCH   5   6
ATOM      6  C   UNL     1      -1.108  37.547  18.180  1.00  0.00     0.006 C 
BRANCH   6   7
ATOM      7  C   UNL     1      -2.019  36.382  17.759  1.00  0.00     0.053 C 
BRANCH   7   8
ATOM      8  C   UNL     1      -1.231  35.186  17.322  1.00  0.00     0.041 C 
ATOM      9  O   UNL     1      -1.794  34.067  17.193  1.00  0.00    -0.550 OA
ATOM     10  O   UNL     1       0.120  35.315  17.025  1.00  0.00    -0.550 OA
ENDBRANCH   7   8
ENDBRANCH   6   7
ENDBRANCH   5   6
ENDBRANCH   4   5
ENDBRANCH   3   4
ENDBRANCH   2   3
ENDBRANCH   1   2
BRANCH   1  11
ATOM     11  C   UNL     1      -6.663  37.681  19.512  1.00  0.00     0.000 C 
BRANCH  11  12
ATOM     12  C   UNL     1      -7.218  39.033  19.983  1.00  0.00    -0.000 C 
BRANCH  12  13
ATOM     13  C   UNL     1      -7.540  39.048  21.486  1.00  0.00    -0.000 C 
BRANCH  13  14
ATOM     14  C   UNL     1      -6.517  39.854  22.304  1.00  0.00    -0.000 C 
BRANCH  14  15
ATOM     15  C   UNL     1      -5.716  38.963  23.277  1.00  0.00    -0.000 C 
BRANCH  15  16
ATOM     16  C   UNL     1      -4.240  39.381  23.425  1.00  0.00    -0.000 C 
BRANCH  16  17
ATOM     17  C   UNL     1      -3.231  38.227  23.314  1.00  0.00    -0.003 C 
ATOM     18  C   UNL     1      -3.822  36.983  22.651  1.00  0.00     0.004 C 
ENDBRANCH  16  17
ENDBRANCH  15  16
ENDBRANCH  14  15
ENDBRANCH  13  14
ENDBRANCH  12  13
ENDBRANCH  11  12
ENDBRANCH   1  11
TORSDOF 14
ENDMDL
MODEL 4
REMARK VINA RESULT:    -4.114      1.286      2.527
REMARK INTER + INTRA:          -9.403
REMARK INTER:                  -6.845
REMARK INTRA:                  -2.558
REMARK UNBOUND:                -1.922
REMARK SMILES CCCCCCCCCCCCCCCC(=O)[O-]
REMARK SMILES IDX 9 1 10 2 11 3 12 4 13 5 14 6 15 7 16 8 17 9 18 10 8 11 7 12
REMARK SMILES IDX 6 13 5 14 4 15 3 16 2 17 1 18
REMARK H PARENT
REMARK Flexibility Score: inf
ROOT
ATOM      1  C   UNL     1      -3.424  38.134  21.527  1.00  0.00     0.000 C 
ENDROOT
BRANCH   1   2
ATOM      2  C   UNL     1      -2.542  38.888  20.525  1.00  0.00     0.000 C 
BRANCH   2   3
ATOM      3  C   UNL     1      -3.396  39.703  19.544  1.00  0.00     0.000 C 
BRANCH   3   4
ATOM      4  C   UNL     1      -2.976  39.503  18.077  1.00  0.00     0.000 C 
BRANCH   4   5
ATOM      5  C   UNL     1      -3.834  38.496  17.283  1.00  0.00     0.000 C 
BRANCH   5   6
ATOM      6  C   UNL     1      -3.234  37.081  17.159  1.00  0.00     0.006 C 
BRANCH   6   7
ATOM      7  C   UNL     1      -1.744  36.989  17.527  1.00  0.00     0.053 C 
BRANCH   7   8
ATOM      8  C   UNL     1      -1.206  35.605  17.334  1.00  0.00     0.041 C 
ATOM      9  O   UNL     1      -1.970  34.608  17.426  1.00  0.00    -0.550 OA
ATOM     10  O   UNL     1       0.134  35.418  17.018  1.00  0.00    -0.550 OA
ENDBRANCH   7   8
ENDBRANCH   6   7
ENDBRANCH   5   6
ENDBRANCH   4   5
ENDBRANCH   3   4
ENDBRANCH   2   3
ENDBRANCH   1   2
BRANCH   1  11
ATOM     11  C   UNL     1      -4.189  36.996  20.842  1.00  0.00     0.000 C 
BRANCH  11  12
ATOM     12  C   UNL     1      -5.706  37.183  20.994  1.00  0.00    -0.000 C 
BRANCH  12  13
ATOM     13  C   UNL     1      -6.397  37.503  19.659  1.00  0.00    -0.000 C 
BRANCH  13  14
ATOM     14  C   UNL     1      -7.176  38.829  19.698  1.00  0.00    -0.000 C 
BRANCH  14  15
ATOM     15  C   UNL     1      -7.232  39.432  21.118  1.00  0.00    -0.000 C 
BRANCH  15  16
ATOM     16  C   UNL     1      -6.582  40.825  21.224  1.00  0.00    -0.000 C 
BRANCH  16  17
ATOM     17  C   UNL     1      -5.579  40.980  22.378  1.00  0.00    -0.003 C 
ATOM     18  C   UNL     1      -5.793  39.957  23.493  1.00  0.00     0.004 C 
ENDBRANCH  16  17
ENDBRANCH  15  16
ENDBRANCH  14  15
ENDBRANCH  13  14
ENDBRANCH  12  13
ENDBRANCH  11  12
ENDBRANCH   1  11
TORSDOF 14
ENDMDL
MODEL 5
REMARK VINA RESULT:    -4.104      0.916      2.658
REMARK INTER + INTRA:          -9.384
REMARK INTER:                  -7.312
REMARK INTRA:                  -2.072
REMARK UNBOUND:                -1.922
REMARK SMILES CCCCCCCCCCCCCCCC(=O)[O-]
REMARK SMILES IDX 9 1 10 2 11 3 12 4 13 5 14 6 15 7 16 8 17 9 18 10 8 11 7 12
REMARK SMILES IDX 6 13 5 14 4 15 3 16 2 17 1 18
REMARK H PARENT
REMARK Flexibility Score: inf
ROOT
ATOM      1  C   UNL     1      -4.495  39.263  19.203  1.00  0.00     0.000 C 
ENDROOT
BRANCH   1   2
ATOM      2  C   UNL     1      -3.008  39.400  18.858  1.00  0.00     0.000 C 
BRANCH   2   3
ATOM      3  C   UNL     1      -2.194  38.247  19.463  1.00  0.00     0.000 C 
BRANCH   3   4
ATOM      4  C   UNL     1      -1.135  37.691  18.495  1.00  0.00     0.000 C 
BRANCH   4   5
ATOM      5  C   UNL     1      -1.532  37.721  17.004  1.00  0.00     0.000 C 
BRANCH   5   6
ATOM      6  C   UNL     1      -2.093  36.396  16.450  1.00  0.00     0.006 C 
BRANCH   6   7
ATOM      7  C   UNL     1      -1.976  35.205  17.414  1.00  0.00     0.053 C 
BRANCH   7   8
ATOM      8  C   UNL     1      -1.012  34.174  16.913  1.00  0.00     0.041 C 
ATOM      9  O   UNL     1      -0.051  34.511  16.173  1.00  0.00    -0.550 OA
ATOM     10  O   UNL     1      -1.156  32.846  17.293  1.00  0.00    -0.550 OA
ENDBRANCH   7   8
ENDBRANCH   6   7
ENDBRANCH   5   6
ENDBRANCH   4   5
ENDBRANCH   3   4
ENDBRANCH   2   3
ENDBRANCH   1   2
BRANCH   1  11
ATOM     11  C   UNL     1      -5.036  37.893  18.778  1.00  0.00     0.000 C 
BRANCH  11  12
ATOM     12  C   UNL     1      -6.437  37.651  19.358  1.00  0.00    -0.000 C 
BRANCH  12  13
ATOM     13  C   UNL     1      -7.115  38.949  19.825  1.00  0.00    -0.000 C 
BRANCH  13  14
ATOM     14  C   UNL     1      -7.492  38.917  21.316  1.00  0.00    -0.000 C 
BRANCH  14  15
ATOM     15  C   UNL     1      -6.425  39.595  22.203  1.00  0.00    -0.000 C 
BRANCH  15  16
ATOM     16  C   UNL     1      -5.704  38.621  23.155  1.00  0.00    -0.000 C 
BRANCH  16  17
ATOM     17  C   UNL     1      -4.336  38.129  22.656  1.00  0.00    -0.003 C 
ATOM     18  C   UNL     1      -4.343  36.651  22.265  1.00  0.00     0.004 C 
ENDBRANCH  16  17
ENDBRANCH  15  16
ENDBRANCH  14  15
ENDBRANCH  13  14
ENDBRANCH  12  13
ENDBRANCH  11  12
ENDBRANCH   1  11
TORSDOF 14
ENDMDL
MODEL 6
REMARK VINA RESULT:    -4.087      3.259      6.266
REMARK INTER + INTRA:          -9.353
REMARK INTER:                  -7.027
REMARK INTRA:                  -2.326
REMARK UNBOUND:                -1.922
REMARK SMILES CCCCCCCCCCCCCCCC(=O)[O-]
REMARK SMILES IDX 9 1 10 2 11 3 12 4 13 5 14 6 15 7 16 8 17 9 18 10 8 11 7 12
REMARK SMILES IDX 6 13 5 14 4 15 3 16 2 17 1 18
REMARK H PARENT
REMARK Flexibility Score: inf
ROOT
ATOM      1  C   UNL     1      -3.287  38.598  20.625  1.00  0.00     0.000 C 
ENDROOT
BRANCH   1   2
ATOM      2  C   UNL     1      -3.826  37.179  20.409  1.00  0.00     0.000 C 
BRANCH   2   3
ATOM      3  C   UNL     1      -5.151  37.205  19.636  1.00  0.00     0.000 C 
BRANCH   3   4
ATOM      4  C   UNL     1      -5.632  38.633  19.320  1.00  0.00     0.000 C 
BRANCH   4   5
ATOM      5  C   UNL     1      -7.065  38.958  19.789  1.00  0.00     0.000 C 
BRANCH   5   6
ATOM      6  C   UNL     1      -7.156  39.876  21.025  1.00  0.00     0.006 C 
BRANCH   6   7
ATOM      7  C   UNL     1      -7.585  39.162  22.316  1.00  0.00     0.053 C 
BRANCH   7   8
ATOM      8  C   UNL     1      -6.499  38.282  22.855  1.00  0.00     0.041 C 
ATOM      9  O   UNL     1      -5.526  38.784  23.476  1.00  0.00    -0.550 OA
ATOM     10  O   UNL     1      -6.581  36.905  22.701  1.00  0.00    -0.550 OA
ENDBRANCH   7   8
ENDBRANCH   6   7
ENDBRANCH   5   6
ENDBRANCH   4   5
ENDBRANCH   3   4
ENDBRANCH   2   3
ENDBRANCH   1   2
BRANCH   1  11
ATOM     11  C   UNL     1      -1.796  38.682  20.276  1.00  0.00     0.000 C 
BRANCH  11  12
ATOM     12  C   UNL     1      -1.500  39.925  19.425  1.00  0.00    -0.000 C 
BRANCH  12  13
ATOM     13  C   UNL     1      -2.666  40.293  18.493  1.00  0.00    -0.000 C 
BRANCH  13  14
ATOM     14  C   UNL     1      -2.206  40.575  17.052  1.00  0.00    -0.000 C 
BRANCH  14  15
ATOM     15  C   UNL     1      -2.744  39.530  16.052  1.00  0.00    -0.000 C 
BRANCH  15  16
ATOM     16  C   UNL     1      -3.140  38.193  16.708  1.00  0.00    -0.000 C 
BRANCH  16  17
ATOM     17  C   UNL     1      -2.260  36.997  16.314  1.00  0.00    -0.003 C 
ATOM     18  C   UNL     1      -1.866  36.129  17.508  1.00  0.00     0.004 C 
ENDBRANCH  16  17
ENDBRANCH  15  16
ENDBRANCH  14  15
ENDBRANCH  13  14
ENDBRANCH  12  13
ENDBRANCH  11  12
ENDBRANCH   1  11
TORSDOF 14
ENDMDL
MODEL 7
REMARK VINA RESULT:    -3.992      1.825      2.410
REMARK INTER + INTRA:          -9.181
REMARK INTER:                  -6.746
REMARK INTRA:                  -2.435
REMARK UNBOUND:                -1.922
REMARK SMILES CCCCCCCCCCCCCCCC(=O)[O-]
REMARK SMILES IDX 9 1 10 2 11 3 12 4 13 5 14 6 15 7 16 8 17 9 18 10 8 11 7 12
REMARK SMILES IDX 6 13 5 14 4 15 3 16 2 17 1 18
REMARK H PARENT
REMARK Flexibility Score: inf
ROOT
ATOM      1  C   UNL     1      -2.441  38.928  22.974  1.00  0.00     0.000 C 
ENDROOT
BRANCH   1   2
ATOM      2  C   UNL     1      -3.203  40.163  22.480  1.00  0.00     0.000 C 
BRANCH   2   3
ATOM      3  C   UNL     1      -2.653  40.646  21.130  1.00  0.00     0.000 C 
BRANCH   3   4
ATOM      4  C   UNL     1      -3.634  40.412  19.968  1.00  0.00     0.000 C 
BRANCH   4   5
ATOM      5  C   UNL     1      -3.115  39.483  18.852  1.00  0.00     0.000 C 
BRANCH   5   6
ATOM      6  C   UNL     1      -2.250  38.301  19.334  1.00  0.00     0.006 C 
BRANCH   6   7
ATOM      7  C   UNL     1      -2.718  36.925  18.833  1.00  0.00     0.053 C 
BRANCH   7   8
ATOM      8  C   UNL     1      -2.708  36.843  17.337  1.00  0.00     0.041 C 
ATOM      9  O   UNL     1      -1.626  36.663  16.719  1.00  0.00    -0.550 OA
ATOM     10  O   UNL     1      -3.899  36.931  16.629  1.00  0.00    -0.550 OA
ENDBRANCH   7   8
ENDBRANCH   6   7
ENDBRANCH   5   6
ENDBRANCH   4   5
ENDBRANCH   3   4
ENDBRANCH   2   3
ENDBRANCH   1   2
BRANCH   1  11
ATOM     11  C   UNL     1      -3.403  37.780  23.304  1.00  0.00     0.000 C 
BRANCH  11  12
ATOM     12  C   UNL     1      -4.371  37.523  22.140  1.00  0.00    -0.000 C 
BRANCH  12  13
ATOM     13  C   UNL     1      -5.826  37.361  22.608  1.00  0.00    -0.000 C 
BRANCH  13  14
ATOM     14  C   UNL     1      -6.424  38.672  23.147  1.00  0.00    -0.000 C 
BRANCH  14  15
ATOM     15  C   UNL     1      -7.051  39.531  22.028  1.00  0.00    -0.000 C 
BRANCH  15  16
ATOM     16  C   UNL     1      -7.605  38.705  20.851  1.00  0.00    -0.000 C 
BRANCH  16  17
ATOM     17  C   UNL     1      -6.860  38.901  19.521  1.00  0.00    -0.003 C 
ATOM     18  C   UNL     1      -6.427  37.582  18.882  1.00  0.00     0.004 C 
ENDBRANCH  16  17
ENDBRANCH  15  16
ENDBRANCH  14  15
ENDBRANCH  13  14
ENDBRANCH  12  13
ENDBRANCH  11  12
ENDBRANCH   1  11
TORSDOF 14
ENDMDL
MODEL 8
REMARK VINA RESULT:    -3.991      2.785      6.369
REMARK INTER + INTRA:          -9.180
REMARK INTER:                  -7.347
REMARK INTRA:                  -1.833
REMARK UNBOUND:                -1.922
REMARK SMILES CCCCCCCCCCCCCCCC(=O)[O-]
REMARK SMILES IDX 9 1 10 2 11 3 12 4 13 5 14 6 15 7 16 8 17 9 18 10 8 11 7 12
REMARK SMILES IDX 6 13 5 14 4 15 3 16 2 17 1 18
REMARK H PARENT
REMARK Flexibility Score: inf
ROOT
ATOM      1  C   UNL     1      -4.870  37.504  19.514  1.00  0.00     0.000 C 
ENDROOT
BRANCH   1   2
ATOM      2  C   UNL     1      -6.372  37.417  19.806  1.00  0.00     0.000 C 
BRANCH   2   3
ATOM      3  C   UNL     1      -7.032  38.801  19.716  1.00  0.00     0.000 C 
BRANCH   3   4
ATOM      4  C   UNL     1      -7.211  39.468  21.091  1.00  0.00     0.000 C 
BRANCH   4   5
ATOM      5  C   UNL     1      -7.119  38.513  22.299  1.00  0.00     0.000 C 
BRANCH   5   6
ATOM      6  C   UNL     1      -6.058  38.891  23.352  1.00  0.00     0.006 C 
BRANCH   6   7
ATOM      7  C   UNL     1      -4.734  39.406  22.763  1.00  0.00     0.053 C 
BRANCH   7   8
ATOM      8  C   UNL     1      -3.620  38.423  22.950  1.00  0.00     0.041 C 
ATOM      9  O   UNL     1      -3.843  37.187  22.866  1.00  0.00    -0.550 OA
ATOM     10  O   UNL     1      -2.328  38.875  23.184  1.00  0.00    -0.550 OA
ENDBRANCH   7   8
ENDBRANCH   6   7
ENDBRANCH   5   6
ENDBRANCH   4   5
ENDBRANCH   3   4
ENDBRANCH   2   3
ENDBRANCH   1   2
BRANCH   1  11
ATOM     11  C   UNL     1      -4.503  38.866  18.912  1.00  0.00     0.000 C 
BRANCH  11  12
ATOM     12  C   UNL     1      -3.076  39.274  19.306  1.00  0.00    -0.000 C 
BRANCH  12  13
ATOM     13  C   UNL     1      -2.183  38.064  19.623  1.00  0.00    -0.000 C 
BRANCH  13  14
ATOM     14  C   UNL     1      -1.045  37.884  18.603  1.00  0.00    -0.000 C 
BRANCH  14  15
ATOM     15  C   UNL     1      -1.528  37.204  17.304  1.00  0.00    -0.000 C 
BRANCH  15  16
ATOM     16  C   UNL     1      -1.873  35.712  17.478  1.00  0.00    -0.000 C 
BRANCH  16  17
ATOM     17  C   UNL     1      -0.823  34.740  16.918  1.00  0.00    -0.003 C 
ATOM     18  C   UNL     1      -0.941  33.334  17.506  1.00  0.00     0.004 C 
ENDBRANCH  16  17
ENDBRANCH  15  16
ENDBRANCH  14  15
ENDBRANCH  13  14
ENDBRANCH  12  13
ENDBRANCH  11  12
ENDBRANCH   1  11
TORSDOF 14
ENDMDL
MODEL 9
REMARK VINA RESULT:    -3.935      1.619      2.869
REMARK INTER + INTRA:          -9.077
REMARK INTER:                  -6.593
REMARK INTRA:                  -2.484
REMARK UNBOUND:                -1.922
REMARK SMILES CCCCCCCCCCCCCCCC(=O)[O-]
REMARK SMILES IDX 9 1 10 2 11 3 12 4 13 5 14 6 15 7 16 8 17 9 18 10 8 11 7 12
REMARK SMILES IDX 6 13 5 14 4 15 3 16 2 17 1 18
REMARK H PARENT
REMARK Flexibility Score: inf
ROOT
ATOM      1  C   UNL     1      -3.945  37.446  21.108  1.00  0.00     0.000 C 
ENDROOT
BRANCH   1   2
ATOM      2  C   UNL     1      -4.759  37.388  19.810  1.00  0.00     0.000 C 
BRANCH   2   3
ATOM      3  C   UNL     1      -4.519  38.639  18.953  1.00  0.00     0.000 C 
BRANCH   3   4
ATOM      4  C   UNL     1      -3.236  39.394  19.343  1.00  0.00     0.000 C 
BRANCH   4   5
ATOM      5  C   UNL     1      -2.030  39.157  18.411  1.00  0.00     0.000 C 
BRANCH   5   6
ATOM      6  C   UNL     1      -1.206  37.890  18.717  1.00  0.00     0.006 C 
BRANCH   6   7
ATOM      7  C   UNL     1      -0.873  37.036  17.483  1.00  0.00     0.053 C 
BRANCH   7   8
ATOM      8  C   UNL     1      -1.913  35.988  17.232  1.00  0.00     0.041 C 
ATOM      9  O   UNL     1      -3.022  36.302  16.725  1.00  0.00    -0.550 OA
ATOM     10  O   UNL     1      -1.645  34.658  17.528  1.00  0.00    -0.550 OA
ENDBRANCH   7   8
ENDBRANCH   6   7
ENDBRANCH   5   6
ENDBRANCH   4   5
ENDBRANCH   3   4
ENDBRANCH   2   3
ENDBRANCH   1   2
BRANCH   1  11
ATOM     11  C   UNL     1      -4.772  36.954  22.301  1.00  0.00     0.000 C 
BRANCH  11  12
ATOM     12  C   UNL     1      -6.275  37.032  21.999  1.00  0.00    -0.000 C 
BRANCH  12  13
ATOM     13  C   UNL     1      -6.955  38.222  22.694  1.00  0.00    -0.000 C 
BRANCH  13  14
ATOM     14  C   UNL     1      -7.454  39.284  21.699  1.00  0.00    -0.000 C 
BRANCH  14  15
ATOM     15  C   UNL     1      -6.467  40.462  21.558  1.00  0.00    -0.000 C 
BRANCH  15  16
ATOM     16  C   UNL     1      -5.588  40.684  22.804  1.00  0.00    -0.000 C 
BRANCH  16  17
ATOM     17  C   UNL     1      -4.097  40.907  22.508  1.00  0.00    -0.003 C 
ATOM     18  C   UNL     1      -3.180  40.170  23.484  1.00  0.00     0.004 C 
ENDBRANCH  16  17
ENDBRANCH  15  16
ENDBRANCH  14  15
ENDBRANCH  13  14
ENDBRANCH  12  13
ENDBRANCH  11  12
ENDBRANCH   1  11
TORSDOF 14
ENDMDL
