MODEL 1
REMARK VINA RESULT:    50.356      0.000      0.000
REMARK INTER + INTRA:          66.590
REMARK INTER:                  66.547
REMARK INTRA:                   0.043
REMARK UNBOUND:                 0.043
REMARK SMILES CC[C@H](C=C[C@H](C)[C@@H]1CC[C@@H]2C3=CC[C@@H]4C[C@@H](O)CC[C@@]4(C)[C@@H]3CC[C@]21C)C(C)C
REMARK SMILES IDX 6 1 7 2 5 3 4 4 3 5 2 6 1 7 28 8 29 9 30 10 8 11 9 12 26 13
REMARK SMILES IDX 10 14 11 15 25 16 27 17 12 18 24 19 23 20 13 21 21 22 14 23
REMARK SMILES IDX 15 24 20 25 22 26 16 27 19 28 17 29 18 30
REMARK H PARENT 18 31
REMARK Flexibility Score: inf
ROOT
ATOM      1  C   UNL     1     -29.939  31.496  -0.649  1.00  0.00     0.012 C 
ATOM      2  C   UNL     1     -30.006  31.878   0.837  1.00  0.00     0.012 C 
ENDROOT
BRANCH   1   3
ATOM      3  C   UNL     1     -31.319  31.611  -1.265  1.00  0.00    -0.028 C 
ATOM      4  C   UNL     1     -31.971  30.556  -1.790  1.00  0.00    -0.027 C 
BRANCH   4   5
ATOM      5  C   UNL     1     -33.359  30.651  -2.395  1.00  0.00     0.014 C 
BRANCH   5   6
ATOM      6  C   UNL     1     -33.369  30.055  -3.830  1.00  0.00     0.004 C 
ATOM      7  C   UNL     1     -34.639  30.372  -4.619  1.00  0.00     0.004 C 
ENDBRANCH   5   6
BRANCH   5   8
ATOM      8  C   UNL     1     -34.437  30.102  -1.397  1.00  0.00    -0.011 C 
ATOM      9  C   UNL     1     -35.698  30.983  -1.361  1.00  0.00     0.008 C 
ATOM     10  C   UNL     1     -34.826  28.629  -1.611  1.00  0.00     0.008 C 
ENDBRANCH   5   8
ENDBRANCH   4   5
ENDBRANCH   1   3
BRANCH   1  11
ATOM     11  C   UNL     1     -28.891  32.336  -1.447  1.00  0.00     0.002 C 
ATOM     12  C   UNL     1     -29.392  33.782  -1.735  1.00  0.00     0.005 C 
ATOM     13  C   UNL     1     -28.454  31.802  -2.845  1.00  0.00    -0.023 C 
ATOM     14  C   UNL     1     -28.861  34.182  -3.121  1.00  0.00     0.009 C 
ATOM     15  C   UNL     1     -27.861  33.081  -3.442  1.00  0.00     0.021 C 
ATOM     16  C   UNL     1     -27.363  30.673  -2.831  1.00  0.00     0.008 C 
ATOM     17  C   UNL     1     -29.697  31.318  -3.657  1.00  0.00     0.012 C 
ATOM     18  C   UNL     1     -27.357  32.814  -4.838  1.00  0.00    -0.067 C 
ATOM     19  C   UNL     1     -26.047  30.980  -3.607  1.00  0.00     0.009 C 
ATOM     20  C   UNL     1     -26.168  31.858  -4.905  1.00  0.00     0.021 C 
ATOM     21  C   UNL     1     -27.922  33.343  -5.945  1.00  0.00    -0.027 C 
ATOM     22  C   UNL     1     -26.054  31.095  -6.274  1.00  0.00    -0.023 C 
ATOM     23  C   UNL     1     -27.549  32.907  -7.341  1.00  0.00     0.031 C 
ATOM     24  C   UNL     1     -26.196  32.177  -7.399  1.00  0.00     0.002 C 
ATOM     25  C   UNL     1     -24.640  30.444  -6.410  1.00  0.00     0.010 C 
ATOM     26  C   UNL     1     -27.142  29.993  -6.377  1.00  0.00     0.012 C 
ATOM     27  C   UNL     1     -25.931  31.616  -8.811  1.00  0.00     0.036 C 
ATOM     28  C   UNL     1     -24.344  29.908  -7.823  1.00  0.00     0.032 C 
ATOM     29  C   UNL     1     -24.536  30.982  -8.907  1.00  0.00     0.114 C 
BRANCH  29  30
ATOM     30  O   UNL     1     -23.555  31.980  -8.787  1.00  0.00    -0.393 OA
ATOM     31  H   UNL     1     -23.041  31.982  -9.637  1.00  0.00     0.210 HD
ENDBRANCH  29  30
ENDBRANCH   1  11
TORSDOF 6
ENDMDL
