MODEL 1
REMARK VINA RESULT:    -4.556      0.000      0.000
REMARK INTER + INTRA:         -18.398
REMARK INTER:                 -12.012
REMARK INTRA:                  -6.385
REMARK UNBOUND:                -6.385
REMARK SMILES CCCCCCCCCCCCCCCCCCCCCCCCCCCCCC(=O)[O-]
REMARK SMILES IDX 16 1 17 2 18 3 19 4 20 5 21 6 22 7 23 8 24 9 25 10 26 11
REMARK SMILES IDX 27 12 28 13 29 14 30 15 31 16 32 17 15 18 14 19 13 20 12 21
REMARK SMILES IDX 11 22 10 23 9 24 8 25 7 26 6 27 5 28 4 29 3 30 2 31 1 32
REMARK H PARENT
REMARK Flexibility Score: inf
ROOT
ATOM      1  C   UNL     1      15.990  -7.093 -18.570  1.00  0.00     0.000 C 
ENDROOT
BRANCH   1   2
ATOM      2  C   UNL     1      15.823  -7.897 -19.869  1.00  0.00     0.000 C 
BRANCH   2   3
ATOM      3  C   UNL     1      14.349  -8.070 -20.276  1.00  0.00     0.000 C 
BRANCH   3   4
ATOM      4  C   UNL     1      14.057  -7.531 -21.689  1.00  0.00     0.000 C 
BRANCH   4   5
ATOM      5  C   UNL     1      15.188  -6.689 -22.304  1.00  0.00     0.000 C 
BRANCH   5   6
ATOM      6  C   UNL     1      14.810  -5.204 -22.464  1.00  0.00     0.000 C 
BRANCH   6   7
ATOM      7  C   UNL     1      15.377  -4.325 -21.330  1.00  0.00     0.000 C 
BRANCH   7   8
ATOM      8  C   UNL     1      14.298  -3.645 -20.463  1.00  0.00     0.000 C 
BRANCH   8   9
ATOM      9  C   UNL     1      13.590  -4.569 -19.461  1.00  0.00     0.000 C 
BRANCH   9  10
ATOM     10  C   UNL     1      12.057  -4.435 -19.505  1.00  0.00     0.000 C 
BRANCH  10  11
ATOM     11  C   UNL     1      11.398  -5.617 -20.238  1.00  0.00     0.000 C 
BRANCH  11  12
ATOM     12  C   UNL     1      10.506  -5.171 -21.417  1.00  0.00     0.000 C 
BRANCH  12  13
ATOM     13  C   UNL     1      11.292  -4.822 -22.695  1.00  0.00     0.006 C 
BRANCH  13  14
ATOM     14  C   UNL     1      10.972  -3.429 -23.266  1.00  0.00     0.053 C 
BRANCH  14  15
ATOM     15  C   UNL     1      10.370  -3.484 -24.640  1.00  0.00     0.041 C 
ATOM     16  O   UNL     1       9.120  -3.436 -24.788  1.00  0.00    -0.550 OA
ATOM     17  O   UNL     1      11.191  -3.529 -25.758  1.00  0.00    -0.550 OA
ENDBRANCH  14  15
ENDBRANCH  13  14
ENDBRANCH  12  13
ENDBRANCH  11  12
ENDBRANCH  10  11
ENDBRANCH   9  10
ENDBRANCH   8   9
ENDBRANCH   7   8
ENDBRANCH   6   7
ENDBRANCH   5   6
ENDBRANCH   4   5
ENDBRANCH   3   4
ENDBRANCH   2   3
ENDBRANCH   1   2
BRANCH   1  18
ATOM     18  C   UNL     1      17.187  -6.131 -18.614  1.00  0.00     0.000 C 
BRANCH  18  19
ATOM     19  C   UNL     1      17.738  -5.882 -17.203  1.00  0.00     0.000 C 
BRANCH  19  20
ATOM     20  C   UNL     1      16.891  -4.888 -16.388  1.00  0.00     0.000 C 
BRANCH  20  21
ATOM     21  C   UNL     1      16.300  -3.713 -17.191  1.00  0.00     0.000 C 
BRANCH  21  22
ATOM     22  C   UNL     1      17.293  -2.588 -17.546  1.00  0.00     0.000 C 
BRANCH  22  23
ATOM     23  C   UNL     1      17.617  -2.474 -19.051  1.00  0.00     0.000 C 
BRANCH  23  24
ATOM     24  C   UNL     1      19.129  -2.419 -19.335  1.00  0.00    -0.000 C 
BRANCH  24  25
ATOM     25  C   UNL     1      19.965  -2.981 -18.169  1.00  0.00    -0.000 C 
BRANCH  25  26
ATOM     26  C   UNL     1      21.166  -3.831 -18.627  1.00  0.00    -0.000 C 
BRANCH  26  27
ATOM     27  C   UNL     1      20.748  -4.967 -19.579  1.00  0.00    -0.000 C 
BRANCH  27  28
ATOM     28  C   UNL     1      21.413  -4.857 -20.961  1.00  0.00    -0.000 C 
BRANCH  28  29
ATOM     29  C   UNL     1      20.410  -4.537 -22.079  1.00  0.00    -0.000 C 
BRANCH  29  30
ATOM     30  C   UNL     1      19.042  -5.171 -21.782  1.00  0.00    -0.000 C 
BRANCH  30  31
ATOM     31  C   UNL     1      18.865  -6.540 -22.457  1.00  0.00    -0.003 C 
ATOM     32  C   UNL     1      19.071  -7.706 -21.491  1.00  0.00     0.004 C 
ENDBRANCH  30  31
ENDBRANCH  29  30
ENDBRANCH  28  29
ENDBRANCH  27  28
ENDBRANCH  26  27
ENDBRANCH  25  26
ENDBRANCH  24  25
ENDBRANCH  23  24
ENDBRANCH  22  23
ENDBRANCH  21  22
ENDBRANCH  20  21
ENDBRANCH  19  20
ENDBRANCH  18  19
ENDBRANCH   1  18
TORSDOF 28
ENDMDL
MODEL 2
REMARK VINA RESULT:    -4.532      1.728      4.512
REMARK INTER + INTRA:         -18.337
REMARK INTER:                 -13.401
REMARK INTRA:                  -4.935
REMARK UNBOUND:                -6.385
REMARK SMILES CCCCCCCCCCCCCCCCCCCCCCCCCCCCCC(=O)[O-]
REMARK SMILES IDX 16 1 17 2 18 3 19 4 20 5 21 6 22 7 23 8 24 9 25 10 26 11
REMARK SMILES IDX 27 12 28 13 29 14 30 15 31 16 32 17 15 18 14 19 13 20 12 21
REMARK SMILES IDX 11 22 10 23 9 24 8 25 7 26 6 27 5 28 4 29 3 30 2 31 1 32
REMARK H PARENT
REMARK Flexibility Score: inf
ROOT
ATOM      1  C   UNL     1      15.984  -3.761 -22.442  1.00  0.00     0.000 C 
ENDROOT
BRANCH   1   2
ATOM      2  C   UNL     1      15.769  -4.093 -20.957  1.00  0.00     0.000 C 
BRANCH   2   3
ATOM      3  C   UNL     1      14.466  -3.499 -20.397  1.00  0.00     0.000 C 
BRANCH   3   4
ATOM      4  C   UNL     1      13.854  -4.361 -19.277  1.00  0.00     0.000 C 
BRANCH   4   5
ATOM      5  C   UNL     1      12.319  -4.474 -19.316  1.00  0.00     0.000 C 
BRANCH   5   6
ATOM      6  C   UNL     1      11.834  -5.776 -19.980  1.00  0.00     0.000 C 
BRANCH   6   7
ATOM      7  C   UNL     1      11.040  -5.518 -21.278  1.00  0.00     0.000 C 
BRANCH   7   8
ATOM      8  C   UNL     1      11.786  -5.928 -22.563  1.00  0.00     0.000 C 
BRANCH   8   9
ATOM      9  C   UNL     1      12.590  -4.806 -23.236  1.00  0.00     0.000 C 
BRANCH   9  10
ATOM     10  C   UNL     1      13.127  -5.205 -24.623  1.00  0.00     0.000 C 
BRANCH  10  11
ATOM     11  C   UNL     1      12.043  -5.103 -25.710  1.00  0.00     0.000 C 
BRANCH  11  12
ATOM     12  C   UNL     1      11.155  -3.849 -25.558  1.00  0.00     0.000 C 
BRANCH  12  13
ATOM     13  C   UNL     1       9.679  -4.165 -25.251  1.00  0.00     0.006 C 
BRANCH  13  14
ATOM     14  C   UNL     1       9.181  -3.589 -23.913  1.00  0.00     0.053 C 
BRANCH  14  15
ATOM     15  C   UNL     1       7.858  -4.157 -23.488  1.00  0.00     0.041 C 
ATOM     16  O   UNL     1       7.774  -4.864 -22.449  1.00  0.00    -0.550 OA
ATOM     17  O   UNL     1       6.709  -3.858 -24.207  1.00  0.00    -0.550 OA
ENDBRANCH  14  15
ENDBRANCH  13  14
ENDBRANCH  12  13
ENDBRANCH  11  12
ENDBRANCH  10  11
ENDBRANCH   9  10
ENDBRANCH   8   9
ENDBRANCH   7   8
ENDBRANCH   6   7
ENDBRANCH   5   6
ENDBRANCH   4   5
ENDBRANCH   3   4
ENDBRANCH   2   3
ENDBRANCH   1   2
BRANCH   1  18
ATOM     18  C   UNL     1      17.129  -4.565 -23.074  1.00  0.00     0.000 C 
BRANCH  18  19
ATOM     19  C   UNL     1      17.960  -5.273 -21.994  1.00  0.00     0.000 C 
BRANCH  19  20
ATOM     20  C   UNL     1      19.169  -6.038 -22.563  1.00  0.00     0.000 C 
BRANCH  20  21
ATOM     21  C   UNL     1      20.543  -5.587 -22.031  1.00  0.00     0.000 C 
BRANCH  21  22
ATOM     22  C   UNL     1      20.704  -4.068 -21.815  1.00  0.00     0.000 C 
BRANCH  22  23
ATOM     23  C   UNL     1      20.872  -3.649 -20.340  1.00  0.00     0.000 C 
BRANCH  23  24
ATOM     24  C   UNL     1      20.231  -2.284 -20.028  1.00  0.00    -0.000 C 
BRANCH  24  25
ATOM     25  C   UNL     1      18.731  -2.405 -19.697  1.00  0.00    -0.000 C 
BRANCH  25  26
ATOM     26  C   UNL     1      18.453  -3.068 -18.333  1.00  0.00    -0.000 C 
BRANCH  26  27
ATOM     27  C   UNL     1      17.116  -2.608 -17.723  1.00  0.00    -0.000 C 
BRANCH  27  28
ATOM     28  C   UNL     1      16.478  -3.678 -16.821  1.00  0.00    -0.000 C 
BRANCH  28  29
ATOM     29  C   UNL     1      17.346  -4.938 -16.690  1.00  0.00    -0.000 C 
BRANCH  29  30
ATOM     30  C   UNL     1      16.624  -6.161 -17.278  1.00  0.00    -0.000 C 
BRANCH  30  31
ATOM     31  C   UNL     1      17.226  -6.616 -18.616  1.00  0.00    -0.003 C 
ATOM     32  C   UNL     1      18.754  -6.581 -18.620  1.00  0.00     0.004 C 
ENDBRANCH  30  31
ENDBRANCH  29  30
ENDBRANCH  28  29
ENDBRANCH  27  28
ENDBRANCH  26  27
ENDBRANCH  25  26
ENDBRANCH  24  25
ENDBRANCH  23  24
ENDBRANCH  22  23
ENDBRANCH  21  22
ENDBRANCH  20  21
ENDBRANCH  19  20
ENDBRANCH  18  19
ENDBRANCH   1  18
TORSDOF 28
ENDMDL
MODEL 3
REMARK VINA RESULT:    -4.518      1.516      4.343
REMARK INTER + INTRA:         -18.298
REMARK INTER:                 -14.415
REMARK INTRA:                  -3.882
REMARK UNBOUND:                -6.385
REMARK SMILES CCCCCCCCCCCCCCCCCCCCCCCCCCCCCC(=O)[O-]
REMARK SMILES IDX 16 1 17 2 18 3 19 4 20 5 21 6 22 7 23 8 24 9 25 10 26 11
REMARK SMILES IDX 27 12 28 13 29 14 30 15 31 16 32 17 15 18 14 19 13 20 12 21
REMARK SMILES IDX 11 22 10 23 9 24 8 25 7 26 6 27 5 28 4 29 3 30 2 31 1 32
REMARK H PARENT
REMARK Flexibility Score: inf
ROOT
ATOM      1  C   UNL     1      16.197  -4.110 -22.842  1.00  0.00     0.000 C 
ENDROOT
BRANCH   1   2
ATOM      2  C   UNL     1      14.994  -4.839 -22.223  1.00  0.00     0.000 C 
BRANCH   2   3
ATOM      3  C   UNL     1      15.333  -5.512 -20.882  1.00  0.00     0.000 C 
BRANCH   3   4
ATOM      4  C   UNL     1      14.103  -5.666 -19.968  1.00  0.00     0.000 C 
BRANCH   4   5
ATOM      5  C   UNL     1      13.290  -4.375 -19.759  1.00  0.00     0.000 C 
BRANCH   5   6
ATOM      6  C   UNL     1      11.775  -4.634 -19.655  1.00  0.00     0.000 C 
BRANCH   6   7
ATOM      7  C   UNL     1      11.306  -5.779 -20.577  1.00  0.00     0.000 C 
BRANCH   7   8
ATOM      8  C   UNL     1      10.200  -5.372 -21.571  1.00  0.00     0.000 C 
BRANCH   8   9
ATOM      9  C   UNL     1       8.871  -6.126 -21.411  1.00  0.00     0.000 C 
BRANCH   9  10
ATOM     10  C   UNL     1       7.668  -5.341 -21.965  1.00  0.00     0.000 C 
BRANCH  10  11
ATOM     11  C   UNL     1       7.381  -5.692 -23.436  1.00  0.00     0.000 C 
BRANCH  11  12
ATOM     12  C   UNL     1       7.350  -4.451 -24.354  1.00  0.00     0.000 C 
BRANCH  12  13
ATOM     13  C   UNL     1       8.583  -4.323 -25.270  1.00  0.00     0.006 C 
BRANCH  13  14
ATOM     14  C   UNL     1       9.703  -3.440 -24.692  1.00  0.00     0.053 C 
BRANCH  14  15
ATOM     15  C   UNL     1      11.076  -3.918 -25.064  1.00  0.00     0.041 C 
ATOM     16  O   UNL     1      12.065  -3.645 -24.333  1.00  0.00    -0.550 OA
ATOM     17  O   UNL     1      11.254  -4.716 -26.186  1.00  0.00    -0.550 OA
ENDBRANCH  14  15
ENDBRANCH  13  14
ENDBRANCH  12  13
ENDBRANCH  11  12
ENDBRANCH  10  11
ENDBRANCH   9  10
ENDBRANCH   8   9
ENDBRANCH   7   8
ENDBRANCH   6   7
ENDBRANCH   5   6
ENDBRANCH   4   5
ENDBRANCH   3   4
ENDBRANCH   2   3
ENDBRANCH   1   2
BRANCH   1  18
ATOM     18  C   UNL     1      17.505  -4.905 -22.719  1.00  0.00     0.000 C 
BRANCH  18  19
ATOM     19  C   UNL     1      18.439  -4.260 -21.685  1.00  0.00     0.000 C 
BRANCH  19  20
ATOM     20  C   UNL     1      19.931  -4.491 -21.989  1.00  0.00     0.000 C 
BRANCH  20  21
ATOM     21  C   UNL     1      20.893  -3.445 -21.394  1.00  0.00     0.000 C 
BRANCH  21  22
ATOM     22  C   UNL     1      20.319  -2.594 -20.243  1.00  0.00     0.000 C 
BRANCH  22  23
ATOM     23  C   UNL     1      20.623  -3.142 -18.833  1.00  0.00     0.000 C 
BRANCH  23  24
ATOM     24  C   UNL     1      19.489  -2.870 -17.827  1.00  0.00    -0.000 C 
BRANCH  24  25
ATOM     25  C   UNL     1      18.145  -2.581 -18.525  1.00  0.00    -0.000 C 
BRANCH  25  26
ATOM     26  C   UNL     1      16.943  -2.560 -17.560  1.00  0.00    -0.000 C 
BRANCH  26  27
ATOM     27  C   UNL     1      16.282  -3.943 -17.422  1.00  0.00    -0.000 C 
BRANCH  27  28
ATOM     28  C   UNL     1      16.597  -4.619 -16.078  1.00  0.00    -0.000 C 
BRANCH  28  29
ATOM     29  C   UNL     1      17.093  -6.063 -16.240  1.00  0.00    -0.000 C 
BRANCH  29  30
ATOM     30  C   UNL     1      17.619  -6.302 -17.664  1.00  0.00    -0.000 C 
BRANCH  30  31
ATOM     31  C   UNL     1      19.144  -6.488 -17.708  1.00  0.00    -0.003 C 
ATOM     32  C   UNL     1      19.669  -6.740 -19.121  1.00  0.00     0.004 C 
ENDBRANCH  30  31
ENDBRANCH  29  30
ENDBRANCH  28  29
ENDBRANCH  27  28
ENDBRANCH  26  27
ENDBRANCH  25  26
ENDBRANCH  24  25
ENDBRANCH  23  24
ENDBRANCH  22  23
ENDBRANCH  21  22
ENDBRANCH  20  21
ENDBRANCH  19  20
ENDBRANCH  18  19
ENDBRANCH   1  18
TORSDOF 28
ENDMDL
MODEL 4
REMARK VINA RESULT:    -4.487      2.845      8.462
REMARK INTER + INTRA:         -18.218
REMARK INTER:                 -13.124
REMARK INTRA:                  -5.093
REMARK UNBOUND:                -6.385
REMARK SMILES CCCCCCCCCCCCCCCCCCCCCCCCCCCCCC(=O)[O-]
REMARK SMILES IDX 16 1 17 2 18 3 19 4 20 5 21 6 22 7 23 8 24 9 25 10 26 11
REMARK SMILES IDX 27 12 28 13 29 14 30 15 31 16 32 17 15 18 14 19 13 20 12 21
REMARK SMILES IDX 11 22 10 23 9 24 8 25 7 26 6 27 5 28 4 29 3 30 2 31 1 32
REMARK H PARENT
REMARK Flexibility Score: inf
ROOT
ATOM      1  C   UNL     1      14.185  -3.682 -20.253  1.00  0.00     0.000 C 
ENDROOT
BRANCH   1   2
ATOM      2  C   UNL     1      15.229  -4.562 -20.957  1.00  0.00     0.000 C 
BRANCH   2   3
ATOM      3  C   UNL     1      15.150  -6.038 -20.529  1.00  0.00     0.000 C 
BRANCH   3   4
ATOM      4  C   UNL     1      16.376  -6.486 -19.713  1.00  0.00     0.000 C 
BRANCH   4   5
ATOM      5  C   UNL     1      16.138  -6.592 -18.196  1.00  0.00     0.000 C 
BRANCH   5   6
ATOM      6  C   UNL     1      17.390  -6.246 -17.369  1.00  0.00     0.000 C 
BRANCH   6   7
ATOM      7  C   UNL     1      17.181  -5.012 -16.467  1.00  0.00     0.000 C 
BRANCH   7   8
ATOM      8  C   UNL     1      16.027  -4.094 -16.916  1.00  0.00     0.000 C 
BRANCH   8   9
ATOM      9  C   UNL     1      16.358  -2.593 -16.935  1.00  0.00     0.000 C 
BRANCH   9  10
ATOM     10  C   UNL     1      17.705  -2.287 -17.614  1.00  0.00     0.000 C 
BRANCH  10  11
ATOM     11  C   UNL     1      17.629  -2.452 -19.142  1.00  0.00     0.000 C 
BRANCH  11  12
ATOM     12  C   UNL     1      19.007  -2.708 -19.788  1.00  0.00     0.000 C 
BRANCH  12  13
ATOM     13  C   UNL     1      19.241  -4.175 -20.198  1.00  0.00     0.006 C 
BRANCH  13  14
ATOM     14  C   UNL     1      18.824  -4.495 -21.644  1.00  0.00     0.053 C 
BRANCH  14  15
ATOM     15  C   UNL     1      19.382  -5.797 -22.139  1.00  0.00     0.041 C 
ATOM     16  O   UNL     1      20.616  -6.034 -22.056  1.00  0.00    -0.550 OA
ATOM     17  O   UNL     1      18.530  -6.773 -22.638  1.00  0.00    -0.550 OA
ENDBRANCH  14  15
ENDBRANCH  13  14
ENDBRANCH  12  13
ENDBRANCH  11  12
ENDBRANCH  10  11
ENDBRANCH   9  10
ENDBRANCH   8   9
ENDBRANCH   7   8
ENDBRANCH   6   7
ENDBRANCH   5   6
ENDBRANCH   4   5
ENDBRANCH   3   4
ENDBRANCH   2   3
ENDBRANCH   1   2
BRANCH   1  18
ATOM     18  C   UNL     1      13.279  -4.477 -19.301  1.00  0.00     0.000 C 
BRANCH  18  19
ATOM     19  C   UNL     1      11.846  -4.551 -19.848  1.00  0.00     0.000 C 
BRANCH  19  20
ATOM     20  C   UNL     1      11.360  -5.993 -20.084  1.00  0.00     0.000 C 
BRANCH  20  21
ATOM     21  C   UNL     1      11.437  -6.481 -21.543  1.00  0.00     0.000 C 
BRANCH  21  22
ATOM     22  C   UNL     1      11.832  -5.412 -22.581  1.00  0.00     0.000 C 
BRANCH  22  23
ATOM     23  C   UNL     1      12.811  -5.908 -23.667  1.00  0.00     0.000 C 
BRANCH  23  24
ATOM     24  C   UNL     1      12.980  -4.906 -24.824  1.00  0.00    -0.000 C 
BRANCH  24  25
ATOM     25  C   UNL     1      11.748  -4.867 -25.749  1.00  0.00    -0.000 C 
BRANCH  25  26
ATOM     26  C   UNL     1      11.030  -3.503 -25.759  1.00  0.00    -0.000 C 
BRANCH  26  27
ATOM     27  C   UNL     1       9.924  -3.417 -24.691  1.00  0.00    -0.000 C 
BRANCH  27  28
ATOM     28  C   UNL     1       8.575  -3.957 -25.192  1.00  0.00    -0.000 C 
BRANCH  28  29
ATOM     29  C   UNL     1       7.481  -3.914 -24.115  1.00  0.00    -0.000 C 
BRANCH  29  30
ATOM     30  C   UNL     1       8.015  -4.442 -22.774  1.00  0.00    -0.000 C 
BRANCH  30  31
ATOM     31  C   UNL     1       7.884  -5.967 -22.645  1.00  0.00    -0.003 C 
ATOM     32  C   UNL     1       7.511  -6.411 -21.230  1.00  0.00     0.004 C 
ENDBRANCH  30  31
ENDBRANCH  29  30
ENDBRANCH  28  29
ENDBRANCH  27  28
ENDBRANCH  26  27
ENDBRANCH  25  26
ENDBRANCH  24  25
ENDBRANCH  23  24
ENDBRANCH  22  23
ENDBRANCH  21  22
ENDBRANCH  20  21
ENDBRANCH  19  20
ENDBRANCH  18  19
ENDBRANCH   1  18
TORSDOF 28
ENDMDL
MODEL 5
REMARK VINA RESULT:    -4.458      1.511      4.111
REMARK INTER + INTRA:         -18.141
REMARK INTER:                 -12.976
REMARK INTRA:                  -5.165
REMARK UNBOUND:                -6.385
REMARK SMILES CCCCCCCCCCCCCCCCCCCCCCCCCCCCCC(=O)[O-]
REMARK SMILES IDX 16 1 17 2 18 3 19 4 20 5 21 6 22 7 23 8 24 9 25 10 26 11
REMARK SMILES IDX 27 12 28 13 29 14 30 15 31 16 32 17 15 18 14 19 13 20 12 21
REMARK SMILES IDX 11 22 10 23 9 24 8 25 7 26 6 27 5 28 4 29 3 30 2 31 1 32
REMARK H PARENT
REMARK Flexibility Score: inf
ROOT
ATOM      1  C   UNL     1      19.687  -5.398 -22.622  1.00  0.00     0.000 C 
ENDROOT
BRANCH   1   2
ATOM      2  C   UNL     1      18.435  -4.532 -22.410  1.00  0.00     0.000 C 
BRANCH   2   3
ATOM      3  C   UNL     1      17.128  -5.303 -22.664  1.00  0.00     0.000 C 
BRANCH   3   4
ATOM      4  C   UNL     1      16.003  -4.402 -23.206  1.00  0.00     0.000 C 
BRANCH   4   5
ATOM      5  C   UNL     1      14.829  -4.183 -22.235  1.00  0.00     0.000 C 
BRANCH   5   6
ATOM      6  C   UNL     1      15.269  -3.570 -20.893  1.00  0.00     0.000 C 
BRANCH   6   7
ATOM      7  C   UNL     1      14.183  -3.689 -19.804  1.00  0.00     0.000 C 
BRANCH   7   8
ATOM      8  C   UNL     1      13.451  -5.045 -19.791  1.00  0.00     0.000 C 
BRANCH   8   9
ATOM      9  C   UNL     1      11.917  -4.958 -19.764  1.00  0.00     0.000 C 
BRANCH   9  10
ATOM     10  C   UNL     1      11.308  -4.717 -21.157  1.00  0.00     0.000 C 
BRANCH  10  11
ATOM     11  C   UNL     1      10.511  -5.936 -21.654  1.00  0.00     0.000 C 
BRANCH  11  12
ATOM     12  C   UNL     1       9.294  -5.546 -22.520  1.00  0.00     0.000 C 
BRANCH  12  13
ATOM     13  C   UNL     1       9.174  -4.033 -22.782  1.00  0.00     0.006 C 
BRANCH  13  14
ATOM     14  C   UNL     1       9.286  -3.644 -24.267  1.00  0.00     0.053 C 
BRANCH  14  15
ATOM     15  C   UNL     1      10.631  -3.957 -24.854  1.00  0.00     0.041 C 
ATOM     16  O   UNL     1      11.636  -3.261 -24.549  1.00  0.00    -0.550 OA
ATOM     17  O   UNL     1      10.787  -5.053 -25.692  1.00  0.00    -0.550 OA
ENDBRANCH  14  15
ENDBRANCH  13  14
ENDBRANCH  12  13
ENDBRANCH  11  12
ENDBRANCH  10  11
ENDBRANCH   9  10
ENDBRANCH   8   9
ENDBRANCH   7   8
ENDBRANCH   6   7
ENDBRANCH   5   6
ENDBRANCH   4   5
ENDBRANCH   3   4
ENDBRANCH   2   3
ENDBRANCH   1   2
BRANCH   1  18
ATOM     18  C   UNL     1      20.893  -4.912 -21.805  1.00  0.00     0.000 C 
BRANCH  18  19
ATOM     19  C   UNL     1      20.808  -3.400 -21.552  1.00  0.00     0.000 C 
BRANCH  19  20
ATOM     20  C   UNL     1      21.183  -3.004 -20.113  1.00  0.00     0.000 C 
BRANCH  20  21
ATOM     21  C   UNL     1      19.994  -2.804 -19.154  1.00  0.00     0.000 C 
BRANCH  21  22
ATOM     22  C   UNL     1      20.252  -3.199 -17.685  1.00  0.00     0.000 C 
BRANCH  22  23
ATOM     23  C   UNL     1      21.203  -4.401 -17.506  1.00  0.00     0.000 C 
BRANCH  23  24
ATOM     24  C   UNL     1      20.458  -5.743 -17.393  1.00  0.00    -0.000 C 
BRANCH  24  25
ATOM     25  C   UNL     1      20.584  -6.592 -18.673  1.00  0.00    -0.000 C 
BRANCH  25  26
ATOM     26  C   UNL     1      19.226  -6.999 -19.277  1.00  0.00    -0.000 C 
BRANCH  26  27
ATOM     27  C   UNL     1      18.146  -5.922 -19.062  1.00  0.00    -0.000 C 
BRANCH  27  28
ATOM     28  C   UNL     1      16.776  -6.520 -18.703  1.00  0.00    -0.000 C 
BRANCH  28  29
ATOM     29  C   UNL     1      16.370  -6.243 -17.248  1.00  0.00    -0.000 C 
BRANCH  29  30
ATOM     30  C   UNL     1      17.045  -4.965 -16.727  1.00  0.00    -0.000 C 
BRANCH  30  31
ATOM     31  C   UNL     1      16.069  -3.782 -16.621  1.00  0.00    -0.003 C 
ATOM     32  C   UNL     1      16.628  -2.498 -17.233  1.00  0.00     0.004 C 
ENDBRANCH  30  31
ENDBRANCH  29  30
ENDBRANCH  28  29
ENDBRANCH  27  28
ENDBRANCH  26  27
ENDBRANCH  25  26
ENDBRANCH  24  25
ENDBRANCH  23  24
ENDBRANCH  22  23
ENDBRANCH  21  22
ENDBRANCH  20  21
ENDBRANCH  19  20
ENDBRANCH  18  19
ENDBRANCH   1  18
TORSDOF 28
ENDMDL
MODEL 6
REMARK VINA RESULT:    -4.448      2.978      8.219
REMARK INTER + INTRA:         -18.115
REMARK INTER:                 -12.838
REMARK INTRA:                  -5.276
REMARK UNBOUND:                -6.385
REMARK SMILES CCCCCCCCCCCCCCCCCCCCCCCCCCCCCC(=O)[O-]
REMARK SMILES IDX 16 1 17 2 18 3 19 4 20 5 21 6 22 7 23 8 24 9 25 10 26 11
REMARK SMILES IDX 27 12 28 13 29 14 30 15 31 16 32 17 15 18 14 19 13 20 12 21
REMARK SMILES IDX 11 22 10 23 9 24 8 25 7 26 6 27 5 28 4 29 3 30 2 31 1 32
REMARK H PARENT
REMARK Flexibility Score: inf
ROOT
ATOM      1  C   UNL     1      13.974  -4.637 -20.141  1.00  0.00     0.000 C 
ENDROOT
BRANCH   1   2
ATOM      2  C   UNL     1      14.248  -3.319 -20.882  1.00  0.00     0.000 C 
BRANCH   2   3
ATOM      3  C   UNL     1      15.427  -3.424 -21.865  1.00  0.00     0.000 C 
BRANCH   3   4
ATOM      4  C   UNL     1      16.490  -4.440 -21.410  1.00  0.00     0.000 C 
BRANCH   4   5
ATOM      5  C   UNL     1      17.673  -4.614 -22.381  1.00  0.00     0.000 C 
BRANCH   5   6
ATOM      6  C   UNL     1      18.740  -5.591 -21.854  1.00  0.00     0.000 C 
BRANCH   6   7
ATOM      7  C   UNL     1      20.135  -5.325 -22.457  1.00  0.00     0.000 C 
BRANCH   7   8
ATOM      8  C   UNL     1      20.853  -4.098 -21.862  1.00  0.00     0.000 C 
BRANCH   8   9
ATOM      9  C   UNL     1      21.111  -4.164 -20.349  1.00  0.00     0.000 C 
BRANCH   9  10
ATOM     10  C   UNL     1      20.755  -2.853 -19.624  1.00  0.00     0.000 C 
BRANCH  10  11
ATOM     11  C   UNL     1      19.308  -2.414 -19.909  1.00  0.00     0.000 C 
BRANCH  11  12
ATOM     12  C   UNL     1      18.363  -2.647 -18.711  1.00  0.00     0.000 C 
BRANCH  12  13
ATOM     13  C   UNL     1      18.171  -4.132 -18.348  1.00  0.00     0.006 C 
BRANCH  13  14
ATOM     14  C   UNL     1      16.872  -4.426 -17.576  1.00  0.00     0.053 C 
BRANCH  14  15
ATOM     15  C   UNL     1      16.699  -5.881 -17.255  1.00  0.00     0.041 C 
ATOM     16  O   UNL     1      17.085  -6.338 -16.146  1.00  0.00    -0.550 OA
ATOM     17  O   UNL     1      16.059  -6.721 -18.156  1.00  0.00    -0.550 OA
ENDBRANCH  14  15
ENDBRANCH  13  14
ENDBRANCH  12  13
ENDBRANCH  11  12
ENDBRANCH  10  11
ENDBRANCH   9  10
ENDBRANCH   8   9
ENDBRANCH   7   8
ENDBRANCH   6   7
ENDBRANCH   5   6
ENDBRANCH   4   5
ENDBRANCH   3   4
ENDBRANCH   2   3
ENDBRANCH   1   2
BRANCH   1  18
ATOM     18  C   UNL     1      12.608  -4.654 -19.439  1.00  0.00     0.000 C 
BRANCH  18  19
ATOM     19  C   UNL     1      11.467  -4.603 -20.465  1.00  0.00     0.000 C 
BRANCH  19  20
ATOM     20  C   UNL     1      10.749  -5.953 -20.640  1.00  0.00     0.000 C 
BRANCH  20  21
ATOM     21  C   UNL     1       9.844  -6.061 -21.882  1.00  0.00     0.000 C 
BRANCH  21  22
ATOM     22  C   UNL     1       8.428  -5.470 -21.724  1.00  0.00     0.000 C 
BRANCH  22  23
ATOM     23  C   UNL     1       8.088  -4.351 -22.731  1.00  0.00     0.000 C 
BRANCH  23  24
ATOM     24  C   UNL     1       8.480  -4.706 -24.177  1.00  0.00    -0.000 C 
BRANCH  24  25
ATOM     25  C   UNL     1       9.083  -3.506 -24.932  1.00  0.00    -0.000 C 
BRANCH  25  26
ATOM     26  C   UNL     1      10.564  -3.702 -25.315  1.00  0.00    -0.000 C 
BRANCH  26  27
ATOM     27  C   UNL     1      11.518  -3.310 -24.172  1.00  0.00    -0.000 C 
BRANCH  27  28
ATOM     28  C   UNL     1      12.824  -4.122 -24.187  1.00  0.00    -0.000 C 
BRANCH  28  29
ATOM     29  C   UNL     1      12.581  -5.638 -24.186  1.00  0.00    -0.000 C 
BRANCH  29  30
ATOM     30  C   UNL     1      13.683  -6.367 -23.401  1.00  0.00    -0.000 C 
BRANCH  30  31
ATOM     31  C   UNL     1      13.176  -7.648 -22.720  1.00  0.00    -0.003 C 
ATOM     32  C   UNL     1      14.084  -8.112 -21.582  1.00  0.00     0.004 C 
ENDBRANCH  30  31
ENDBRANCH  29  30
ENDBRANCH  28  29
ENDBRANCH  27  28
ENDBRANCH  26  27
ENDBRANCH  25  26
ENDBRANCH  24  25
ENDBRANCH  23  24
ENDBRANCH  22  23
ENDBRANCH  21  22
ENDBRANCH  20  21
ENDBRANCH  19  20
ENDBRANCH  18  19
ENDBRANCH   1  18
TORSDOF 28
ENDMDL
MODEL 7
REMARK VINA RESULT:    -4.441      3.681      8.946
REMARK INTER + INTRA:         -18.096
REMARK INTER:                 -12.905
REMARK INTRA:                  -5.191
REMARK UNBOUND:                -6.385
REMARK SMILES CCCCCCCCCCCCCCCCCCCCCCCCCCCCCC(=O)[O-]
REMARK SMILES IDX 16 1 17 2 18 3 19 4 20 5 21 6 22 7 23 8 24 9 25 10 26 11
REMARK SMILES IDX 27 12 28 13 29 14 30 15 31 16 32 17 15 18 14 19 13 20 12 21
REMARK SMILES IDX 11 22 10 23 9 24 8 25 7 26 6 27 5 28 4 29 3 30 2 31 1 32
REMARK H PARENT
REMARK Flexibility Score: inf
ROOT
ATOM      1  C   UNL     1      11.538  -4.898 -19.982  1.00  0.00     0.000 C 
ENDROOT
BRANCH   1   2
ATOM      2  C   UNL     1      12.821  -4.063 -20.117  1.00  0.00     0.000 C 
BRANCH   2   3
ATOM      3  C   UNL     1      13.953  -4.559 -19.201  1.00  0.00     0.000 C 
BRANCH   3   4
ATOM      4  C   UNL     1      15.231  -4.921 -19.981  1.00  0.00     0.000 C 
BRANCH   4   5
ATOM      5  C   UNL     1      15.821  -6.302 -19.644  1.00  0.00     0.000 C 
BRANCH   5   6
ATOM      6  C   UNL     1      17.092  -6.214 -18.778  1.00  0.00     0.000 C 
BRANCH   6   7
ATOM      7  C   UNL     1      16.784  -6.293 -17.268  1.00  0.00     0.000 C 
BRANCH   7   8
ATOM      8  C   UNL     1      17.221  -5.047 -16.472  1.00  0.00     0.000 C 
BRANCH   8   9
ATOM      9  C   UNL     1      16.154  -3.950 -16.341  1.00  0.00     0.000 C 
BRANCH   9  10
ATOM     10  C   UNL     1      16.495  -2.685 -17.150  1.00  0.00     0.000 C 
BRANCH  10  11
ATOM     11  C   UNL     1      17.930  -2.728 -17.705  1.00  0.00     0.000 C 
BRANCH  11  12
ATOM     12  C   UNL     1      18.002  -2.404 -19.213  1.00  0.00     0.000 C 
BRANCH  12  13
ATOM     13  C   UNL     1      19.065  -3.217 -19.975  1.00  0.00     0.006 C 
BRANCH  13  14
ATOM     14  C   UNL     1      20.514  -2.890 -19.569  1.00  0.00     0.053 C 
BRANCH  14  15
ATOM     15  C   UNL     1      21.266  -4.088 -19.068  1.00  0.00     0.041 C 
ATOM     16  O   UNL     1      21.202  -4.417 -17.854  1.00  0.00    -0.550 OA
ATOM     17  O   UNL     1      21.991  -4.874 -19.953  1.00  0.00    -0.550 OA
ENDBRANCH  14  15
ENDBRANCH  13  14
ENDBRANCH  12  13
ENDBRANCH  11  12
ENDBRANCH  10  11
ENDBRANCH   9  10
ENDBRANCH   8   9
ENDBRANCH   7   8
ENDBRANCH   6   7
ENDBRANCH   5   6
ENDBRANCH   4   5
ENDBRANCH   3   4
ENDBRANCH   2   3
ENDBRANCH   1   2
BRANCH   1  18
ATOM     18  C   UNL     1      11.788  -6.405 -20.147  1.00  0.00     0.000 C 
BRANCH  18  19
ATOM     19  C   UNL     1      10.814  -7.010 -21.168  1.00  0.00     0.000 C 
BRANCH  19  20
ATOM     20  C   UNL     1      11.506  -7.483 -22.460  1.00  0.00     0.000 C 
BRANCH  20  21
ATOM     21  C   UNL     1      13.045  -7.417 -22.444  1.00  0.00     0.000 C 
BRANCH  21  22
ATOM     22  C   UNL     1      13.683  -6.558 -23.555  1.00  0.00     0.000 C 
BRANCH  22  23
ATOM     23  C   UNL     1      13.455  -5.040 -23.398  1.00  0.00     0.000 C 
BRANCH  23  24
ATOM     24  C   UNL     1      12.733  -4.414 -24.605  1.00  0.00    -0.000 C 
BRANCH  24  25
ATOM     25  C   UNL     1      11.535  -3.543 -24.182  1.00  0.00    -0.000 C 
BRANCH  25  26
ATOM     26  C   UNL     1      10.227  -4.339 -24.008  1.00  0.00    -0.000 C 
BRANCH  26  27
ATOM     27  C   UNL     1       9.518  -4.012 -22.681  1.00  0.00    -0.000 C 
BRANCH  27  28
ATOM     28  C   UNL     1       8.033  -4.411 -22.689  1.00  0.00    -0.000 C 
BRANCH  28  29
ATOM     29  C   UNL     1       7.675  -5.346 -23.853  1.00  0.00    -0.000 C 
BRANCH  29  30
ATOM     30  C   UNL     1       7.335  -6.753 -23.337  1.00  0.00    -0.000 C 
BRANCH  30  31
ATOM     31  C   UNL     1       7.031  -6.773 -21.831  1.00  0.00    -0.003 C 
ATOM     32  C   UNL     1       7.210  -8.158 -21.210  1.00  0.00     0.004 C 
ENDBRANCH  30  31
ENDBRANCH  29  30
ENDBRANCH  28  29
ENDBRANCH  27  28
ENDBRANCH  26  27
ENDBRANCH  25  26
ENDBRANCH  24  25
ENDBRANCH  23  24
ENDBRANCH  22  23
ENDBRANCH  21  22
ENDBRANCH  20  21
ENDBRANCH  19  20
ENDBRANCH  18  19
ENDBRANCH   1  18
TORSDOF 28
ENDMDL
MODEL 8
REMARK VINA RESULT:    -4.415      3.473      8.746
REMARK INTER + INTRA:         -18.026
REMARK INTER:                 -12.131
REMARK INTRA:                  -5.894
REMARK UNBOUND:                -6.385
REMARK SMILES CCCCCCCCCCCCCCCCCCCCCCCCCCCCCC(=O)[O-]
REMARK SMILES IDX 16 1 17 2 18 3 19 4 20 5 21 6 22 7 23 8 24 9 25 10 26 11
REMARK SMILES IDX 27 12 28 13 29 14 30 15 31 16 32 17 15 18 14 19 13 20 12 21
REMARK SMILES IDX 11 22 10 23 9 24 8 25 7 26 6 27 5 28 4 29 3 30 2 31 1 32
REMARK H PARENT
REMARK Flexibility Score: inf
ROOT
ATOM      1  C   UNL     1      13.032  -4.450 -19.537  1.00  0.00     0.000 C 
ENDROOT
BRANCH   1   2
ATOM      2  C   UNL     1      14.446  -3.869 -19.689  1.00  0.00     0.000 C 
BRANCH   2   3
ATOM      3  C   UNL     1      14.715  -3.321 -21.101  1.00  0.00     0.000 C 
BRANCH   3   4
ATOM      4  C   UNL     1      16.108  -3.709 -21.633  1.00  0.00     0.000 C 
BRANCH   4   5
ATOM      5  C   UNL     1      16.114  -4.285 -23.061  1.00  0.00     0.000 C 
BRANCH   5   6
ATOM      6  C   UNL     1      14.762  -4.903 -23.462  1.00  0.00     0.000 C 
BRANCH   6   7
ATOM      7  C   UNL     1      14.766  -6.443 -23.372  1.00  0.00     0.000 C 
BRANCH   7   8
ATOM      8  C   UNL     1      14.403  -6.992 -21.978  1.00  0.00     0.000 C 
BRANCH   8   9
ATOM      9  C   UNL     1      15.595  -7.470 -21.135  1.00  0.00     0.000 C 
BRANCH   9  10
ATOM     10  C   UNL     1      15.171  -8.034 -19.766  1.00  0.00     0.000 C 
BRANCH  10  11
ATOM     11  C   UNL     1      15.708  -7.182 -18.602  1.00  0.00     0.000 C 
BRANCH  11  12
ATOM     12  C   UNL     1      16.962  -6.367 -18.983  1.00  0.00     0.000 C 
BRANCH  12  13
ATOM     13  C   UNL     1      18.074  -6.400 -17.916  1.00  0.00     0.006 C 
BRANCH  13  14
ATOM     14  C   UNL     1      17.686  -5.727 -16.587  1.00  0.00     0.053 C 
BRANCH  14  15
ATOM     15  C   UNL     1      17.256  -4.299 -16.759  1.00  0.00     0.041 C 
ATOM     16  O   UNL     1      18.061  -3.442 -17.211  1.00  0.00    -0.550 OA
ATOM     17  O   UNL     1      15.949  -3.927 -16.474  1.00  0.00    -0.550 OA
ENDBRANCH  14  15
ENDBRANCH  13  14
ENDBRANCH  12  13
ENDBRANCH  11  12
ENDBRANCH  10  11
ENDBRANCH   9  10
ENDBRANCH   8   9
ENDBRANCH   7   8
ENDBRANCH   6   7
ENDBRANCH   5   6
ENDBRANCH   4   5
ENDBRANCH   3   4
ENDBRANCH   2   3
ENDBRANCH   1   2
BRANCH   1  18
ATOM     18  C   UNL     1      12.226  -4.407 -20.843  1.00  0.00     0.000 C 
BRANCH  18  19
ATOM     19  C   UNL     1      10.829  -5.012 -20.642  1.00  0.00     0.000 C 
BRANCH  19  20
ATOM     20  C   UNL     1      10.815  -6.548 -20.734  1.00  0.00     0.000 C 
BRANCH  20  21
ATOM     21  C   UNL     1      10.896  -7.123 -22.161  1.00  0.00     0.000 C 
BRANCH  21  22
ATOM     22  C   UNL     1       9.603  -7.778 -22.688  1.00  0.00     0.000 C 
BRANCH  22  23
ATOM     23  C   UNL     1       8.427  -7.759 -21.690  1.00  0.00     0.000 C 
BRANCH  23  24
ATOM     24  C   UNL     1       7.248  -6.892 -22.169  1.00  0.00    -0.000 C 
BRANCH  24  25
ATOM     25  C   UNL     1       7.324  -5.451 -21.629  1.00  0.00    -0.000 C 
BRANCH  25  26
ATOM     26  C   UNL     1       7.755  -4.419 -22.690  1.00  0.00    -0.000 C 
BRANCH  26  27
ATOM     27  C   UNL     1       7.569  -4.946 -24.125  1.00  0.00    -0.000 C 
BRANCH  27  28
ATOM     28  C   UNL     1       8.757  -4.605 -25.039  1.00  0.00    -0.000 C 
BRANCH  28  29
ATOM     29  C   UNL     1       9.801  -3.715 -24.349  1.00  0.00    -0.000 C 
BRANCH  29  30
ATOM     30  C   UNL     1      11.195  -4.360 -24.411  1.00  0.00    -0.000 C 
BRANCH  30  31
ATOM     31  C   UNL     1      11.323  -5.381 -25.553  1.00  0.00    -0.003 C 
ATOM     32  C   UNL     1      11.963  -4.788 -26.808  1.00  0.00     0.004 C 
ENDBRANCH  30  31
ENDBRANCH  29  30
ENDBRANCH  28  29
ENDBRANCH  27  28
ENDBRANCH  26  27
ENDBRANCH  25  26
ENDBRANCH  24  25
ENDBRANCH  23  24
ENDBRANCH  22  23
ENDBRANCH  21  22
ENDBRANCH  20  21
ENDBRANCH  19  20
ENDBRANCH  18  19
ENDBRANCH   1  18
TORSDOF 28
ENDMDL
MODEL 9
REMARK VINA RESULT:    -4.401      3.333      8.886
REMARK INTER + INTRA:         -17.990
REMARK INTER:                 -12.269
REMARK INTRA:                  -5.721
REMARK UNBOUND:                -6.385
REMARK SMILES CCCCCCCCCCCCCCCCCCCCCCCCCCCCCC(=O)[O-]
REMARK SMILES IDX 16 1 17 2 18 3 19 4 20 5 21 6 22 7 23 8 24 9 25 10 26 11
REMARK SMILES IDX 27 12 28 13 29 14 30 15 31 16 32 17 15 18 14 19 13 20 12 21
REMARK SMILES IDX 11 22 10 23 9 24 8 25 7 26 6 27 5 28 4 29 3 30 2 31 1 32
REMARK H PARENT
REMARK Flexibility Score: inf
ROOT
ATOM      1  C   UNL     1      12.578  -7.570 -21.573  1.00  0.00     0.000 C 
ENDROOT
BRANCH   1   2
ATOM      2  C   UNL     1      11.589  -7.160 -20.471  1.00  0.00     0.000 C 
BRANCH   2   3
ATOM      3  C   UNL     1      11.124  -5.700 -20.604  1.00  0.00     0.000 C 
BRANCH   3   4
ATOM      4  C   UNL     1      11.979  -4.726 -19.772  1.00  0.00     0.000 C 
BRANCH   4   5
ATOM      5  C   UNL     1      12.884  -3.795 -20.600  1.00  0.00     0.000 C 
BRANCH   5   6
ATOM      6  C   UNL     1      14.345  -3.795 -20.114  1.00  0.00     0.000 C 
BRANCH   6   7
ATOM      7  C   UNL     1      14.910  -5.220 -19.936  1.00  0.00     0.000 C 
BRANCH   7   8
ATOM      8  C   UNL     1      15.685  -5.430 -18.621  1.00  0.00     0.000 C 
BRANCH   8   9
ATOM      9  C   UNL     1      15.599  -4.267 -17.621  1.00  0.00     0.000 C 
BRANCH   9  10
ATOM     10  C   UNL     1      16.981  -3.790 -17.139  1.00  0.00     0.000 C 
BRANCH  10  11
ATOM     11  C   UNL     1      17.446  -2.527 -17.886  1.00  0.00     0.000 C 
BRANCH  11  12
ATOM     12  C   UNL     1      18.636  -2.794 -18.833  1.00  0.00     0.000 C 
BRANCH  12  13
ATOM     13  C   UNL     1      18.218  -3.226 -20.252  1.00  0.00     0.006 C 
BRANCH  13  14
ATOM     14  C   UNL     1      18.789  -4.589 -20.684  1.00  0.00     0.053 C 
BRANCH  14  15
ATOM     15  C   UNL     1      19.968  -4.463 -21.605  1.00  0.00     0.041 C 
ATOM     16  O   UNL     1      20.937  -3.719 -21.300  1.00  0.00    -0.550 OA
ATOM     17  O   UNL     1      20.022  -5.214 -22.771  1.00  0.00    -0.550 OA
ENDBRANCH  14  15
ENDBRANCH  13  14
ENDBRANCH  12  13
ENDBRANCH  11  12
ENDBRANCH  10  11
ENDBRANCH   9  10
ENDBRANCH   8   9
ENDBRANCH   7   8
ENDBRANCH   6   7
ENDBRANCH   5   6
ENDBRANCH   4   5
ENDBRANCH   3   4
ENDBRANCH   2   3
ENDBRANCH   1   2
BRANCH   1  18
ATOM     18  C   UNL     1      12.410  -6.751 -22.861  1.00  0.00     0.000 C 
BRANCH  18  19
ATOM     19  C   UNL     1      13.757  -6.172 -23.319  1.00  0.00     0.000 C 
BRANCH  19  20
ATOM     20  C   UNL     1      13.627  -4.793 -23.991  1.00  0.00     0.000 C 
BRANCH  20  21
ATOM     21  C   UNL     1      12.310  -4.555 -24.756  1.00  0.00     0.000 C 
BRANCH  21  22
ATOM     22  C   UNL     1      11.450  -3.381 -24.247  1.00  0.00     0.000 C 
BRANCH  22  23
ATOM     23  C   UNL     1      10.153  -3.806 -23.527  1.00  0.00     0.000 C 
BRANCH  23  24
ATOM     24  C   UNL     1       8.908  -3.706 -24.427  1.00  0.00    -0.000 C 
BRANCH  24  25
ATOM     25  C   UNL     1       7.636  -4.219 -23.725  1.00  0.00    -0.000 C 
BRANCH  25  26
ATOM     26  C   UNL     1       7.909  -4.860 -22.350  1.00  0.00    -0.000 C 
BRANCH  26  27
ATOM     27  C   UNL     1       7.048  -6.114 -22.110  1.00  0.00    -0.000 C 
BRANCH  27  28
ATOM     28  C   UNL     1       7.800  -7.210 -21.338  1.00  0.00    -0.000 C 
BRANCH  28  29
ATOM     29  C   UNL     1       7.934  -8.515 -22.137  1.00  0.00    -0.000 C 
BRANCH  29  30
ATOM     30  C   UNL     1       9.171  -8.473 -23.047  1.00  0.00    -0.000 C 
BRANCH  30  31
ATOM     31  C   UNL     1       8.809  -8.307 -24.531  1.00  0.00    -0.003 C 
ATOM     32  C   UNL     1       9.575  -7.168 -25.204  1.00  0.00     0.004 C 
ENDBRANCH  30  31
ENDBRANCH  29  30
ENDBRANCH  28  29
ENDBRANCH  27  28
ENDBRANCH  26  27
ENDBRANCH  25  26
ENDBRANCH  24  25
ENDBRANCH  23  24
ENDBRANCH  22  23
ENDBRANCH  21  22
ENDBRANCH  20  21
ENDBRANCH  19  20
ENDBRANCH  18  19
ENDBRANCH   1  18
TORSDOF 28
ENDMDL
