MODEL 1
REMARK VINA RESULT:    -6.346      0.000      0.000
REMARK INTER + INTRA:          -7.602
REMARK INTER:                  -7.459
REMARK INTRA:                  -0.143
REMARK UNBOUND:                -0.143
REMARK SMILES O=c1c(O)c(-c2ccc(O)cc2)oc2cc(O)cc(O)c12
REMARK SMILES IDX 5 1 3 2 2 3 1 4 21 5 19 6 18 7 16 8 15 9 14 10 13 11 6 12
REMARK SMILES IDX 7 13 8 14 9 15 12 16 11 17 10 18 4 20 20 22 17 24
REMARK H PARENT 10 19 4 21 20 23 17 25
REMARK Flexibility Score: inf
ROOT
ATOM      1  C   UNL     1      -0.428   1.628  -3.302  1.00  0.00     0.180 A 
ATOM      2  C   UNL     1       0.775   1.100  -3.807  1.00  0.00     0.208 A 
ATOM      3  C   UNL     1       1.203  -0.161  -3.361  1.00  0.00     0.238 A 
ATOM      4  O   UNL     1       2.273  -0.649  -3.815  1.00  0.00    -0.285 OA
ATOM      5  C   UNL     1       0.436  -0.860  -2.406  1.00  0.00     0.111 A 
ATOM      6  C   UNL     1       0.799  -2.131  -1.902  1.00  0.00     0.134 A 
ATOM      7  C   UNL     1      -0.014  -2.759  -0.946  1.00  0.00     0.093 A 
ATOM      8  C   UNL     1      -1.178  -2.141  -0.485  1.00  0.00     0.123 A 
ATOM      9  C   UNL     1      -1.543  -0.884  -0.979  1.00  0.00     0.094 A 
ATOM     10  C   UNL     1      -0.747  -0.244  -1.934  1.00  0.00     0.146 A 
ATOM     11  O   UNL     1      -1.118   0.947  -2.391  1.00  0.00    -0.452 OA
ENDROOT
BRANCH   1  12
ATOM     12  C   UNL     1      -0.956   2.941  -3.736  1.00  0.00     0.021 A 
ATOM     13  C   UNL     1      -1.330   3.175  -5.073  1.00  0.00     0.016 A 
ATOM     14  C   UNL     1      -1.848   4.416  -5.455  1.00  0.00     0.047 A 
ATOM     15  C   UNL     1      -2.012   5.432  -4.509  1.00  0.00     0.115 A 
ATOM     16  C   UNL     1      -1.143   3.961  -2.788  1.00  0.00     0.016 A 
ATOM     17  C   UNL     1      -1.660   5.201  -3.173  1.00  0.00     0.047 A 
BRANCH  15  18
ATOM     18  O   UNL     1      -2.528   6.664  -4.905  1.00  0.00    -0.508 OA
ATOM     19  H   UNL     1      -3.492   6.918  -4.723  1.00  0.00     0.293 HD
ENDBRANCH  15  18
ENDBRANCH   1  12
BRANCH   2  20
ATOM     20  O   UNL     1       1.542   1.834  -4.715  1.00  0.00    -0.502 OA
ATOM     21  H   UNL     1       1.401   2.824  -4.869  1.00  0.00     0.293 HD
ENDBRANCH   2  20
BRANCH   6  22
ATOM     22  O   UNL     1       1.956  -2.776  -2.343  1.00  0.00    -0.507 OA
ATOM     23  H   UNL     1       2.324  -2.631  -3.276  1.00  0.00     0.293 HD
ENDBRANCH   6  22
BRANCH   8  24
ATOM     24  O   UNL     1      -1.967  -2.785   0.466  1.00  0.00    -0.508 OA
ATOM     25  H   UNL     1      -2.778  -3.331   0.200  1.00  0.00     0.293 HD
ENDBRANCH   8  24
TORSDOF 5
ENDMDL
MODEL 2
REMARK VINA RESULT:    -6.173      1.690      3.280
REMARK INTER + INTRA:          -7.398
REMARK INTER:                  -7.172
REMARK INTRA:                  -0.226
REMARK UNBOUND:                -0.143
REMARK SMILES O=c1c(O)c(-c2ccc(O)cc2)oc2cc(O)cc(O)c12
REMARK SMILES IDX 5 1 3 2 2 3 1 4 21 5 19 6 18 7 16 8 15 9 14 10 13 11 6 12
REMARK SMILES IDX 7 13 8 14 9 15 12 16 11 17 10 18 4 20 20 22 17 24
REMARK H PARENT 10 19 4 21 20 23 17 25
REMARK Flexibility Score: inf
ROOT
ATOM      1  C   UNL     1       0.099   0.998  -2.590  1.00  0.00     0.180 A 
ATOM      2  C   UNL     1      -0.806   0.258  -1.806  1.00  0.00     0.208 A 
ATOM      3  C   UNL     1      -0.584  -1.116  -1.627  1.00  0.00     0.238 A 
ATOM      4  O   UNL     1      -1.382  -1.786  -0.918  1.00  0.00    -0.285 OA
ATOM      5  C   UNL     1       0.521  -1.731  -2.251  1.00  0.00     0.111 A 
ATOM      6  C   UNL     1       0.812  -3.110  -2.126  1.00  0.00     0.134 A 
ATOM      7  C   UNL     1       1.927  -3.648  -2.785  1.00  0.00     0.093 A 
ATOM      8  C   UNL     1       2.754  -2.836  -3.566  1.00  0.00     0.123 A 
ATOM      9  C   UNL     1       2.471  -1.473  -3.693  1.00  0.00     0.094 A 
ATOM     10  C   UNL     1       1.366  -0.917  -3.042  1.00  0.00     0.146 A 
ATOM     11  O   UNL     1       1.122   0.382  -3.175  1.00  0.00    -0.452 OA
ENDROOT
BRANCH   1  12
ATOM     12  C   UNL     1      -0.055   2.454  -2.810  1.00  0.00     0.021 A 
ATOM     13  C   UNL     1      -1.043   2.965  -3.671  1.00  0.00     0.016 A 
ATOM     14  C   UNL     1      -1.185   4.345  -3.844  1.00  0.00     0.047 A 
ATOM     15  C   UNL     1      -0.354   5.231  -3.152  1.00  0.00     0.115 A 
ATOM     16  C   UNL     1       0.763   3.351  -2.102  1.00  0.00     0.016 A 
ATOM     17  C   UNL     1       0.620   4.731  -2.278  1.00  0.00     0.047 A 
BRANCH  15  18
ATOM     18  O   UNL     1      -0.506   6.603  -3.335  1.00  0.00    -0.508 OA
ATOM     19  H   UNL     1      -1.379   7.072  -3.126  1.00  0.00     0.293 HD
ENDBRANCH  15  18
ENDBRANCH   1  12
BRANCH   2  20
ATOM     20  O   UNL     1      -1.921   0.881  -1.239  1.00  0.00    -0.502 OA
ATOM     21  H   UNL     1      -1.924   1.860  -0.982  1.00  0.00     0.293 HD
ENDBRANCH   2  20
BRANCH   6  22
ATOM     22  O   UNL     1       0.006  -3.948  -1.353  1.00  0.00    -0.507 OA
ATOM     23  H   UNL     1       0.329  -4.336  -0.475  1.00  0.00     0.293 HD
ENDBRANCH   6  22
BRANCH   8  24
ATOM     24  O   UNL     1       3.855  -3.396  -4.212  1.00  0.00    -0.508 OA
ATOM     25  H   UNL     1       4.235  -2.990  -5.058  1.00  0.00     0.293 HD
ENDBRANCH   8  24
TORSDOF 5
ENDMDL
MODEL 3
REMARK VINA RESULT:    -6.123      2.280      4.062
REMARK INTER + INTRA:          -7.340
REMARK INTER:                  -7.051
REMARK INTRA:                  -0.289
REMARK UNBOUND:                -0.143
REMARK SMILES O=c1c(O)c(-c2ccc(O)cc2)oc2cc(O)cc(O)c12
REMARK SMILES IDX 5 1 3 2 2 3 1 4 21 5 19 6 18 7 16 8 15 9 14 10 13 11 6 12
REMARK SMILES IDX 7 13 8 14 9 15 12 16 11 17 10 18 4 20 20 22 17 24
REMARK H PARENT 10 19 4 21 20 23 17 25
REMARK Flexibility Score: inf
ROOT
ATOM      1  C   UNL     1       0.806  -0.100  -2.725  1.00  0.00     0.180 A 
ATOM      2  C   UNL     1       0.116  -1.275  -2.370  1.00  0.00     0.208 A 
ATOM      3  C   UNL     1       0.806  -2.497  -2.382  1.00  0.00     0.238 A 
ATOM      4  O   UNL     1       0.201  -3.554  -2.055  1.00  0.00    -0.285 OA
ATOM      5  C   UNL     1       2.162  -2.528  -2.768  1.00  0.00     0.111 A 
ATOM      6  C   UNL     1       2.927  -3.718  -2.811  1.00  0.00     0.134 A 
ATOM      7  C   UNL     1       4.270  -3.668  -3.214  1.00  0.00     0.093 A 
ATOM      8  C   UNL     1       4.860  -2.454  -3.575  1.00  0.00     0.123 A 
ATOM      9  C   UNL     1       4.109  -1.275  -3.534  1.00  0.00     0.094 A 
ATOM     10  C   UNL     1       2.770  -1.305  -3.133  1.00  0.00     0.146 A 
ATOM     11  O   UNL     1       2.080  -0.170  -3.098  1.00  0.00    -0.452 OA
ENDROOT
BRANCH   1  12
ATOM     12  C   UNL     1       0.154   1.229  -2.718  1.00  0.00     0.021 A 
ATOM     13  C   UNL     1      -0.558   1.703  -3.836  1.00  0.00     0.016 A 
ATOM     14  C   UNL     1      -1.186   2.951  -3.798  1.00  0.00     0.047 A 
ATOM     15  C   UNL     1      -1.122   3.736  -2.642  1.00  0.00     0.115 A 
ATOM     16  C   UNL     1       0.196   2.015  -1.554  1.00  0.00     0.016 A 
ATOM     17  C   UNL     1      -0.431   3.264  -1.519  1.00  0.00     0.047 A 
BRANCH  15  18
ATOM     18  O   UNL     1      -1.751   4.979  -2.619  1.00  0.00    -0.508 OA
ATOM     19  H   UNL     1      -2.646   5.128  -3.070  1.00  0.00     0.293 HD
ENDBRANCH  15  18
ENDBRANCH   1  12
BRANCH   2  20
ATOM     20  O   UNL     1      -1.241  -1.224  -2.039  1.00  0.00    -0.502 OA
ATOM     21  H   UNL     1      -1.563  -1.074  -1.091  1.00  0.00     0.293 HD
ENDBRANCH   2  20
BRANCH   6  22
ATOM     22  O   UNL     1       2.366  -4.947  -2.457  1.00  0.00    -0.507 OA
ATOM     23  H   UNL     1       2.231  -5.211  -1.488  1.00  0.00     0.293 HD
ENDBRANCH   6  22
BRANCH   8  24
ATOM     24  O   UNL     1       6.195  -2.431  -3.973  1.00  0.00    -0.508 OA
ATOM     25  H   UNL     1       6.939  -2.221  -3.320  1.00  0.00     0.293 HD
ENDBRANCH   8  24
TORSDOF 5
ENDMDL
MODEL 4
REMARK VINA RESULT:    -5.962      2.153      2.897
REMARK INTER + INTRA:          -7.151
REMARK INTER:                  -6.886
REMARK INTRA:                  -0.265
REMARK UNBOUND:                -0.143
REMARK SMILES O=c1c(O)c(-c2ccc(O)cc2)oc2cc(O)cc(O)c12
REMARK SMILES IDX 5 1 3 2 2 3 1 4 21 5 19 6 18 7 16 8 15 9 14 10 13 11 6 12
REMARK SMILES IDX 7 13 8 14 9 15 12 16 11 17 10 18 4 20 20 22 17 24
REMARK H PARENT 10 19 4 21 20 23 17 25
REMARK Flexibility Score: inf
ROOT
ATOM      1  C   UNL     1       1.237  -0.027  -2.849  1.00  0.00     0.180 A 
ATOM      2  C   UNL     1       2.567  -0.092  -3.304  1.00  0.00     0.208 A 
ATOM      3  C   UNL     1       3.202  -1.342  -3.370  1.00  0.00     0.238 A 
ATOM      4  O   UNL     1       4.390  -1.413  -3.787  1.00  0.00    -0.285 OA
ATOM      5  C   UNL     1       2.508  -2.499  -2.961  1.00  0.00     0.111 A 
ATOM      6  C   UNL     1       3.076  -3.794  -2.992  1.00  0.00     0.134 A 
ATOM      7  C   UNL     1       2.323  -4.896  -2.560  1.00  0.00     0.093 A 
ATOM      8  C   UNL     1       1.015  -4.727  -2.098  1.00  0.00     0.123 A 
ATOM      9  C   UNL     1       0.447  -3.449  -2.065  1.00  0.00     0.094 A 
ATOM     10  C   UNL     1       1.182  -2.340  -2.494  1.00  0.00     0.146 A 
ATOM     11  O   UNL     1       0.618  -1.137  -2.457  1.00  0.00    -0.452 OA
ENDROOT
BRANCH   1  12
ATOM     12  C   UNL     1       0.492   1.250  -2.769  1.00  0.00     0.021 A 
ATOM     13  C   UNL     1      -0.450   1.613  -3.750  1.00  0.00     0.016 A 
ATOM     14  C   UNL     1      -1.158   2.813  -3.641  1.00  0.00     0.047 A 
ATOM     15  C   UNL     1      -0.946   3.659  -2.548  1.00  0.00     0.115 A 
ATOM     16  C   UNL     1       0.685   2.096  -1.664  1.00  0.00     0.016 A 
ATOM     17  C   UNL     1      -0.024   3.296  -1.557  1.00  0.00     0.047 A 
BRANCH  15  18
ATOM     18  O   UNL     1      -1.658   4.852  -2.453  1.00  0.00    -0.508 OA
ATOM     19  H   UNL     1      -2.490   4.929  -1.881  1.00  0.00     0.293 HD
ENDBRANCH  15  18
ENDBRANCH   1  12
BRANCH   2  20
ATOM     20  O   UNL     1       3.250   1.075  -3.656  1.00  0.00    -0.502 OA
ATOM     21  H   UNL     1       4.225   1.072  -3.930  1.00  0.00     0.293 HD
ENDBRANCH   2  20
BRANCH   6  22
ATOM     22  O   UNL     1       4.380  -3.996  -3.448  1.00  0.00    -0.507 OA
ATOM     23  H   UNL     1       5.184  -3.827  -2.855  1.00  0.00     0.293 HD
ENDBRANCH   6  22
BRANCH   8  24
ATOM     24  O   UNL     1       0.288  -5.837  -1.672  1.00  0.00    -0.508 OA
ATOM     25  H   UNL     1       0.748  -6.673  -1.335  1.00  0.00     0.293 HD
ENDBRANCH   8  24
TORSDOF 5
ENDMDL
MODEL 5
REMARK VINA RESULT:    -5.859      2.264      3.743
REMARK INTER + INTRA:          -7.029
REMARK INTER:                  -6.875
REMARK INTRA:                  -0.154
REMARK UNBOUND:                -0.143
REMARK SMILES O=c1c(O)c(-c2ccc(O)cc2)oc2cc(O)cc(O)c12
REMARK SMILES IDX 5 1 3 2 2 3 1 4 21 5 19 6 18 7 16 8 15 9 14 10 13 11 6 12
REMARK SMILES IDX 7 13 8 14 9 15 12 16 11 17 10 18 4 20 20 22 17 24
REMARK H PARENT 10 19 4 21 20 23 17 25
REMARK Flexibility Score: inf
ROOT
ATOM      1  C   UNL     1       0.663   3.051  -2.941  1.00  0.00     0.180 A 
ATOM      2  C   UNL     1      -0.481   2.489  -2.343  1.00  0.00     0.208 A 
ATOM      3  C   UNL     1      -0.514   1.105  -2.108  1.00  0.00     0.238 A 
ATOM      4  O   UNL     1      -1.529   0.593  -1.564  1.00  0.00    -0.285 OA
ATOM      5  C   UNL     1       0.582   0.307  -2.493  1.00  0.00     0.111 A 
ATOM      6  C   UNL     1       0.626  -1.094  -2.296  1.00  0.00     0.134 A 
ATOM      7  C   UNL     1       1.751  -1.821  -2.714  1.00  0.00     0.093 A 
ATOM      8  C   UNL     1       2.829  -1.175  -3.324  1.00  0.00     0.123 A 
ATOM      9  C   UNL     1       2.792   0.209  -3.521  1.00  0.00     0.094 A 
ATOM     10  C   UNL     1       1.681   0.950  -3.109  1.00  0.00     0.146 A 
ATOM     11  O   UNL     1       1.672   2.265  -3.304  1.00  0.00    -0.452 OA
ENDROOT
BRANCH   1  12
ATOM     12  C   UNL     1       0.782   4.503  -3.203  1.00  0.00     0.021 A 
ATOM     13  C   UNL     1       0.801   5.439  -2.152  1.00  0.00     0.016 A 
ATOM     14  C   UNL     1       0.938   6.804  -2.424  1.00  0.00     0.047 A 
ATOM     15  C   UNL     1       1.072   7.250  -3.742  1.00  0.00     0.115 A 
ATOM     16  C   UNL     1       0.938   4.957  -4.524  1.00  0.00     0.016 A 
ATOM     17  C   UNL     1       1.074   6.323  -4.792  1.00  0.00     0.047 A 
BRANCH  15  18
ATOM     18  O   UNL     1       1.207   8.612  -3.997  1.00  0.00    -0.508 OA
ATOM     19  H   UNL     1       2.025   8.986  -4.464  1.00  0.00     0.293 HD
ENDBRANCH  15  18
ENDBRANCH   1  12
BRANCH   2  20
ATOM     20  O   UNL     1      -1.575   3.295  -2.017  1.00  0.00    -0.502 OA
ATOM     21  H   UNL     1      -2.439   2.915  -1.651  1.00  0.00     0.293 HD
ENDBRANCH   2  20
BRANCH   6  22
ATOM     22  O   UNL     1      -0.435  -1.768  -1.689  1.00  0.00    -0.507 OA
ATOM     23  H   UNL     1      -0.607  -2.752  -1.858  1.00  0.00     0.293 HD
ENDBRANCH   6  22
BRANCH   8  24
ATOM     24  O   UNL     1       3.934  -1.920  -3.732  1.00  0.00    -0.508 OA
ATOM     25  H   UNL     1       4.830  -1.838  -3.266  1.00  0.00     0.293 HD
ENDBRANCH   8  24
TORSDOF 5
ENDMDL
MODEL 6
REMARK VINA RESULT:    -5.709      1.661      3.601
REMARK INTER + INTRA:          -6.853
REMARK INTER:                  -6.561
REMARK INTRA:                  -0.292
REMARK UNBOUND:                -0.143
REMARK SMILES O=c1c(O)c(-c2ccc(O)cc2)oc2cc(O)cc(O)c12
REMARK SMILES IDX 5 1 3 2 2 3 1 4 21 5 19 6 18 7 16 8 15 9 14 10 13 11 6 12
REMARK SMILES IDX 7 13 8 14 9 15 12 16 11 17 10 18 4 20 20 22 17 24
REMARK H PARENT 10 19 4 21 20 23 17 25
REMARK Flexibility Score: inf
ROOT
ATOM      1  C   UNL     1       0.243   1.405  -3.394  1.00  0.00     0.180 A 
ATOM      2  C   UNL     1      -0.378   0.298  -2.786  1.00  0.00     0.208 A 
ATOM      3  C   UNL     1       0.385  -0.852  -2.527  1.00  0.00     0.238 A 
ATOM      4  O   UNL     1      -0.158  -1.846  -1.973  1.00  0.00    -0.285 OA
ATOM      5  C   UNL     1       1.745  -0.884  -2.899  1.00  0.00     0.111 A 
ATOM      6  C   UNL     1       2.582  -2.003  -2.679  1.00  0.00     0.134 A 
ATOM      7  C   UNL     1       3.924  -1.961  -3.085  1.00  0.00     0.093 A 
ATOM      8  C   UNL     1       4.443  -0.823  -3.707  1.00  0.00     0.123 A 
ATOM      9  C   UNL     1       3.621   0.287  -3.928  1.00  0.00     0.094 A 
ATOM     10  C   UNL     1       2.282   0.264  -3.528  1.00  0.00     0.146 A 
ATOM     11  O   UNL     1       1.524   1.334  -3.744  1.00  0.00    -0.452 OA
ENDROOT
BRANCH   1  12
ATOM     12  C   UNL     1      -0.488   2.659  -3.681  1.00  0.00     0.021 A 
ATOM     13  C   UNL     1      -0.654   3.654  -2.698  1.00  0.00     0.016 A 
ATOM     14  C   UNL     1      -1.329   4.840  -3.000  1.00  0.00     0.047 A 
ATOM     15  C   UNL     1      -1.833   5.056  -4.285  1.00  0.00     0.115 A 
ATOM     16  C   UNL     1      -0.981   2.893  -4.976  1.00  0.00     0.016 A 
ATOM     17  C   UNL     1      -1.656   4.080  -5.274  1.00  0.00     0.047 A 
BRANCH  15  18
ATOM     18  O   UNL     1      -2.504   6.243  -4.571  1.00  0.00    -0.508 OA
ATOM     19  H   UNL     1      -2.581   6.593  -5.519  1.00  0.00     0.293 HD
ENDBRANCH  15  18
ENDBRANCH   1  12
BRANCH   2  20
ATOM     20  O   UNL     1      -1.739   0.336  -2.472  1.00  0.00    -0.502 OA
ATOM     21  H   UNL     1      -2.245  -0.480  -2.150  1.00  0.00     0.293 HD
ENDBRANCH   2  20
BRANCH   6  22
ATOM     22  O   UNL     1       2.093  -3.155  -2.060  1.00  0.00    -0.507 OA
ATOM     23  H   UNL     1       2.540  -4.056  -2.181  1.00  0.00     0.293 HD
ENDBRANCH   6  22
BRANCH   8  24
ATOM     24  O   UNL     1       5.779  -0.806  -4.104  1.00  0.00    -0.508 OA
ATOM     25  H   UNL     1       6.183  -0.003  -4.571  1.00  0.00     0.293 HD
ENDBRANCH   8  24
TORSDOF 5
ENDMDL
MODEL 7
REMARK VINA RESULT:    -5.700      3.809      8.711
REMARK INTER + INTRA:          -6.843
REMARK INTER:                  -6.645
REMARK INTRA:                  -0.197
REMARK UNBOUND:                -0.143
REMARK SMILES O=c1c(O)c(-c2ccc(O)cc2)oc2cc(O)cc(O)c12
REMARK SMILES IDX 5 1 3 2 2 3 1 4 21 5 19 6 18 7 16 8 15 9 14 10 13 11 6 12
REMARK SMILES IDX 7 13 8 14 9 15 12 16 11 17 10 18 4 20 20 22 17 24
REMARK H PARENT 10 19 4 21 20 23 17 25
REMARK Flexibility Score: inf
ROOT
ATOM      1  C   UNL     1      -1.693   6.499  -2.908  1.00  0.00     0.180 A 
ATOM      2  C   UNL     1      -0.621   7.204  -2.329  1.00  0.00     0.208 A 
ATOM      3  C   UNL     1      -0.877   8.436  -1.706  1.00  0.00     0.238 A 
ATOM      4  O   UNL     1       0.073   9.071  -1.174  1.00  0.00    -0.285 OA
ATOM      5  C   UNL     1      -2.190   8.950  -1.692  1.00  0.00     0.111 A 
ATOM      6  C   UNL     1      -2.531  10.184  -1.089  1.00  0.00     0.134 A 
ATOM      7  C   UNL     1      -3.860  10.632  -1.124  1.00  0.00     0.093 A 
ATOM      8  C   UNL     1      -4.851   9.872  -1.748  1.00  0.00     0.123 A 
ATOM      9  C   UNL     1      -4.521   8.651  -2.345  1.00  0.00     0.094 A 
ATOM     10  C   UNL     1      -3.202   8.187  -2.319  1.00  0.00     0.146 A 
ATOM     11  O   UNL     1      -2.915   7.021  -2.889  1.00  0.00    -0.452 OA
ENDROOT
BRANCH   1  12
ATOM     12  C   UNL     1      -1.508   5.186  -3.566  1.00  0.00     0.021 A 
ATOM     13  C   UNL     1      -1.174   4.035  -2.826  1.00  0.00     0.016 A 
ATOM     14  C   UNL     1      -1.028   2.801  -3.467  1.00  0.00     0.047 A 
ATOM     15  C   UNL     1      -1.224   2.696  -4.847  1.00  0.00     0.115 A 
ATOM     16  C   UNL     1      -1.723   5.068  -4.949  1.00  0.00     0.016 A 
ATOM     17  C   UNL     1      -1.575   3.832  -5.587  1.00  0.00     0.047 A 
BRANCH  15  18
ATOM     18  O   UNL     1      -1.073   1.460  -5.471  1.00  0.00    -0.508 OA
ATOM     19  H   UNL     1      -1.482   0.618  -5.085  1.00  0.00     0.293 HD
ENDBRANCH  15  18
ENDBRANCH   1  12
BRANCH   2  20
ATOM     20  O   UNL     1       0.679   6.697  -2.400  1.00  0.00    -0.502 OA
ATOM     21  H   UNL     1       1.427   7.036  -1.808  1.00  0.00     0.293 HD
ENDBRANCH   2  20
BRANCH   6  22
ATOM     22  O   UNL     1      -1.564  10.968  -0.457  1.00  0.00    -0.507 OA
ATOM     23  H   UNL     1      -1.408  11.935  -0.717  1.00  0.00     0.293 HD
ENDBRANCH   6  22
BRANCH   8  24
ATOM     24  O   UNL     1      -6.164  10.339  -1.771  1.00  0.00    -0.508 OA
ATOM     25  H   UNL     1      -6.476  11.009  -2.464  1.00  0.00     0.293 HD
ENDBRANCH   8  24
TORSDOF 5
ENDMDL
MODEL 8
REMARK VINA RESULT:    -5.591      3.112      6.786
REMARK INTER + INTRA:          -6.714
REMARK INTER:                  -6.421
REMARK INTRA:                  -0.294
REMARK UNBOUND:                -0.143
REMARK SMILES O=c1c(O)c(-c2ccc(O)cc2)oc2cc(O)cc(O)c12
REMARK SMILES IDX 5 1 3 2 2 3 1 4 21 5 19 6 18 7 16 8 15 9 14 10 13 11 6 12
REMARK SMILES IDX 7 13 8 14 9 15 12 16 11 17 10 18 4 20 20 22 17 24
REMARK H PARENT 10 19 4 21 20 23 17 25
REMARK Flexibility Score: inf
ROOT
ATOM      1  C   UNL     1       2.421  -0.860  -3.307  1.00  0.00     0.180 A 
ATOM      2  C   UNL     1       1.254  -1.573  -2.974  1.00  0.00     0.208 A 
ATOM      3  C   UNL     1       0.172  -0.879  -2.408  1.00  0.00     0.238 A 
ATOM      4  O   UNL     1      -0.882  -1.506  -2.116  1.00  0.00    -0.285 OA
ATOM      5  C   UNL     1       0.283   0.505  -2.165  1.00  0.00     0.111 A 
ATOM      6  C   UNL     1      -0.757   1.277  -1.595  1.00  0.00     0.134 A 
ATOM      7  C   UNL     1      -0.567   2.649  -1.377  1.00  0.00     0.093 A 
ATOM      8  C   UNL     1       0.641   3.263  -1.717  1.00  0.00     0.123 A 
ATOM      9  C   UNL     1       1.673   2.507  -2.281  1.00  0.00     0.094 A 
ATOM     10  C   UNL     1       1.501   1.138  -2.508  1.00  0.00     0.146 A 
ATOM     11  O   UNL     1       2.495   0.443  -3.050  1.00  0.00    -0.452 OA
ENDROOT
BRANCH   1  12
ATOM     12  C   UNL     1       3.595  -1.516  -3.925  1.00  0.00     0.021 A 
ATOM     13  C   UNL     1       3.761  -1.560  -5.322  1.00  0.00     0.016 A 
ATOM     14  C   UNL     1       4.890  -2.164  -5.881  1.00  0.00     0.047 A 
ATOM     15  C   UNL     1       5.874  -2.719  -5.057  1.00  0.00     0.115 A 
ATOM     16  C   UNL     1       4.598  -2.057  -3.102  1.00  0.00     0.016 A 
ATOM     17  C   UNL     1       5.726  -2.662  -3.665  1.00  0.00     0.047 A 
BRANCH  15  18
ATOM     18  O   UNL     1       6.993  -3.319  -5.628  1.00  0.00    -0.508 OA
ATOM     19  H   UNL     1       7.734  -2.768  -6.047  1.00  0.00     0.293 HD
ENDBRANCH  15  18
ENDBRANCH   1  12
BRANCH   2  20
ATOM     20  O   UNL     1       1.187  -2.954  -3.178  1.00  0.00    -0.502 OA
ATOM     21  H   UNL     1       0.835  -3.591  -2.474  1.00  0.00     0.293 HD
ENDBRANCH   2  20
BRANCH   6  22
ATOM     22  O   UNL     1      -1.976   0.693  -1.244  1.00  0.00    -0.507 OA
ATOM     23  H   UNL     1      -2.021  -0.160  -0.699  1.00  0.00     0.293 HD
ENDBRANCH   6  22
BRANCH   8  24
ATOM     24  O   UNL     1       0.806   4.628  -1.489  1.00  0.00    -0.508 OA
ATOM     25  H   UNL     1       0.970   4.993  -0.559  1.00  0.00     0.293 HD
ENDBRANCH   8  24
TORSDOF 5
ENDMDL
MODEL 9
REMARK VINA RESULT:    -5.503      2.193      3.250
REMARK INTER + INTRA:          -6.611
REMARK INTER:                  -6.343
REMARK INTRA:                  -0.268
REMARK UNBOUND:                -0.143
REMARK SMILES O=c1c(O)c(-c2ccc(O)cc2)oc2cc(O)cc(O)c12
REMARK SMILES IDX 5 1 3 2 2 3 1 4 21 5 19 6 18 7 16 8 15 9 14 10 13 11 6 12
REMARK SMILES IDX 7 13 8 14 9 15 12 16 11 17 10 18 4 20 20 22 17 24
REMARK H PARENT 10 19 4 21 20 23 17 25
REMARK Flexibility Score: inf
ROOT
ATOM      1  C   UNL     1      -0.621   4.125  -3.322  1.00  0.00     0.180 A 
ATOM      2  C   UNL     1      -0.211   3.771  -4.622  1.00  0.00     0.208 A 
ATOM      3  C   UNL     1      -0.127   2.411  -4.961  1.00  0.00     0.238 A 
ATOM      4  O   UNL     1       0.228   2.083  -6.125  1.00  0.00    -0.285 OA
ATOM      5  C   UNL     1      -0.431   1.432  -3.993  1.00  0.00     0.111 A 
ATOM      6  C   UNL     1      -0.367   0.042  -4.251  1.00  0.00     0.134 A 
ATOM      7  C   UNL     1      -0.677  -0.871  -3.232  1.00  0.00     0.093 A 
ATOM      8  C   UNL     1      -1.048  -0.421  -1.963  1.00  0.00     0.123 A 
ATOM      9  C   UNL     1      -1.113   0.951  -1.701  1.00  0.00     0.094 A 
ATOM     10  C   UNL     1      -0.810   1.876  -2.704  1.00  0.00     0.146 A 
ATOM     11  O   UNL     1      -0.885   3.174  -2.431  1.00  0.00    -0.452 OA
ENDROOT
BRANCH   1  12
ATOM     12  C   UNL     1      -0.753   5.536  -2.895  1.00  0.00     0.021 A 
ATOM     13  C   UNL     1      -2.006   6.176  -2.852  1.00  0.00     0.016 A 
ATOM     14  C   UNL     1      -2.109   7.502  -2.422  1.00  0.00     0.047 A 
ATOM     15  C   UNL     1      -0.968   8.201  -2.018  1.00  0.00     0.115 A 
ATOM     16  C   UNL     1       0.386   6.239  -2.467  1.00  0.00     0.016 A 
ATOM     17  C   UNL     1       0.280   7.566  -2.039  1.00  0.00     0.047 A 
BRANCH  15  18
ATOM     18  O   UNL     1      -1.086   9.523  -1.593  1.00  0.00    -0.508 OA
ATOM     19  H   UNL     1      -0.723  10.291  -2.144  1.00  0.00     0.293 HD
ENDBRANCH  15  18
ENDBRANCH   1  12
BRANCH   2  20
ATOM     20  O   UNL     1       0.133   4.760  -5.548  1.00  0.00    -0.502 OA
ATOM     21  H   UNL     1       0.947   5.351  -5.433  1.00  0.00     0.293 HD
ENDBRANCH   2  20
BRANCH   6  22
ATOM     22  O   UNL     1       0.001  -0.439  -5.510  1.00  0.00    -0.507 OA
ATOM     23  H   UNL     1      -0.508  -0.183  -6.347  1.00  0.00     0.293 HD
ENDBRANCH   6  22
BRANCH   8  24
ATOM     24  O   UNL     1      -1.349  -1.348  -0.967  1.00  0.00    -0.508 OA
ATOM     25  H   UNL     1      -0.654  -1.646  -0.293  1.00  0.00     0.293 HD
ENDBRANCH   8  24
TORSDOF 5
ENDMDL
