MODEL 1
REMARK VINA RESULT:    -5.466      0.000      0.000
REMARK INTER + INTRA:          -6.769
REMARK INTER:                  -6.585
REMARK INTRA:                  -0.185
REMARK UNBOUND:                -0.185
REMARK SMILES O=c1c(O)c(-c2ccc(O)c(O)c2)oc2cc(O)cc(O)c12
REMARK SMILES IDX 5 1 3 2 2 3 1 4 22 5 20 6 19 7 17 8 16 9 15 10 14 11 6 12
REMARK SMILES IDX 7 13 8 14 9 15 13 16 11 17 10 18 12 20 4 22 21 24 18 26
REMARK H PARENT 10 19 12 21 4 23 21 25 18 27
REMARK Flexibility Score: inf
ROOT
ATOM      1  C   UNL     1      42.242  11.041  37.039  1.00  0.00     0.180 A 
ATOM      2  C   UNL     1      42.656  11.974  36.069  1.00  0.00     0.208 A 
ATOM      3  C   UNL     1      42.785  11.555  34.736  1.00  0.00     0.238 A 
ATOM      4  O   UNL     1      43.144  12.386  33.857  1.00  0.00    -0.285 OA
ATOM      5  C   UNL     1      42.521  10.212  34.398  1.00  0.00     0.111 A 
ATOM      6  C   UNL     1      42.631   9.709  33.080  1.00  0.00     0.134 A 
ATOM      7  C   UNL     1      42.359   8.356  32.827  1.00  0.00     0.093 A 
ATOM      8  C   UNL     1      41.981   7.498  33.866  1.00  0.00     0.123 A 
ATOM      9  C   UNL     1      41.870   7.991  35.168  1.00  0.00     0.094 A 
ATOM     10  C   UNL     1      42.135   9.335  35.440  1.00  0.00     0.146 A 
ATOM     11  O   UNL     1      42.017   9.778  36.687  1.00  0.00    -0.452 OA
ENDROOT
BRANCH   1  12
ATOM     12  C   UNL     1      42.065  11.410  38.462  1.00  0.00     0.025 A 
ATOM     13  C   UNL     1      41.053  12.310  38.820  1.00  0.00     0.016 A 
ATOM     14  C   UNL     1      40.881  12.686  40.154  1.00  0.00     0.051 A 
ATOM     15  C   UNL     1      41.726  12.187  41.151  1.00  0.00     0.157 A 
ATOM     16  C   UNL     1      42.930  10.923  39.457  1.00  0.00     0.062 A 
ATOM     17  C   UNL     1      42.768  11.299  40.797  1.00  0.00     0.158 A 
BRANCH  15  18
ATOM     18  O   UNL     1      41.498  12.598  42.466  1.00  0.00    -0.504 OA
ATOM     19  H   UNL     1      42.134  12.425  43.230  1.00  0.00     0.293 HD
ENDBRANCH  15  18
BRANCH  17  20
ATOM     20  O   UNL     1      43.663  10.775  41.734  1.00  0.00    -0.504 OA
ATOM     21  H   UNL     1      44.237  11.339  42.343  1.00  0.00     0.293 HD
ENDBRANCH  17  20
ENDBRANCH   1  12
BRANCH   2  22
ATOM     22  O   UNL     1      42.959  13.288  36.438  1.00  0.00    -0.502 OA
ATOM     23  H   UNL     1      42.414  13.799  37.123  1.00  0.00     0.293 HD
ENDBRANCH   2  22
BRANCH   6  24
ATOM     24  O   UNL     1      43.007  10.539  32.024  1.00  0.00    -0.507 OA
ATOM     25  H   UNL     1      43.730  10.270  31.365  1.00  0.00     0.293 HD
ENDBRANCH   6  24
BRANCH   8  26
ATOM     26  O   UNL     1      41.712   6.155  33.616  1.00  0.00    -0.508 OA
ATOM     27  H   UNL     1      41.222   5.578  34.290  1.00  0.00     0.293 HD
ENDBRANCH   8  26
TORSDOF 6
ENDMDL
MODEL 2
REMARK VINA RESULT:    -5.445      2.559      4.820
REMARK INTER + INTRA:          -6.744
REMARK INTER:                  -6.798
REMARK INTRA:                   0.054
REMARK UNBOUND:                -0.185
REMARK SMILES O=c1c(O)c(-c2ccc(O)c(O)c2)oc2cc(O)cc(O)c12
REMARK SMILES IDX 5 1 3 2 2 3 1 4 22 5 20 6 19 7 17 8 16 9 15 10 14 11 6 12
REMARK SMILES IDX 7 13 8 14 9 15 13 16 11 17 10 18 12 20 4 22 21 24 18 26
REMARK H PARENT 10 19 12 21 4 23 21 25 18 27
REMARK Flexibility Score: inf
ROOT
ATOM      1  C   UNL     1      42.092  10.408  36.796  1.00  0.00     0.180 A 
ATOM      2  C   UNL     1      42.540  10.238  35.473  1.00  0.00     0.208 A 
ATOM      3  C   UNL     1      42.742  11.374  34.673  1.00  0.00     0.238 A 
ATOM      4  O   UNL     1      43.153  11.233  33.488  1.00  0.00    -0.285 OA
ATOM      5  C   UNL     1      42.473  12.653  35.198  1.00  0.00     0.111 A 
ATOM      6  C   UNL     1      42.647  13.848  34.458  1.00  0.00     0.134 A 
ATOM      7  C   UNL     1      42.349  15.084  35.051  1.00  0.00     0.093 A 
ATOM      8  C   UNL     1      41.881  15.148  36.369  1.00  0.00     0.123 A 
ATOM      9  C   UNL     1      41.709  13.973  37.103  1.00  0.00     0.094 A 
ATOM     10  C   UNL     1      42.002  12.732  36.531  1.00  0.00     0.146 A 
ATOM     11  O   UNL     1      41.834  11.631  37.254  1.00  0.00    -0.452 OA
ENDROOT
BRANCH   1  12
ATOM     12  C   UNL     1      41.873   9.262  37.707  1.00  0.00     0.025 A 
ATOM     13  C   UNL     1      41.113   8.169  37.271  1.00  0.00     0.016 A 
ATOM     14  C   UNL     1      40.878   7.087  38.121  1.00  0.00     0.051 A 
ATOM     15  C   UNL     1      41.383   7.081  39.426  1.00  0.00     0.157 A 
ATOM     16  C   UNL     1      42.362   9.271  39.025  1.00  0.00     0.062 A 
ATOM     17  C   UNL     1      42.128   8.192  39.886  1.00  0.00     0.158 A 
BRANCH  15  18
ATOM     18  O   UNL     1      41.117   5.966  40.224  1.00  0.00    -0.504 OA
ATOM     19  H   UNL     1      40.577   5.998  41.076  1.00  0.00     0.293 HD
ENDBRANCH  15  18
BRANCH  17  20
ATOM     20  O   UNL     1      42.646   8.267  41.182  1.00  0.00    -0.504 OA
ATOM     21  H   UNL     1      42.309   7.716  41.958  1.00  0.00     0.293 HD
ENDBRANCH  17  20
ENDBRANCH   1  12
BRANCH   2  22
ATOM     22  O   UNL     1      42.751   8.955  34.959  1.00  0.00    -0.502 OA
ATOM     23  H   UNL     1      42.839   8.140  35.555  1.00  0.00     0.293 HD
ENDBRANCH   2  22
BRANCH   6  24
ATOM     24  O   UNL     1      43.110  13.815  33.143  1.00  0.00    -0.507 OA
ATOM     25  H   UNL     1      42.800  13.109  32.485  1.00  0.00     0.293 HD
ENDBRANCH   6  24
BRANCH   8  26
ATOM     26  O   UNL     1      41.584  16.374  36.957  1.00  0.00    -0.508 OA
ATOM     27  H   UNL     1      40.850  16.466  37.651  1.00  0.00     0.293 HD
ENDBRANCH   8  26
TORSDOF 6
ENDMDL
MODEL 3
REMARK VINA RESULT:    -5.390      2.836      7.294
REMARK INTER + INTRA:          -6.677
REMARK INTER:                  -6.438
REMARK INTRA:                  -0.240
REMARK UNBOUND:                -0.185
REMARK SMILES O=c1c(O)c(-c2ccc(O)c(O)c2)oc2cc(O)cc(O)c12
REMARK SMILES IDX 5 1 3 2 2 3 1 4 22 5 20 6 19 7 17 8 16 9 15 10 14 11 6 12
REMARK SMILES IDX 7 13 8 14 9 15 13 16 11 17 10 18 12 20 4 22 21 24 18 26
REMARK H PARENT 10 19 12 21 4 23 21 25 18 27
REMARK Flexibility Score: inf
ROOT
ATOM      1  C   UNL     1      42.553  13.600  35.769  1.00  0.00     0.180 A 
ATOM      2  C   UNL     1      42.359  14.875  35.203  1.00  0.00     0.208 A 
ATOM      3  C   UNL     1      42.128  15.967  36.055  1.00  0.00     0.238 A 
ATOM      4  O   UNL     1      41.964  17.115  35.558  1.00  0.00    -0.285 OA
ATOM      5  C   UNL     1      42.074  15.765  37.448  1.00  0.00     0.111 A 
ATOM      6  C   UNL     1      41.842  16.811  38.374  1.00  0.00     0.134 A 
ATOM      7  C   UNL     1      41.794  16.527  39.747  1.00  0.00     0.093 A 
ATOM      8  C   UNL     1      41.972  15.218  40.211  1.00  0.00     0.123 A 
ATOM      9  C   UNL     1      42.201  14.184  39.302  1.00  0.00     0.094 A 
ATOM     10  C   UNL     1      42.255  14.447  37.930  1.00  0.00     0.146 A 
ATOM     11  O   UNL     1      42.480  13.445  37.088  1.00  0.00    -0.452 OA
ENDROOT
BRANCH   1  12
ATOM     12  C   UNL     1      42.819  12.403  34.939  1.00  0.00     0.025 A 
ATOM     13  C   UNL     1      41.864  11.380  34.878  1.00  0.00     0.016 A 
ATOM     14  C   UNL     1      42.104  10.234  34.117  1.00  0.00     0.051 A 
ATOM     15  C   UNL     1      43.306  10.079  33.418  1.00  0.00     0.157 A 
ATOM     16  C   UNL     1      44.038  12.242  34.257  1.00  0.00     0.062 A 
ATOM     17  C   UNL     1      44.289  11.094  33.495  1.00  0.00     0.158 A 
BRANCH  15  18
ATOM     18  O   UNL     1      43.482   8.912  32.672  1.00  0.00    -0.504 OA
ATOM     19  H   UNL     1      44.380   8.489  32.490  1.00  0.00     0.293 HD
ENDBRANCH  15  18
BRANCH  17  20
ATOM     20  O   UNL     1      45.520  11.001  32.842  1.00  0.00    -0.504 OA
ATOM     21  H   UNL     1      46.413  11.083  33.305  1.00  0.00     0.293 HD
ENDBRANCH  17  20
ENDBRANCH   1  12
BRANCH   2  22
ATOM     22  O   UNL     1      42.368  15.040  33.816  1.00  0.00    -0.502 OA
ATOM     23  H   UNL     1      41.667  14.623  33.214  1.00  0.00     0.293 HD
ENDBRANCH   2  22
BRANCH   6  24
ATOM     24  O   UNL     1      41.660  18.125  37.942  1.00  0.00    -0.507 OA
ATOM     25  H   UNL     1      40.800  18.427  37.498  1.00  0.00     0.293 HD
ENDBRANCH   6  24
BRANCH   8  26
ATOM     26  O   UNL     1      41.923  14.936  41.574  1.00  0.00    -0.508 OA
ATOM     27  H   UNL     1      42.766  14.859  42.130  1.00  0.00     0.293 HD
ENDBRANCH   8  26
TORSDOF 6
ENDMDL
MODEL 4
REMARK VINA RESULT:    -5.194      1.336      2.968
REMARK INTER + INTRA:          -6.441
REMARK INTER:                  -6.128
REMARK INTRA:                  -0.313
REMARK UNBOUND:                -0.185
REMARK SMILES O=c1c(O)c(-c2ccc(O)c(O)c2)oc2cc(O)cc(O)c12
REMARK SMILES IDX 5 1 3 2 2 3 1 4 22 5 20 6 19 7 17 8 16 9 15 10 14 11 6 12
REMARK SMILES IDX 7 13 8 14 9 15 13 16 11 17 10 18 12 20 4 22 21 24 18 26
REMARK H PARENT 10 19 12 21 4 23 21 25 18 27
REMARK Flexibility Score: inf
ROOT
ATOM      1  C   UNL     1      41.965  10.083  37.750  1.00  0.00     0.180 A 
ATOM      2  C   UNL     1      41.413   8.797  37.900  1.00  0.00     0.208 A 
ATOM      3  C   UNL     1      41.387   7.935  36.792  1.00  0.00     0.238 A 
ATOM      4  O   UNL     1      40.904   6.777  36.919  1.00  0.00    -0.285 OA
ATOM      5  C   UNL     1      41.891   8.379  35.553  1.00  0.00     0.111 A 
ATOM      6  C   UNL     1      41.898   7.575  34.387  1.00  0.00     0.134 A 
ATOM      7  C   UNL     1      42.409   8.093  33.188  1.00  0.00     0.093 A 
ATOM      8  C   UNL     1      42.913   9.398  33.132  1.00  0.00     0.123 A 
ATOM      9  C   UNL     1      42.908  10.194  34.280  1.00  0.00     0.094 A 
ATOM     10  C   UNL     1      42.405   9.695  35.484  1.00  0.00     0.146 A 
ATOM     11  O   UNL     1      42.417  10.473  36.561  1.00  0.00    -0.452 OA
ENDROOT
BRANCH   1  12
ATOM     12  C   UNL     1      42.045  11.042  38.875  1.00  0.00     0.025 A 
ATOM     13  C   UNL     1      41.121  12.091  38.955  1.00  0.00     0.016 A 
ATOM     14  C   UNL     1      41.191  13.018  39.997  1.00  0.00     0.051 A 
ATOM     15  C   UNL     1      42.193  12.925  40.969  1.00  0.00     0.157 A 
ATOM     16  C   UNL     1      43.068  10.958  39.837  1.00  0.00     0.062 A 
ATOM     17  C   UNL     1      43.148  11.885  40.883  1.00  0.00     0.158 A 
BRANCH  15  18
ATOM     18  O   UNL     1      42.205  13.880  41.988  1.00  0.00    -0.504 OA
ATOM     19  H   UNL     1      41.504  14.598  42.097  1.00  0.00     0.293 HD
ENDBRANCH  15  18
BRANCH  17  20
ATOM     20  O   UNL     1      44.188  11.740  41.804  1.00  0.00    -0.504 OA
ATOM     21  H   UNL     1      44.051  11.606  42.795  1.00  0.00     0.293 HD
ENDBRANCH  17  20
ENDBRANCH   1  12
BRANCH   2  22
ATOM     22  O   UNL     1      40.875   8.399  39.127  1.00  0.00    -0.502 OA
ATOM     23  H   UNL     1      40.834   9.018  39.929  1.00  0.00     0.293 HD
ENDBRANCH   2  22
BRANCH   6  24
ATOM     24  O   UNL     1      41.402   6.271  34.412  1.00  0.00    -0.507 OA
ATOM     25  H   UNL     1      41.989   5.473  34.195  1.00  0.00     0.293 HD
ENDBRANCH   6  24
BRANCH   8  26
ATOM     26  O   UNL     1      43.419   9.913  31.942  1.00  0.00    -0.508 OA
ATOM     27  H   UNL     1      42.852  10.486  31.328  1.00  0.00     0.293 HD
ENDBRANCH   8  26
TORSDOF 6
ENDMDL
MODEL 5
REMARK VINA RESULT:    -5.192      2.123      6.619
REMARK INTER + INTRA:          -6.438
REMARK INTER:                  -6.619
REMARK INTRA:                   0.180
REMARK UNBOUND:                -0.185
REMARK SMILES O=c1c(O)c(-c2ccc(O)c(O)c2)oc2cc(O)cc(O)c12
REMARK SMILES IDX 5 1 3 2 2 3 1 4 22 5 20 6 19 7 17 8 16 9 15 10 14 11 6 12
REMARK SMILES IDX 7 13 8 14 9 15 13 16 11 17 10 18 12 20 4 22 21 24 18 26
REMARK H PARENT 10 19 12 21 4 23 21 25 18 27
REMARK Flexibility Score: inf
ROOT
ATOM      1  C   UNL     1      42.215  10.657  37.142  1.00  0.00     0.180 A 
ATOM      2  C   UNL     1      41.588   9.401  37.032  1.00  0.00     0.208 A 
ATOM      3  C   UNL     1      41.446   8.610  38.182  1.00  0.00     0.238 A 
ATOM      4  O   UNL     1      40.875   7.488  38.096  1.00  0.00    -0.285 OA
ATOM      5  C   UNL     1      41.951   9.074  39.414  1.00  0.00     0.111 A 
ATOM      6  C   UNL     1      41.853   8.336  40.618  1.00  0.00     0.134 A 
ATOM      7  C   UNL     1      42.389   8.864  41.803  1.00  0.00     0.093 A 
ATOM      8  C   UNL     1      43.021  10.113  41.805  1.00  0.00     0.123 A 
ATOM      9  C   UNL     1      43.119  10.843  40.619  1.00  0.00     0.094 A 
ATOM     10  C   UNL     1      42.590  10.336  39.430  1.00  0.00     0.146 A 
ATOM     11  O   UNL     1      42.693  11.055  38.317  1.00  0.00    -0.452 OA
ENDROOT
BRANCH   1  12
ATOM     12  C   UNL     1      42.386  11.557  35.978  1.00  0.00     0.025 A 
ATOM     13  C   UNL     1      42.192  12.935  36.138  1.00  0.00     0.016 A 
ATOM     14  C   UNL     1      42.328  13.799  35.050  1.00  0.00     0.051 A 
ATOM     15  C   UNL     1      42.644  13.303  33.780  1.00  0.00     0.157 A 
ATOM     16  C   UNL     1      42.681  11.052  34.700  1.00  0.00     0.062 A 
ATOM     17  C   UNL     1      42.815  11.911  33.602  1.00  0.00     0.158 A 
BRANCH  15  18
ATOM     18  O   UNL     1      42.772  14.221  32.735  1.00  0.00    -0.504 OA
ATOM     19  H   UNL     1      42.859  13.961  31.764  1.00  0.00     0.293 HD
ENDBRANCH  15  18
BRANCH  17  20
ATOM     20  O   UNL     1      43.111  11.341  32.361  1.00  0.00    -0.504 OA
ATOM     21  H   UNL     1      42.664  10.512  31.999  1.00  0.00     0.293 HD
ENDBRANCH  17  20
ENDBRANCH   1  12
BRANCH   2  22
ATOM     22  O   UNL     1      41.140   8.943  35.789  1.00  0.00    -0.502 OA
ATOM     23  H   UNL     1      41.681   8.305  35.219  1.00  0.00     0.293 HD
ENDBRANCH   2  22
BRANCH   6  24
ATOM     24  O   UNL     1      41.229   7.089  40.647  1.00  0.00    -0.507 OA
ATOM     25  H   UNL     1      40.226   6.996  40.759  1.00  0.00     0.293 HD
ENDBRANCH   6  24
BRANCH   8  26
ATOM     26  O   UNL     1      43.555  10.636  42.979  1.00  0.00    -0.508 OA
ATOM     27  H   UNL     1      44.525  10.922  43.040  1.00  0.00     0.293 HD
ENDBRANCH   8  26
TORSDOF 6
ENDMDL
MODEL 6
REMARK VINA RESULT:    -5.189      1.571      3.244
REMARK INTER + INTRA:          -6.435
REMARK INTER:                  -6.402
REMARK INTRA:                  -0.033
REMARK UNBOUND:                -0.185
REMARK SMILES O=c1c(O)c(-c2ccc(O)c(O)c2)oc2cc(O)cc(O)c12
REMARK SMILES IDX 5 1 3 2 2 3 1 4 22 5 20 6 19 7 17 8 16 9 15 10 14 11 6 12
REMARK SMILES IDX 7 13 8 14 9 15 13 16 11 17 10 18 12 20 4 22 21 24 18 26
REMARK H PARENT 10 19 12 21 4 23 21 25 18 27
REMARK Flexibility Score: inf
ROOT
ATOM      1  C   UNL     1      41.971  10.197  37.793  1.00  0.00     0.180 A 
ATOM      2  C   UNL     1      41.827   8.965  37.127  1.00  0.00     0.208 A 
ATOM      3  C   UNL     1      41.999   8.922  35.735  1.00  0.00     0.238 A 
ATOM      4  O   UNL     1      41.883   7.821  35.130  1.00  0.00    -0.285 OA
ATOM      5  C   UNL     1      42.289  10.108  35.031  1.00  0.00     0.111 A 
ATOM      6  C   UNL     1      42.473  10.151  33.628  1.00  0.00     0.134 A 
ATOM      7  C   UNL     1      42.751  11.375  33.000  1.00  0.00     0.093 A 
ATOM      8  C   UNL     1      42.847  12.554  33.748  1.00  0.00     0.123 A 
ATOM      9  C   UNL     1      42.667  12.516  35.132  1.00  0.00     0.094 A 
ATOM     10  C   UNL     1      42.392  11.307  35.776  1.00  0.00     0.146 A 
ATOM     11  O   UNL     1      42.230  11.299  37.095  1.00  0.00    -0.452 OA
ENDROOT
BRANCH   1  12
ATOM     12  C   UNL     1      41.823  10.321  39.261  1.00  0.00     0.025 A 
ATOM     13  C   UNL     1      41.013  11.333  39.790  1.00  0.00     0.016 A 
ATOM     14  C   UNL     1      40.875  11.479  41.172  1.00  0.00     0.051 A 
ATOM     15  C   UNL     1      41.556  10.630  42.051  1.00  0.00     0.157 A 
ATOM     16  C   UNL     1      42.527   9.480  40.141  1.00  0.00     0.062 A 
ATOM     17  C   UNL     1      42.398   9.622  41.528  1.00  0.00     0.158 A 
BRANCH  15  18
ATOM     18  O   UNL     1      41.371  10.826  43.422  1.00  0.00    -0.504 OA
ATOM     19  H   UNL     1      40.629  10.400  43.957  1.00  0.00     0.293 HD
ENDBRANCH  15  18
BRANCH  17  20
ATOM     20  O   UNL     1      43.125   8.750  42.343  1.00  0.00    -0.504 OA
ATOM     21  H   UNL     1      43.578   7.911  42.010  1.00  0.00     0.293 HD
ENDBRANCH  17  20
ENDBRANCH   1  12
BRANCH   2  22
ATOM     22  O   UNL     1      41.491   7.812  37.842  1.00  0.00    -0.502 OA
ATOM     23  H   UNL     1      42.154   7.064  38.009  1.00  0.00     0.293 HD
ENDBRANCH   2  22
BRANCH   6  24
ATOM     24  O   UNL     1      42.382   8.993  32.856  1.00  0.00    -0.507 OA
ATOM     25  H   UNL     1      41.742   8.243  33.093  1.00  0.00     0.293 HD
ENDBRANCH   6  24
BRANCH   8  26
ATOM     26  O   UNL     1      43.122  13.769  33.125  1.00  0.00    -0.508 OA
ATOM     27  H   UNL     1      43.368  14.594  33.659  1.00  0.00     0.293 HD
ENDBRANCH   8  26
TORSDOF 6
ENDMDL
MODEL 7
REMARK VINA RESULT:    -5.184      2.991      3.807
REMARK INTER + INTRA:          -6.430
REMARK INTER:                  -6.106
REMARK INTRA:                  -0.323
REMARK UNBOUND:                -0.185
REMARK SMILES O=c1c(O)c(-c2ccc(O)c(O)c2)oc2cc(O)cc(O)c12
REMARK SMILES IDX 5 1 3 2 2 3 1 4 22 5 20 6 19 7 17 8 16 9 15 10 14 11 6 12
REMARK SMILES IDX 7 13 8 14 9 15 13 16 11 17 10 18 12 20 4 22 21 24 18 26
REMARK H PARENT 10 19 12 21 4 23 21 25 18 27
REMARK Flexibility Score: inf
ROOT
ATOM      1  C   UNL     1      42.398  12.803  35.616  1.00  0.00     0.180 A 
ATOM      2  C   UNL     1      42.988  12.532  34.366  1.00  0.00     0.208 A 
ATOM      3  C   UNL     1      43.024  11.207  33.905  1.00  0.00     0.238 A 
ATOM      4  O   UNL     1      43.540  10.955  32.782  1.00  0.00    -0.285 OA
ATOM      5  C   UNL     1      42.492  10.176  34.706  1.00  0.00     0.111 A 
ATOM      6  C   UNL     1      42.493   8.815  34.317  1.00  0.00     0.134 A 
ATOM      7  C   UNL     1      41.951   7.846  35.175  1.00  0.00     0.093 A 
ATOM      8  C   UNL     1      41.411   8.212  36.414  1.00  0.00     0.123 A 
ATOM      9  C   UNL     1      41.408   9.553  36.801  1.00  0.00     0.094 A 
ATOM     10  C   UNL     1      41.941  10.534  35.959  1.00  0.00     0.146 A 
ATOM     11  O   UNL     1      41.920  11.803  36.351  1.00  0.00    -0.452 OA
ENDROOT
BRANCH   1  12
ATOM     12  C   UNL     1      42.306  14.176  36.162  1.00  0.00     0.025 A 
ATOM     13  C   UNL     1      41.182  14.961  35.869  1.00  0.00     0.016 A 
ATOM     14  C   UNL     1      41.084  16.265  36.358  1.00  0.00     0.051 A 
ATOM     15  C   UNL     1      42.110  16.816  37.133  1.00  0.00     0.157 A 
ATOM     16  C   UNL     1      43.349  14.734  36.921  1.00  0.00     0.062 A 
ATOM     17  C   UNL     1      43.261  16.043  37.411  1.00  0.00     0.158 A 
BRANCH  15  18
ATOM     18  O   UNL     1      41.948  18.124  37.596  1.00  0.00    -0.504 OA
ATOM     19  H   UNL     1      41.861  18.370  38.570  1.00  0.00     0.293 HD
ENDBRANCH  15  18
BRANCH  17  20
ATOM     20  O   UNL     1      44.334  16.532  38.160  1.00  0.00    -0.504 OA
ATOM     21  H   UNL     1      44.308  17.389  38.693  1.00  0.00     0.293 HD
ENDBRANCH  17  20
ENDBRANCH   1  12
BRANCH   2  22
ATOM     22  O   UNL     1      43.552  13.566  33.614  1.00  0.00    -0.502 OA
ATOM     23  H   UNL     1      44.254  14.192  33.992  1.00  0.00     0.293 HD
ENDBRANCH   2  22
BRANCH   6  24
ATOM     24  O   UNL     1      43.025   8.419  33.090  1.00  0.00    -0.507 OA
ATOM     25  H   UNL     1      43.747   7.711  33.025  1.00  0.00     0.293 HD
ENDBRANCH   6  24
BRANCH   8  26
ATOM     26  O   UNL     1      40.875   7.251  37.267  1.00  0.00    -0.508 OA
ATOM     27  H   UNL     1      40.764   6.287  36.975  1.00  0.00     0.293 HD
ENDBRANCH   8  26
TORSDOF 6
ENDMDL
MODEL 8
REMARK VINA RESULT:    -5.145      1.798      6.829
REMARK INTER + INTRA:          -6.382
REMARK INTER:                  -6.059
REMARK INTRA:                  -0.323
REMARK UNBOUND:                -0.185
REMARK SMILES O=c1c(O)c(-c2ccc(O)c(O)c2)oc2cc(O)cc(O)c12
REMARK SMILES IDX 5 1 3 2 2 3 1 4 22 5 20 6 19 7 17 8 16 9 15 10 14 11 6 12
REMARK SMILES IDX 7 13 8 14 9 15 13 16 11 17 10 18 12 20 4 22 21 24 18 26
REMARK H PARENT 10 19 12 21 4 23 21 25 18 27
REMARK Flexibility Score: inf
ROOT
ATOM      1  C   UNL     1      42.226  12.216  36.520  1.00  0.00     0.180 A 
ATOM      2  C   UNL     1      41.806  13.560  36.558  1.00  0.00     0.208 A 
ATOM      3  C   UNL     1      41.497  14.139  37.798  1.00  0.00     0.238 A 
ATOM      4  O   UNL     1      41.130  15.346  37.844  1.00  0.00    -0.285 OA
ATOM      5  C   UNL     1      41.591  13.365  38.972  1.00  0.00     0.111 A 
ATOM      6  C   UNL     1      41.293  13.872  40.260  1.00  0.00     0.134 A 
ATOM      7  C   UNL     1      41.403  13.034  41.380  1.00  0.00     0.093 A 
ATOM      8  C   UNL     1      41.803  11.700  41.236  1.00  0.00     0.123 A 
ATOM      9  C   UNL     1      42.097  11.197  39.968  1.00  0.00     0.094 A 
ATOM     10  C   UNL     1      41.997  12.016  38.840  1.00  0.00     0.146 A 
ATOM     11  O   UNL     1      42.288  11.512  37.646  1.00  0.00    -0.452 OA
ENDROOT
BRANCH   1  12
ATOM     12  C   UNL     1      42.587  11.540  35.253  1.00  0.00     0.025 A 
ATOM     13  C   UNL     1      41.657  10.695  34.633  1.00  0.00     0.016 A 
ATOM     14  C   UNL     1      41.985  10.032  33.448  1.00  0.00     0.051 A 
ATOM     15  C   UNL     1      43.250  10.186  32.870  1.00  0.00     0.157 A 
ATOM     16  C   UNL     1      43.867  11.679  34.688  1.00  0.00     0.062 A 
ATOM     17  C   UNL     1      44.206  11.014  33.503  1.00  0.00     0.158 A 
BRANCH  15  18
ATOM     18  O   UNL     1      43.512   9.500  31.682  1.00  0.00    -0.504 OA
ATOM     19  H   UNL     1      43.024   9.666  30.815  1.00  0.00     0.293 HD
ENDBRANCH  15  18
BRANCH  17  20
ATOM     20  O   UNL     1      45.494  11.200  32.997  1.00  0.00    -0.504 OA
ATOM     21  H   UNL     1      46.297  11.431  33.565  1.00  0.00     0.293 HD
ENDBRANCH  17  20
ENDBRANCH   1  12
BRANCH   2  22
ATOM     22  O   UNL     1      41.674  14.291  35.374  1.00  0.00    -0.502 OA
ATOM     23  H   UNL     1      42.065  13.975  34.494  1.00  0.00     0.293 HD
ENDBRANCH   2  22
BRANCH   6  24
ATOM     24  O   UNL     1      40.891  15.196  40.435  1.00  0.00    -0.507 OA
ATOM     25  H   UNL     1      39.953  15.504  40.206  1.00  0.00     0.293 HD
ENDBRANCH   6  24
BRANCH   8  26
ATOM     26  O   UNL     1      41.910  10.868  42.347  1.00  0.00    -0.508 OA
ATOM     27  H   UNL     1      42.790  10.434  42.601  1.00  0.00     0.293 HD
ENDBRANCH   8  26
TORSDOF 6
ENDMDL
MODEL 9
REMARK VINA RESULT:    -5.063      2.069      7.389
REMARK INTER + INTRA:          -6.284
REMARK INTER:                  -6.492
REMARK INTRA:                   0.208
REMARK UNBOUND:                -0.185
REMARK SMILES O=c1c(O)c(-c2ccc(O)c(O)c2)oc2cc(O)cc(O)c12
REMARK SMILES IDX 5 1 3 2 2 3 1 4 22 5 20 6 19 7 17 8 16 9 15 10 14 11 6 12
REMARK SMILES IDX 7 13 8 14 9 15 13 16 11 17 10 18 12 20 4 22 21 24 18 26
REMARK H PARENT 10 19 12 21 4 23 21 25 18 27
REMARK Flexibility Score: inf
ROOT
ATOM      1  C   UNL     1      42.081   9.480  38.021  1.00  0.00     0.180 A 
ATOM      2  C   UNL     1      41.514   8.419  38.752  1.00  0.00     0.208 A 
ATOM      3  C   UNL     1      41.625   8.423  40.151  1.00  0.00     0.238 A 
ATOM      4  O   UNL     1      41.111   7.482  40.817  1.00  0.00    -0.285 OA
ATOM      5  C   UNL     1      42.316   9.470  40.793  1.00  0.00     0.111 A 
ATOM      6  C   UNL     1      42.477   9.547  42.197  1.00  0.00     0.134 A 
ATOM      7  C   UNL     1      43.187  10.619  42.759  1.00  0.00     0.093 A 
ATOM      8  C   UNL     1      43.740  11.614  41.944  1.00  0.00     0.123 A 
ATOM      9  C   UNL     1      43.583  11.542  40.558  1.00  0.00     0.094 A 
ATOM     10  C   UNL     1      42.877  10.484  39.980  1.00  0.00     0.146 A 
ATOM     11  O   UNL     1      42.739  10.444  38.659  1.00  0.00    -0.452 OA
ENDROOT
BRANCH   1  12
ATOM     12  C   UNL     1      41.989   9.557  36.545  1.00  0.00     0.025 A 
ATOM     13  C   UNL     1      41.797  10.800  35.930  1.00  0.00     0.016 A 
ATOM     14  C   UNL     1      41.689  10.893  34.541  1.00  0.00     0.051 A 
ATOM     15  C   UNL     1      41.753   9.746  33.742  1.00  0.00     0.157 A 
ATOM     16  C   UNL     1      42.032   8.399  35.748  1.00  0.00     0.062 A 
ATOM     17  C   UNL     1      41.920   8.482  34.355  1.00  0.00     0.158 A 
BRANCH  15  18
ATOM     18  O   UNL     1      41.644   9.907  32.359  1.00  0.00    -0.504 OA
ATOM     19  H   UNL     1      40.796   9.741  31.837  1.00  0.00     0.293 HD
ENDBRANCH  15  18
BRANCH  17  20
ATOM     20  O   UNL     1      41.974   7.292  33.625  1.00  0.00    -0.504 OA
ATOM     21  H   UNL     1      42.801   6.720  33.536  1.00  0.00     0.293 HD
ENDBRANCH  17  20
ENDBRANCH   1  12
BRANCH   2  22
ATOM     22  O   UNL     1      40.876   7.367  38.089  1.00  0.00    -0.502 OA
ATOM     23  H   UNL     1      40.981   7.210  37.093  1.00  0.00     0.293 HD
ENDBRANCH   2  22
BRANCH   6  24
ATOM     24  O   UNL     1      41.939   8.570  43.035  1.00  0.00    -0.507 OA
ATOM     25  H   UNL     1      42.083   8.589  44.039  1.00  0.00     0.293 HD
ENDBRANCH   6  24
BRANCH   8  26
ATOM     26  O   UNL     1      44.445  12.677  42.500  1.00  0.00    -0.508 OA
ATOM     27  H   UNL     1      44.570  13.550  42.001  1.00  0.00     0.293 HD
ENDBRANCH   8  26
TORSDOF 6
ENDMDL
