MODEL 1
REMARK VINA RESULT:    -4.723      0.000      0.000
REMARK INTER + INTRA:          -9.747
REMARK INTER:                  -8.037
REMARK INTRA:                  -1.710
REMARK UNBOUND:                -1.710
REMARK SMILES CCCCCCCCCCCCCC(=O)[O-]
REMARK SMILES IDX 8 1 9 2 10 3 11 4 12 5 13 6 14 7 15 8 16 9 7 10 6 11 5 12
REMARK SMILES IDX 4 13 3 14 2 15 1 16
REMARK H PARENT
REMARK Flexibility Score: inf
ROOT
ATOM      1  C   UNL     1       4.133  46.075   9.147  1.00  0.00     0.000 C 
ENDROOT
BRANCH   1   2
ATOM      2  C   UNL     1       4.518  45.882  10.624  1.00  0.00     0.000 C 
BRANCH   2   3
ATOM      3  C   UNL     1       4.058  44.526  11.183  1.00  0.00     0.000 C 
BRANCH   3   4
ATOM      4  C   UNL     1       4.028  43.423  10.115  1.00  0.00     0.000 C 
BRANCH   4   5
ATOM      5  C   UNL     1       2.861  42.454  10.361  1.00  0.00     0.006 C 
BRANCH   5   6
ATOM      6  C   UNL     1       2.567  42.266  11.856  1.00  0.00     0.053 C 
BRANCH   6   7
ATOM      7  C   UNL     1       3.250  41.053  12.408  1.00  0.00     0.041 C 
ATOM      8  O   UNL     1       4.507  41.011  12.481  1.00  0.00    -0.550 OA
ATOM      9  O   UNL     1       2.500  39.956  12.810  1.00  0.00    -0.550 OA
ENDBRANCH   6   7
ENDBRANCH   5   6
ENDBRANCH   4   5
ENDBRANCH   3   4
ENDBRANCH   2   3
ENDBRANCH   1   2
BRANCH   1  10
ATOM     10  C   UNL     1       4.226  47.543   8.699  1.00  0.00     0.000 C 
BRANCH  10  11
ATOM     11  C   UNL     1       3.189  47.901   7.622  1.00  0.00    -0.000 C 
BRANCH  11  12
ATOM     12  C   UNL     1       1.926  48.501   8.257  1.00  0.00    -0.000 C 
BRANCH  12  13
ATOM     13  C   UNL     1       0.771  47.488   8.364  1.00  0.00    -0.000 C 
BRANCH  13  14
ATOM     14  C   UNL     1       0.541  46.905   9.773  1.00  0.00    -0.000 C 
BRANCH  14  15
ATOM     15  C   UNL     1       0.579  45.369   9.856  1.00  0.00    -0.003 C 
ATOM     16  C   UNL     1       0.578  44.700   8.482  1.00  0.00     0.004 C 
ENDBRANCH  14  15
ENDBRANCH  13  14
ENDBRANCH  12  13
ENDBRANCH  11  12
ENDBRANCH  10  11
ENDBRANCH   1  10
TORSDOF 12
ENDMDL
MODEL 2
REMARK VINA RESULT:    -4.702      0.984      2.988
REMARK INTER + INTRA:          -9.711
REMARK INTER:                  -8.114
REMARK INTRA:                  -1.596
REMARK UNBOUND:                -1.710
REMARK SMILES CCCCCCCCCCCCCC(=O)[O-]
REMARK SMILES IDX 8 1 9 2 10 3 11 4 12 5 13 6 14 7 15 8 16 9 7 10 6 11 5 12
REMARK SMILES IDX 4 13 3 14 2 15 1 16
REMARK H PARENT
REMARK Flexibility Score: inf
ROOT
ATOM      1  C   UNL     1       0.765  45.359   8.967  1.00  0.00     0.000 C 
ENDROOT
BRANCH   1   2
ATOM      2  C   UNL     1       1.322  44.196   9.807  1.00  0.00     0.000 C 
BRANCH   2   3
ATOM      3  C   UNL     1       0.942  44.306  11.293  1.00  0.00     0.000 C 
BRANCH   3   4
ATOM      4  C   UNL     1       1.655  43.263  12.166  1.00  0.00     0.000 C 
BRANCH   4   5
ATOM      5  C   UNL     1       2.613  42.405  11.324  1.00  0.00     0.006 C 
BRANCH   5   6
ATOM      6  C   UNL     1       3.862  41.987  12.111  1.00  0.00     0.053 C 
BRANCH   6   7
ATOM      7  C   UNL     1       3.763  40.574  12.600  1.00  0.00     0.041 C 
ATOM      8  O   UNL     1       2.636  40.036  12.760  1.00  0.00    -0.550 OA
ATOM      9  O   UNL     1       4.916  39.865  12.911  1.00  0.00    -0.550 OA
ENDBRANCH   6   7
ENDBRANCH   5   6
ENDBRANCH   4   5
ENDBRANCH   3   4
ENDBRANCH   2   3
ENDBRANCH   1   2
BRANCH   1  10
ATOM     10  C   UNL     1       0.530  46.630   9.799  1.00  0.00     0.000 C 
BRANCH  10  11
ATOM     11  C   UNL     1       1.546  47.740   9.487  1.00  0.00    -0.000 C 
BRANCH  11  12
ATOM     12  C   UNL     1       2.032  47.642   8.033  1.00  0.00    -0.000 C 
BRANCH  12  13
ATOM     13  C   UNL     1       3.565  47.714   7.909  1.00  0.00    -0.000 C 
BRANCH  13  14
ATOM     14  C   UNL     1       4.343  47.363   9.193  1.00  0.00    -0.000 C 
BRANCH  14  15
ATOM     15  C   UNL     1       4.514  45.857   9.459  1.00  0.00    -0.003 C 
ATOM     16  C   UNL     1       4.513  45.513  10.948  1.00  0.00     0.004 C 
ENDBRANCH  14  15
ENDBRANCH  13  14
ENDBRANCH  12  13
ENDBRANCH  11  12
ENDBRANCH  10  11
ENDBRANCH   1  10
TORSDOF 12
ENDMDL
MODEL 3
REMARK VINA RESULT:    -4.628      3.240      5.816
REMARK INTER + INTRA:          -9.584
REMARK INTER:                  -8.098
REMARK INTRA:                  -1.486
REMARK UNBOUND:                -1.710
REMARK SMILES CCCCCCCCCCCCCC(=O)[O-]
REMARK SMILES IDX 8 1 9 2 10 3 11 4 12 5 13 6 14 7 15 8 16 9 7 10 6 11 5 12
REMARK SMILES IDX 4 13 3 14 2 15 1 16
REMARK H PARENT
REMARK Flexibility Score: inf
ROOT
ATOM      1  C   UNL     1       0.388  47.029   9.460  1.00  0.00     0.000 C 
ENDROOT
BRANCH   1   2
ATOM      2  C   UNL     1       0.635  47.404   7.988  1.00  0.00     0.000 C 
BRANCH   2   3
ATOM      3  C   UNL     1       2.129  47.571   7.664  1.00  0.00     0.000 C 
BRANCH   3   4
ATOM      4  C   UNL     1       3.001  47.685   8.923  1.00  0.00     0.000 C 
BRANCH   4   5
ATOM      5  C   UNL     1       4.182  46.704   8.862  1.00  0.00     0.006 C 
BRANCH   5   6
ATOM      6  C   UNL     1       5.252  47.016   9.918  1.00  0.00     0.053 C 
BRANCH   6   7
ATOM      7  C   UNL     1       6.428  47.729   9.322  1.00  0.00     0.041 C 
ATOM      8  O   UNL     1       6.251  48.656   8.488  1.00  0.00    -0.550 OA
ATOM      9  O   UNL     1       7.718  47.346   9.664  1.00  0.00    -0.550 OA
ENDBRANCH   6   7
ENDBRANCH   5   6
ENDBRANCH   4   5
ENDBRANCH   3   4
ENDBRANCH   2   3
ENDBRANCH   1   2
BRANCH   1  10
ATOM     10  C   UNL     1      -0.079  45.574   9.629  1.00  0.00     0.000 C 
BRANCH  10  11
ATOM     11  C   UNL     1       1.018  44.662  10.200  1.00  0.00    -0.000 C 
BRANCH  11  12
ATOM     12  C   UNL     1       1.767  43.935   9.072  1.00  0.00    -0.000 C 
BRANCH  12  13
ATOM     13  C   UNL     1       2.715  42.840   9.592  1.00  0.00    -0.000 C 
BRANCH  13  14
ATOM     14  C   UNL     1       2.602  42.537  11.099  1.00  0.00    -0.000 C 
BRANCH  14  15
ATOM     15  C   UNL     1       3.876  42.818  11.916  1.00  0.00    -0.003 C 
ATOM     16  C   UNL     1       4.030  44.291  12.291  1.00  0.00     0.004 C 
ENDBRANCH  14  15
ENDBRANCH  13  14
ENDBRANCH  12  13
ENDBRANCH  11  12
ENDBRANCH  10  11
ENDBRANCH   1  10
TORSDOF 12
ENDMDL
MODEL 4
REMARK VINA RESULT:    -4.565      3.777      6.390
REMARK INTER + INTRA:          -9.478
REMARK INTER:                  -7.859
REMARK INTRA:                  -1.619
REMARK UNBOUND:                -1.710
REMARK SMILES CCCCCCCCCCCCCC(=O)[O-]
REMARK SMILES IDX 8 1 9 2 10 3 11 4 12 5 13 6 14 7 15 8 16 9 7 10 6 11 5 12
REMARK SMILES IDX 4 13 3 14 2 15 1 16
REMARK H PARENT
REMARK Flexibility Score: inf
ROOT
ATOM      1  C   UNL     1       2.414  43.275   8.904  1.00  0.00     0.000 C 
ENDROOT
BRANCH   1   2
ATOM      2  C   UNL     1       1.101  44.069   8.784  1.00  0.00     0.000 C 
BRANCH   2   3
ATOM      3  C   UNL     1       0.750  44.827  10.075  1.00  0.00     0.000 C 
BRANCH   3   4
ATOM      4  C   UNL     1       0.214  46.241   9.806  1.00  0.00     0.000 C 
BRANCH   4   5
ATOM      5  C   UNL     1       1.103  46.980   8.793  1.00  0.00     0.006 C 
BRANCH   5   6
ATOM      6  C   UNL     1       1.253  48.470   9.131  1.00  0.00     0.053 C 
BRANCH   6   7
ATOM      7  C   UNL     1       1.810  49.247   7.977  1.00  0.00     0.041 C 
ATOM      8  O   UNL     1       1.332  50.374   7.681  1.00  0.00    -0.550 OA
ATOM      9  O   UNL     1       2.834  48.710   7.208  1.00  0.00    -0.550 OA
ENDBRANCH   6   7
ENDBRANCH   5   6
ENDBRANCH   4   5
ENDBRANCH   3   4
ENDBRANCH   2   3
ENDBRANCH   1   2
BRANCH   1  10
ATOM     10  C   UNL     1       2.796  42.981  10.364  1.00  0.00     0.000 C 
BRANCH  10  11
ATOM     11  C   UNL     1       4.155  43.584  10.754  1.00  0.00    -0.000 C 
BRANCH  11  12
ATOM     12  C   UNL     1       3.971  44.779  11.701  1.00  0.00    -0.000 C 
BRANCH  12  13
ATOM     13  C   UNL     1       4.071  46.136  10.981  1.00  0.00    -0.000 C 
BRANCH  13  14
ATOM     14  C   UNL     1       4.729  46.089   9.587  1.00  0.00    -0.000 C 
BRANCH  14  15
ATOM     15  C   UNL     1       5.307  47.429   9.096  1.00  0.00    -0.003 C 
ATOM     16  C   UNL     1       6.789  47.595   9.429  1.00  0.00     0.004 C 
ENDBRANCH  14  15
ENDBRANCH  13  14
ENDBRANCH  12  13
ENDBRANCH  11  12
ENDBRANCH  10  11
ENDBRANCH   1  10
TORSDOF 12
ENDMDL
MODEL 5
REMARK VINA RESULT:    -4.528      1.224      2.730
REMARK INTER + INTRA:          -9.415
REMARK INTER:                  -7.965
REMARK INTRA:                  -1.451
REMARK UNBOUND:                -1.710
REMARK SMILES CCCCCCCCCCCCCC(=O)[O-]
REMARK SMILES IDX 8 1 9 2 10 3 11 4 12 5 13 6 14 7 15 8 16 9 7 10 6 11 5 12
REMARK SMILES IDX 4 13 3 14 2 15 1 16
REMARK H PARENT
REMARK Flexibility Score: inf
ROOT
ATOM      1  C   UNL     1       3.619  44.238   9.428  1.00  0.00     0.000 C 
ENDROOT
BRANCH   1   2
ATOM      2  C   UNL     1       3.712  45.144  10.668  1.00  0.00     0.000 C 
BRANCH   2   3
ATOM      3  C   UNL     1       4.355  44.436  11.872  1.00  0.00     0.000 C 
BRANCH   3   4
ATOM      4  C   UNL     1       3.464  43.330  12.456  1.00  0.00     0.000 C 
BRANCH   4   5
ATOM      5  C   UNL     1       4.018  41.939  12.109  1.00  0.00     0.006 C 
BRANCH   5   6
ATOM      6  C   UNL     1       2.982  40.829  12.332  1.00  0.00     0.053 C 
BRANCH   6   7
ATOM      7  C   UNL     1       3.620  39.567  12.828  1.00  0.00     0.041 C 
ATOM      8  O   UNL     1       3.050  38.457  12.655  1.00  0.00    -0.550 OA
ATOM      9  O   UNL     1       4.827  39.621  13.511  1.00  0.00    -0.550 OA
ENDBRANCH   6   7
ENDBRANCH   5   6
ENDBRANCH   4   5
ENDBRANCH   3   4
ENDBRANCH   2   3
ENDBRANCH   1   2
BRANCH   1  10
ATOM     10  C   UNL     1       2.172  43.842   9.093  1.00  0.00     0.000 C 
BRANCH  10  11
ATOM     11  C   UNL     1       1.139  44.578   9.961  1.00  0.00    -0.000 C 
BRANCH  11  12
ATOM     12  C   UNL     1       0.330  45.576   9.120  1.00  0.00    -0.000 C 
BRANCH  12  13
ATOM     13  C   UNL     1       0.211  46.960   9.784  1.00  0.00    -0.000 C 
BRANCH  13  14
ATOM     14  C   UNL     1       1.341  47.951   9.437  1.00  0.00    -0.000 C 
BRANCH  14  15
ATOM     15  C   UNL     1       1.966  47.762   8.043  1.00  0.00    -0.003 C 
ATOM     16  C   UNL     1       3.492  47.690   8.082  1.00  0.00     0.004 C 
ENDBRANCH  14  15
ENDBRANCH  13  14
ENDBRANCH  12  13
ENDBRANCH  11  12
ENDBRANCH  10  11
ENDBRANCH   1  10
TORSDOF 12
ENDMDL
MODEL 6
REMARK VINA RESULT:    -4.506      1.552      3.910
REMARK INTER + INTRA:          -9.377
REMARK INTER:                  -8.007
REMARK INTRA:                  -1.370
REMARK UNBOUND:                -1.710
REMARK SMILES CCCCCCCCCCCCCC(=O)[O-]
REMARK SMILES IDX 8 1 9 2 10 3 11 4 12 5 13 6 14 7 15 8 16 9 7 10 6 11 5 12
REMARK SMILES IDX 4 13 3 14 2 15 1 16
REMARK H PARENT
REMARK Flexibility Score: inf
ROOT
ATOM      1  C   UNL     1      -0.155  47.566   8.669  1.00  0.00     0.000 C 
ENDROOT
BRANCH   1   2
ATOM      2  C   UNL     1      -0.109  46.412   9.685  1.00  0.00     0.000 C 
BRANCH   2   3
ATOM      3  C   UNL     1       0.487  45.125   9.091  1.00  0.00     0.000 C 
BRANCH   3   4
ATOM      4  C   UNL     1       1.373  44.365  10.088  1.00  0.00     0.000 C 
BRANCH   4   5
ATOM      5  C   UNL     1       2.311  43.392   9.356  1.00  0.00     0.006 C 
BRANCH   5   6
ATOM      6  C   UNL     1       3.741  43.434   9.912  1.00  0.00     0.053 C 
BRANCH   6   7
ATOM      7  C   UNL     1       3.786  43.044  11.358  1.00  0.00     0.041 C 
ATOM      8  O   UNL     1       3.528  41.861  11.704  1.00  0.00    -0.550 OA
ATOM      9  O   UNL     1       4.081  43.995  12.325  1.00  0.00    -0.550 OA
ENDBRANCH   6   7
ENDBRANCH   5   6
ENDBRANCH   4   5
ENDBRANCH   3   4
ENDBRANCH   2   3
ENDBRANCH   1   2
BRANCH   1  10
ATOM     10  C   UNL     1       0.910  47.429   7.569  1.00  0.00     0.000 C 
BRANCH  10  11
ATOM     11  C   UNL     1       2.048  48.452   7.714  1.00  0.00    -0.000 C 
BRANCH  11  12
ATOM     12  C   UNL     1       3.402  47.745   7.872  1.00  0.00    -0.000 C 
BRANCH  12  13
ATOM     13  C   UNL     1       3.605  47.146   9.275  1.00  0.00    -0.000 C 
BRANCH  13  14
ATOM     14  C   UNL     1       5.066  46.813   9.639  1.00  0.00    -0.000 C 
BRANCH  14  15
ATOM     15  C   UNL     1       6.063  47.970   9.451  1.00  0.00    -0.003 C 
ATOM     16  C   UNL     1       7.520  47.507   9.469  1.00  0.00     0.004 C 
ENDBRANCH  14  15
ENDBRANCH  13  14
ENDBRANCH  12  13
ENDBRANCH  11  12
ENDBRANCH  10  11
ENDBRANCH   1  10
TORSDOF 12
ENDMDL
MODEL 7
REMARK VINA RESULT:    -4.458      2.836      6.000
REMARK INTER + INTRA:          -9.296
REMARK INTER:                  -8.392
REMARK INTRA:                  -0.904
REMARK UNBOUND:                -1.710
REMARK SMILES CCCCCCCCCCCCCC(=O)[O-]
REMARK SMILES IDX 8 1 9 2 10 3 11 4 12 5 13 6 14 7 15 8 16 9 7 10 6 11 5 12
REMARK SMILES IDX 4 13 3 14 2 15 1 16
REMARK H PARENT
REMARK Flexibility Score: inf
ROOT
ATOM      1  C   UNL     1       4.456  44.897  10.792  1.00  0.00     0.000 C 
ENDROOT
BRANCH   1   2
ATOM      2  C   UNL     1       3.983  46.323  10.461  1.00  0.00     0.000 C 
BRANCH   2   3
ATOM      3  C   UNL     1       4.656  46.892   9.201  1.00  0.00     0.000 C 
BRANCH   3   4
ATOM      4  C   UNL     1       3.659  47.572   8.251  1.00  0.00     0.000 C 
BRANCH   4   5
ATOM      5  C   UNL     1       2.238  47.543   8.836  1.00  0.00     0.006 C 
BRANCH   5   6
ATOM      6  C   UNL     1       1.191  47.121   7.796  1.00  0.00     0.053 C 
BRANCH   6   7
ATOM      7  C   UNL     1       0.520  45.836   8.174  1.00  0.00     0.041 C 
ATOM      8  O   UNL     1       0.514  45.452   9.373  1.00  0.00    -0.550 OA
ATOM      9  O   UNL     1      -0.069  45.046   7.195  1.00  0.00    -0.550 OA
ENDBRANCH   6   7
ENDBRANCH   5   6
ENDBRANCH   4   5
ENDBRANCH   3   4
ENDBRANCH   2   3
ENDBRANCH   1   2
BRANCH   1  10
ATOM     10  C   UNL     1       4.104  44.476  12.228  1.00  0.00     0.000 C 
BRANCH  10  11
ATOM     11  C   UNL     1       2.654  43.983  12.363  1.00  0.00    -0.000 C 
BRANCH  11  12
ATOM     12  C   UNL     1       2.310  42.984  11.249  1.00  0.00    -0.000 C 
BRANCH  12  13
ATOM     13  C   UNL     1       3.039  41.637  11.406  1.00  0.00    -0.000 C 
BRANCH  13  14
ATOM     14  C   UNL     1       2.612  40.801  12.629  1.00  0.00    -0.000 C 
BRANCH  14  15
ATOM     15  C   UNL     1       3.576  39.662  13.007  1.00  0.00    -0.003 C 
ATOM     16  C   UNL     1       5.003  40.149  13.254  1.00  0.00     0.004 C 
ENDBRANCH  14  15
ENDBRANCH  13  14
ENDBRANCH  12  13
ENDBRANCH  11  12
ENDBRANCH  10  11
ENDBRANCH   1  10
TORSDOF 12
ENDMDL
MODEL 8
REMARK VINA RESULT:    -4.452      1.502      1.888
REMARK INTER + INTRA:          -9.285
REMARK INTER:                  -7.643
REMARK INTRA:                  -1.642
REMARK UNBOUND:                -1.710
REMARK SMILES CCCCCCCCCCCCCC(=O)[O-]
REMARK SMILES IDX 8 1 9 2 10 3 11 4 12 5 13 6 14 7 15 8 16 9 7 10 6 11 5 12
REMARK SMILES IDX 4 13 3 14 2 15 1 16
REMARK H PARENT
REMARK Flexibility Score: inf
ROOT
ATOM      1  C   UNL     1       3.806  46.867   8.394  1.00  0.00     0.000 C 
ENDROOT
BRANCH   1   2
ATOM      2  C   UNL     1       4.682  47.180   9.620  1.00  0.00     0.000 C 
BRANCH   2   3
ATOM      3  C   UNL     1       4.175  46.493  10.899  1.00  0.00     0.000 C 
BRANCH   3   4
ATOM      4  C   UNL     1       4.419  44.977  10.896  1.00  0.00     0.000 C 
BRANCH   4   5
ATOM      5  C   UNL     1       4.163  44.378  12.288  1.00  0.00     0.006 C 
BRANCH   5   6
ATOM      6  C   UNL     1       3.800  42.888  12.221  1.00  0.00     0.053 C 
BRANCH   6   7
ATOM      7  C   UNL     1       2.562  42.654  11.410  1.00  0.00     0.041 C 
ATOM      8  O   UNL     1       2.646  42.164  10.252  1.00  0.00    -0.550 OA
ATOM      9  O   UNL     1       1.320  43.008  11.919  1.00  0.00    -0.550 OA
ENDBRANCH   6   7
ENDBRANCH   5   6
ENDBRANCH   4   5
ENDBRANCH   3   4
ENDBRANCH   2   3
ENDBRANCH   1   2
BRANCH   1  10
ATOM     10  C   UNL     1       3.353  48.136   7.653  1.00  0.00     0.000 C 
BRANCH  10  11
ATOM     11  C   UNL     1       1.826  48.308   7.652  1.00  0.00    -0.000 C 
BRANCH  11  12
ATOM     12  C   UNL     1       1.286  48.418   9.085  1.00  0.00    -0.000 C 
BRANCH  12  13
ATOM     13  C   UNL     1       0.155  47.415   9.378  1.00  0.00    -0.000 C 
BRANCH  13  14
ATOM     14  C   UNL     1       0.608  46.088  10.019  1.00  0.00    -0.000 C 
BRANCH  14  15
ATOM     15  C   UNL     1       0.793  44.920   9.033  1.00  0.00    -0.003 C 
ATOM     16  C   UNL     1      -0.016  45.093   7.749  1.00  0.00     0.004 C 
ENDBRANCH  14  15
ENDBRANCH  13  14
ENDBRANCH  12  13
ENDBRANCH  11  12
ENDBRANCH  10  11
ENDBRANCH   1  10
TORSDOF 12
ENDMDL
MODEL 9
REMARK VINA RESULT:    -4.409      1.325      2.036
REMARK INTER + INTRA:          -9.212
REMARK INTER:                  -7.764
REMARK INTRA:                  -1.449
REMARK UNBOUND:                -1.710
REMARK SMILES CCCCCCCCCCCCCC(=O)[O-]
REMARK SMILES IDX 8 1 9 2 10 3 11 4 12 5 13 6 14 7 15 8 16 9 7 10 6 11 5 12
REMARK SMILES IDX 4 13 3 14 2 15 1 16
REMARK H PARENT
REMARK Flexibility Score: inf
ROOT
ATOM      1  C   UNL     1       4.120  44.252   9.838  1.00  0.00     0.000 C 
ENDROOT
BRANCH   1   2
ATOM      2  C   UNL     1       2.822  43.480   9.545  1.00  0.00     0.000 C 
BRANCH   2   3
ATOM      3  C   UNL     1       1.785  43.619  10.671  1.00  0.00     0.000 C 
BRANCH   3   4
ATOM      4  C   UNL     1       2.309  43.119  12.026  1.00  0.00     0.000 C 
BRANCH   4   5
ATOM      5  C   UNL     1       2.582  41.608  11.984  1.00  0.00     0.006 C 
BRANCH   5   6
ATOM      6  C   UNL     1       4.002  41.261  12.450  1.00  0.00     0.053 C 
BRANCH   6   7
ATOM      7  C   UNL     1       4.088  39.860  12.975  1.00  0.00     0.041 C 
ATOM      8  O   UNL     1       5.106  39.482  13.613  1.00  0.00    -0.550 OA
ATOM      9  O   UNL     1       3.057  38.963  12.730  1.00  0.00    -0.550 OA
ENDBRANCH   6   7
ENDBRANCH   5   6
ENDBRANCH   4   5
ENDBRANCH   3   4
ENDBRANCH   2   3
ENDBRANCH   1   2
BRANCH   1  10
ATOM     10  C   UNL     1       4.154  45.631   9.158  1.00  0.00     0.000 C 
BRANCH  10  11
ATOM     11  C   UNL     1       3.532  46.736  10.027  1.00  0.00    -0.000 C 
BRANCH  11  12
ATOM     12  C   UNL     1       2.398  47.449   9.276  1.00  0.00    -0.000 C 
BRANCH  12  13
ATOM     13  C   UNL     1       1.007  47.136   9.857  1.00  0.00    -0.000 C 
BRANCH  13  14
ATOM     14  C   UNL     1      -0.107  46.931   8.810  1.00  0.00    -0.000 C 
BRANCH  14  15
ATOM     15  C   UNL     1       0.355  46.306   7.482  1.00  0.00    -0.003 C 
ATOM     16  C   UNL     1       0.085  44.803   7.408  1.00  0.00     0.004 C 
ENDBRANCH  14  15
ENDBRANCH  13  14
ENDBRANCH  12  13
ENDBRANCH  11  12
ENDBRANCH  10  11
ENDBRANCH   1  10
TORSDOF 12
ENDMDL
