MODEL 1
REMARK VINA RESULT:    -5.518      0.000      0.000
REMARK INTER + INTRA:          -6.455
REMARK INTER:                  -6.325
REMARK INTRA:                  -0.130
REMARK UNBOUND:                -0.130
REMARK SMILES O=C([O-])C=Cc1ccc(O)cc1
REMARK SMILES IDX 6 1 7 2 12 3 8 4 11 5 9 6 5 7 4 8 2 9 1 10 3 11 10 12
REMARK H PARENT 10 13
REMARK Flexibility Score: inf
ROOT
ATOM      1  C   UNL     1      21.034  -6.150  17.813  1.00  0.00    -0.025 A 
ATOM      2  C   UNL     1      22.000  -7.019  17.259  1.00  0.00     0.012 A 
ATOM      3  C   UNL     1      19.679  -6.366  17.504  1.00  0.00     0.012 A 
ATOM      4  C   UNL     1      21.610  -8.070  16.422  1.00  0.00     0.047 A 
ATOM      5  C   UNL     1      19.295  -7.418  16.667  1.00  0.00     0.047 A 
ATOM      6  C   UNL     1      20.258  -8.272  16.124  1.00  0.00     0.115 A 
ENDROOT
BRANCH   1   7
ATOM      7  C   UNL     1      21.377  -5.013  18.710  1.00  0.00     0.010 C 
ATOM      8  C   UNL     1      22.038  -5.124  19.871  1.00  0.00     0.025 C 
BRANCH   8   9
ATOM      9  C   UNL     1      22.341  -3.951  20.708  1.00  0.00     0.064 C 
ATOM     10  O   UNL     1      22.442  -4.088  21.955  1.00  0.00    -0.545 OA
ATOM     11  O   UNL     1      22.518  -2.693  20.144  1.00  0.00    -0.545 OA
ENDBRANCH   8   9
ENDBRANCH   1   7
BRANCH   6  12
ATOM     12  O   UNL     1      19.861  -9.315  15.292  1.00  0.00    -0.508 OA
ATOM     13  H   UNL     1      19.497  -9.143  14.363  1.00  0.00     0.293 HD
ENDBRANCH   6  12
TORSDOF 3
ENDMDL
MODEL 2
REMARK VINA RESULT:    -4.932     17.594     18.306
REMARK INTER + INTRA:          -5.783
REMARK INTER:                  -5.631
REMARK INTRA:                  -0.151
REMARK UNBOUND:                -0.130
REMARK SMILES O=C([O-])C=Cc1ccc(O)cc1
REMARK SMILES IDX 6 1 7 2 12 3 8 4 11 5 9 6 5 7 4 8 2 9 1 10 3 11 10 12
REMARK H PARENT 10 13
REMARK Flexibility Score: inf
ROOT
ATOM      1  C   UNL     1      20.183   7.956  29.144  1.00  0.00    -0.025 A 
ATOM      2  C   UNL     1      19.647   8.798  28.144  1.00  0.00     0.012 A 
ATOM      3  C   UNL     1      21.544   7.605  29.068  1.00  0.00     0.012 A 
ATOM      4  C   UNL     1      20.456   9.268  27.105  1.00  0.00     0.047 A 
ATOM      5  C   UNL     1      22.347   8.078  28.027  1.00  0.00     0.047 A 
ATOM      6  C   UNL     1      21.808   8.909  27.043  1.00  0.00     0.115 A 
ENDROOT
BRANCH   1   7
ATOM      7  C   UNL     1      19.382   7.419  30.277  1.00  0.00     0.010 C 
ATOM      8  C   UNL     1      19.865   6.642  31.257  1.00  0.00     0.025 C 
BRANCH   8   9
ATOM      9  C   UNL     1      19.009   6.147  32.348  1.00  0.00     0.064 C 
ATOM     10  O   UNL     1      17.762   6.102  32.188  1.00  0.00    -0.545 OA
ATOM     11  O   UNL     1      19.557   5.726  33.555  1.00  0.00    -0.545 OA
ENDBRANCH   8   9
ENDBRANCH   1   7
BRANCH   6  12
ATOM     12  O   UNL     1      22.620   9.373  26.012  1.00  0.00    -0.508 OA
ATOM     13  H   UNL     1      22.769   8.830  25.170  1.00  0.00     0.293 HD
ENDBRANCH   6  12
TORSDOF 3
ENDMDL
MODEL 3
REMARK VINA RESULT:    -4.792     17.546     18.520
REMARK INTER + INTRA:          -5.623
REMARK INTER:                  -5.493
REMARK INTRA:                  -0.130
REMARK UNBOUND:                -0.130
REMARK SMILES O=C([O-])C=Cc1ccc(O)cc1
REMARK SMILES IDX 6 1 7 2 12 3 8 4 11 5 9 6 5 7 4 8 2 9 1 10 3 11 10 12
REMARK H PARENT 10 13
REMARK Flexibility Score: inf
ROOT
ATOM      1  C   UNL     1      22.191   9.207  28.386  1.00  0.00    -0.025 A 
ATOM      2  C   UNL     1      21.865   8.574  27.166  1.00  0.00     0.012 A 
ATOM      3  C   UNL     1      21.207   9.983  29.025  1.00  0.00     0.012 A 
ATOM      4  C   UNL     1      20.589   8.720  26.612  1.00  0.00     0.047 A 
ATOM      5  C   UNL     1      19.933  10.125  28.466  1.00  0.00     0.047 A 
ATOM      6  C   UNL     1      19.621   9.496  27.260  1.00  0.00     0.115 A 
ENDROOT
BRANCH   1   7
ATOM      7  C   UNL     1      23.526   9.095  29.033  1.00  0.00     0.010 C 
ATOM      8  C   UNL     1      24.186   7.946  29.236  1.00  0.00     0.025 C 
BRANCH   8   9
ATOM      9  C   UNL     1      25.507   7.913  29.886  1.00  0.00     0.064 C 
ATOM     10  O   UNL     1      25.585   7.991  31.139  1.00  0.00    -0.545 OA
ATOM     11  O   UNL     1      26.672   7.796  29.137  1.00  0.00    -0.545 OA
ENDBRANCH   8   9
ENDBRANCH   1   7
BRANCH   6  12
ATOM     12  O   UNL     1      18.348   9.646  26.714  1.00  0.00    -0.508 OA
ATOM     13  H   UNL     1      17.626  10.171  27.192  1.00  0.00     0.293 HD
ENDBRANCH   6  12
TORSDOF 3
ENDMDL
MODEL 4
REMARK VINA RESULT:    -4.772      1.171      5.742
REMARK INTER + INTRA:          -5.600
REMARK INTER:                  -5.450
REMARK INTRA:                  -0.149
REMARK UNBOUND:                -0.130
REMARK SMILES O=C([O-])C=Cc1ccc(O)cc1
REMARK SMILES IDX 6 1 7 2 12 3 8 4 11 5 9 6 5 7 4 8 2 9 1 10 3 11 10 12
REMARK H PARENT 10 13
REMARK Flexibility Score: inf
ROOT
ATOM      1  C   UNL     1      21.735  -5.868  18.602  1.00  0.00    -0.025 A 
ATOM      2  C   UNL     1      22.348  -5.780  19.872  1.00  0.00     0.012 A 
ATOM      3  C   UNL     1      21.243  -4.691  18.010  1.00  0.00     0.012 A 
ATOM      4  C   UNL     1      22.460  -4.546  20.520  1.00  0.00     0.047 A 
ATOM      5  C   UNL     1      21.358  -3.460  18.663  1.00  0.00     0.047 A 
ATOM      6  C   UNL     1      21.965  -3.383  19.918  1.00  0.00     0.115 A 
ENDROOT
BRANCH   1   7
ATOM      7  C   UNL     1      21.582  -7.146  17.855  1.00  0.00     0.010 C 
ATOM      8  C   UNL     1      20.745  -7.337  16.826  1.00  0.00     0.025 C 
BRANCH   8   9
ATOM      9  C   UNL     1      20.646  -8.633  16.134  1.00  0.00     0.064 C 
ATOM     10  O   UNL     1      21.682  -9.326  15.964  1.00  0.00    -0.545 OA
ATOM     11  O   UNL     1      19.426  -9.106  15.665  1.00  0.00    -0.545 OA
ENDBRANCH   8   9
ENDBRANCH   1   7
BRANCH   6  12
ATOM     12  O   UNL     1      22.073  -2.151  20.557  1.00  0.00    -0.508 OA
ATOM     13  H   UNL     1      22.952  -1.829  20.942  1.00  0.00     0.293 HD
ENDBRANCH   6  12
TORSDOF 3
ENDMDL
MODEL 5
REMARK VINA RESULT:    -4.765     10.162     13.313
REMARK INTER + INTRA:          -5.591
REMARK INTER:                  -5.443
REMARK INTRA:                  -0.148
REMARK UNBOUND:                -0.130
REMARK SMILES O=C([O-])C=Cc1ccc(O)cc1
REMARK SMILES IDX 6 1 7 2 12 3 8 4 11 5 9 6 5 7 4 8 2 9 1 10 3 11 10 12
REMARK H PARENT 10 13
REMARK Flexibility Score: inf
ROOT
ATOM      1  C   UNL     1      26.828   3.399  24.254  1.00  0.00    -0.025 A 
ATOM      2  C   UNL     1      27.468   4.633  24.503  1.00  0.00     0.012 A 
ATOM      3  C   UNL     1      25.522   3.209  24.741  1.00  0.00     0.012 A 
ATOM      4  C   UNL     1      26.812   5.641  25.219  1.00  0.00     0.047 A 
ATOM      5  C   UNL     1      24.871   4.220  25.455  1.00  0.00     0.047 A 
ATOM      6  C   UNL     1      25.512   5.436  25.697  1.00  0.00     0.115 A 
ENDROOT
BRANCH   1   7
ATOM      7  C   UNL     1      27.465   2.285  23.502  1.00  0.00     0.010 C 
ATOM      8  C   UNL     1      26.957   1.049  23.385  1.00  0.00     0.025 C 
BRANCH   8   9
ATOM      9  C   UNL     1      27.647  -0.005  22.623  1.00  0.00     0.064 C 
ATOM     10  O   UNL     1      27.169  -0.391  21.525  1.00  0.00    -0.545 OA
ATOM     11  O   UNL     1      28.820  -0.582  23.096  1.00  0.00    -0.545 OA
ENDBRANCH   8   9
ENDBRANCH   1   7
BRANCH   6  12
ATOM     12  O   UNL     1      24.852   6.433  26.409  1.00  0.00    -0.508 OA
ATOM     13  H   UNL     1      23.967   6.258  26.869  1.00  0.00     0.293 HD
ENDBRANCH   6  12
TORSDOF 3
ENDMDL
MODEL 6
REMARK VINA RESULT:    -4.726     10.297     12.962
REMARK INTER + INTRA:          -5.547
REMARK INTER:                  -5.405
REMARK INTRA:                  -0.142
REMARK UNBOUND:                -0.130
REMARK SMILES O=C([O-])C=Cc1ccc(O)cc1
REMARK SMILES IDX 6 1 7 2 12 3 8 4 11 5 9 6 5 7 4 8 2 9 1 10 3 11 10 12
REMARK H PARENT 10 13
REMARK Flexibility Score: inf
ROOT
ATOM      1  C   UNL     1      26.549   2.431  24.435  1.00  0.00    -0.025 A 
ATOM      2  C   UNL     1      25.264   2.568  25.005  1.00  0.00     0.012 A 
ATOM      3  C   UNL     1      27.367   3.571  24.339  1.00  0.00     0.012 A 
ATOM      4  C   UNL     1      24.822   3.814  25.463  1.00  0.00     0.047 A 
ATOM      5  C   UNL     1      26.920   4.813  24.798  1.00  0.00     0.047 A 
ATOM      6  C   UNL     1      25.648   4.939  25.360  1.00  0.00     0.115 A 
ENDROOT
BRANCH   1   7
ATOM      7  C   UNL     1      27.084   1.138  23.928  1.00  0.00     0.010 C 
ATOM      8  C   UNL     1      27.800   0.993  22.803  1.00  0.00     0.025 C 
BRANCH   8   9
ATOM      9  C   UNL     1      28.296  -0.321  22.363  1.00  0.00     0.064 C 
ATOM     10  O   UNL     1      27.868  -0.819  21.290  1.00  0.00    -0.545 OA
ATOM     11  O   UNL     1      29.233  -1.023  23.113  1.00  0.00    -0.545 OA
ENDBRANCH   8   9
ENDBRANCH   1   7
BRANCH   6  12
ATOM     12  O   UNL     1      25.215   6.182  25.813  1.00  0.00    -0.508 OA
ATOM     13  H   UNL     1      25.371   6.481  26.768  1.00  0.00     0.293 HD
ENDBRANCH   6  12
TORSDOF 3
ENDMDL
MODEL 7
REMARK VINA RESULT:    -4.665     18.305     18.822
REMARK INTER + INTRA:          -5.476
REMARK INTER:                  -5.346
REMARK INTRA:                  -0.130
REMARK UNBOUND:                -0.130
REMARK SMILES O=C([O-])C=Cc1ccc(O)cc1
REMARK SMILES IDX 6 1 7 2 12 3 8 4 11 5 9 6 5 7 4 8 2 9 1 10 3 11 10 12
REMARK H PARENT 10 13
REMARK Flexibility Score: inf
ROOT
ATOM      1  C   UNL     1      19.814   7.467  30.663  1.00  0.00    -0.025 A 
ATOM      2  C   UNL     1      18.524   7.134  31.133  1.00  0.00     0.012 A 
ATOM      3  C   UNL     1      20.924   6.802  31.217  1.00  0.00     0.012 A 
ATOM      4  C   UNL     1      18.361   6.162  32.126  1.00  0.00     0.047 A 
ATOM      5  C   UNL     1      20.754   5.833  32.210  1.00  0.00     0.047 A 
ATOM      6  C   UNL     1      19.475   5.510  32.668  1.00  0.00     0.115 A 
ENDROOT
BRANCH   1   7
ATOM      7  C   UNL     1      20.062   8.489  29.610  1.00  0.00     0.010 C 
ATOM      8  C   UNL     1      19.416   8.552  28.437  1.00  0.00     0.025 C 
BRANCH   8   9
ATOM      9  C   UNL     1      19.717   9.594  27.441  1.00  0.00     0.064 C 
ATOM     10  O   UNL     1      18.793  10.039  26.710  1.00  0.00    -0.545 OA
ATOM     11  O   UNL     1      21.004  10.096  27.293  1.00  0.00    -0.545 OA
ENDBRANCH   8   9
ENDBRANCH   1   7
BRANCH   6  12
ATOM     12  O   UNL     1      19.321   4.542  33.657  1.00  0.00    -0.508 OA
ATOM     13  H   UNL     1      18.725   3.735  33.519  1.00  0.00     0.293 HD
ENDBRANCH   6  12
TORSDOF 3
ENDMDL
MODEL 8
REMARK VINA RESULT:    -4.557     17.521     18.028
REMARK INTER + INTRA:          -5.353
REMARK INTER:                  -5.208
REMARK INTRA:                  -0.145
REMARK UNBOUND:                -0.130
REMARK SMILES O=C([O-])C=Cc1ccc(O)cc1
REMARK SMILES IDX 6 1 7 2 12 3 8 4 11 5 9 6 5 7 4 8 2 9 1 10 3 11 10 12
REMARK H PARENT 10 13
REMARK Flexibility Score: inf
ROOT
ATOM      1  C   UNL     1      21.169   7.964  28.933  1.00  0.00    -0.025 A 
ATOM      2  C   UNL     1      21.492   8.293  27.598  1.00  0.00     0.012 A 
ATOM      3  C   UNL     1      19.899   8.319  29.425  1.00  0.00     0.012 A 
ATOM      4  C   UNL     1      20.564   8.957  26.788  1.00  0.00     0.047 A 
ATOM      5  C   UNL     1      18.977   8.981  28.610  1.00  0.00     0.047 A 
ATOM      6  C   UNL     1      19.305   9.303  27.292  1.00  0.00     0.115 A 
ENDROOT
BRANCH   1   7
ATOM      7  C   UNL     1      22.106   7.260  29.850  1.00  0.00     0.010 C 
ATOM      8  C   UNL     1      21.755   6.292  30.710  1.00  0.00     0.025 C 
BRANCH   8   9
ATOM      9  C   UNL     1      22.739   5.640  31.589  1.00  0.00     0.064 C 
ATOM     10  O   UNL     1      23.839   6.206  31.816  1.00  0.00    -0.545 OA
ATOM     11  O   UNL     1      22.472   4.408  32.176  1.00  0.00    -0.545 OA
ENDBRANCH   8   9
ENDBRANCH   1   7
BRANCH   6  12
ATOM     12  O   UNL     1      18.376   9.963  26.492  1.00  0.00    -0.508 OA
ATOM     13  H   UNL     1      17.931  10.821  26.795  1.00  0.00     0.293 HD
ENDBRANCH   6  12
TORSDOF 3
ENDMDL
