MODEL 1
REMARK VINA RESULT:    -5.248      0.000      0.000
REMARK INTER + INTRA:         -12.086
REMARK INTER:                  -9.849
REMARK INTRA:                  -2.237
REMARK UNBOUND:                -2.237
REMARK SMILES CCCCCCCCC=CCCCCCCCC(=O)[O-]
REMARK SMILES IDX 10 1 9 2 11 3 12 4 13 5 14 6 15 7 16 8 17 9 18 10 19 11
REMARK SMILES IDX 20 12 8 13 7 14 6 15 5 16 4 17 3 18 2 19 1 20
REMARK H PARENT
REMARK Flexibility Score: inf
ROOT
ATOM      1  C   UNL     1      22.919  11.142  34.742  1.00  0.00    -0.031 C 
ATOM      2  C   UNL     1      22.782  12.119  33.831  1.00  0.00    -0.031 C 
ENDROOT
BRANCH   1   3
ATOM      3  C   UNL     1      23.947  11.224  35.836  1.00  0.00     0.027 C 
BRANCH   3   4
ATOM      4  C   UNL     1      24.542  12.637  35.933  1.00  0.00     0.004 C 
BRANCH   4   5
ATOM      5  C   UNL     1      25.995  12.708  35.431  1.00  0.00     0.000 C 
BRANCH   5   6
ATOM      6  C   UNL     1      26.629  11.351  35.063  1.00  0.00     0.000 C 
BRANCH   6   7
ATOM      7  C   UNL     1      27.878  11.433  34.168  1.00  0.00     0.000 C 
BRANCH   7   8
ATOM      8  C   UNL     1      27.980  12.765  33.407  1.00  0.00     0.006 C 
BRANCH   8   9
ATOM      9  C   UNL     1      28.320  12.560  31.924  1.00  0.00     0.053 C 
BRANCH   9  10
ATOM     10  C   UNL     1      27.300  11.708  31.232  1.00  0.00     0.041 C 
ATOM     11  O   UNL     1      26.101  12.089  31.158  1.00  0.00    -0.550 OA
ATOM     12  O   UNL     1      27.668  10.482  30.695  1.00  0.00    -0.550 OA
ENDBRANCH   9  10
ENDBRANCH   8   9
ENDBRANCH   7   8
ENDBRANCH   6   7
ENDBRANCH   5   6
ENDBRANCH   4   5
ENDBRANCH   3   4
ENDBRANCH   1   3
BRANCH   2  13
ATOM     13  C   UNL     1      21.755  12.038  32.737  1.00  0.00     0.027 C 
BRANCH  13  14
ATOM     14  C   UNL     1      20.979  13.358  32.605  1.00  0.00     0.004 C 
BRANCH  14  15
ATOM     15  C   UNL     1      20.735  14.040  33.962  1.00  0.00     0.000 C 
BRANCH  15  16
ATOM     16  C   UNL     1      19.378  13.658  34.580  1.00  0.00     0.000 C 
BRANCH  16  17
ATOM     17  C   UNL     1      19.520  13.070  35.993  1.00  0.00    -0.000 C 
BRANCH  17  18
ATOM     18  C   UNL     1      19.536  11.531  35.995  1.00  0.00    -0.000 C 
BRANCH  18  19
ATOM     19  C   UNL     1      18.845  10.934  34.759  1.00  0.00    -0.003 C 
ATOM     20  C   UNL     1      19.460   9.605  34.319  1.00  0.00     0.004 C 
ENDBRANCH  18  19
ENDBRANCH  17  18
ENDBRANCH  16  17
ENDBRANCH  15  16
ENDBRANCH  14  15
ENDBRANCH  13  14
ENDBRANCH   2  13
TORSDOF 15
ENDMDL
MODEL 2
REMARK VINA RESULT:    -5.231      1.314      2.624
REMARK INTER + INTRA:         -12.054
REMARK INTER:                  -9.680
REMARK INTRA:                  -2.374
REMARK UNBOUND:                -2.237
REMARK SMILES CCCCCCCCC=CCCCCCCCC(=O)[O-]
REMARK SMILES IDX 10 1 9 2 11 3 12 4 13 5 14 6 15 7 16 8 17 9 18 10 19 11
REMARK SMILES IDX 20 12 8 13 7 14 6 15 5 16 4 17 3 18 2 19 1 20
REMARK H PARENT
REMARK Flexibility Score: inf
ROOT
ATOM      1  C   UNL     1      22.921  11.296  35.051  1.00  0.00    -0.031 C 
ATOM      2  C   UNL     1      21.993  10.732  35.840  1.00  0.00    -0.031 C 
ENDROOT
BRANCH   1   3
ATOM      3  C   UNL     1      23.653  12.543  35.462  1.00  0.00     0.027 C 
BRANCH   3   4
ATOM      4  C   UNL     1      25.009  12.205  36.100  1.00  0.00     0.004 C 
BRANCH   4   5
ATOM      5  C   UNL     1      25.652  10.941  35.502  1.00  0.00     0.000 C 
BRANCH   5   6
ATOM      6  C   UNL     1      26.886  11.191  34.612  1.00  0.00     0.000 C 
BRANCH   6   7
ATOM      7  C   UNL     1      27.607  12.530  34.853  1.00  0.00     0.000 C 
BRANCH   7   8
ATOM      8  C   UNL     1      27.593  13.445  33.616  1.00  0.00     0.006 C 
BRANCH   8   9
ATOM      9  C   UNL     1      26.570  12.986  32.568  1.00  0.00     0.053 C 
BRANCH   9  10
ATOM     10  C   UNL     1      27.224  12.662  31.259  1.00  0.00     0.041 C 
ATOM     11  O   UNL     1      26.533  12.248  30.291  1.00  0.00    -0.550 OA
ATOM     12  O   UNL     1      28.599  12.790  31.119  1.00  0.00    -0.550 OA
ENDBRANCH   9  10
ENDBRANCH   8   9
ENDBRANCH   7   8
ENDBRANCH   6   7
ENDBRANCH   5   6
ENDBRANCH   4   5
ENDBRANCH   3   4
ENDBRANCH   1   3
BRANCH   2  13
ATOM     13  C   UNL     1      21.261   9.485  35.428  1.00  0.00     0.027 C 
BRANCH  13  14
ATOM     14  C   UNL     1      20.052   9.819  34.540  1.00  0.00     0.004 C 
BRANCH  14  15
ATOM     15  C   UNL     1      20.383   9.758  33.040  1.00  0.00     0.000 C 
BRANCH  15  16
ATOM     16  C   UNL     1      20.363  11.146  32.374  1.00  0.00     0.000 C 
BRANCH  16  17
ATOM     17  C   UNL     1      19.590  12.185  33.202  1.00  0.00    -0.000 C 
BRANCH  17  18
ATOM     18  C   UNL     1      20.340  13.525  33.319  1.00  0.00    -0.000 C 
BRANCH  18  19
ATOM     19  C   UNL     1      20.423  14.027  34.768  1.00  0.00    -0.003 C 
ATOM     20  C   UNL     1      19.430  13.329  35.697  1.00  0.00     0.004 C 
ENDBRANCH  18  19
ENDBRANCH  17  18
ENDBRANCH  16  17
ENDBRANCH  15  16
ENDBRANCH  14  15
ENDBRANCH  13  14
ENDBRANCH   2  13
TORSDOF 15
ENDMDL
MODEL 3
REMARK VINA RESULT:    -5.158      1.206      2.523
REMARK INTER + INTRA:         -11.917
REMARK INTER:                  -9.685
REMARK INTRA:                  -2.233
REMARK UNBOUND:                -2.237
REMARK SMILES CCCCCCCCC=CCCCCCCCC(=O)[O-]
REMARK SMILES IDX 10 1 9 2 11 3 12 4 13 5 14 6 15 7 16 8 17 9 18 10 19 11
REMARK SMILES IDX 20 12 8 13 7 14 6 15 5 16 4 17 3 18 2 19 1 20
REMARK H PARENT
REMARK Flexibility Score: inf
ROOT
ATOM      1  C   UNL     1      22.613  11.971  35.716  1.00  0.00    -0.031 C 
ATOM      2  C   UNL     1      22.244  10.758  35.275  1.00  0.00    -0.031 C 
ENDROOT
BRANCH   1   3
ATOM      3  C   UNL     1      24.037  12.443  35.624  1.00  0.00     0.027 C 
BRANCH   3   4
ATOM      4  C   UNL     1      25.020  11.314  35.972  1.00  0.00     0.004 C 
BRANCH   4   5
ATOM      5  C   UNL     1      26.166  11.185  34.953  1.00  0.00     0.000 C 
BRANCH   5   6
ATOM      6  C   UNL     1      27.183  12.344  34.961  1.00  0.00     0.000 C 
BRANCH   6   7
ATOM      7  C   UNL     1      27.158  13.247  33.714  1.00  0.00     0.000 C 
BRANCH   7   8
ATOM      8  C   UNL     1      26.160  12.763  32.649  1.00  0.00     0.006 C 
BRANCH   8   9
ATOM      9  C   UNL     1      26.692  12.965  31.223  1.00  0.00     0.053 C 
BRANCH   9  10
ATOM     10  C   UNL     1      27.912  12.136  30.962  1.00  0.00     0.041 C 
ATOM     11  O   UNL     1      27.848  10.879  31.017  1.00  0.00    -0.550 OA
ATOM     12  O   UNL     1      29.125  12.752  30.687  1.00  0.00    -0.550 OA
ENDBRANCH   9  10
ENDBRANCH   8   9
ENDBRANCH   7   8
ENDBRANCH   6   7
ENDBRANCH   5   6
ENDBRANCH   4   5
ENDBRANCH   3   4
ENDBRANCH   1   3
BRANCH   2  13
ATOM     13  C   UNL     1      20.820  10.285  35.367  1.00  0.00     0.027 C 
BRANCH  13  14
ATOM     14  C   UNL     1      19.890  11.417  35.832  1.00  0.00     0.004 C 
BRANCH  14  15
ATOM     15  C   UNL     1      19.223  12.156  34.660  1.00  0.00     0.000 C 
BRANCH  15  16
ATOM     16  C   UNL     1      19.452  13.677  34.713  1.00  0.00     0.000 C 
BRANCH  16  17
ATOM     17  C   UNL     1      20.556  14.140  33.749  1.00  0.00    -0.000 C 
BRANCH  17  18
ATOM     18  C   UNL     1      20.466  13.455  32.374  1.00  0.00    -0.000 C 
BRANCH  18  19
ATOM     19  C   UNL     1      21.763  12.721  31.997  1.00  0.00    -0.003 C 
ATOM     20  C   UNL     1      21.557  11.221  31.787  1.00  0.00     0.004 C 
ENDBRANCH  18  19
ENDBRANCH  17  18
ENDBRANCH  16  17
ENDBRANCH  15  16
ENDBRANCH  14  15
ENDBRANCH  13  14
ENDBRANCH   2  13
TORSDOF 15
ENDMDL
MODEL 4
REMARK VINA RESULT:    -5.097      1.066      1.681
REMARK INTER + INTRA:         -11.804
REMARK INTER:                  -9.726
REMARK INTRA:                  -2.079
REMARK UNBOUND:                -2.237
REMARK SMILES CCCCCCCCC=CCCCCCCCC(=O)[O-]
REMARK SMILES IDX 10 1 9 2 11 3 12 4 13 5 14 6 15 7 16 8 17 9 18 10 19 11
REMARK SMILES IDX 20 12 8 13 7 14 6 15 5 16 4 17 3 18 2 19 1 20
REMARK H PARENT
REMARK Flexibility Score: inf
ROOT
ATOM      1  C   UNL     1      22.755  12.350  34.577  1.00  0.00    -0.031 C 
ATOM      2  C   UNL     1      22.023  12.504  33.462  1.00  0.00    -0.031 C 
ENDROOT
BRANCH   1   3
ATOM      3  C   UNL     1      23.821  11.295  34.680  1.00  0.00     0.027 C 
BRANCH   3   4
ATOM      4  C   UNL     1      24.758  11.567  35.867  1.00  0.00     0.004 C 
BRANCH   4   5
ATOM      5  C   UNL     1      25.285  13.013  35.893  1.00  0.00     0.000 C 
BRANCH   5   6
ATOM      6  C   UNL     1      26.654  13.223  35.216  1.00  0.00     0.000 C 
BRANCH   6   7
ATOM      7  C   UNL     1      27.493  11.947  35.022  1.00  0.00     0.000 C 
BRANCH   7   8
ATOM      8  C   UNL     1      28.333  11.976  33.734  1.00  0.00     0.006 C 
BRANCH   8   9
ATOM      9  C   UNL     1      27.526  12.477  32.528  1.00  0.00     0.053 C 
BRANCH   9  10
ATOM     10  C   UNL     1      28.121  12.015  31.232  1.00  0.00     0.041 C 
ATOM     11  O   UNL     1      27.738  10.936  30.708  1.00  0.00    -0.550 OA
ATOM     12  O   UNL     1      29.116  12.764  30.619  1.00  0.00    -0.550 OA
ENDBRANCH   9  10
ENDBRANCH   8   9
ENDBRANCH   7   8
ENDBRANCH   6   7
ENDBRANCH   5   6
ENDBRANCH   4   5
ENDBRANCH   3   4
ENDBRANCH   1   3
BRANCH   2  13
ATOM     13  C   UNL     1      20.958  13.559  33.359  1.00  0.00     0.027 C 
BRANCH  13  14
ATOM     14  C   UNL     1      20.515  14.038  34.751  1.00  0.00     0.004 C 
BRANCH  14  15
ATOM     15  C   UNL     1      19.183  13.411  35.198  1.00  0.00     0.000 C 
BRANCH  15  16
ATOM     16  C   UNL     1      19.378  12.273  36.217  1.00  0.00     0.000 C 
BRANCH  16  17
ATOM     17  C   UNL     1      19.406  10.887  35.552  1.00  0.00    -0.000 C 
BRANCH  17  18
ATOM     18  C   UNL     1      18.462  10.792  34.341  1.00  0.00    -0.000 C 
BRANCH  18  19
ATOM     19  C   UNL     1      19.179  10.299  33.074  1.00  0.00    -0.003 C 
ATOM     20  C   UNL     1      20.272   9.273  33.372  1.00  0.00     0.004 C 
ENDBRANCH  18  19
ENDBRANCH  17  18
ENDBRANCH  16  17
ENDBRANCH  15  16
ENDBRANCH  14  15
ENDBRANCH  13  14
ENDBRANCH   2  13
TORSDOF 15
ENDMDL
MODEL 5
REMARK VINA RESULT:    -5.038      2.857      7.288
REMARK INTER + INTRA:         -11.693
REMARK INTER:                  -9.582
REMARK INTRA:                  -2.110
REMARK UNBOUND:                -2.237
REMARK SMILES CCCCCCCCC=CCCCCCCCC(=O)[O-]
REMARK SMILES IDX 10 1 9 2 11 3 12 4 13 5 14 6 15 7 16 8 17 9 18 10 19 11
REMARK SMILES IDX 20 12 8 13 7 14 6 15 5 16 4 17 3 18 2 19 1 20
REMARK H PARENT
REMARK Flexibility Score: inf
ROOT
ATOM      1  C   UNL     1      23.622  11.734  34.121  1.00  0.00    -0.031 C 
ATOM      2  C   UNL     1      23.686  12.251  35.359  1.00  0.00    -0.031 C 
ENDROOT
BRANCH   1   3
ATOM      3  C   UNL     1      22.306  11.462  33.447  1.00  0.00     0.027 C 
BRANCH   3   4
ATOM      4  C   UNL     1      22.022  12.498  32.348  1.00  0.00     0.004 C 
BRANCH   4   5
ATOM      5  C   UNL     1      20.573  13.016  32.377  1.00  0.00     0.000 C 
BRANCH   5   6
ATOM      6  C   UNL     1      20.347  14.282  33.228  1.00  0.00     0.000 C 
BRANCH   6   7
ATOM      7  C   UNL     1      20.471  14.079  34.749  1.00  0.00     0.000 C 
BRANCH   7   8
ATOM      8  C   UNL     1      19.187  13.517  35.382  1.00  0.00     0.006 C 
BRANCH   8   9
ATOM      9  C   UNL     1      19.464  12.292  36.265  1.00  0.00     0.053 C 
BRANCH   9  10
ATOM     10  C   UNL     1      19.370  11.014  35.487  1.00  0.00     0.041 C 
ATOM     11  O   UNL     1      18.585  10.925  34.507  1.00  0.00    -0.550 OA
ATOM     12  O   UNL     1      20.130   9.915  35.864  1.00  0.00    -0.550 OA
ENDBRANCH   9  10
ENDBRANCH   8   9
ENDBRANCH   7   8
ENDBRANCH   6   7
ENDBRANCH   5   6
ENDBRANCH   4   5
ENDBRANCH   3   4
ENDBRANCH   1   3
BRANCH   2  13
ATOM     13  C   UNL     1      25.002  12.522  36.032  1.00  0.00     0.027 C 
BRANCH  13  14
ATOM     14  C   UNL     1      26.134  11.708  35.386  1.00  0.00     0.004 C 
BRANCH  14  15
ATOM     15  C   UNL     1      27.491  12.427  35.447  1.00  0.00     0.000 C 
BRANCH  15  16
ATOM     16  C   UNL     1      27.463  13.802  34.754  1.00  0.00     0.000 C 
BRANCH  16  17
ATOM     17  C   UNL     1      27.166  13.697  33.250  1.00  0.00    -0.000 C 
BRANCH  17  18
ATOM     18  C   UNL     1      28.019  12.623  32.551  1.00  0.00    -0.000 C 
BRANCH  18  19
ATOM     19  C   UNL     1      27.194  11.745  31.597  1.00  0.00    -0.003 C 
ATOM     20  C   UNL     1      25.852  12.374  31.223  1.00  0.00     0.004 C 
ENDBRANCH  18  19
ENDBRANCH  17  18
ENDBRANCH  16  17
ENDBRANCH  15  16
ENDBRANCH  14  15
ENDBRANCH  13  14
ENDBRANCH   2  13
TORSDOF 15
ENDMDL
MODEL 6
REMARK VINA RESULT:    -5.003      1.996      6.721
REMARK INTER + INTRA:         -11.626
REMARK INTER:                  -9.505
REMARK INTRA:                  -2.122
REMARK UNBOUND:                -2.237
REMARK SMILES CCCCCCCCC=CCCCCCCCC(=O)[O-]
REMARK SMILES IDX 10 1 9 2 11 3 12 4 13 5 14 6 15 7 16 8 17 9 18 10 19 11
REMARK SMILES IDX 20 12 8 13 7 14 6 15 5 16 4 17 3 18 2 19 1 20
REMARK H PARENT
REMARK Flexibility Score: inf
ROOT
ATOM      1  C   UNL     1      22.611  10.800  35.892  1.00  0.00    -0.031 C 
ATOM      2  C   UNL     1      23.355  11.752  35.306  1.00  0.00    -0.031 C 
ENDROOT
BRANCH   1   3
ATOM      3  C   UNL     1      21.661   9.945  35.101  1.00  0.00     0.027 C 
BRANCH   3   4
ATOM      4  C   UNL     1      20.277   9.892  35.767  1.00  0.00     0.004 C 
BRANCH   4   5
ATOM      5  C   UNL     1      19.354  11.038  35.317  1.00  0.00     0.000 C 
BRANCH   5   6
ATOM      6  C   UNL     1      19.341  12.271  36.243  1.00  0.00     0.000 C 
BRANCH   6   7
ATOM      7  C   UNL     1      20.027  13.526  35.674  1.00  0.00     0.000 C 
BRANCH   7   8
ATOM      8  C   UNL     1      19.800  13.695  34.162  1.00  0.00     0.006 C 
BRANCH   8   9
ATOM      9  C   UNL     1      21.108  13.589  33.365  1.00  0.00     0.053 C 
BRANCH   9  10
ATOM     10  C   UNL     1      20.982  12.637  32.215  1.00  0.00     0.041 C 
ATOM     11  O   UNL     1      21.808  11.697  32.077  1.00  0.00    -0.550 OA
ATOM     12  O   UNL     1      19.969  12.807  31.280  1.00  0.00    -0.550 OA
ENDBRANCH   9  10
ENDBRANCH   8   9
ENDBRANCH   7   8
ENDBRANCH   6   7
ENDBRANCH   5   6
ENDBRANCH   4   5
ENDBRANCH   3   4
ENDBRANCH   1   3
BRANCH   2  13
ATOM     13  C   UNL     1      24.306  12.607  36.096  1.00  0.00     0.027 C 
BRANCH  13  14
ATOM     14  C   UNL     1      25.704  12.616  35.459  1.00  0.00     0.004 C 
BRANCH  14  15
ATOM     15  C   UNL     1      26.232  11.202  35.166  1.00  0.00     0.000 C 
BRANCH  15  16
ATOM     16  C   UNL     1      27.684  11.207  34.655  1.00  0.00     0.000 C 
BRANCH  16  17
ATOM     17  C   UNL     1      28.033  12.492  33.887  1.00  0.00    -0.000 C 
BRANCH  17  18
ATOM     18  C   UNL     1      27.675  12.404  32.393  1.00  0.00    -0.000 C 
BRANCH  18  19
ATOM     19  C   UNL     1      26.538  13.360  32.003  1.00  0.00    -0.003 C 
ATOM     20  C   UNL     1      25.328  12.636  31.412  1.00  0.00     0.004 C 
ENDBRANCH  18  19
ENDBRANCH  17  18
ENDBRANCH  16  17
ENDBRANCH  15  16
ENDBRANCH  14  15
ENDBRANCH  13  14
ENDBRANCH   2  13
TORSDOF 15
ENDMDL
MODEL 7
REMARK VINA RESULT:    -4.884      2.202      3.689
REMARK INTER + INTRA:         -11.404
REMARK INTER:                  -9.465
REMARK INTRA:                  -1.939
REMARK UNBOUND:                -2.237
REMARK SMILES CCCCCCCCC=CCCCCCCCC(=O)[O-]
REMARK SMILES IDX 10 1 9 2 11 3 12 4 13 5 14 6 15 7 16 8 17 9 18 10 19 11
REMARK SMILES IDX 20 12 8 13 7 14 6 15 5 16 4 17 3 18 2 19 1 20
REMARK H PARENT
REMARK Flexibility Score: inf
ROOT
ATOM      1  C   UNL     1      24.522  12.531  31.454  1.00  0.00    -0.031 C 
ATOM      2  C   UNL     1      23.253  12.372  31.043  1.00  0.00    -0.031 C 
ENDROOT
BRANCH   1   3
ATOM      3  C   UNL     1      25.628  12.851  30.488  1.00  0.00     0.027 C 
BRANCH   3   4
ATOM      4  C   UNL     1      26.826  11.908  30.685  1.00  0.00     0.004 C 
BRANCH   4   5
ATOM      5  C   UNL     1      28.062  12.625  31.257  1.00  0.00     0.000 C 
BRANCH   5   6
ATOM      6  C   UNL     1      28.024  12.884  32.776  1.00  0.00     0.000 C 
BRANCH   6   7
ATOM      7  C   UNL     1      28.411  11.682  33.656  1.00  0.00     0.000 C 
BRANCH   7   8
ATOM      8  C   UNL     1      27.277  11.241  34.597  1.00  0.00     0.006 C 
BRANCH   8   9
ATOM      9  C   UNL     1      26.204  12.328  34.758  1.00  0.00     0.053 C 
BRANCH   9  10
ATOM     10  C   UNL     1      25.267  12.019  35.886  1.00  0.00     0.041 C 
ATOM     11  O   UNL     1      24.778  12.952  36.577  1.00  0.00    -0.550 OA
ATOM     12  O   UNL     1      24.957  10.700  36.191  1.00  0.00    -0.550 OA
ENDBRANCH   9  10
ENDBRANCH   8   9
ENDBRANCH   7   8
ENDBRANCH   6   7
ENDBRANCH   5   6
ENDBRANCH   4   5
ENDBRANCH   3   4
ENDBRANCH   1   3
BRANCH   2  13
ATOM     13  C   UNL     1      22.147  12.052  32.008  1.00  0.00     0.027 C 
BRANCH  13  14
ATOM     14  C   UNL     1      22.635  12.146  33.463  1.00  0.00     0.004 C 
BRANCH  14  15
ATOM     15  C   UNL     1      21.634  12.867  34.380  1.00  0.00     0.000 C 
BRANCH  15  16
ATOM     16  C   UNL     1      21.159  11.983  35.547  1.00  0.00     0.000 C 
BRANCH  16  17
ATOM     17  C   UNL     1      21.861  10.616  35.573  1.00  0.00    -0.000 C 
BRANCH  17  18
ATOM     18  C   UNL     1      20.869   9.440  35.525  1.00  0.00    -0.000 C 
BRANCH  18  19
ATOM     19  C   UNL     1      19.736   9.668  34.513  1.00  0.00    -0.003 C 
ATOM     20  C   UNL     1      20.072   9.143  33.117  1.00  0.00     0.004 C 
ENDBRANCH  18  19
ENDBRANCH  17  18
ENDBRANCH  16  17
ENDBRANCH  15  16
ENDBRANCH  14  15
ENDBRANCH  13  14
ENDBRANCH   2  13
TORSDOF 15
ENDMDL
MODEL 8
REMARK VINA RESULT:    -4.873      2.730      6.706
REMARK INTER + INTRA:         -11.383
REMARK INTER:                  -8.996
REMARK INTRA:                  -2.387
REMARK UNBOUND:                -2.237
REMARK SMILES CCCCCCCCC=CCCCCCCCC(=O)[O-]
REMARK SMILES IDX 10 1 9 2 11 3 12 4 13 5 14 6 15 7 16 8 17 9 18 10 19 11
REMARK SMILES IDX 20 12 8 13 7 14 6 15 5 16 4 17 3 18 2 19 1 20
REMARK H PARENT
REMARK Flexibility Score: inf
ROOT
ATOM      1  C   UNL     1      23.939  12.254  32.410  1.00  0.00    -0.031 C 
ATOM      2  C   UNL     1      24.538  12.619  31.265  1.00  0.00    -0.031 C 
ENDROOT
BRANCH   1   3
ATOM      3  C   UNL     1      22.503  11.810  32.441  1.00  0.00     0.027 C 
BRANCH   3   4
ATOM      4  C   UNL     1      21.564  12.938  31.988  1.00  0.00     0.004 C 
BRANCH   4   5
ATOM      5  C   UNL     1      20.332  13.092  32.898  1.00  0.00     0.000 C 
BRANCH   5   6
ATOM      6  C   UNL     1      20.496  14.094  34.059  1.00  0.00     0.000 C 
BRANCH   6   7
ATOM      7  C   UNL     1      20.909  13.475  35.406  1.00  0.00     0.000 C 
BRANCH   7   8
ATOM      8  C   UNL     1      20.205  12.137  35.688  1.00  0.00     0.006 C 
BRANCH   8   9
ATOM      9  C   UNL     1      21.190  10.960  35.720  1.00  0.00     0.053 C 
BRANCH   9  10
ATOM     10  C   UNL     1      20.542   9.681  35.281  1.00  0.00     0.041 C 
ATOM     11  O   UNL     1      19.862   9.003  36.096  1.00  0.00    -0.550 OA
ATOM     12  O   UNL     1      20.714   9.226  33.981  1.00  0.00    -0.550 OA
ENDBRANCH   9  10
ENDBRANCH   8   9
ENDBRANCH   7   8
ENDBRANCH   6   7
ENDBRANCH   5   6
ENDBRANCH   4   5
ENDBRANCH   3   4
ENDBRANCH   1   3
BRANCH   2  13
ATOM     13  C   UNL     1      25.974  13.063  31.234  1.00  0.00     0.027 C 
BRANCH  13  14
ATOM     14  C   UNL     1      26.924  11.885  31.503  1.00  0.00     0.004 C 
BRANCH  14  15
ATOM     15  C   UNL     1      27.867  12.142  32.690  1.00  0.00     0.000 C 
BRANCH  15  16
ATOM     16  C   UNL     1      27.407  13.322  33.565  1.00  0.00     0.000 C 
BRANCH  16  17
ATOM     17  C   UNL     1      27.090  12.896  35.008  1.00  0.00    -0.000 C 
BRANCH  17  18
ATOM     18  C   UNL     1      26.599  11.441  35.101  1.00  0.00    -0.000 C 
BRANCH  18  19
ATOM     19  C   UNL     1      25.172  11.336  35.662  1.00  0.00    -0.003 C 
ATOM     20  C   UNL     1      24.600  12.688  36.086  1.00  0.00     0.004 C 
ENDBRANCH  18  19
ENDBRANCH  17  18
ENDBRANCH  16  17
ENDBRANCH  15  16
ENDBRANCH  14  15
ENDBRANCH  13  14
ENDBRANCH   2  13
TORSDOF 15
ENDMDL
MODEL 9
REMARK VINA RESULT:    -4.870      1.235      2.245
REMARK INTER + INTRA:         -11.377
REMARK INTER:                  -9.213
REMARK INTRA:                  -2.164
REMARK UNBOUND:                -2.237
REMARK SMILES CCCCCCCCC=CCCCCCCCC(=O)[O-]
REMARK SMILES IDX 10 1 9 2 11 3 12 4 13 5 14 6 15 7 16 8 17 9 18 10 19 11
REMARK SMILES IDX 20 12 8 13 7 14 6 15 5 16 4 17 3 18 2 19 1 20
REMARK H PARENT
REMARK Flexibility Score: inf
ROOT
ATOM      1  C   UNL     1      23.390  11.634  34.131  1.00  0.00    -0.031 C 
ATOM      2  C   UNL     1      22.497  12.301  33.382  1.00  0.00    -0.031 C 
ENDROOT
BRANCH   1   3
ATOM      3  C   UNL     1      23.726  12.069  35.530  1.00  0.00     0.027 C 
BRANCH   3   4
ATOM      4  C   UNL     1      25.088  11.514  35.972  1.00  0.00     0.004 C 
BRANCH   4   5
ATOM      5  C   UNL     1      26.092  11.401  34.811  1.00  0.00     0.000 C 
BRANCH   5   6
ATOM      6  C   UNL     1      27.189  12.485  34.786  1.00  0.00     0.000 C 
BRANCH   6   7
ATOM      7  C   UNL     1      27.207  13.369  33.525  1.00  0.00     0.000 C 
BRANCH   7   8
ATOM      8  C   UNL     1      26.158  12.944  32.484  1.00  0.00     0.006 C 
BRANCH   8   9
ATOM      9  C   UNL     1      26.724  12.951  31.057  1.00  0.00     0.053 C 
BRANCH   9  10
ATOM     10  C   UNL     1      27.954  12.104  30.942  1.00  0.00     0.041 C 
ATOM     11  O   UNL     1      27.887  10.860  31.126  1.00  0.00    -0.550 OA
ATOM     12  O   UNL     1      29.180  12.693  30.660  1.00  0.00    -0.550 OA
ENDBRANCH   9  10
ENDBRANCH   8   9
ENDBRANCH   7   8
ENDBRANCH   6   7
ENDBRANCH   5   6
ENDBRANCH   4   5
ENDBRANCH   3   4
ENDBRANCH   1   3
BRANCH   2  13
ATOM     13  C   UNL     1      22.161  11.866  31.983  1.00  0.00     0.027 C 
BRANCH  13  14
ATOM     14  C   UNL     1      20.740  11.284  31.909  1.00  0.00     0.004 C 
BRANCH  14  15
ATOM     15  C   UNL     1      20.548  10.068  32.831  1.00  0.00     0.000 C 
BRANCH  15  16
ATOM     16  C   UNL     1      19.192  10.087  33.559  1.00  0.00     0.000 C 
BRANCH  16  17
ATOM     17  C   UNL     1      19.326   9.791  35.062  1.00  0.00    -0.000 C 
BRANCH  17  18
ATOM     18  C   UNL     1      20.139  10.864  35.807  1.00  0.00    -0.000 C 
BRANCH  18  19
ATOM     19  C   UNL     1      19.312  12.122  36.113  1.00  0.00    -0.003 C 
ATOM     20  C   UNL     1      19.943  13.399  35.558  1.00  0.00     0.004 C 
ENDBRANCH  18  19
ENDBRANCH  17  18
ENDBRANCH  16  17
ENDBRANCH  15  16
ENDBRANCH  14  15
ENDBRANCH  13  14
ENDBRANCH   2  13
TORSDOF 15
ENDMDL
