MODEL 1
REMARK VINA RESULT:    -7.439      0.000      0.000
REMARK INTER + INTRA:          -8.306
REMARK INTER:                  -8.092
REMARK INTRA:                  -0.215
REMARK UNBOUND:                -0.215
REMARK SMILES C[C@H]1[C@H](C)CC[C@]2(C(=O)[O-])CC[C@@]3(C)C(=CC[C@H]4[C@@]5(C)CC[C@H](O)C(C)(C)[C@@H]5CC[C@@]43C)[C@H]12
REMARK SMILES IDX 7 1 6 2 11 3 33 4 5 5 12 6 15 7 2 8 3 9 13 10 16 11 1 12
REMARK SMILES IDX 4 13 14 14 31 15 17 16 18 17 30 18 32 19 19 20 29 21 28 22
REMARK SMILES IDX 21 23 20 24 25 25 22 26 23 27 26 28 27 29 8 30 9 31 10 32
REMARK SMILES IDX 24 33
REMARK H PARENT 24 34
REMARK Flexibility Score: inf
ROOT
ATOM      1  C   UNL     1       9.620   9.659  38.131  1.00  0.00     0.017 C 
ATOM      2  C   UNL     1      11.110   9.469  37.727  1.00  0.00     0.014 C 
ATOM      3  C   UNL     1       9.319   8.768  39.400  1.00  0.00     0.014 C 
ATOM      4  C   UNL     1       8.675   9.340  36.913  1.00  0.00     0.030 C 
ATOM      5  C   UNL     1      11.392   8.101  37.116  1.00  0.00     0.004 C 
ATOM      6  C   UNL     1       8.071   7.852  39.316  1.00  0.00     0.013 C 
ATOM      7  C   UNL     1       7.203   9.256  37.382  1.00  0.00    -0.063 C 
ATOM      8  C   UNL     1       9.078   8.063  36.071  1.00  0.00    -0.003 C 
ATOM      9  C   UNL     1      10.606   7.946  35.817  1.00  0.00    -0.011 C 
ATOM     10  C   UNL     1       6.812   8.543  38.696  1.00  0.00    -0.006 C 
ATOM     11  C   UNL     1       6.223   9.740  36.574  1.00  0.00    -0.027 C 
ATOM     12  C   UNL     1       8.331   7.993  34.707  1.00  0.00     0.008 C 
ATOM     13  C   UNL     1      10.983   6.605  35.164  1.00  0.00     0.008 C 
ATOM     14  C   UNL     1       6.364   9.644  39.733  1.00  0.00     0.017 C 
ATOM     15  C   UNL     1       5.607   7.523  38.339  1.00  0.00    -0.020 C 
ATOM     16  C   UNL     1       4.803   9.194  36.543  1.00  0.00     0.032 C 
ATOM     17  C   UNL     1       4.400   8.406  37.815  1.00  0.00     0.006 C 
ATOM     18  C   UNL     1       5.103   6.710  39.563  1.00  0.00     0.008 C 
ATOM     19  C   UNL     1       6.108   6.498  37.252  1.00  0.00     0.012 C 
ATOM     20  C   UNL     1       2.910   7.790  37.902  1.00  0.00    -0.025 C 
ATOM     21  C   UNL     1       3.904   5.778  39.262  1.00  0.00     0.005 C 
ATOM     22  C   UNL     1       2.966   6.233  38.096  1.00  0.00     0.003 C 
ATOM     23  C   UNL     1       2.111   8.075  36.590  1.00  0.00     0.010 C 
ATOM     24  C   UNL     1       2.161   8.477  39.099  1.00  0.00     0.012 C 
ATOM     25  C   UNL     1       1.589   5.448  38.010  1.00  0.00    -0.006 C 
ATOM     26  C   UNL     1       0.742   7.378  36.509  1.00  0.00     0.033 C 
ATOM     27  C   UNL     1       0.861   5.853  36.684  1.00  0.00     0.120 C 
ATOM     28  C   UNL     1       0.648   5.651  39.232  1.00  0.00     0.014 C 
ATOM     29  C   UNL     1       1.887   3.928  37.930  1.00  0.00     0.014 C 
ENDROOT
BRANCH   1  30
ATOM     30  C   UNL     1       9.444  11.147  38.481  1.00  0.00     0.048 C 
ATOM     31  O   UNL     1       9.632  12.042  37.616  1.00  0.00    -0.550 OA
ATOM     32  O   UNL     1       9.122  11.553  39.773  1.00  0.00    -0.550 OA
ENDBRANCH   1  30
BRANCH  27  33
ATOM     33  O   UNL     1      -0.423   5.280  36.630  1.00  0.00    -0.393 OA
ATOM     34  H   UNL     1      -0.486   4.636  37.385  1.00  0.00     0.210 HD
ENDBRANCH  27  33
TORSDOF 2
ENDMDL
MODEL 2
REMARK VINA RESULT:    -7.080      7.738      9.568
REMARK INTER + INTRA:          -7.916
REMARK INTER:                  -7.668
REMARK INTRA:                  -0.248
REMARK UNBOUND:                -0.215
REMARK SMILES C[C@H]1[C@H](C)CC[C@]2(C(=O)[O-])CC[C@@]3(C)C(=CC[C@H]4[C@@]5(C)CC[C@H](O)C(C)(C)[C@@H]5CC[C@@]43C)[C@H]12
REMARK SMILES IDX 7 1 6 2 11 3 33 4 5 5 12 6 15 7 2 8 3 9 13 10 16 11 1 12
REMARK SMILES IDX 4 13 14 14 31 15 17 16 18 17 30 18 32 19 19 20 29 21 28 22
REMARK SMILES IDX 21 23 20 24 25 25 22 26 23 27 26 28 27 29 8 30 9 31 10 32
REMARK SMILES IDX 24 33
REMARK H PARENT 24 34
REMARK Flexibility Score: inf
ROOT
ATOM      1  C   UNL     1       6.887  16.562  35.865  1.00  0.00     0.017 C 
ATOM      2  C   UNL     1       7.886  17.438  35.055  1.00  0.00     0.014 C 
ATOM      3  C   UNL     1       6.091  15.636  34.863  1.00  0.00     0.014 C 
ATOM      4  C   UNL     1       5.949  17.471  36.746  1.00  0.00     0.030 C 
ATOM      5  C   UNL     1       7.198  18.525  34.239  1.00  0.00     0.004 C 
ATOM      6  C   UNL     1       4.548  15.641  35.002  1.00  0.00     0.013 C 
ATOM      7  C   UNL     1       4.786  16.635  37.330  1.00  0.00    -0.063 C 
ATOM      8  C   UNL     1       5.410  18.771  36.024  1.00  0.00    -0.003 C 
ATOM      9  C   UNL     1       6.487  19.499  35.174  1.00  0.00    -0.011 C 
ATOM     10  C   UNL     1       4.039  15.582  36.480  1.00  0.00    -0.006 C 
ATOM     11  C   UNL     1       4.351  16.897  38.591  1.00  0.00    -0.027 C 
ATOM     12  C   UNL     1       4.782  19.786  37.025  1.00  0.00     0.008 C 
ATOM     13  C   UNL     1       5.889  20.645  34.340  1.00  0.00     0.008 C 
ATOM     14  C   UNL     1       4.431  14.153  37.020  1.00  0.00     0.017 C 
ATOM     15  C   UNL     1       2.456  15.878  36.646  1.00  0.00    -0.020 C 
ATOM     16  C   UNL     1       2.918  16.679  39.056  1.00  0.00     0.032 C 
ATOM     17  C   UNL     1       2.113  15.685  38.181  1.00  0.00     0.006 C 
ATOM     18  C   UNL     1       1.557  14.905  35.834  1.00  0.00     0.008 C 
ATOM     19  C   UNL     1       2.153  17.342  36.150  1.00  0.00     0.012 C 
ATOM     20  C   UNL     1       0.584  15.362  38.587  1.00  0.00    -0.025 C 
ATOM     21  C   UNL     1       0.037  15.123  36.032  1.00  0.00     0.005 C 
ATOM     22  C   UNL     1      -0.389  15.727  37.410  1.00  0.00     0.003 C 
ATOM     23  C   UNL     1       0.150  16.197  39.835  1.00  0.00     0.010 C 
ATOM     24  C   UNL     1       0.480  13.838  38.947  1.00  0.00     0.012 C 
ATOM     25  C   UNL     1      -1.945  15.650  37.713  1.00  0.00    -0.006 C 
ATOM     26  C   UNL     1      -1.342  16.088  40.191  1.00  0.00     0.033 C 
ATOM     27  C   UNL     1      -2.247  16.477  39.008  1.00  0.00     0.120 C 
ATOM     28  C   UNL     1      -2.510  14.207  37.845  1.00  0.00     0.014 C 
ATOM     29  C   UNL     1      -2.713  16.320  36.544  1.00  0.00     0.014 C 
ENDROOT
BRANCH   1  30
ATOM     30  C   UNL     1       7.730  15.699  36.821  1.00  0.00     0.048 C 
ATOM     31  O   UNL     1       8.353  16.218  37.783  1.00  0.00    -0.550 OA
ATOM     32  O   UNL     1       7.871  14.329  36.622  1.00  0.00    -0.550 OA
ENDBRANCH   1  30
BRANCH  27  33
ATOM     33  O   UNL     1      -3.593  16.329  39.387  1.00  0.00    -0.393 OA
ATOM     34  H   UNL     1      -4.074  15.938  38.609  1.00  0.00     0.210 HD
ENDBRANCH  27  33
TORSDOF 2
ENDMDL
MODEL 3
REMARK VINA RESULT:    -7.000     11.774     15.597
REMARK INTER + INTRA:          -7.828
REMARK INTER:                  -7.714
REMARK INTRA:                  -0.114
REMARK UNBOUND:                -0.215
REMARK SMILES C[C@H]1[C@H](C)CC[C@]2(C(=O)[O-])CC[C@@]3(C)C(=CC[C@H]4[C@@]5(C)CC[C@H](O)C(C)(C)[C@@H]5CC[C@@]43C)[C@H]12
REMARK SMILES IDX 7 1 6 2 11 3 33 4 5 5 12 6 15 7 2 8 3 9 13 10 16 11 1 12
REMARK SMILES IDX 4 13 14 14 31 15 17 16 18 17 30 18 32 19 19 20 29 21 28 22
REMARK SMILES IDX 21 23 20 24 25 25 22 26 23 27 26 28 27 29 8 30 9 31 10 32
REMARK SMILES IDX 24 33
REMARK H PARENT 24 34
REMARK Flexibility Score: inf
ROOT
ATOM      1  C   UNL     1      12.154  15.225  22.568  1.00  0.00     0.017 C 
ATOM      2  C   UNL     1      11.170  15.896  21.568  1.00  0.00     0.014 C 
ATOM      3  C   UNL     1      12.712  13.897  21.921  1.00  0.00     0.014 C 
ATOM      4  C   UNL     1      11.451  14.989  23.957  1.00  0.00     0.030 C 
ATOM      5  C   UNL     1       9.853  15.140  21.431  1.00  0.00     0.004 C 
ATOM      6  C   UNL     1      12.630  12.620  22.795  1.00  0.00     0.013 C 
ATOM      7  C   UNL     1      12.324  14.080  24.854  1.00  0.00    -0.063 C 
ATOM      8  C   UNL     1       9.967  14.448  23.870  1.00  0.00    -0.003 C 
ATOM      9  C   UNL     1       9.119  15.139  22.768  1.00  0.00    -0.011 C 
ATOM     10  C   UNL     1      13.049  12.838  24.287  1.00  0.00    -0.006 C 
ATOM     11  C   UNL     1      12.382  14.327  26.189  1.00  0.00    -0.027 C 
ATOM     12  C   UNL     1       9.218  14.556  25.230  1.00  0.00     0.008 C 
ATOM     13  C   UNL     1       7.749  14.465  22.584  1.00  0.00     0.008 C 
ATOM     14  C   UNL     1      14.596  13.144  24.265  1.00  0.00     0.017 C 
ATOM     15  C   UNL     1      12.692  11.597  25.262  1.00  0.00    -0.020 C 
ATOM     16  C   UNL     1      12.610  13.252  27.242  1.00  0.00     0.032 C 
ATOM     17  C   UNL     1      13.266  11.960  26.693  1.00  0.00     0.006 C 
ATOM     18  C   UNL     1      13.338  10.256  24.818  1.00  0.00     0.008 C 
ATOM     19  C   UNL     1      11.129  11.395  25.284  1.00  0.00     0.012 C 
ATOM     20  C   UNL     1      13.572  10.753  27.721  1.00  0.00    -0.025 C 
ATOM     21  C   UNL     1      13.069   9.068  25.773  1.00  0.00     0.005 C 
ATOM     22  C   UNL     1      12.830   9.444  27.273  1.00  0.00     0.003 C 
ATOM     23  C   UNL     1      13.077  11.107  29.160  1.00  0.00     0.010 C 
ATOM     24  C   UNL     1      15.125  10.527  27.771  1.00  0.00     0.012 C 
ATOM     25  C   UNL     1      12.870   8.215  28.276  1.00  0.00    -0.006 C 
ATOM     26  C   UNL     1      13.166   9.951  30.172  1.00  0.00     0.033 C 
ATOM     27  C   UNL     1      12.404   8.704  29.689  1.00  0.00     0.120 C 
ATOM     28  C   UNL     1      14.248   7.501  28.375  1.00  0.00     0.014 C 
ATOM     29  C   UNL     1      11.853   7.147  27.796  1.00  0.00     0.014 C 
ENDROOT
BRANCH   1  30
ATOM     30  C   UNL     1      13.305  16.222  22.791  1.00  0.00     0.048 C 
ATOM     31  O   UNL     1      14.504  15.875  22.626  1.00  0.00    -0.550 OA
ATOM     32  O   UNL     1      13.063  17.519  23.232  1.00  0.00    -0.550 OA
ENDBRANCH   1  30
BRANCH  27  33
ATOM     33  O   UNL     1      12.548   7.677  30.640  1.00  0.00    -0.393 OA
ATOM     34  H   UNL     1      12.502   6.815  30.147  1.00  0.00     0.210 HD
ENDBRANCH  27  33
TORSDOF 2
ENDMDL
MODEL 4
REMARK VINA RESULT:    -6.874     11.763     15.298
REMARK INTER + INTRA:          -7.692
REMARK INTER:                  -7.426
REMARK INTRA:                  -0.266
REMARK UNBOUND:                -0.215
REMARK SMILES C[C@H]1[C@H](C)CC[C@]2(C(=O)[O-])CC[C@@]3(C)C(=CC[C@H]4[C@@]5(C)CC[C@H](O)C(C)(C)[C@@H]5CC[C@@]43C)[C@H]12
REMARK SMILES IDX 7 1 6 2 11 3 33 4 5 5 12 6 15 7 2 8 3 9 13 10 16 11 1 12
REMARK SMILES IDX 4 13 14 14 31 15 17 16 18 17 30 18 32 19 19 20 29 21 28 22
REMARK SMILES IDX 21 23 20 24 25 25 22 26 23 27 26 28 27 29 8 30 9 31 10 32
REMARK SMILES IDX 24 33
REMARK H PARENT 24 34
REMARK Flexibility Score: inf
ROOT
ATOM      1  C   UNL     1      11.419  15.536  23.232  1.00  0.00     0.017 C 
ATOM      2  C   UNL     1      12.010  16.427  22.103  1.00  0.00     0.014 C 
ATOM      3  C   UNL     1      12.035  15.988  24.614  1.00  0.00     0.014 C 
ATOM      4  C   UNL     1      11.662  14.012  22.914  1.00  0.00     0.030 C 
ATOM      5  C   UNL     1      13.474  16.122  21.808  1.00  0.00     0.004 C 
ATOM      6  C   UNL     1      12.631  14.864  25.501  1.00  0.00     0.013 C 
ATOM      7  C   UNL     1      11.330  13.146  24.151  1.00  0.00    -0.063 C 
ATOM      8  C   UNL     1      13.098  13.670  22.347  1.00  0.00    -0.003 C 
ATOM      9  C   UNL     1      13.608  14.692  21.294  1.00  0.00    -0.011 C 
ATOM     10  C   UNL     1      11.749  13.574  25.576  1.00  0.00    -0.006 C 
ATOM     11  C   UNL     1      10.738  11.936  23.972  1.00  0.00    -0.027 C 
ATOM     12  C   UNL     1      13.168  12.238  21.740  1.00  0.00     0.008 C 
ATOM     13  C   UNL     1      15.074  14.438  20.904  1.00  0.00     0.008 C 
ATOM     14  C   UNL     1      10.445  13.984  26.365  1.00  0.00     0.017 C 
ATOM     15  C   UNL     1      12.491  12.305  26.252  1.00  0.00    -0.020 C 
ATOM     16  C   UNL     1      10.930  10.750  24.907  1.00  0.00     0.032 C 
ATOM     17  C   UNL     1      11.424  11.136  26.324  1.00  0.00     0.006 C 
ATOM     18  C   UNL     1      12.991  12.579  27.697  1.00  0.00     0.008 C 
ATOM     19  C   UNL     1      13.740  11.914  25.375  1.00  0.00     0.012 C 
ATOM     20  C   UNL     1      11.650   9.962  27.409  1.00  0.00    -0.025 C 
ATOM     21  C   UNL     1      13.642  11.358  28.392  1.00  0.00     0.005 C 
ATOM     22  C   UNL     1      13.135   9.957  27.917  1.00  0.00     0.003 C 
ATOM     23  C   UNL     1      11.360   8.560  26.783  1.00  0.00     0.010 C 
ATOM     24  C   UNL     1      10.652  10.191  28.600  1.00  0.00     0.012 C 
ATOM     25  C   UNL     1      13.574   8.746  28.844  1.00  0.00    -0.006 C 
ATOM     26  C   UNL     1      11.715   7.368  27.687  1.00  0.00     0.033 C 
ATOM     27  C   UNL     1      13.187   7.404  28.136  1.00  0.00     0.120 C 
ATOM     28  C   UNL     1      12.993   8.788  30.286  1.00  0.00     0.014 C 
ATOM     29  C   UNL     1      15.118   8.765  28.989  1.00  0.00     0.014 C 
ENDROOT
BRANCH   1  30
ATOM     30  C   UNL     1       9.898  15.775  23.234  1.00  0.00     0.048 C 
ATOM     31  O   UNL     1       9.357  16.491  24.116  1.00  0.00    -0.550 OA
ATOM     32  O   UNL     1       9.070  15.168  22.295  1.00  0.00    -0.550 OA
ENDBRANCH   1  30
BRANCH  27  33
ATOM     33  O   UNL     1      13.440   6.308  28.981  1.00  0.00    -0.393 OA
ATOM     34  H   UNL     1      12.574   5.839  29.117  1.00  0.00     0.210 HD
ENDBRANCH  27  33
TORSDOF 2
ENDMDL
MODEL 5
REMARK VINA RESULT:    -6.857      1.884      3.811
REMARK INTER + INTRA:          -7.673
REMARK INTER:                  -7.459
REMARK INTRA:                  -0.214
REMARK UNBOUND:                -0.215
REMARK SMILES C[C@H]1[C@H](C)CC[C@]2(C(=O)[O-])CC[C@@]3(C)C(=CC[C@H]4[C@@]5(C)CC[C@H](O)C(C)(C)[C@@H]5CC[C@@]43C)[C@H]12
REMARK SMILES IDX 7 1 6 2 11 3 33 4 5 5 12 6 15 7 2 8 3 9 13 10 16 11 1 12
REMARK SMILES IDX 4 13 14 14 31 15 17 16 18 17 30 18 32 19 19 20 29 21 28 22
REMARK SMILES IDX 21 23 20 24 25 25 22 26 23 27 26 28 27 29 8 30 9 31 10 32
REMARK SMILES IDX 24 33
REMARK H PARENT 24 34
REMARK Flexibility Score: inf
ROOT
ATOM      1  C   UNL     1       9.838   8.658  37.276  1.00  0.00     0.017 C 
ATOM      2  C   UNL     1      10.752   9.884  37.562  1.00  0.00     0.014 C 
ATOM      3  C   UNL     1       9.253   8.787  35.815  1.00  0.00     0.014 C 
ATOM      4  C   UNL     1       8.722   8.535  38.381  1.00  0.00     0.030 C 
ATOM      5  C   UNL     1       9.970  11.180  37.744  1.00  0.00     0.004 C 
ATOM      6  C   UNL     1       7.720   8.617  35.671  1.00  0.00     0.013 C 
ATOM      7  C   UNL     1       7.656   7.499  37.954  1.00  0.00    -0.063 C 
ATOM      8  C   UNL     1       8.051   9.902  38.806  1.00  0.00    -0.003 C 
ATOM      9  C   UNL     1       9.065  11.068  38.968  1.00  0.00    -0.011 C 
ATOM     10  C   UNL     1       7.127   7.432  36.504  1.00  0.00    -0.006 C 
ATOM     11  C   UNL     1       7.105   6.690  38.898  1.00  0.00    -0.027 C 
ATOM     12  C   UNL     1       7.218   9.771  40.115  1.00  0.00     0.008 C 
ATOM     13  C   UNL     1       8.365  12.418  39.195  1.00  0.00     0.008 C 
ATOM     14  C   UNL     1       7.685   6.113  35.842  1.00  0.00     0.017 C 
ATOM     15  C   UNL     1       5.511   7.428  36.590  1.00  0.00    -0.020 C 
ATOM     16  C   UNL     1       5.691   6.133  38.815  1.00  0.00     0.032 C 
ATOM     17  C   UNL     1       5.098   6.121  37.384  1.00  0.00     0.006 C 
ATOM     18  C   UNL     1       4.818   7.378  35.200  1.00  0.00     0.008 C 
ATOM     19  C   UNL     1       5.033   8.740  37.319  1.00  0.00     0.012 C 
ATOM     20  C   UNL     1       3.608   5.537  37.170  1.00  0.00    -0.025 C 
ATOM     21  C   UNL     1       3.273   7.302  35.258  1.00  0.00     0.005 C 
ATOM     22  C   UNL     1       2.673   6.626  36.535  1.00  0.00     0.003 C 
ATOM     23  C   UNL     1       2.976   5.108  38.533  1.00  0.00     0.010 C 
ATOM     24  C   UNL     1       3.702   4.271  36.245  1.00  0.00     0.012 C 
ATOM     25  C   UNL     1       1.128   6.278  36.435  1.00  0.00    -0.006 C 
ATOM     26  C   UNL     1       1.495   4.702  38.454  1.00  0.00     0.033 C 
ATOM     27  C   UNL     1       0.624   5.815  37.843  1.00  0.00     0.120 C 
ATOM     28  C   UNL     1       0.769   5.219  35.353  1.00  0.00     0.014 C 
ATOM     29  C   UNL     1       0.350   7.568  36.064  1.00  0.00     0.014 C 
ENDROOT
BRANCH   1  30
ATOM     30  C   UNL     1      10.732   7.409  37.375  1.00  0.00     0.048 C 
ATOM     31  O   UNL     1      10.976   6.875  38.488  1.00  0.00    -0.550 OA
ATOM     32  O   UNL     1      11.337   6.862  36.248  1.00  0.00    -0.550 OA
ENDBRANCH   1  30
BRANCH  27  33
ATOM     33  O   UNL     1      -0.709   5.372  37.770  1.00  0.00    -0.393 OA
ATOM     34  H   UNL     1      -0.856   4.761  38.541  1.00  0.00     0.210 HD
ENDBRANCH  27  33
TORSDOF 2
ENDMDL
MODEL 6
REMARK VINA RESULT:    -6.698     14.862     16.519
REMARK INTER + INTRA:          -7.500
REMARK INTER:                  -7.263
REMARK INTRA:                  -0.237
REMARK UNBOUND:                -0.215
REMARK SMILES C[C@H]1[C@H](C)CC[C@]2(C(=O)[O-])CC[C@@]3(C)C(=CC[C@H]4[C@@]5(C)CC[C@H](O)C(C)(C)[C@@H]5CC[C@@]43C)[C@H]12
REMARK SMILES IDX 7 1 6 2 11 3 33 4 5 5 12 6 15 7 2 8 3 9 13 10 16 11 1 12
REMARK SMILES IDX 4 13 14 14 31 15 17 16 18 17 30 18 32 19 19 20 29 21 28 22
REMARK SMILES IDX 21 23 20 24 25 25 22 26 23 27 26 28 27 29 8 30 9 31 10 32
REMARK SMILES IDX 24 33
REMARK H PARENT 24 34
REMARK Flexibility Score: inf
ROOT
ATOM      1  C   UNL     1      13.753  14.523  24.499  1.00  0.00     0.017 C 
ATOM      2  C   UNL     1      14.760  13.452  25.009  1.00  0.00     0.014 C 
ATOM      3  C   UNL     1      13.038  15.183  25.742  1.00  0.00     0.014 C 
ATOM      4  C   UNL     1      12.745  13.883  23.472  1.00  0.00     0.030 C 
ATOM      5  C   UNL     1      14.076  12.208  25.565  1.00  0.00     0.004 C 
ATOM      6  C   UNL     1      11.490  15.245  25.691  1.00  0.00     0.013 C 
ATOM      7  C   UNL     1      11.583  14.862  23.179  1.00  0.00    -0.063 C 
ATOM      8  C   UNL     1      12.198  12.455  23.874  1.00  0.00    -0.003 C 
ATOM      9  C   UNL     1      13.290  11.515  24.456  1.00  0.00    -0.011 C 
ATOM     10  C   UNL     1      10.913  15.683  24.304  1.00  0.00    -0.006 C 
ATOM     11  C   UNL     1      11.080  14.934  21.918  1.00  0.00    -0.027 C 
ATOM     12  C   UNL     1      11.490  11.737  22.688  1.00  0.00     0.008 C 
ATOM     13  C   UNL     1      12.694  10.209  25.009  1.00  0.00     0.008 C 
ATOM     14  C   UNL     1      11.326  17.194  24.118  1.00  0.00     0.017 C 
ATOM     15  C   UNL     1       9.316  15.470  24.156  1.00  0.00    -0.020 C 
ATOM     16  C   UNL     1       9.635  15.291  21.601  1.00  0.00     0.032 C 
ATOM     17  C   UNL     1       8.906  16.049  22.739  1.00  0.00     0.006 C 
ATOM     18  C   UNL     1       8.489  16.226  25.233  1.00  0.00     0.008 C 
ATOM     19  C   UNL     1       8.988  13.935  24.287  1.00  0.00     0.012 C 
ATOM     20  C   UNL     1       7.372  16.494  22.510  1.00  0.00    -0.025 C 
ATOM     21  C   UNL     1       6.955  16.096  25.070  1.00  0.00     0.005 C 
ATOM     22  C   UNL     1       6.444  15.865  23.610  1.00  0.00     0.003 C 
ATOM     23  C   UNL     1       6.851  16.009  21.119  1.00  0.00     0.010 C 
ATOM     24  C   UNL     1       7.301  18.062  22.548  1.00  0.00     0.012 C 
ATOM     25  C   UNL     1       4.879  16.047  23.421  1.00  0.00    -0.006 C 
ATOM     26  C   UNL     1       5.348  16.234  20.883  1.00  0.00     0.033 C 
ATOM     27  C   UNL     1       4.488  15.578  21.979  1.00  0.00     0.120 C 
ATOM     28  C   UNL     1       4.356  17.488  23.684  1.00  0.00     0.014 C 
ATOM     29  C   UNL     1       4.145  15.121  24.425  1.00  0.00     0.014 C 
ENDROOT
BRANCH   1  30
ATOM     30  C   UNL     1      14.578  15.581  23.745  1.00  0.00     0.048 C 
ATOM     31  O   UNL     1      14.965  16.631  24.322  1.00  0.00    -0.550 OA
ATOM     32  O   UNL     1      14.876  15.438  22.394  1.00  0.00    -0.550 OA
ENDBRANCH   1  30
BRANCH  27  33
ATOM     33  O   UNL     1       3.131  15.844  21.723  1.00  0.00    -0.393 OA
ATOM     34  H   UNL     1       2.649  14.976  21.777  1.00  0.00     0.210 HD
ENDBRANCH  27  33
TORSDOF 2
ENDMDL
MODEL 7
REMARK VINA RESULT:    -6.689      4.035      7.165
REMARK INTER + INTRA:          -7.491
REMARK INTER:                  -7.261
REMARK INTRA:                  -0.229
REMARK UNBOUND:                -0.215
REMARK SMILES C[C@H]1[C@H](C)CC[C@]2(C(=O)[O-])CC[C@@]3(C)C(=CC[C@H]4[C@@]5(C)CC[C@H](O)C(C)(C)[C@@H]5CC[C@@]43C)[C@H]12
REMARK SMILES IDX 7 1 6 2 11 3 33 4 5 5 12 6 15 7 2 8 3 9 13 10 16 11 1 12
REMARK SMILES IDX 4 13 14 14 31 15 17 16 18 17 30 18 32 19 19 20 29 21 28 22
REMARK SMILES IDX 21 23 20 24 25 25 22 26 23 27 26 28 27 29 8 30 9 31 10 32
REMARK SMILES IDX 24 33
REMARK H PARENT 24 34
REMARK Flexibility Score: inf
ROOT
ATOM      1  C   UNL     1       8.915   7.706  38.925  1.00  0.00     0.017 C 
ATOM      2  C   UNL     1       9.488   6.263  38.823  1.00  0.00     0.014 C 
ATOM      3  C   UNL     1       7.470   7.726  38.289  1.00  0.00     0.014 C 
ATOM      4  C   UNL     1       9.900   8.737  38.256  1.00  0.00     0.030 C 
ATOM      5  C   UNL     1       9.861   5.870  37.398  1.00  0.00     0.004 C 
ATOM      6  C   UNL     1       7.196   8.836  37.242  1.00  0.00     0.013 C 
ATOM      7  C   UNL     1       9.215  10.116  38.107  1.00  0.00    -0.063 C 
ATOM      8  C   UNL     1      10.533   8.264  36.886  1.00  0.00    -0.003 C 
ATOM      9  C   UNL     1      10.979   6.776  36.890  1.00  0.00    -0.011 C 
ATOM     10  C   UNL     1       7.746  10.244  37.643  1.00  0.00    -0.006 C 
ATOM     11  C   UNL     1       9.949  11.244  38.301  1.00  0.00    -0.027 C 
ATOM     12  C   UNL     1      11.735   9.153  36.451  1.00  0.00     0.008 C 
ATOM     13  C   UNL     1      11.413   6.299  35.494  1.00  0.00     0.008 C 
ATOM     14  C   UNL     1       6.884  10.713  38.878  1.00  0.00     0.017 C 
ATOM     15  C   UNL     1       7.723  11.329  36.443  1.00  0.00    -0.020 C 
ATOM     16  C   UNL     1       9.668  12.568  37.604  1.00  0.00     0.032 C 
ATOM     17  C   UNL     1       8.225  12.701  37.057  1.00  0.00     0.006 C 
ATOM     18  C   UNL     1       6.307  11.565  35.850  1.00  0.00     0.008 C 
ATOM     19  C   UNL     1       8.656  10.825  35.278  1.00  0.00     0.012 C 
ATOM     20  C   UNL     1       7.806  14.070  36.311  1.00  0.00    -0.025 C 
ATOM     21  C   UNL     1       6.247  12.651  34.748  1.00  0.00     0.005 C 
ATOM     22  C   UNL     1       7.329  13.776  34.844  1.00  0.00     0.003 C 
ATOM     23  C   UNL     1       9.018  15.053  36.225  1.00  0.00     0.010 C 
ATOM     24  C   UNL     1       6.666  14.758  37.142  1.00  0.00     0.012 C 
ATOM     25  C   UNL     1       7.063  15.031  33.909  1.00  0.00    -0.006 C 
ATOM     26  C   UNL     1       8.765  16.311  35.379  1.00  0.00     0.033 C 
ATOM     27  C   UNL     1       8.321  15.962  33.946  1.00  0.00     0.120 C 
ATOM     28  C   UNL     1       5.779  15.837  34.255  1.00  0.00     0.014 C 
ATOM     29  C   UNL     1       6.894  14.537  32.449  1.00  0.00     0.014 C 
ENDROOT
BRANCH   1  30
ATOM     30  C   UNL     1       8.833   8.044  40.424  1.00  0.00     0.048 C 
ATOM     31  O   UNL     1       9.875   8.133  41.125  1.00  0.00    -0.550 OA
ATOM     32  O   UNL     1       7.608   8.210  41.062  1.00  0.00    -0.550 OA
ENDBRANCH   1  30
BRANCH  27  33
ATOM     33  O   UNL     1       8.078  17.151  33.235  1.00  0.00    -0.393 OA
ATOM     34  H   UNL     1       7.498  16.915  32.462  1.00  0.00     0.210 HD
ENDBRANCH  27  33
TORSDOF 2
ENDMDL
MODEL 8
REMARK VINA RESULT:    -6.523      1.784      7.961
REMARK INTER + INTRA:          -7.310
REMARK INTER:                  -7.087
REMARK INTRA:                  -0.223
REMARK UNBOUND:                -0.215
REMARK SMILES C[C@H]1[C@H](C)CC[C@]2(C(=O)[O-])CC[C@@]3(C)C(=CC[C@H]4[C@@]5(C)CC[C@H](O)C(C)(C)[C@@H]5CC[C@@]43C)[C@H]12
REMARK SMILES IDX 7 1 6 2 11 3 33 4 5 5 12 6 15 7 2 8 3 9 13 10 16 11 1 12
REMARK SMILES IDX 4 13 14 14 31 15 17 16 18 17 30 18 32 19 19 20 29 21 28 22
REMARK SMILES IDX 21 23 20 24 25 25 22 26 23 27 26 28 27 29 8 30 9 31 10 32
REMARK SMILES IDX 24 33
REMARK H PARENT 24 34
REMARK Flexibility Score: inf
ROOT
ATOM      1  C   UNL     1       0.617   6.068  37.147  1.00  0.00     0.017 C 
ATOM      2  C   UNL     1      -0.446   5.743  36.058  1.00  0.00     0.014 C 
ATOM      3  C   UNL     1       0.605   7.623  37.422  1.00  0.00     0.014 C 
ATOM      4  C   UNL     1       2.031   5.527  36.713  1.00  0.00     0.030 C 
ATOM      5  C   UNL     1      -0.041   6.222  34.669  1.00  0.00     0.004 C 
ATOM      6  C   UNL     1       1.979   8.338  37.383  1.00  0.00     0.013 C 
ATOM      7  C   UNL     1       3.129   6.086  37.648  1.00  0.00    -0.063 C 
ATOM      8  C   UNL     1       2.400   5.765  35.194  1.00  0.00    -0.003 C 
ATOM      9  C   UNL     1       1.221   5.492  34.220  1.00  0.00    -0.011 C 
ATOM     10  C   UNL     1       3.126   7.560  38.111  1.00  0.00    -0.006 C 
ATOM     11  C   UNL     1       4.172   5.286  37.996  1.00  0.00    -0.027 C 
ATOM     12  C   UNL     1       3.632   4.926  34.746  1.00  0.00     0.008 C 
ATOM     13  C   UNL     1       1.553   5.912  32.778  1.00  0.00     0.008 C 
ATOM     14  C   UNL     1       2.764   7.588  39.646  1.00  0.00     0.017 C 
ATOM     15  C   UNL     1       4.606   8.148  37.827  1.00  0.00    -0.020 C 
ATOM     16  C   UNL     1       5.567   5.803  38.316  1.00  0.00     0.032 C 
ATOM     17  C   UNL     1       5.612   7.300  38.711  1.00  0.00     0.006 C 
ATOM     18  C   UNL     1       4.766   9.641  38.228  1.00  0.00     0.008 C 
ATOM     19  C   UNL     1       4.921   8.026  36.289  1.00  0.00     0.012 C 
ATOM     20  C   UNL     1       7.038   7.957  39.087  1.00  0.00    -0.025 C 
ATOM     21  C   UNL     1       6.193  10.207  38.032  1.00  0.00     0.005 C 
ATOM     22  C   UNL     1       7.357   9.167  38.138  1.00  0.00     0.003 C 
ATOM     23  C   UNL     1       8.192   6.915  38.928  1.00  0.00     0.010 C 
ATOM     24  C   UNL     1       6.989   8.420  40.586  1.00  0.00     0.012 C 
ATOM     25  C   UNL     1       8.806   9.804  38.248  1.00  0.00    -0.006 C 
ATOM     26  C   UNL     1       9.607   7.494  39.096  1.00  0.00     0.033 C 
ATOM     27  C   UNL     1       9.870   8.661  38.127  1.00  0.00     0.120 C 
ATOM     28  C   UNL     1       9.051  10.642  39.536  1.00  0.00     0.014 C 
ATOM     29  C   UNL     1       9.019  10.766  37.050  1.00  0.00     0.014 C 
ENDROOT
BRANCH   1  30
ATOM     30  C   UNL     1       0.196   5.307  38.417  1.00  0.00     0.048 C 
ATOM     31  O   UNL     1      -0.154   5.926  39.456  1.00  0.00    -0.550 OA
ATOM     32  O   UNL     1       0.237   3.918  38.475  1.00  0.00    -0.550 OA
ENDBRANCH   1  30
BRANCH  27  33
ATOM     33  O   UNL     1      11.164   9.165  38.350  1.00  0.00    -0.393 OA
ATOM     34  H   UNL     1      11.294   9.924  37.720  1.00  0.00     0.210 HD
ENDBRANCH  27  33
TORSDOF 2
ENDMDL
MODEL 9
REMARK VINA RESULT:    -6.432      2.991      8.047
REMARK INTER + INTRA:          -7.211
REMARK INTER:                  -6.950
REMARK INTRA:                  -0.261
REMARK UNBOUND:                -0.215
REMARK SMILES C[C@H]1[C@H](C)CC[C@]2(C(=O)[O-])CC[C@@]3(C)C(=CC[C@H]4[C@@]5(C)CC[C@H](O)C(C)(C)[C@@H]5CC[C@@]43C)[C@H]12
REMARK SMILES IDX 7 1 6 2 11 3 33 4 5 5 12 6 15 7 2 8 3 9 13 10 16 11 1 12
REMARK SMILES IDX 4 13 14 14 31 15 17 16 18 17 30 18 32 19 19 20 29 21 28 22
REMARK SMILES IDX 21 23 20 24 25 25 22 26 23 27 26 28 27 29 8 30 9 31 10 32
REMARK SMILES IDX 24 33
REMARK H PARENT 24 34
REMARK Flexibility Score: inf
ROOT
ATOM      1  C   UNL     1       6.231   8.407  38.397  1.00  0.00     0.017 C 
ATOM      2  C   UNL     1       5.814   9.094  39.729  1.00  0.00     0.014 C 
ATOM      3  C   UNL     1       6.563   6.891  38.688  1.00  0.00     0.014 C 
ATOM      4  C   UNL     1       7.425   9.185  37.727  1.00  0.00     0.030 C 
ATOM      5  C   UNL     1       6.984   9.298  40.685  1.00  0.00     0.004 C 
ATOM      6  C   UNL     1       7.916   6.367  38.142  1.00  0.00     0.013 C 
ATOM      7  C   UNL     1       8.020   8.357  36.563  1.00  0.00    -0.063 C 
ATOM      8  C   UNL     1       8.557   9.659  38.725  1.00  0.00    -0.003 C 
ATOM      9  C   UNL     1       8.005  10.241  40.056  1.00  0.00    -0.011 C 
ATOM     10  C   UNL     1       8.240   6.833  36.684  1.00  0.00    -0.006 C 
ATOM     11  C   UNL     1       8.443   9.001  35.443  1.00  0.00    -0.027 C 
ATOM     12  C   UNL     1       9.520  10.697  38.078  1.00  0.00     0.008 C 
ATOM     13  C   UNL     1       9.124  10.516  41.075  1.00  0.00     0.008 C 
ATOM     14  C   UNL     1       7.189   6.113  35.754  1.00  0.00     0.017 C 
ATOM     15  C   UNL     1       9.761   6.537  36.219  1.00  0.00    -0.020 C 
ATOM     16  C   UNL     1       9.572   8.500  34.553  1.00  0.00     0.032 C 
ATOM     17  C   UNL     1       9.872   6.987  34.704  1.00  0.00     0.006 C 
ATOM     18  C   UNL     1      10.150   5.035  36.296  1.00  0.00     0.008 C 
ATOM     19  C   UNL     1      10.747   7.339  37.149  1.00  0.00     0.012 C 
ATOM     20  C   UNL     1      11.041   6.339  33.798  1.00  0.00    -0.025 C 
ATOM     21  C   UNL     1      11.578   4.716  35.790  1.00  0.00     0.005 C 
ATOM     22  C   UNL     1      12.146   5.689  34.705  1.00  0.00     0.003 C 
ATOM     23  C   UNL     1      11.733   7.428  32.916  1.00  0.00     0.010 C 
ATOM     24  C   UNL     1      10.395   5.267  32.850  1.00  0.00     0.012 C 
ATOM     25  C   UNL     1      13.461   5.175  33.979  1.00  0.00    -0.006 C 
ATOM     26  C   UNL     1      12.973   6.939  32.149  1.00  0.00     0.033 C 
ATOM     27  C   UNL     1      14.030   6.332  33.090  1.00  0.00     0.120 C 
ATOM     28  C   UNL     1      13.274   3.882  33.135  1.00  0.00     0.014 C 
ATOM     29  C   UNL     1      14.529   4.850  35.055  1.00  0.00     0.014 C 
ENDROOT
BRANCH   1  30
ATOM     30  C   UNL     1       5.021   8.506  37.451  1.00  0.00     0.048 C 
ATOM     31  O   UNL     1       4.325   7.492  37.182  1.00  0.00    -0.550 OA
ATOM     32  O   UNL     1       4.689   9.703  36.825  1.00  0.00    -0.550 OA
ENDBRANCH   1  30
BRANCH  27  33
ATOM     33  O   UNL     1      15.122   5.878  32.327  1.00  0.00    -0.393 OA
ATOM     34  H   UNL     1      15.822   5.582  32.968  1.00  0.00     0.210 HD
ENDBRANCH  27  33
TORSDOF 2
ENDMDL
