MODEL 1
REMARK VINA RESULT:    -3.845      0.000      0.000
REMARK INTER + INTRA:          -8.280
REMARK INTER:                  -6.992
REMARK INTRA:                  -1.288
REMARK UNBOUND:                -1.288
REMARK SMILES CCCCCCCCCCCCCCCC(=O)[O-]
REMARK SMILES IDX 9 1 10 2 11 3 12 4 13 5 14 6 15 7 16 8 17 9 18 10 8 11 7 12
REMARK SMILES IDX 6 13 5 14 4 15 3 16 2 17 1 18
REMARK H PARENT
REMARK Flexibility Score: inf
ROOT
ATOM      1  C   UNL     1     158.102 153.947 163.318  1.00  0.00     0.000 C 
ENDROOT
BRANCH   1   2
ATOM      2  C   UNL     1     158.464 152.483 163.016  1.00  0.00     0.000 C 
BRANCH   2   3
ATOM      3  C   UNL     1     159.170 151.787 164.195  1.00  0.00     0.000 C 
BRANCH   3   4
ATOM      4  C   UNL     1     160.286 152.612 164.860  1.00  0.00     0.000 C 
BRANCH   4   5
ATOM      5  C   UNL     1     160.106 152.747 166.383  1.00  0.00     0.000 C 
BRANCH   5   6
ATOM      6  C   UNL     1     161.423 152.515 167.152  1.00  0.00     0.006 C 
BRANCH   6   7
ATOM      7  C   UNL     1     162.678 152.886 166.345  1.00  0.00     0.053 C 
BRANCH   7   8
ATOM      8  C   UNL     1     163.222 154.227 166.729  1.00  0.00     0.041 C 
ATOM      9  O   UNL     1     163.948 154.870 165.926  1.00  0.00    -0.550 OA
ATOM     10  O   UNL     1     162.904 154.779 167.964  1.00  0.00    -0.550 OA
ENDBRANCH   7   8
ENDBRANCH   6   7
ENDBRANCH   5   6
ENDBRANCH   4   5
ENDBRANCH   3   4
ENDBRANCH   2   3
ENDBRANCH   1   2
BRANCH   1  11
ATOM     11  C   UNL     1     156.595 154.219 163.190  1.00  0.00     0.000 C 
BRANCH  11  12
ATOM     12  C   UNL     1     155.857 154.081 164.532  1.00  0.00    -0.000 C 
BRANCH  12  13
ATOM     13  C   UNL     1     156.657 154.658 165.714  1.00  0.00    -0.000 C 
BRANCH  13  14
ATOM     14  C   UNL     1     155.889 155.669 166.591  1.00  0.00    -0.000 C 
BRANCH  14  15
ATOM     15  C   UNL     1     154.388 155.373 166.772  1.00  0.00    -0.000 C 
BRANCH  15  16
ATOM     16  C   UNL     1     153.492 156.531 166.304  1.00  0.00    -0.000 C 
BRANCH  16  17
ATOM     17  C   UNL     1     154.163 157.396 165.224  1.00  0.00    -0.003 C 
ATOM     18  C   UNL     1     153.839 158.883 165.369  1.00  0.00     0.004 C 
ENDBRANCH  16  17
ENDBRANCH  15  16
ENDBRANCH  14  15
ENDBRANCH  13  14
ENDBRANCH  12  13
ENDBRANCH  11  12
ENDBRANCH   1  11
TORSDOF 14
ENDMDL
MODEL 2
REMARK VINA RESULT:    -3.828     12.658     15.919
REMARK INTER + INTRA:          -8.249
REMARK INTER:                  -5.792
REMARK INTRA:                  -2.457
REMARK UNBOUND:                -1.288
REMARK SMILES CCCCCCCCCCCCCCCC(=O)[O-]
REMARK SMILES IDX 9 1 10 2 11 3 12 4 13 5 14 6 15 7 16 8 17 9 18 10 8 11 7 12
REMARK SMILES IDX 6 13 5 14 4 15 3 16 2 17 1 18
REMARK H PARENT
REMARK Flexibility Score: inf
ROOT
ATOM      1  C   UNL     1     167.183 153.653 180.553  1.00  0.00     0.000 C 
ENDROOT
BRANCH   1   2
ATOM      2  C   UNL     1     166.071 154.662 180.212  1.00  0.00     0.000 C 
BRANCH   2   3
ATOM      3  C   UNL     1     166.597 155.898 179.459  1.00  0.00     0.000 C 
BRANCH   3   4
ATOM      4  C   UNL     1     165.599 156.527 178.471  1.00  0.00     0.000 C 
BRANCH   4   5
ATOM      5  C   UNL     1     164.162 156.007 178.657  1.00  0.00     0.000 C 
BRANCH   5   6
ATOM      6  C   UNL     1     163.436 155.797 177.312  1.00  0.00     0.006 C 
BRANCH   6   7
ATOM      7  C   UNL     1     163.764 156.871 176.264  1.00  0.00     0.053 C 
BRANCH   7   8
ATOM      8  C   UNL     1     162.775 157.994 176.273  1.00  0.00     0.041 C 
ATOM      9  O   UNL     1     161.895 158.072 175.377  1.00  0.00    -0.550 OA
ATOM     10  O   UNL     1     162.808 158.940 177.290  1.00  0.00    -0.550 OA
ENDBRANCH   7   8
ENDBRANCH   6   7
ENDBRANCH   5   6
ENDBRANCH   4   5
ENDBRANCH   3   4
ENDBRANCH   2   3
ENDBRANCH   1   2
BRANCH   1  11
ATOM     11  C   UNL     1     168.445 153.859 179.702  1.00  0.00     0.000 C 
BRANCH  11  12
ATOM     12  C   UNL     1     169.030 152.533 179.188  1.00  0.00    -0.000 C 
BRANCH  12  13
ATOM     13  C   UNL     1     167.950 151.467 178.929  1.00  0.00    -0.000 C 
BRANCH  13  14
ATOM     14  C   UNL     1     167.464 151.373 177.467  1.00  0.00    -0.000 C 
BRANCH  14  15
ATOM     15  C   UNL     1     166.133 152.090 177.171  1.00  0.00    -0.000 C 
BRANCH  15  16
ATOM     16  C   UNL     1     166.330 153.532 176.675  1.00  0.00    -0.000 C 
BRANCH  16  17
ATOM     17  C   UNL     1     167.655 153.717 175.918  1.00  0.00    -0.003 C 
ATOM     18  C   UNL     1     168.141 155.167 175.921  1.00  0.00     0.004 C 
ENDBRANCH  16  17
ENDBRANCH  15  16
ENDBRANCH  14  15
ENDBRANCH  13  14
ENDBRANCH  12  13
ENDBRANCH  11  12
ENDBRANCH   1  11
TORSDOF 14
ENDMDL
MODEL 3
REMARK VINA RESULT:    -3.827     13.124     16.006
REMARK INTER + INTRA:          -8.247
REMARK INTER:                  -5.906
REMARK INTRA:                  -2.341
REMARK UNBOUND:                -1.288
REMARK SMILES CCCCCCCCCCCCCCCC(=O)[O-]
REMARK SMILES IDX 9 1 10 2 11 3 12 4 13 5 14 6 15 7 16 8 17 9 18 10 8 11 7 12
REMARK SMILES IDX 6 13 5 14 4 15 3 16 2 17 1 18
REMARK H PARENT
REMARK Flexibility Score: inf
ROOT
ATOM      1  C   UNL     1     167.960 151.994 176.939  1.00  0.00     0.000 C 
ENDROOT
BRANCH   1   2
ATOM      2  C   UNL     1     166.464 151.700 177.151  1.00  0.00     0.000 C 
BRANCH   2   3
ATOM      3  C   UNL     1     165.617 152.980 177.279  1.00  0.00     0.000 C 
BRANCH   3   4
ATOM      4  C   UNL     1     166.149 154.190 176.491  1.00  0.00     0.000 C 
BRANCH   4   5
ATOM      5  C   UNL     1     165.185 155.389 176.511  1.00  0.00     0.000 C 
BRANCH   5   6
ATOM      6  C   UNL     1     163.889 155.088 177.292  1.00  0.00     0.006 C 
BRANCH   6   7
ATOM      7  C   UNL     1     163.346 156.299 178.067  1.00  0.00     0.053 C 
BRANCH   7   8
ATOM      8  C   UNL     1     162.518 157.200 177.205  1.00  0.00     0.041 C 
ATOM      9  O   UNL     1     161.291 156.970 177.041  1.00  0.00    -0.550 OA
ATOM     10  O   UNL     1     163.097 158.311 176.604  1.00  0.00    -0.550 OA
ENDBRANCH   7   8
ENDBRANCH   6   7
ENDBRANCH   5   6
ENDBRANCH   4   5
ENDBRANCH   3   4
ENDBRANCH   2   3
ENDBRANCH   1   2
BRANCH   1  11
ATOM     11  C   UNL     1     168.736 152.077 178.262  1.00  0.00     0.000 C 
BRANCH  11  12
ATOM     12  C   UNL     1     168.168 151.134 179.337  1.00  0.00    -0.000 C 
BRANCH  12  13
ATOM     13  C   UNL     1     167.764 151.875 180.625  1.00  0.00    -0.000 C 
BRANCH  13  14
ATOM     14  C   UNL     1     167.804 153.414 180.532  1.00  0.00    -0.000 C 
BRANCH  14  15
ATOM     15  C   UNL     1     166.430 154.109 180.535  1.00  0.00    -0.000 C 
BRANCH  15  16
ATOM     16  C   UNL     1     166.479 155.530 179.949  1.00  0.00    -0.000 C 
BRANCH  16  17
ATOM     17  C   UNL     1     167.914 156.066 179.825  1.00  0.00    -0.003 C 
ATOM     18  C   UNL     1     168.258 156.519 178.406  1.00  0.00     0.004 C 
ENDBRANCH  16  17
ENDBRANCH  15  16
ENDBRANCH  14  15
ENDBRANCH  13  14
ENDBRANCH  12  13
ENDBRANCH  11  12
ENDBRANCH   1  11
TORSDOF 14
ENDMDL
MODEL 4
REMARK VINA RESULT:    -3.775      2.120      2.886
REMARK INTER + INTRA:          -8.152
REMARK INTER:                  -6.810
REMARK INTRA:                  -1.343
REMARK UNBOUND:                -1.288
REMARK SMILES CCCCCCCCCCCCCCCC(=O)[O-]
REMARK SMILES IDX 9 1 10 2 11 3 12 4 13 5 14 6 15 7 16 8 17 9 18 10 8 11 7 12
REMARK SMILES IDX 6 13 5 14 4 15 3 16 2 17 1 18
REMARK H PARENT
REMARK Flexibility Score: inf
ROOT
ATOM      1  C   UNL     1     158.200 153.571 163.542  1.00  0.00     0.000 C 
ENDROOT
BRANCH   1   2
ATOM      2  C   UNL     1     157.872 152.389 164.472  1.00  0.00     0.000 C 
BRANCH   2   3
ATOM      3  C   UNL     1     159.122 151.798 165.150  1.00  0.00     0.000 C 
BRANCH   3   4
ATOM      4  C   UNL     1     159.746 152.684 166.243  1.00  0.00     0.000 C 
BRANCH   4   5
ATOM      5  C   UNL     1     161.163 152.236 166.642  1.00  0.00     0.000 C 
BRANCH   5   6
ATOM      6  C   UNL     1     161.603 152.819 168.001  1.00  0.00     0.006 C 
BRANCH   6   7
ATOM      7  C   UNL     1     163.128 152.905 168.166  1.00  0.00     0.053 C 
BRANCH   7   8
ATOM      8  C   UNL     1     163.687 151.722 168.894  1.00  0.00     0.041 C 
ATOM      9  O   UNL     1     164.870 151.348 168.683  1.00  0.00    -0.550 OA
ATOM     10  O   UNL     1     162.908 151.049 169.827  1.00  0.00    -0.550 OA
ENDBRANCH   7   8
ENDBRANCH   6   7
ENDBRANCH   5   6
ENDBRANCH   4   5
ENDBRANCH   3   4
ENDBRANCH   2   3
ENDBRANCH   1   2
BRANCH   1  11
ATOM     11  C   UNL     1     156.941 154.316 163.073  1.00  0.00     0.000 C 
BRANCH  11  12
ATOM     12  C   UNL     1     155.757 154.137 164.039  1.00  0.00    -0.000 C 
BRANCH  12  13
ATOM     13  C   UNL     1     155.363 155.447 164.745  1.00  0.00    -0.000 C 
BRANCH  13  14
ATOM     14  C   UNL     1     156.220 155.808 165.976  1.00  0.00    -0.000 C 
BRANCH  14  15
ATOM     15  C   UNL     1     156.323 154.710 167.051  1.00  0.00    -0.000 C 
BRANCH  15  16
ATOM     16  C   UNL     1     155.079 154.641 167.952  1.00  0.00    -0.000 C 
BRANCH  16  17
ATOM     17  C   UNL     1     154.640 153.196 168.238  1.00  0.00    -0.003 C 
ATOM     18  C   UNL     1     154.326 152.409 166.966  1.00  0.00     0.004 C 
ENDBRANCH  16  17
ENDBRANCH  15  16
ENDBRANCH  14  15
ENDBRANCH  13  14
ENDBRANCH  12  13
ENDBRANCH  11  12
ENDBRANCH   1  11
TORSDOF 14
ENDMDL
MODEL 5
REMARK VINA RESULT:    -3.758     12.715     14.750
REMARK INTER + INTRA:          -8.121
REMARK INTER:                  -5.923
REMARK INTRA:                  -2.198
REMARK UNBOUND:                -1.288
REMARK SMILES CCCCCCCCCCCCCCCC(=O)[O-]
REMARK SMILES IDX 9 1 10 2 11 3 12 4 13 5 14 6 15 7 16 8 17 9 18 10 8 11 7 12
REMARK SMILES IDX 6 13 5 14 4 15 3 16 2 17 1 18
REMARK H PARENT
REMARK Flexibility Score: inf
ROOT
ATOM      1  C   UNL     1     168.154 155.169 175.740  1.00  0.00     0.000 C 
ENDROOT
BRANCH   1   2
ATOM      2  C   UNL     1     167.676 153.724 175.966  1.00  0.00     0.000 C 
BRANCH   2   3
ATOM      3  C   UNL     1     166.230 153.649 176.491  1.00  0.00     0.000 C 
BRANCH   3   4
ATOM      4  C   UNL     1     165.927 152.431 177.382  1.00  0.00     0.000 C 
BRANCH   4   5
ATOM      5  C   UNL     1     166.985 151.320 177.258  1.00  0.00     0.000 C 
BRANCH   5   6
ATOM      6  C   UNL     1     167.692 151.031 178.599  1.00  0.00     0.006 C 
BRANCH   6   7
ATOM      7  C   UNL     1     167.832 152.269 179.497  1.00  0.00     0.053 C 
BRANCH   7   8
ATOM      8  C   UNL     1     169.134 152.977 179.288  1.00  0.00     0.041 C 
ATOM      9  O   UNL     1     169.400 154.022 179.938  1.00  0.00    -0.550 OA
ATOM     10  O   UNL     1     170.067 152.466 178.394  1.00  0.00    -0.550 OA
ENDBRANCH   7   8
ENDBRANCH   6   7
ENDBRANCH   5   6
ENDBRANCH   4   5
ENDBRANCH   3   4
ENDBRANCH   2   3
ENDBRANCH   1   2
BRANCH   1  11
ATOM     11  C   UNL     1     167.642 156.134 176.820  1.00  0.00     0.000 C 
BRANCH  11  12
ATOM     12  C   UNL     1     166.847 157.311 176.227  1.00  0.00    -0.000 C 
BRANCH  12  13
ATOM     13  C   UNL     1     166.241 156.986 174.850  1.00  0.00    -0.000 C 
BRANCH  13  14
ATOM     14  C   UNL     1     164.781 156.490 174.880  1.00  0.00    -0.000 C 
BRANCH  14  15
ATOM     15  C   UNL     1     163.938 156.999 176.064  1.00  0.00    -0.000 C 
BRANCH  15  16
ATOM     16  C   UNL     1     163.440 155.864 176.974  1.00  0.00    -0.000 C 
BRANCH  16  17
ATOM     17  C   UNL     1     163.510 156.232 178.465  1.00  0.00    -0.003 C 
ATOM     18  C   UNL     1     164.774 155.707 179.146  1.00  0.00     0.004 C 
ENDBRANCH  16  17
ENDBRANCH  15  16
ENDBRANCH  14  15
ENDBRANCH  13  14
ENDBRANCH  12  13
ENDBRANCH  11  12
ENDBRANCH   1  11
TORSDOF 14
ENDMDL
MODEL 6
REMARK VINA RESULT:    -3.756     13.238     16.219
REMARK INTER + INTRA:          -8.119
REMARK INTER:                  -5.432
REMARK INTRA:                  -2.687
REMARK UNBOUND:                -1.288
REMARK SMILES CCCCCCCCCCCCCCCC(=O)[O-]
REMARK SMILES IDX 9 1 10 2 11 3 12 4 13 5 14 6 15 7 16 8 17 9 18 10 8 11 7 12
REMARK SMILES IDX 6 13 5 14 4 15 3 16 2 17 1 18
REMARK H PARENT
REMARK Flexibility Score: inf
ROOT
ATOM      1  C   UNL     1     167.490 151.977 180.003  1.00  0.00     0.000 C 
ENDROOT
BRANCH   1   2
ATOM      2  C   UNL     1     168.477 153.136 180.233  1.00  0.00     0.000 C 
BRANCH   2   3
ATOM      3  C   UNL     1     167.784 154.422 180.721  1.00  0.00     0.000 C 
BRANCH   3   4
ATOM      4  C   UNL     1     166.272 154.487 180.444  1.00  0.00     0.000 C 
BRANCH   4   5
ATOM      5  C   UNL     1     165.817 155.861 179.919  1.00  0.00     0.000 C 
BRANCH   5   6
ATOM      6  C   UNL     1     164.519 155.772 179.089  1.00  0.00     0.006 C 
BRANCH   6   7
ATOM      7  C   UNL     1     164.270 157.006 178.208  1.00  0.00     0.053 C 
BRANCH   7   8
ATOM      8  C   UNL     1     163.456 156.681 176.995  1.00  0.00     0.041 C 
ATOM      9  O   UNL     1     162.200 156.769 177.030  1.00  0.00    -0.550 OA
ATOM     10  O   UNL     1     164.086 156.308 175.814  1.00  0.00    -0.550 OA
ENDBRANCH   7   8
ENDBRANCH   6   7
ENDBRANCH   5   6
ENDBRANCH   4   5
ENDBRANCH   3   4
ENDBRANCH   2   3
ENDBRANCH   1   2
BRANCH   1  11
ATOM     11  C   UNL     1     167.944 151.032 178.880  1.00  0.00     0.000 C 
BRANCH  11  12
ATOM     12  C   UNL     1     167.710 151.627 177.481  1.00  0.00    -0.000 C 
BRANCH  12  13
ATOM     13  C   UNL     1     166.254 152.075 177.260  1.00  0.00    -0.000 C 
BRANCH  13  14
ATOM     14  C   UNL     1     166.083 153.545 176.826  1.00  0.00    -0.000 C 
BRANCH  14  15
ATOM     15  C   UNL     1     167.315 154.180 176.154  1.00  0.00    -0.000 C 
BRANCH  15  16
ATOM     16  C   UNL     1     167.477 155.670 176.494  1.00  0.00    -0.000 C 
BRANCH  16  17
ATOM     17  C   UNL     1     168.587 155.920 177.527  1.00  0.00    -0.003 C 
ATOM     18  C   UNL     1     169.799 155.010 177.328  1.00  0.00     0.004 C 
ENDBRANCH  16  17
ENDBRANCH  15  16
ENDBRANCH  14  15
ENDBRANCH  13  14
ENDBRANCH  12  13
ENDBRANCH  11  12
ENDBRANCH   1  11
TORSDOF 14
ENDMDL
MODEL 7
REMARK VINA RESULT:    -3.717     12.910     16.072
REMARK INTER + INTRA:          -8.048
REMARK INTER:                  -5.635
REMARK INTRA:                  -2.413
REMARK UNBOUND:                -1.288
REMARK SMILES CCCCCCCCCCCCCCCC(=O)[O-]
REMARK SMILES IDX 9 1 10 2 11 3 12 4 13 5 14 6 15 7 16 8 17 9 18 10 8 11 7 12
REMARK SMILES IDX 6 13 5 14 4 15 3 16 2 17 1 18
REMARK H PARENT
REMARK Flexibility Score: inf
ROOT
ATOM      1  C   UNL     1     168.831 155.965 178.489  1.00  0.00     0.000 C 
ENDROOT
BRANCH   1   2
ATOM      2  C   UNL     1     167.934 156.207 179.716  1.00  0.00     0.000 C 
BRANCH   2   3
ATOM      3  C   UNL     1     167.182 154.940 180.164  1.00  0.00     0.000 C 
BRANCH   3   4
ATOM      4  C   UNL     1     165.650 155.019 180.041  1.00  0.00     0.000 C 
BRANCH   4   5
ATOM      5  C   UNL     1     165.161 156.378 179.509  1.00  0.00     0.000 C 
BRANCH   5   6
ATOM      6  C   UNL     1     163.662 156.361 179.144  1.00  0.00     0.006 C 
BRANCH   6   7
ATOM      7  C   UNL     1     163.382 155.835 177.728  1.00  0.00     0.053 C 
BRANCH   7   8
ATOM      8  C   UNL     1     162.661 156.838 176.882  1.00  0.00     0.041 C 
ATOM      9  O   UNL     1     161.417 156.989 176.998  1.00  0.00    -0.550 OA
ATOM     10  O   UNL     1     163.370 157.628 175.985  1.00  0.00    -0.550 OA
ENDBRANCH   7   8
ENDBRANCH   6   7
ENDBRANCH   5   6
ENDBRANCH   4   5
ENDBRANCH   3   4
ENDBRANCH   2   3
ENDBRANCH   1   2
BRANCH   1  11
ATOM     11  C   UNL     1     168.048 156.017 177.169  1.00  0.00     0.000 C 
BRANCH  11  12
ATOM     12  C   UNL     1     168.622 155.063 176.107  1.00  0.00    -0.000 C 
BRANCH  12  13
ATOM     13  C   UNL     1     167.647 153.933 175.733  1.00  0.00    -0.000 C 
BRANCH  13  14
ATOM     14  C   UNL     1     166.305 153.950 176.495  1.00  0.00    -0.000 C 
BRANCH  14  15
ATOM     15  C   UNL     1     165.986 152.672 177.292  1.00  0.00    -0.000 C 
BRANCH  15  16
ATOM     16  C   UNL     1     167.098 151.615 177.195  1.00  0.00    -0.000 C 
BRANCH  16  17
ATOM     17  C   UNL     1     167.807 151.381 178.538  1.00  0.00    -0.003 C 
ATOM     18  C   UNL     1     169.097 152.189 178.677  1.00  0.00     0.004 C 
ENDBRANCH  16  17
ENDBRANCH  15  16
ENDBRANCH  14  15
ENDBRANCH  13  14
ENDBRANCH  12  13
ENDBRANCH  11  12
ENDBRANCH   1  11
TORSDOF 14
ENDMDL
MODEL 8
REMARK VINA RESULT:    -3.695     12.903     16.966
REMARK INTER + INTRA:          -8.007
REMARK INTER:                  -5.618
REMARK INTRA:                  -2.389
REMARK UNBOUND:                -1.288
REMARK SMILES CCCCCCCCCCCCCCCC(=O)[O-]
REMARK SMILES IDX 9 1 10 2 11 3 12 4 13 5 14 6 15 7 16 8 17 9 18 10 8 11 7 12
REMARK SMILES IDX 6 13 5 14 4 15 3 16 2 17 1 18
REMARK H PARENT
REMARK Flexibility Score: inf
ROOT
ATOM      1  C   UNL     1     167.829 150.875 179.539  1.00  0.00     0.000 C 
ENDROOT
BRANCH   1   2
ATOM      2  C   UNL     1     168.020 151.332 178.082  1.00  0.00     0.000 C 
BRANCH   2   3
ATOM      3  C   UNL     1     166.714 151.288 177.267  1.00  0.00     0.000 C 
BRANCH   3   4
ATOM      4  C   UNL     1     166.119 152.664 176.922  1.00  0.00     0.000 C 
BRANCH   4   5
ATOM      5  C   UNL     1     167.131 153.602 176.240  1.00  0.00     0.000 C 
BRANCH   5   6
ATOM      6  C   UNL     1     166.765 155.090 176.416  1.00  0.00     0.006 C 
BRANCH   6   7
ATOM      7  C   UNL     1     165.396 155.310 177.080  1.00  0.00     0.053 C 
BRANCH   7   8
ATOM      8  C   UNL     1     164.429 156.001 176.171  1.00  0.00     0.041 C 
ATOM      9  O   UNL     1     164.676 156.103 174.941  1.00  0.00    -0.550 OA
ATOM     10  O   UNL     1     163.240 156.510 176.679  1.00  0.00    -0.550 OA
ENDBRANCH   7   8
ENDBRANCH   6   7
ENDBRANCH   5   6
ENDBRANCH   4   5
ENDBRANCH   3   4
ENDBRANCH   2   3
ENDBRANCH   1   2
BRANCH   1  11
ATOM     11  C   UNL     1     168.059 152.012 180.547  1.00  0.00     0.000 C 
BRANCH  11  12
ATOM     12  C   UNL     1     167.047 153.159 180.379  1.00  0.00    -0.000 C 
BRANCH  12  13
ATOM     13  C   UNL     1     167.713 154.486 179.972  1.00  0.00    -0.000 C 
BRANCH  13  14
ATOM     14  C   UNL     1     169.253 154.444 179.892  1.00  0.00    -0.000 C 
BRANCH  14  15
ATOM     15  C   UNL     1     169.844 154.648 178.484  1.00  0.00    -0.000 C 
BRANCH  15  16
ATOM     16  C   UNL     1     171.222 153.988 178.314  1.00  0.00    -0.000 C 
BRANCH  16  17
ATOM     17  C   UNL     1     171.237 152.528 178.793  1.00  0.00    -0.003 C 
ATOM     18  C   UNL     1     172.404 152.225 179.734  1.00  0.00     0.004 C 
ENDBRANCH  16  17
ENDBRANCH  15  16
ENDBRANCH  14  15
ENDBRANCH  13  14
ENDBRANCH  12  13
ENDBRANCH  11  12
ENDBRANCH   1  11
TORSDOF 14
ENDMDL
MODEL 9
REMARK VINA RESULT:    -3.678     12.578     15.264
REMARK INTER + INTRA:          -7.976
REMARK INTER:                  -5.587
REMARK INTRA:                  -2.388
REMARK UNBOUND:                -1.288
REMARK SMILES CCCCCCCCCCCCCCCC(=O)[O-]
REMARK SMILES IDX 9 1 10 2 11 3 12 4 13 5 14 6 15 7 16 8 17 9 18 10 8 11 7 12
REMARK SMILES IDX 6 13 5 14 4 15 3 16 2 17 1 18
REMARK H PARENT
REMARK Flexibility Score: inf
ROOT
ATOM      1  C   UNL     1     167.236 152.342 179.959  1.00  0.00     0.000 C 
ENDROOT
BRANCH   1   2
ATOM      2  C   UNL     1     168.287 151.720 179.024  1.00  0.00     0.000 C 
BRANCH   2   3
ATOM      3  C   UNL     1     167.796 151.602 177.569  1.00  0.00     0.000 C 
BRANCH   3   4
ATOM      4  C   UNL     1     166.362 152.104 177.327  1.00  0.00     0.000 C 
BRANCH   4   5
ATOM      5  C   UNL     1     166.317 153.470 176.619  1.00  0.00     0.000 C 
BRANCH   5   6
ATOM      6  C   UNL     1     167.685 153.872 176.030  1.00  0.00     0.006 C 
BRANCH   6   7
ATOM      7  C   UNL     1     168.167 155.258 176.489  1.00  0.00     0.053 C 
BRANCH   7   8
ATOM      8  C   UNL     1     169.625 155.269 176.825  1.00  0.00     0.041 C 
ATOM      9  O   UNL     1     170.415 156.022 176.197  1.00  0.00    -0.550 OA
ATOM     10  O   UNL     1     170.108 154.466 177.851  1.00  0.00    -0.550 OA
ENDBRANCH   7   8
ENDBRANCH   6   7
ENDBRANCH   5   6
ENDBRANCH   4   5
ENDBRANCH   3   4
ENDBRANCH   2   3
ENDBRANCH   1   2
BRANCH   1  11
ATOM     11  C   UNL     1     167.498 153.832 180.229  1.00  0.00     0.000 C 
BRANCH  11  12
ATOM     12  C   UNL     1     166.216 154.678 180.146  1.00  0.00    -0.000 C 
BRANCH  12  13
ATOM     13  C   UNL     1     166.487 156.127 179.702  1.00  0.00    -0.000 C 
BRANCH  13  14
ATOM     14  C   UNL     1     165.472 156.700 178.691  1.00  0.00    -0.000 C 
BRANCH  14  15
ATOM     15  C   UNL     1     164.114 155.975 178.642  1.00  0.00    -0.000 C 
BRANCH  15  16
ATOM     16  C   UNL     1     163.664 155.648 177.209  1.00  0.00    -0.000 C 
BRANCH  16  17
ATOM     17  C   UNL     1     163.864 156.828 176.245  1.00  0.00    -0.003 C 
ATOM     18  C   UNL     1     164.711 156.462 175.026  1.00  0.00     0.004 C 
ENDBRANCH  16  17
ENDBRANCH  15  16
ENDBRANCH  14  15
ENDBRANCH  13  14
ENDBRANCH  12  13
ENDBRANCH  11  12
ENDBRANCH   1  11
TORSDOF 14
ENDMDL
