MODEL 1
REMARK VINA RESULT:     0.000      0.000      0.000
REMARK INTER + INTRA:          -0.335
REMARK INTER:                   0.000
REMARK INTRA:                  -0.335
REMARK UNBOUND:                -0.335
REMARK SMILES O=c1c(O)c(-c2ccc(O)c(O)c2)oc2cc(O)cc(O)c12
REMARK SMILES IDX 5 1 3 2 2 3 1 4 22 5 20 6 19 7 17 8 16 9 15 10 14 11 6 12
REMARK SMILES IDX 7 13 8 14 9 15 13 16 11 17 10 18 12 20 4 22 21 24 18 26
REMARK H PARENT 10 19 12 21 4 23 21 25 18 27
REMARK Flexibility Score: inf
ROOT
ATOM      1  C   UNL     1      11.742  47.477  34.976  1.00  0.00     0.180 A 
ATOM      2  C   UNL     1      11.552  47.835  36.321  1.00  0.00     0.208 A 
ATOM      3  C   UNL     1      10.932  49.059  36.619  1.00  0.00     0.238 A 
ATOM      4  O   UNL     1      10.813  49.399  37.826  1.00  0.00    -0.285 OA
ATOM      5  C   UNL     1      10.494  49.902  35.569  1.00  0.00     0.111 A 
ATOM      6  C   UNL     1       9.818  51.144  35.756  1.00  0.00     0.134 A 
ATOM      7  C   UNL     1       9.548  51.957  34.647  1.00  0.00     0.093 A 
ATOM      8  C   UNL     1       9.872  51.541  33.354  1.00  0.00     0.123 A 
ATOM      9  C   UNL     1      10.478  50.303  33.156  1.00  0.00     0.094 A 
ATOM     10  C   UNL     1      10.793  49.487  34.245  1.00  0.00     0.146 A 
ATOM     11  O   UNL     1      11.381  48.319  34.014  1.00  0.00    -0.452 OA
ENDROOT
BRANCH   1  12
ATOM     12  C   UNL     1      12.366  46.193  34.582  1.00  0.00     0.025 A 
ATOM     13  C   UNL     1      13.747  46.142  34.338  1.00  0.00     0.016 A 
ATOM     14  C   UNL     1      14.352  44.946  33.946  1.00  0.00     0.051 A 
ATOM     15  C   UNL     1      13.584  43.787  33.776  1.00  0.00     0.157 A 
ATOM     16  C   UNL     1      11.594  45.033  34.391  1.00  0.00     0.062 A 
ATOM     17  C   UNL     1      12.197  43.833  33.995  1.00  0.00     0.158 A 
BRANCH  15  18
ATOM     18  O   UNL     1      14.190  42.594  33.386  1.00  0.00    -0.504 OA
ATOM     19  H   UNL     1      14.985  42.213  33.888  1.00  0.00     0.293 HD
ENDBRANCH  15  18
BRANCH  17  20
ATOM     20  O   UNL     1      11.401  42.701  33.822  1.00  0.00    -0.504 OA
ATOM     21  H   UNL     1      11.335  41.977  34.527  1.00  0.00     0.293 HD
ENDBRANCH  17  20
ENDBRANCH   1  12
BRANCH   2  22
ATOM     22  O   UNL     1      12.012  46.999  37.343  1.00  0.00    -0.502 OA
ATOM     23  H   UNL     1      11.455  46.239  37.715  1.00  0.00     0.293 HD
ENDBRANCH   2  22
BRANCH   6  24
ATOM     24  O   UNL     1       9.369  51.611  36.995  1.00  0.00    -0.507 OA
ATOM     25  H   UNL     1       9.853  52.290  37.563  1.00  0.00     0.293 HD
ENDBRANCH   6  24
BRANCH   8  26
ATOM     26  O   UNL     1       9.586  52.349  32.255  1.00  0.00    -0.508 OA
ATOM     27  H   UNL     1      10.301  52.918  31.815  1.00  0.00     0.293 HD
ENDBRANCH   8  26
TORSDOF 6
ENDMDL
MODEL 2
REMARK VINA RESULT:     0.000      1.516      2.223
REMARK INTER + INTRA:          -0.335
REMARK INTER:                   0.000
REMARK INTRA:                  -0.335
REMARK UNBOUND:                -0.335
REMARK SMILES O=c1c(O)c(-c2ccc(O)c(O)c2)oc2cc(O)cc(O)c12
REMARK SMILES IDX 5 1 3 2 2 3 1 4 22 5 20 6 19 7 17 8 16 9 15 10 14 11 6 12
REMARK SMILES IDX 7 13 8 14 9 15 13 16 11 17 10 18 12 20 4 22 21 24 18 26
REMARK H PARENT 10 19 12 21 4 23 21 25 18 27
REMARK Flexibility Score: inf
ROOT
ATOM      1  C   UNL     1      10.731  49.108  35.433  1.00  0.00     0.180 A 
ATOM      2  C   UNL     1      10.513  49.612  36.726  1.00  0.00     0.208 A 
ATOM      3  C   UNL     1      10.271  50.986  36.889  1.00  0.00     0.238 A 
ATOM      4  O   UNL     1      10.131  51.441  38.055  1.00  0.00    -0.285 OA
ATOM      5  C   UNL     1      10.234  51.834  35.756  1.00  0.00     0.111 A 
ATOM      6  C   UNL     1       9.958  53.234  35.802  1.00  0.00     0.134 A 
ATOM      7  C   UNL     1      10.076  53.998  34.634  1.00  0.00     0.093 A 
ATOM      8  C   UNL     1      10.396  53.402  33.412  1.00  0.00     0.123 A 
ATOM      9  C   UNL     1      10.609  52.028  33.348  1.00  0.00     0.094 A 
ATOM     10  C   UNL     1      10.535  51.244  34.501  1.00  0.00     0.146 A 
ATOM     11  O   UNL     1      10.755  49.939  34.398  1.00  0.00    -0.452 OA
ENDROOT
BRANCH   1  12
ATOM     12  C   UNL     1      10.967  47.668  35.178  1.00  0.00     0.025 A 
ATOM     13  C   UNL     1      12.283  47.184  35.117  1.00  0.00     0.016 A 
ATOM     14  C   UNL     1      12.529  45.834  34.858  1.00  0.00     0.051 A 
ATOM     15  C   UNL     1      11.464  44.950  34.639  1.00  0.00     0.157 A 
ATOM     16  C   UNL     1       9.901  46.783  34.938  1.00  0.00     0.062 A 
ATOM     17  C   UNL     1      10.144  45.429  34.675  1.00  0.00     0.158 A 
BRANCH  15  18
ATOM     18  O   UNL     1      11.712  43.603  34.382  1.00  0.00    -0.504 OA
ATOM     19  H   UNL     1      12.290  43.042  34.999  1.00  0.00     0.293 HD
ENDBRANCH  15  18
BRANCH  17  20
ATOM     20  O   UNL     1       9.062  44.579  34.447  1.00  0.00    -0.504 OA
ATOM     21  H   UNL     1       8.698  43.968  35.168  1.00  0.00     0.293 HD
ENDBRANCH  17  20
ENDBRANCH   1  12
BRANCH   2  22
ATOM     22  O   UNL     1      10.576  48.761  37.833  1.00  0.00    -0.502 OA
ATOM     23  H   UNL     1      10.049  48.931  38.680  1.00  0.00     0.293 HD
ENDBRANCH   2  22
BRANCH   6  24
ATOM     24  O   UNL     1       9.541  53.911  36.951  1.00  0.00    -0.507 OA
ATOM     25  H   UNL     1      10.145  54.456  37.548  1.00  0.00     0.293 HD
ENDBRANCH   6  24
BRANCH   8  26
ATOM     26  O   UNL     1      10.497  54.168  32.252  1.00  0.00    -0.508 OA
ATOM     27  H   UNL     1      11.397  54.459  31.885  1.00  0.00     0.293 HD
ENDBRANCH   8  26
TORSDOF 6
ENDMDL
MODEL 3
REMARK VINA RESULT:     0.000      6.816      9.237
REMARK INTER + INTRA:          -0.335
REMARK INTER:                   0.000
REMARK INTRA:                  -0.335
REMARK UNBOUND:                -0.335
REMARK SMILES O=c1c(O)c(-c2ccc(O)c(O)c2)oc2cc(O)cc(O)c12
REMARK SMILES IDX 5 1 3 2 2 3 1 4 22 5 20 6 19 7 17 8 16 9 15 10 14 11 6 12
REMARK SMILES IDX 7 13 8 14 9 15 13 16 11 17 10 18 12 20 4 22 21 24 18 26
REMARK H PARENT 10 19 12 21 4 23 21 25 18 27
REMARK Flexibility Score: inf
ROOT
ATOM      1  C   UNL     1       8.076  41.157  32.998  1.00  0.00     0.180 A 
ATOM      2  C   UNL     1       7.894  41.878  31.806  1.00  0.00     0.208 A 
ATOM      3  C   UNL     1       6.594  42.039  31.299  1.00  0.00     0.238 A 
ATOM      4  O   UNL     1       6.443  42.639  30.203  1.00  0.00    -0.285 OA
ATOM      5  C   UNL     1       5.492  41.491  31.999  1.00  0.00     0.111 A 
ATOM      6  C   UNL     1       4.129  41.628  31.598  1.00  0.00     0.134 A 
ATOM      7  C   UNL     1       3.132  40.933  32.296  1.00  0.00     0.093 A 
ATOM      8  C   UNL     1       3.443  40.161  33.417  1.00  0.00     0.123 A 
ATOM      9  C   UNL     1       4.763  40.070  33.851  1.00  0.00     0.094 A 
ATOM     10  C   UNL     1       5.783  40.720  33.155  1.00  0.00     0.146 A 
ATOM     11  O   UNL     1       7.030  40.599  33.596  1.00  0.00    -0.452 OA
ENDROOT
BRANCH   1  12
ATOM     12  C   UNL     1       9.412  40.966  33.608  1.00  0.00     0.025 A 
ATOM     13  C   UNL     1      10.151  39.811  33.307  1.00  0.00     0.016 A 
ATOM     14  C   UNL     1      11.404  39.601  33.887  1.00  0.00     0.051 A 
ATOM     15  C   UNL     1      11.931  40.535  34.788  1.00  0.00     0.157 A 
ATOM     16  C   UNL     1       9.936  41.892  34.528  1.00  0.00     0.062 A 
ATOM     17  C   UNL     1      11.190  41.683  35.113  1.00  0.00     0.158 A 
BRANCH  15  18
ATOM     18  O   UNL     1      13.183  40.325  35.364  1.00  0.00    -0.504 OA
ATOM     19  H   UNL     1      13.406  40.672  36.291  1.00  0.00     0.293 HD
ENDBRANCH  15  18
BRANCH  17  20
ATOM     20  O   UNL     1      11.680  42.625  36.017  1.00  0.00    -0.504 OA
ATOM     21  H   UNL     1      12.407  42.402  36.686  1.00  0.00     0.293 HD
ENDBRANCH  17  20
ENDBRANCH   1  12
BRANCH   2  22
ATOM     22  O   UNL     1       8.998  42.392  31.119  1.00  0.00    -0.502 OA
ATOM     23  H   UNL     1       9.878  41.895  31.055  1.00  0.00     0.293 HD
ENDBRANCH   2  22
BRANCH   6  24
ATOM     24  O   UNL     1       3.702  42.447  30.550  1.00  0.00    -0.507 OA
ATOM     25  H   UNL     1       3.946  43.420  30.446  1.00  0.00     0.293 HD
ENDBRANCH   6  24
BRANCH   8  26
ATOM     26  O   UNL     1       2.442  39.485  34.114  1.00  0.00    -0.508 OA
ATOM     27  H   UNL     1       1.851  39.961  34.787  1.00  0.00     0.293 HD
ENDBRANCH   8  26
TORSDOF 6
ENDMDL
MODEL 4
REMARK VINA RESULT:     0.000      5.967      7.994
REMARK INTER + INTRA:          -0.335
REMARK INTER:                   0.000
REMARK INTRA:                  -0.335
REMARK UNBOUND:                -0.335
REMARK SMILES O=c1c(O)c(-c2ccc(O)c(O)c2)oc2cc(O)cc(O)c12
REMARK SMILES IDX 5 1 3 2 2 3 1 4 22 5 20 6 19 7 17 8 16 9 15 10 14 11 6 12
REMARK SMILES IDX 7 13 8 14 9 15 13 16 11 17 10 18 12 20 4 22 21 24 18 26
REMARK H PARENT 10 19 12 21 4 23 21 25 18 27
REMARK Flexibility Score: inf
ROOT
ATOM      1  C   UNL     1       7.951  42.849  33.790  1.00  0.00     0.180 A 
ATOM      2  C   UNL     1       8.092  43.954  32.935  1.00  0.00     0.208 A 
ATOM      3  C   UNL     1       7.045  44.272  32.054  1.00  0.00     0.238 A 
ATOM      4  O   UNL     1       7.200  45.231  31.253  1.00  0.00    -0.285 OA
ATOM      5  C   UNL     1       5.865  43.490  32.052  1.00  0.00     0.111 A 
ATOM      6  C   UNL     1       4.726  43.747  31.230  1.00  0.00     0.134 A 
ATOM      7  C   UNL     1       3.666  42.831  31.217  1.00  0.00     0.093 A 
ATOM      8  C   UNL     1       3.676  41.705  32.043  1.00  0.00     0.123 A 
ATOM      9  C   UNL     1       4.756  41.479  32.892  1.00  0.00     0.094 A 
ATOM     10  C   UNL     1       5.845  42.354  32.901  1.00  0.00     0.146 A 
ATOM     11  O   UNL     1       6.860  42.096  33.718  1.00  0.00    -0.452 OA
ENDROOT
BRANCH   1  12
ATOM     12  C   UNL     1       9.000  42.466  34.763  1.00  0.00     0.025 A 
ATOM     13  C   UNL     1       9.964  41.512  34.401  1.00  0.00     0.016 A 
ATOM     14  C   UNL     1      10.949  41.121  35.310  1.00  0.00     0.051 A 
ATOM     15  C   UNL     1      10.977  41.666  36.600  1.00  0.00     0.157 A 
ATOM     16  C   UNL     1       9.019  42.996  36.065  1.00  0.00     0.062 A 
ATOM     17  C   UNL     1      10.004  42.604  36.980  1.00  0.00     0.158 A 
BRANCH  15  18
ATOM     18  O   UNL     1      11.963  41.276  37.505  1.00  0.00    -0.504 OA
ATOM     19  H   UNL     1      11.728  40.919  38.425  1.00  0.00     0.293 HD
ENDBRANCH  15  18
BRANCH  17  20
ATOM     20  O   UNL     1       9.995  43.156  38.261  1.00  0.00    -0.504 OA
ATOM     21  H   UNL     1       9.510  44.019  38.472  1.00  0.00     0.293 HD
ENDBRANCH  17  20
ENDBRANCH   1  12
BRANCH   2  22
ATOM     22  O   UNL     1       9.275  44.699  32.938  1.00  0.00    -0.502 OA
ATOM     23  H   UNL     1      10.186  44.273  33.053  1.00  0.00     0.293 HD
ENDBRANCH   2  22
BRANCH   6  24
ATOM     24  O   UNL     1       4.575  44.887  30.437  1.00  0.00    -0.507 OA
ATOM     25  H   UNL     1       4.689  45.835  30.766  1.00  0.00     0.293 HD
ENDBRANCH   6  24
BRANCH   8  26
ATOM     26  O   UNL     1       2.609  40.808  32.034  1.00  0.00    -0.508 OA
ATOM     27  H   UNL     1       1.754  40.995  32.546  1.00  0.00     0.293 HD
ENDBRANCH   8  26
TORSDOF 6
ENDMDL
MODEL 5
REMARK VINA RESULT:     0.000      5.757      9.049
REMARK INTER + INTRA:          -0.335
REMARK INTER:                   0.000
REMARK INTRA:                  -0.335
REMARK UNBOUND:                -0.335
REMARK SMILES O=c1c(O)c(-c2ccc(O)c(O)c2)oc2cc(O)cc(O)c12
REMARK SMILES IDX 5 1 3 2 2 3 1 4 22 5 20 6 19 7 17 8 16 9 15 10 14 11 6 12
REMARK SMILES IDX 7 13 8 14 9 15 13 16 11 17 10 18 12 20 4 22 21 24 18 26
REMARK H PARENT 10 19 12 21 4 23 21 25 18 27
REMARK Flexibility Score: inf
ROOT
ATOM      1  C   UNL     1       6.420  52.174  38.138  1.00  0.00     0.180 A 
ATOM      2  C   UNL     1       5.721  52.545  36.978  1.00  0.00     0.208 A 
ATOM      3  C   UNL     1       4.359  52.873  37.078  1.00  0.00     0.238 A 
ATOM      4  O   UNL     1       3.726  53.152  36.027  1.00  0.00    -0.285 OA
ATOM      5  C   UNL     1       3.718  52.840  38.340  1.00  0.00     0.111 A 
ATOM      6  C   UNL     1       2.353  53.192  38.563  1.00  0.00     0.134 A 
ATOM      7  C   UNL     1       1.790  52.997  39.831  1.00  0.00     0.093 A 
ATOM      8  C   UNL     1       2.560  52.526  40.897  1.00  0.00     0.123 A 
ATOM      9  C   UNL     1       3.908  52.237  40.702  1.00  0.00     0.094 A 
ATOM     10  C   UNL     1       4.489  52.386  39.441  1.00  0.00     0.146 A 
ATOM     11  O   UNL     1       5.775  52.089  39.296  1.00  0.00    -0.452 OA
ENDROOT
BRANCH   1  12
ATOM     12  C   UNL     1       7.863  51.839  38.117  1.00  0.00     0.025 A 
ATOM     13  C   UNL     1       8.260  50.500  37.974  1.00  0.00     0.016 A 
ATOM     14  C   UNL     1       9.614  50.160  37.972  1.00  0.00     0.051 A 
ATOM     15  C   UNL     1      10.592  51.151  38.129  1.00  0.00     0.157 A 
ATOM     16  C   UNL     1       8.846  52.829  38.294  1.00  0.00     0.062 A 
ATOM     17  C   UNL     1      10.205  52.491  38.295  1.00  0.00     0.158 A 
BRANCH  15  18
ATOM     18  O   UNL     1      11.943  50.810  38.124  1.00  0.00    -0.504 OA
ATOM     19  H   UNL     1      12.247  49.842  38.154  1.00  0.00     0.293 HD
ENDBRANCH  15  18
BRANCH  17  20
ATOM     20  O   UNL     1      11.153  53.499  38.467  1.00  0.00    -0.504 OA
ATOM     21  H   UNL     1      10.949  54.348  38.981  1.00  0.00     0.293 HD
ENDBRANCH  17  20
ENDBRANCH   1  12
BRANCH   2  22
ATOM     22  O   UNL     1       6.368  52.550  35.738  1.00  0.00    -0.502 OA
ATOM     23  H   UNL     1       7.365  52.700  35.646  1.00  0.00     0.293 HD
ENDBRANCH   2  22
BRANCH   6  24
ATOM     24  O   UNL     1       1.522  53.756  37.592  1.00  0.00    -0.507 OA
ATOM     25  H   UNL     1       1.216  53.285  36.754  1.00  0.00     0.293 HD
ENDBRANCH   6  24
BRANCH   8  26
ATOM     26  O   UNL     1       1.994  52.350  42.159  1.00  0.00    -0.508 OA
ATOM     27  H   UNL     1       2.244  52.947  42.940  1.00  0.00     0.293 HD
ENDBRANCH   8  26
TORSDOF 6
ENDMDL
MODEL 6
REMARK VINA RESULT:     0.000      3.753      5.992
REMARK INTER + INTRA:          -0.335
REMARK INTER:                   0.000
REMARK INTRA:                  -0.335
REMARK UNBOUND:                -0.335
REMARK SMILES O=c1c(O)c(-c2ccc(O)c(O)c2)oc2cc(O)cc(O)c12
REMARK SMILES IDX 5 1 3 2 2 3 1 4 22 5 20 6 19 7 17 8 16 9 15 10 14 11 6 12
REMARK SMILES IDX 7 13 8 14 9 15 13 16 11 17 10 18 12 20 4 22 21 24 18 26
REMARK H PARENT 10 19 12 21 4 23 21 25 18 27
REMARK Flexibility Score: inf
ROOT
ATOM      1  C   UNL     1      11.226  50.378  34.218  1.00  0.00     0.180 A 
ATOM      2  C   UNL     1      10.741  50.132  35.514  1.00  0.00     0.208 A 
ATOM      3  C   UNL     1       9.768  49.136  35.700  1.00  0.00     0.238 A 
ATOM      4  O   UNL     1       9.300  48.958  36.855  1.00  0.00    -0.285 OA
ATOM      5  C   UNL     1       9.304  48.389  34.590  1.00  0.00     0.111 A 
ATOM      6  C   UNL     1       8.350  47.331  34.670  1.00  0.00     0.134 A 
ATOM      7  C   UNL     1       7.867  46.748  33.491  1.00  0.00     0.093 A 
ATOM      8  C   UNL     1       8.351  47.143  32.242  1.00  0.00     0.123 A 
ATOM      9  C   UNL     1       9.325  48.134  32.159  1.00  0.00     0.094 A 
ATOM     10  C   UNL     1       9.801  48.758  33.313  1.00  0.00     0.146 A 
ATOM     11  O   UNL     1      10.722  49.706  33.189  1.00  0.00    -0.452 OA
ENDROOT
BRANCH   1  12
ATOM     12  C   UNL     1      12.269  51.393  33.946  1.00  0.00     0.025 A 
ATOM     13  C   UNL     1      11.889  52.694  33.581  1.00  0.00     0.016 A 
ATOM     14  C   UNL     1      12.857  53.661  33.300  1.00  0.00     0.051 A 
ATOM     15  C   UNL     1      14.219  53.339  33.364  1.00  0.00     0.157 A 
ATOM     16  C   UNL     1      13.636  51.067  33.989  1.00  0.00     0.062 A 
ATOM     17  C   UNL     1      14.609  52.033  33.706  1.00  0.00     0.158 A 
BRANCH  15  18
ATOM     18  O   UNL     1      15.182  54.306  33.085  1.00  0.00    -0.504 OA
ATOM     19  H   UNL     1      15.029  55.021  32.382  1.00  0.00     0.293 HD
ENDBRANCH  15  18
BRANCH  17  20
ATOM     20  O   UNL     1      15.955  51.676  33.764  1.00  0.00    -0.504 OA
ATOM     21  H   UNL     1      16.401  51.134  33.034  1.00  0.00     0.293 HD
ENDBRANCH  17  20
ENDBRANCH   1  12
BRANCH   2  22
ATOM     22  O   UNL     1      11.198  50.896  36.592  1.00  0.00    -0.502 OA
ATOM     23  H   UNL     1      11.318  51.900  36.534  1.00  0.00     0.293 HD
ENDBRANCH   2  22
BRANCH   6  24
ATOM     24  O   UNL     1       7.870  46.800  35.870  1.00  0.00    -0.507 OA
ATOM     25  H   UNL     1       6.914  46.523  36.034  1.00  0.00     0.293 HD
ENDBRANCH   6  24
BRANCH   8  26
ATOM     26  O   UNL     1       7.875  46.547  31.075  1.00  0.00    -0.508 OA
ATOM     27  H   UNL     1       7.378  45.663  31.095  1.00  0.00     0.293 HD
ENDBRANCH   8  26
TORSDOF 6
ENDMDL
MODEL 7
REMARK VINA RESULT:     0.000      5.617      6.703
REMARK INTER + INTRA:          -0.335
REMARK INTER:                   0.000
REMARK INTRA:                  -0.335
REMARK UNBOUND:                -0.335
REMARK SMILES O=c1c(O)c(-c2ccc(O)c(O)c2)oc2cc(O)cc(O)c12
REMARK SMILES IDX 5 1 3 2 2 3 1 4 22 5 20 6 19 7 17 8 16 9 15 10 14 11 6 12
REMARK SMILES IDX 7 13 8 14 9 15 13 16 11 17 10 18 12 20 4 22 21 24 18 26
REMARK H PARENT 10 19 12 21 4 23 21 25 18 27
REMARK Flexibility Score: inf
ROOT
ATOM      1  C   UNL     1       7.188  47.488  30.366  1.00  0.00     0.180 A 
ATOM      2  C   UNL     1       8.211  48.425  30.587  1.00  0.00     0.208 A 
ATOM      3  C   UNL     1       7.940  49.555  31.375  1.00  0.00     0.238 A 
ATOM      4  O   UNL     1       8.845  50.418  31.526  1.00  0.00    -0.285 OA
ATOM      5  C   UNL     1       6.655  49.726  31.944  1.00  0.00     0.111 A 
ATOM      6  C   UNL     1       6.283  50.812  32.791  1.00  0.00     0.134 A 
ATOM      7  C   UNL     1       4.947  50.949  33.191  1.00  0.00     0.093 A 
ATOM      8  C   UNL     1       3.986  50.003  32.827  1.00  0.00     0.123 A 
ATOM      9  C   UNL     1       4.353  48.907  32.050  1.00  0.00     0.094 A 
ATOM     10  C   UNL     1       5.669  48.763  31.606  1.00  0.00     0.146 A 
ATOM     11  O   UNL     1       5.975  47.709  30.858  1.00  0.00    -0.452 OA
ENDROOT
BRANCH   1  12
ATOM     12  C   UNL     1       7.404  46.259  29.567  1.00  0.00     0.025 A 
ATOM     13  C   UNL     1       7.102  46.263  28.196  1.00  0.00     0.016 A 
ATOM     14  C   UNL     1       7.278  45.110  27.430  1.00  0.00     0.051 A 
ATOM     15  C   UNL     1       7.744  43.930  28.024  1.00  0.00     0.157 A 
ATOM     16  C   UNL     1       7.852  45.067  30.165  1.00  0.00     0.062 A 
ATOM     17  C   UNL     1       8.027  43.908  29.399  1.00  0.00     0.158 A 
BRANCH  15  18
ATOM     18  O   UNL     1       7.921  42.780  27.256  1.00  0.00    -0.504 OA
ATOM     19  H   UNL     1       7.262  42.519  26.531  1.00  0.00     0.293 HD
ENDBRANCH  15  18
BRANCH  17  20
ATOM     20  O   UNL     1       8.479  42.747  30.025  1.00  0.00    -0.504 OA
ATOM     21  H   UNL     1       8.201  42.499  30.966  1.00  0.00     0.293 HD
ENDBRANCH  17  20
ENDBRANCH   1  12
BRANCH   2  22
ATOM     22  O   UNL     1       9.466  48.248  29.998  1.00  0.00    -0.502 OA
ATOM     23  H   UNL     1      10.217  47.749  30.458  1.00  0.00     0.293 HD
ENDBRANCH   2  22
BRANCH   6  24
ATOM     24  O   UNL     1       7.182  51.761  33.287  1.00  0.00    -0.507 OA
ATOM     25  H   UNL     1       7.796  51.614  34.074  1.00  0.00     0.293 HD
ENDBRANCH   6  24
BRANCH   8  26
ATOM     26  O   UNL     1       2.662  50.138  33.242  1.00  0.00    -0.508 OA
ATOM     27  H   UNL     1       1.916  50.327  32.582  1.00  0.00     0.293 HD
ENDBRANCH   8  26
TORSDOF 6
ENDMDL
MODEL 8
REMARK VINA RESULT:     0.000      6.419      8.121
REMARK INTER + INTRA:          -0.335
REMARK INTER:                   0.000
REMARK INTRA:                  -0.335
REMARK UNBOUND:                -0.335
REMARK SMILES O=c1c(O)c(-c2ccc(O)c(O)c2)oc2cc(O)cc(O)c12
REMARK SMILES IDX 5 1 3 2 2 3 1 4 22 5 20 6 19 7 17 8 16 9 15 10 14 11 6 12
REMARK SMILES IDX 7 13 8 14 9 15 13 16 11 17 10 18 12 20 4 22 21 24 18 26
REMARK H PARENT 10 19 12 21 4 23 21 25 18 27
REMARK Flexibility Score: inf
ROOT
ATOM      1  C   UNL     1       8.522  46.271  30.021  1.00  0.00     0.180 A 
ATOM      2  C   UNL     1       9.114  47.443  29.523  1.00  0.00     0.208 A 
ATOM      3  C   UNL     1       8.987  47.743  28.157  1.00  0.00     0.238 A 
ATOM      4  O   UNL     1       9.565  48.767  27.707  1.00  0.00    -0.285 OA
ATOM      5  C   UNL     1       8.256  46.876  27.311  1.00  0.00     0.111 A 
ATOM      6  C   UNL     1       8.029  47.103  25.920  1.00  0.00     0.134 A 
ATOM      7  C   UNL     1       7.403  46.112  25.152  1.00  0.00     0.093 A 
ATOM      8  C   UNL     1       6.938  44.933  25.739  1.00  0.00     0.123 A 
ATOM      9  C   UNL     1       7.102  44.729  27.107  1.00  0.00     0.094 A 
ATOM     10  C   UNL     1       7.754  45.682  27.892  1.00  0.00     0.146 A 
ATOM     11  O   UNL     1       7.899  45.444  29.190  1.00  0.00    -0.452 OA
ENDROOT
BRANCH   1  12
ATOM     12  C   UNL     1       8.591  45.900  31.453  1.00  0.00     0.025 A 
ATOM     13  C   UNL     1       9.617  45.051  31.899  1.00  0.00     0.016 A 
ATOM     14  C   UNL     1       9.689  44.672  33.241  1.00  0.00     0.051 A 
ATOM     15  C   UNL     1       8.728  45.122  34.156  1.00  0.00     0.157 A 
ATOM     16  C   UNL     1       7.617  46.333  32.370  1.00  0.00     0.062 A 
ATOM     17  C   UNL     1       7.684  45.952  33.716  1.00  0.00     0.158 A 
BRANCH  15  18
ATOM     18  O   UNL     1       8.803  44.744  35.495  1.00  0.00    -0.504 OA
ATOM     19  H   UNL     1       9.692  44.682  35.981  1.00  0.00     0.293 HD
ENDBRANCH  15  18
BRANCH  17  20
ATOM     20  O   UNL     1       6.704  46.406  34.597  1.00  0.00    -0.504 OA
ATOM     21  H   UNL     1       6.682  46.124  35.570  1.00  0.00     0.293 HD
ENDBRANCH  17  20
ENDBRANCH   1  12
BRANCH   2  22
ATOM     22  O   UNL     1       9.850  48.275  30.373  1.00  0.00    -0.502 OA
ATOM     23  H   UNL     1       9.498  49.166  30.701  1.00  0.00     0.293 HD
ENDBRANCH   2  22
BRANCH   6  24
ATOM     24  O   UNL     1       8.371  48.284  25.255  1.00  0.00    -0.507 OA
ATOM     25  H   UNL     1       8.559  49.165  25.710  1.00  0.00     0.293 HD
ENDBRANCH   6  24
BRANCH   8  26
ATOM     26  O   UNL     1       6.303  43.960  24.970  1.00  0.00    -0.508 OA
ATOM     27  H   UNL     1       6.723  43.596  24.122  1.00  0.00     0.293 HD
ENDBRANCH   8  26
TORSDOF 6
ENDMDL
MODEL 9
REMARK VINA RESULT:     0.000      8.191     10.139
REMARK INTER + INTRA:          -0.335
REMARK INTER:                   0.000
REMARK INTRA:                  -0.335
REMARK UNBOUND:                -0.335
REMARK SMILES O=c1c(O)c(-c2ccc(O)c(O)c2)oc2cc(O)cc(O)c12
REMARK SMILES IDX 5 1 3 2 2 3 1 4 22 5 20 6 19 7 17 8 16 9 15 10 14 11 6 12
REMARK SMILES IDX 7 13 8 14 9 15 13 16 11 17 10 18 12 20 4 22 21 24 18 26
REMARK H PARENT 10 19 12 21 4 23 21 25 18 27
REMARK Flexibility Score: inf
ROOT
ATOM      1  C   UNL     1       9.968  57.024  33.272  1.00  0.00     0.180 A 
ATOM      2  C   UNL     1       8.925  57.372  34.145  1.00  0.00     0.208 A 
ATOM      3  C   UNL     1       7.624  57.507  33.632  1.00  0.00     0.238 A 
ATOM      4  O   UNL     1       6.703  57.872  34.409  1.00  0.00    -0.285 OA
ATOM      5  C   UNL     1       7.382  57.276  32.257  1.00  0.00     0.111 A 
ATOM      6  C   UNL     1       6.097  57.345  31.638  1.00  0.00     0.134 A 
ATOM      7  C   UNL     1       5.995  57.226  30.246  1.00  0.00     0.093 A 
ATOM      8  C   UNL     1       7.122  56.976  29.460  1.00  0.00     0.123 A 
ATOM      9  C   UNL     1       8.371  56.848  30.062  1.00  0.00     0.094 A 
ATOM     10  C   UNL     1       8.511  56.998  31.443  1.00  0.00     0.146 A 
ATOM     11  O   UNL     1       9.721  56.879  31.976  1.00  0.00    -0.452 OA
ENDROOT
BRANCH   1  12
ATOM     12  C   UNL     1      11.361  56.839  33.742  1.00  0.00     0.025 A 
ATOM     13  C   UNL     1      12.258  57.918  33.687  1.00  0.00     0.016 A 
ATOM     14  C   UNL     1      13.581  57.759  34.106  1.00  0.00     0.051 A 
ATOM     15  C   UNL     1      14.031  56.517  34.571  1.00  0.00     0.157 A 
ATOM     16  C   UNL     1      11.822  55.589  34.190  1.00  0.00     0.062 A 
ATOM     17  C   UNL     1      13.148  55.426  34.608  1.00  0.00     0.158 A 
BRANCH  15  18
ATOM     18  O   UNL     1      15.352  56.362  34.990  1.00  0.00    -0.504 OA
ATOM     19  H   UNL     1      15.625  56.522  35.954  1.00  0.00     0.293 HD
ENDBRANCH  15  18
BRANCH  17  20
ATOM     20  O   UNL     1      13.568  54.173  35.053  1.00  0.00    -0.504 OA
ATOM     21  H   UNL     1      14.537  53.977  35.273  1.00  0.00     0.293 HD
ENDBRANCH  17  20
ENDBRANCH   1  12
BRANCH   2  22
ATOM     22  O   UNL     1       9.190  57.618  35.496  1.00  0.00    -0.502 OA
ATOM     23  H   UNL     1       8.623  58.242  36.056  1.00  0.00     0.293 HD
ENDBRANCH   2  22
BRANCH   6  24
ATOM     24  O   UNL     1       4.899  57.500  32.341  1.00  0.00    -0.507 OA
ATOM     25  H   UNL     1       4.742  58.185  33.064  1.00  0.00     0.293 HD
ENDBRANCH   6  24
BRANCH   8  26
ATOM     26  O   UNL     1       7.008  56.844  28.077  1.00  0.00    -0.508 OA
ATOM     27  H   UNL     1       6.670  57.604  27.498  1.00  0.00     0.293 HD
ENDBRANCH   8  26
TORSDOF 6
ENDMDL
