MODEL 1
REMARK VINA RESULT:    -6.003      0.000      0.000
REMARK INTER + INTRA:          -6.179
REMARK INTER:                  -6.179
REMARK INTRA:                   0.000
REMARK UNBOUND:                 0.000
REMARK SMILES O=c1ccc2ccc(O)cc2o1
REMARK SMILES IDX 6 1 7 2 8 3 10 4 11 5 5 6 4 7 3 8 2 9 1 10 12 11 9 12
REMARK H PARENT 9 13
REMARK Flexibility Score: inf
ROOT
ATOM      1  C   UNL     1      74.779  44.519  -2.951  1.00  0.00     0.016 A 
ATOM      2  C   UNL     1      74.245  44.996  -1.750  1.00  0.00     0.047 A 
ATOM      3  C   UNL     1      73.423  44.175  -0.964  1.00  0.00     0.119 A 
ATOM      4  C   UNL     1      73.134  42.871  -1.384  1.00  0.00     0.094 A 
ATOM      5  C   UNL     1      73.663  42.384  -2.583  1.00  0.00     0.142 A 
ATOM      6  C   UNL     1      74.491  43.213  -3.372  1.00  0.00     0.018 A 
ATOM      7  C   UNL     1      75.006  42.699  -4.567  1.00  0.00     0.019 A 
ATOM      8  C   UNL     1      74.689  41.394  -4.942  1.00  0.00     0.094 A 
ATOM      9  C   UNL     1      73.862  40.630  -4.110  1.00  0.00     0.336 A 
ATOM     10  O   UNL     1      73.566  39.450  -4.431  1.00  0.00    -0.246 OA
ATOM     11  O   UNL     1      73.386  41.144  -2.979  1.00  0.00    -0.423 OA
ENDROOT
BRANCH   3  12
ATOM     12  O   UNL     1      72.888  44.645   0.233  1.00  0.00    -0.508 OA
ATOM     13  H   UNL     1      73.447  45.173   0.892  1.00  0.00     0.293 HD
ENDBRANCH   3  12
TORSDOF 1
ENDMDL
MODEL 2
REMARK VINA RESULT:    -5.973      1.481      2.256
REMARK INTER + INTRA:          -6.147
REMARK INTER:                  -6.147
REMARK INTRA:                   0.000
REMARK UNBOUND:                 0.000
REMARK SMILES O=c1ccc2ccc(O)cc2o1
REMARK SMILES IDX 6 1 7 2 8 3 10 4 11 5 5 6 4 7 3 8 2 9 1 10 12 11 9 12
REMARK H PARENT 9 13
REMARK Flexibility Score: inf
ROOT
ATOM      1  C   UNL     1      73.046  43.216  -1.515  1.00  0.00     0.016 A 
ATOM      2  C   UNL     1      73.602  44.496  -1.415  1.00  0.00     0.047 A 
ATOM      3  C   UNL     1      74.567  44.922  -2.339  1.00  0.00     0.119 A 
ATOM      4  C   UNL     1      74.977  44.064  -3.367  1.00  0.00     0.094 A 
ATOM      5  C   UNL     1      74.427  42.783  -3.475  1.00  0.00     0.142 A 
ATOM      6  C   UNL     1      73.455  42.356  -2.543  1.00  0.00     0.018 A 
ATOM      7  C   UNL     1      72.922  41.070  -2.676  1.00  0.00     0.019 A 
ATOM      8  C   UNL     1      73.363  40.252  -3.717  1.00  0.00     0.094 A 
ATOM      9  C   UNL     1      74.329  40.742  -4.603  1.00  0.00     0.336 A 
ATOM     10  O   UNL     1      74.739  40.019  -5.548  1.00  0.00    -0.246 OA
ATOM     11  O   UNL     1      74.819  41.970  -4.453  1.00  0.00    -0.423 OA
ENDROOT
BRANCH   3  12
ATOM     12  O   UNL     1      75.125  46.195  -2.245  1.00  0.00    -0.508 OA
ATOM     13  H   UNL     1      74.817  46.858  -1.543  1.00  0.00     0.293 HD
ENDBRANCH   3  12
TORSDOF 1
ENDMDL
MODEL 3
REMARK VINA RESULT:    -5.534      1.630      4.709
REMARK INTER + INTRA:          -5.696
REMARK INTER:                  -5.696
REMARK INTRA:                   0.000
REMARK UNBOUND:                 0.000
REMARK SMILES O=c1ccc2ccc(O)cc2o1
REMARK SMILES IDX 6 1 7 2 8 3 10 4 11 5 5 6 4 7 3 8 2 9 1 10 12 11 9 12
REMARK H PARENT 9 13
REMARK Flexibility Score: inf
ROOT
ATOM      1  C   UNL     1      72.819  41.015  -2.721  1.00  0.00     0.016 A 
ATOM      2  C   UNL     1      73.257  40.157  -3.735  1.00  0.00     0.047 A 
ATOM      3  C   UNL     1      74.259  40.567  -4.627  1.00  0.00     0.119 A 
ATOM      4  C   UNL     1      74.824  41.842  -4.502  1.00  0.00     0.094 A 
ATOM      5  C   UNL     1      74.394  42.708  -3.492  1.00  0.00     0.142 A 
ATOM      6  C   UNL     1      73.384  42.292  -2.596  1.00  0.00     0.018 A 
ATOM      7  C   UNL     1      72.974  43.179  -1.595  1.00  0.00     0.019 A 
ATOM      8  C   UNL     1      73.568  44.438  -1.513  1.00  0.00     0.094 A 
ATOM      9  C   UNL     1      74.562  44.782  -2.435  1.00  0.00     0.336 A 
ATOM     10  O   UNL     1      75.110  45.913  -2.377  1.00  0.00    -0.246 OA
ATOM     11  O   UNL     1      74.934  43.918  -3.377  1.00  0.00    -0.423 OA
ENDROOT
BRANCH   3  12
ATOM     12  O   UNL     1      74.698  39.717  -5.638  1.00  0.00    -0.508 OA
ATOM     13  H   UNL     1      75.528  39.924  -6.181  1.00  0.00     0.293 HD
ENDBRANCH   3  12
TORSDOF 1
ENDMDL
MODEL 4
REMARK VINA RESULT:    -5.452      0.817      4.222
REMARK INTER + INTRA:          -5.612
REMARK INTER:                  -5.612
REMARK INTRA:                   0.000
REMARK UNBOUND:                 0.000
REMARK SMILES O=c1ccc2ccc(O)cc2o1
REMARK SMILES IDX 6 1 7 2 8 3 10 4 11 5 5 6 4 7 3 8 2 9 1 10 12 11 9 12
REMARK H PARENT 9 13
REMARK Flexibility Score: inf
ROOT
ATOM      1  C   UNL     1      75.071  42.520  -4.472  1.00  0.00     0.016 A 
ATOM      2  C   UNL     1      74.703  41.226  -4.856  1.00  0.00     0.047 A 
ATOM      3  C   UNL     1      73.738  40.518  -4.125  1.00  0.00     0.119 A 
ATOM      4  C   UNL     1      73.140  41.107  -3.004  1.00  0.00     0.094 A 
ATOM      5  C   UNL     1      73.502  42.400  -2.612  1.00  0.00     0.142 A 
ATOM      6  C   UNL     1      74.474  43.111  -3.350  1.00  0.00     0.018 A 
ATOM      7  C   UNL     1      74.815  44.402  -2.934  1.00  0.00     0.019 A 
ATOM      8  C   UNL     1      74.191  44.945  -1.811  1.00  0.00     0.094 A 
ATOM      9  C   UNL     1      73.237  44.183  -1.129  1.00  0.00     0.336 A 
ATOM     10  O   UNL     1      72.664  44.656  -0.114  1.00  0.00    -0.246 OA
ATOM     11  O   UNL     1      72.931  42.957  -1.546  1.00  0.00    -0.423 OA
ENDROOT
BRANCH   3  12
ATOM     12  O   UNL     1      73.367  39.230  -4.502  1.00  0.00    -0.508 OA
ATOM     13  H   UNL     1      72.413  38.904  -4.407  1.00  0.00     0.293 HD
ENDBRANCH   3  12
TORSDOF 1
ENDMDL
MODEL 5
REMARK VINA RESULT:    -5.000     10.800     12.622
REMARK INTER + INTRA:          -5.146
REMARK INTER:                  -5.146
REMARK INTRA:                   0.000
REMARK UNBOUND:                 0.000
REMARK SMILES O=c1ccc2ccc(O)cc2o1
REMARK SMILES IDX 6 1 7 2 8 3 10 4 11 5 5 6 4 7 3 8 2 9 1 10 12 11 9 12
REMARK H PARENT 9 13
REMARK Flexibility Score: inf
ROOT
ATOM      1  C   UNL     1      70.988  50.022   9.165  1.00  0.00     0.016 A 
ATOM      2  C   UNL     1      69.611  49.973   8.929  1.00  0.00     0.047 A 
ATOM      3  C   UNL     1      69.112  49.368   7.766  1.00  0.00     0.119 A 
ATOM      4  C   UNL     1      69.998  48.810   6.836  1.00  0.00     0.094 A 
ATOM      5  C   UNL     1      71.377  48.853   7.062  1.00  0.00     0.142 A 
ATOM      6  C   UNL     1      71.876  49.464   8.235  1.00  0.00     0.018 A 
ATOM      7  C   UNL     1      73.260  49.492   8.435  1.00  0.00     0.019 A 
ATOM      8  C   UNL     1      74.100  48.923   7.479  1.00  0.00     0.094 A 
ATOM      9  C   UNL     1      73.535  48.336   6.341  1.00  0.00     0.336 A 
ATOM     10  O   UNL     1      74.278  47.816   5.468  1.00  0.00    -0.246 OA
ATOM     11  O   UNL     1      72.215  48.322   6.176  1.00  0.00    -0.423 OA
ENDROOT
BRANCH   3  12
ATOM     12  O   UNL     1      67.742  49.316   7.525  1.00  0.00    -0.508 OA
ATOM     13  H   UNL     1      67.314  49.855   6.781  1.00  0.00     0.293 HD
ENDBRANCH   3  12
TORSDOF 1
ENDMDL
MODEL 6
REMARK VINA RESULT:    -4.895     12.098     13.823
REMARK INTER + INTRA:          -5.038
REMARK INTER:                  -5.038
REMARK INTRA:                   0.000
REMARK UNBOUND:                 0.000
REMARK SMILES O=c1ccc2ccc(O)cc2o1
REMARK SMILES IDX 6 1 7 2 8 3 10 4 11 5 5 6 4 7 3 8 2 9 1 10 12 11 9 12
REMARK H PARENT 9 13
REMARK Flexibility Score: inf
ROOT
ATOM      1  C   UNL     1      67.461  49.987   9.167  1.00  0.00     0.016 A 
ATOM      2  C   UNL     1      66.232  49.479   8.734  1.00  0.00     0.047 A 
ATOM      3  C   UNL     1      66.171  48.620   7.627  1.00  0.00     0.119 A 
ATOM      4  C   UNL     1      67.345  48.269   6.951  1.00  0.00     0.094 A 
ATOM      5  C   UNL     1      68.579  48.771   7.375  1.00  0.00     0.142 A 
ATOM      6  C   UNL     1      68.638  49.636   8.490  1.00  0.00     0.018 A 
ATOM      7  C   UNL     1      69.886  50.123   8.892  1.00  0.00     0.019 A 
ATOM      8  C   UNL     1      71.027  49.744   8.186  1.00  0.00     0.094 A 
ATOM      9  C   UNL     1      70.893  48.883   7.091  1.00  0.00     0.336 A 
ATOM     10  O   UNL     1      71.911  48.529   6.442  1.00  0.00    -0.246 OA
ATOM     11  O   UNL     1      69.694  48.435   6.730  1.00  0.00    -0.423 OA
ENDROOT
BRANCH   3  12
ATOM     12  O   UNL     1      64.950  48.111   7.191  1.00  0.00    -0.508 OA
ATOM     13  H   UNL     1      64.657  47.169   7.419  1.00  0.00     0.293 HD
ENDBRANCH   3  12
TORSDOF 1
ENDMDL
MODEL 7
REMARK VINA RESULT:    -4.815     12.685     13.735
REMARK INTER + INTRA:          -4.956
REMARK INTER:                  -4.956
REMARK INTRA:                   0.000
REMARK UNBOUND:                 0.000
REMARK SMILES O=c1ccc2ccc(O)cc2o1
REMARK SMILES IDX 6 1 7 2 8 3 10 4 11 5 5 6 4 7 3 8 2 9 1 10 12 11 9 12
REMARK H PARENT 9 13
REMARK Flexibility Score: inf
ROOT
ATOM      1  C   UNL     1      68.756  47.799   9.292  1.00  0.00     0.016 A 
ATOM      2  C   UNL     1      67.713  47.663   8.371  1.00  0.00     0.047 A 
ATOM      3  C   UNL     1      67.816  48.233   7.094  1.00  0.00     0.119 A 
ATOM      4  C   UNL     1      68.969  48.944   6.738  1.00  0.00     0.094 A 
ATOM      5  C   UNL     1      70.018  49.086   7.652  1.00  0.00     0.142 A 
ATOM      6  C   UNL     1      69.911  48.510   8.938  1.00  0.00     0.018 A 
ATOM      7  C   UNL     1      70.976  48.668   9.830  1.00  0.00     0.019 A 
ATOM      8  C   UNL     1      72.104  49.385   9.429  1.00  0.00     0.094 A 
ATOM      9  C   UNL     1      72.140  49.927   8.140  1.00  0.00     0.336 A 
ATOM     10  O   UNL     1      73.149  50.577   7.760  1.00  0.00    -0.246 OA
ATOM     11  O   UNL     1      71.113  49.762   7.311  1.00  0.00    -0.423 OA
ENDROOT
BRANCH   3  12
ATOM     12  O   UNL     1      66.780  48.101   6.173  1.00  0.00    -0.508 OA
ATOM     13  H   UNL     1      65.998  48.745   6.159  1.00  0.00     0.293 HD
ENDBRANCH   3  12
TORSDOF 1
ENDMDL
MODEL 8
REMARK VINA RESULT:    -4.699      7.956     10.860
REMARK INTER + INTRA:          -4.836
REMARK INTER:                  -4.836
REMARK INTRA:                   0.000
REMARK UNBOUND:                 0.000
REMARK SMILES O=c1ccc2ccc(O)cc2o1
REMARK SMILES IDX 6 1 7 2 8 3 10 4 11 5 5 6 4 7 3 8 2 9 1 10 12 11 9 12
REMARK H PARENT 9 13
REMARK Flexibility Score: inf
ROOT
ATOM      1  C   UNL     1      73.748  48.345   5.255  1.00  0.00     0.016 A 
ATOM      2  C   UNL     1      73.490  47.593   4.105  1.00  0.00     0.047 A 
ATOM      3  C   UNL     1      73.588  46.194   4.136  1.00  0.00     0.119 A 
ATOM      4  C   UNL     1      73.948  45.546   5.324  1.00  0.00     0.094 A 
ATOM      5  C   UNL     1      74.208  46.289   6.480  1.00  0.00     0.142 A 
ATOM      6  C   UNL     1      74.108  47.698   6.445  1.00  0.00     0.018 A 
ATOM      7  C   UNL     1      74.374  48.415   7.617  1.00  0.00     0.019 A 
ATOM      8  C   UNL     1      74.728  47.723   8.775  1.00  0.00     0.094 A 
ATOM      9  C   UNL     1      74.807  46.327   8.735  1.00  0.00     0.336 A 
ATOM     10  O   UNL     1      75.125  45.686   9.770  1.00  0.00    -0.246 OA
ATOM     11  O   UNL     1      74.549  45.670   7.607  1.00  0.00    -0.423 OA
ENDROOT
BRANCH   3  12
ATOM     12  O   UNL     1      73.333  45.440   2.993  1.00  0.00    -0.508 OA
ATOM     13  H   UNL     1      73.544  45.792   2.067  1.00  0.00     0.293 HD
ENDBRANCH   3  12
TORSDOF 1
ENDMDL
MODEL 9
REMARK VINA RESULT:    -4.690     10.702     12.853
REMARK INTER + INTRA:          -4.827
REMARK INTER:                  -4.827
REMARK INTRA:                   0.000
REMARK UNBOUND:                 0.000
REMARK SMILES O=c1ccc2ccc(O)cc2o1
REMARK SMILES IDX 6 1 7 2 8 3 10 4 11 5 5 6 4 7 3 8 2 9 1 10 12 11 9 12
REMARK H PARENT 9 13
REMARK Flexibility Score: inf
ROOT
ATOM      1  C   UNL     1      73.144  49.621   8.312  1.00  0.00     0.016 A 
ATOM      2  C   UNL     1      74.016  48.995   7.417  1.00  0.00     0.047 A 
ATOM      3  C   UNL     1      73.513  48.232   6.353  1.00  0.00     0.119 A 
ATOM      4  C   UNL     1      72.129  48.096   6.186  1.00  0.00     0.094 A 
ATOM      5  C   UNL     1      71.248  48.718   7.076  1.00  0.00     0.142 A 
ATOM      6  C   UNL     1      71.758  49.485   8.146  1.00  0.00     0.018 A 
ATOM      7  C   UNL     1      70.853  50.097   9.020  1.00  0.00     0.019 A 
ATOM      8  C   UNL     1      69.484  49.931   8.812  1.00  0.00     0.094 A 
ATOM      9  C   UNL     1      69.051  49.156   7.730  1.00  0.00     0.336 A 
ATOM     10  O   UNL     1      67.820  48.996   7.526  1.00  0.00    -0.246 OA
ATOM     11  O   UNL     1      69.933  48.586   6.914  1.00  0.00    -0.423 OA
ENDROOT
BRANCH   3  12
ATOM     12  O   UNL     1      74.377  47.606   5.458  1.00  0.00    -0.508 OA
ATOM     13  H   UNL     1      74.032  47.136   4.629  1.00  0.00     0.293 HD
ENDBRANCH   3  12
TORSDOF 1
ENDMDL
