MODEL 1
REMARK VINA RESULT:    -5.793      0.000      0.000
REMARK INTER + INTRA:          -7.121
REMARK INTER:                  -6.809
REMARK INTRA:                  -0.312
REMARK UNBOUND:                -0.312
REMARK SMILES O=c1cc(-c2ccc(O)c(O)c2)oc2cc(O)cc(O)c12
REMARK SMILES IDX 4 1 3 2 2 3 1 4 21 5 19 6 18 7 16 8 15 9 14 10 13 11 5 12
REMARK SMILES IDX 6 13 7 14 8 15 12 16 10 17 9 18 11 20 20 22 17 24
REMARK H PARENT 9 19 11 21 20 23 17 25
REMARK Flexibility Score: inf
ROOT
ATOM      1  C   UNL     1     181.546 170.371 167.850  1.00  0.00     0.138 A 
ATOM      2  C   UNL     1     181.247 171.231 168.915  1.00  0.00     0.100 A 
ATOM      3  C   UNL     1     180.867 170.697 170.147  1.00  0.00     0.197 A 
ATOM      4  O   UNL     1     180.545 171.494 171.066  1.00  0.00    -0.289 OA
ATOM      5  C   UNL     1     180.818 169.293 170.322  1.00  0.00     0.107 A 
ATOM      6  C   UNL     1     180.484 168.638 171.544  1.00  0.00     0.134 A 
ATOM      7  C   UNL     1     180.354 167.243 171.565  1.00  0.00     0.093 A 
ATOM      8  C   UNL     1     180.604 166.478 170.427  1.00  0.00     0.123 A 
ATOM      9  C   UNL     1     180.984 167.106 169.239  1.00  0.00     0.094 A 
ATOM     10  C   UNL     1     181.089 168.497 169.176  1.00  0.00     0.146 A 
ATOM     11  O   UNL     1     181.438 169.057 168.023  1.00  0.00    -0.456 OA
ENDROOT
BRANCH   1  12
ATOM     12  C   UNL     1     181.955 170.885 166.518  1.00  0.00     0.021 A 
ATOM     13  C   UNL     1     182.525 172.163 166.363  1.00  0.00     0.016 A 
ATOM     14  C   UNL     1     182.910 172.617 165.098  1.00  0.00     0.051 A 
ATOM     15  C   UNL     1     182.742 171.802 163.972  1.00  0.00     0.157 A 
ATOM     16  C   UNL     1     181.802 170.068 165.383  1.00  0.00     0.062 A 
ATOM     17  C   UNL     1     182.188 170.525 164.115  1.00  0.00     0.158 A 
BRANCH  15  18
ATOM     18  O   UNL     1     183.125 172.253 162.711  1.00  0.00    -0.504 OA
ATOM     19  H   UNL     1     184.061 172.099 162.354  1.00  0.00     0.293 HD
ENDBRANCH  15  18
BRANCH  17  20
ATOM     20  O   UNL     1     182.025 169.714 162.993  1.00  0.00    -0.504 OA
ATOM     21  H   UNL     1     181.292 169.016 162.946  1.00  0.00     0.293 HD
ENDBRANCH  17  20
ENDBRANCH   1  12
BRANCH   6  22
ATOM     22  O   UNL     1     180.297 169.300 172.760  1.00  0.00    -0.507 OA
ATOM     23  H   UNL     1     179.402 169.475 173.189  1.00  0.00     0.293 HD
ENDBRANCH   6  22
BRANCH   8  24
ATOM     24  O   UNL     1     180.480 165.092 170.489  1.00  0.00    -0.508 OA
ATOM     25  H   UNL     1     181.123 164.526 171.032  1.00  0.00     0.293 HD
ENDBRANCH   8  24
TORSDOF 5
ENDMDL
MODEL 2
REMARK VINA RESULT:    -5.671     17.833     18.701
REMARK INTER + INTRA:          -6.978
REMARK INTER:                  -6.661
REMARK INTRA:                  -0.317
REMARK UNBOUND:                -0.312
REMARK SMILES O=c1cc(-c2ccc(O)c(O)c2)oc2cc(O)cc(O)c12
REMARK SMILES IDX 4 1 3 2 2 3 1 4 21 5 19 6 18 7 16 8 15 9 14 10 13 11 5 12
REMARK SMILES IDX 6 13 7 14 8 15 12 16 10 17 9 18 11 20 20 22 17 24
REMARK H PARENT 9 19 11 21 20 23 17 25
REMARK Flexibility Score: inf
ROOT
ATOM      1  C   UNL     1     164.205 175.251 167.610  1.00  0.00     0.138 A 
ATOM      2  C   UNL     1     164.432 174.385 168.688  1.00  0.00     0.100 A 
ATOM      3  C   UNL     1     164.749 174.910 169.941  1.00  0.00     0.197 A 
ATOM      4  O   UNL     1     165.008 174.107 170.874  1.00  0.00    -0.289 OA
ATOM      5  C   UNL     1     164.807 176.313 170.122  1.00  0.00     0.107 A 
ATOM      6  C   UNL     1     165.080 176.961 171.363  1.00  0.00     0.134 A 
ATOM      7  C   UNL     1     165.227 178.354 171.395  1.00  0.00     0.093 A 
ATOM      8  C   UNL     1     165.052 179.125 170.247  1.00  0.00     0.123 A 
ATOM      9  C   UNL     1     164.732 178.505 169.038  1.00  0.00     0.094 A 
ATOM     10  C   UNL     1     164.612 177.116 168.966  1.00  0.00     0.146 A 
ATOM     11  O   UNL     1     164.320 176.563 167.793  1.00  0.00    -0.456 OA
ENDROOT
BRANCH   1  12
ATOM     12  C   UNL     1     163.865 174.745 166.256  1.00  0.00     0.021 A 
ATOM     13  C   UNL     1     163.506 173.401 166.037  1.00  0.00     0.016 A 
ATOM     14  C   UNL     1     163.180 172.956 164.754  1.00  0.00     0.051 A 
ATOM     15  C   UNL     1     163.199 173.843 163.670  1.00  0.00     0.157 A 
ATOM     16  C   UNL     1     163.868 175.632 165.164  1.00  0.00     0.062 A 
ATOM     17  C   UNL     1     163.541 175.184 163.876  1.00  0.00     0.158 A 
BRANCH  15  18
ATOM     18  O   UNL     1     162.875 173.400 162.389  1.00  0.00    -0.504 OA
ATOM     19  H   UNL     1     162.039 172.856 162.212  1.00  0.00     0.293 HD
ENDBRANCH  15  18
BRANCH  17  20
ATOM     20  O   UNL     1     163.556 176.066 162.797  1.00  0.00    -0.504 OA
ATOM     21  H   UNL     1     163.820 175.762 161.867  1.00  0.00     0.293 HD
ENDBRANCH  17  20
ENDBRANCH   1  12
BRANCH   6  22
ATOM     22  O   UNL     1     165.190 176.293 172.586  1.00  0.00    -0.507 OA
ATOM     23  H   UNL     1     164.523 175.625 172.940  1.00  0.00     0.293 HD
ENDBRANCH   6  22
BRANCH   8  24
ATOM     24  O   UNL     1     165.191 180.509 170.321  1.00  0.00    -0.508 OA
ATOM     25  H   UNL     1     166.101 180.946 170.417  1.00  0.00     0.293 HD
ENDBRANCH   8  24
TORSDOF 5
ENDMDL
MODEL 3
REMARK VINA RESULT:    -5.628     20.369     21.481
REMARK INTER + INTRA:          -6.927
REMARK INTER:                  -6.662
REMARK INTRA:                  -0.265
REMARK UNBOUND:                -0.312
REMARK SMILES O=c1cc(-c2ccc(O)c(O)c2)oc2cc(O)cc(O)c12
REMARK SMILES IDX 4 1 3 2 2 3 1 4 21 5 19 6 18 7 16 8 15 9 14 10 13 11 5 12
REMARK SMILES IDX 6 13 7 14 8 15 12 16 10 17 9 18 11 20 20 22 17 24
REMARK H PARENT 9 19 11 21 20 23 17 25
REMARK Flexibility Score: inf
ROOT
ATOM      1  C   UNL     1     164.990 180.502 159.132  1.00  0.00     0.138 A 
ATOM      2  C   UNL     1     164.072 181.556 159.241  1.00  0.00     0.100 A 
ATOM      3  C   UNL     1     163.748 182.062 160.500  1.00  0.00     0.197 A 
ATOM      4  O   UNL     1     162.875 182.965 160.572  1.00  0.00    -0.289 OA
ATOM      5  C   UNL     1     164.372 181.530 161.655  1.00  0.00     0.107 A 
ATOM      6  C   UNL     1     164.150 181.995 162.985  1.00  0.00     0.134 A 
ATOM      7  C   UNL     1     164.736 181.314 164.060  1.00  0.00     0.093 A 
ATOM      8  C   UNL     1     165.581 180.226 163.850  1.00  0.00     0.123 A 
ATOM      9  C   UNL     1     165.848 179.796 162.549  1.00  0.00     0.094 A 
ATOM     10  C   UNL     1     165.252 180.432 161.458  1.00  0.00     0.146 A 
ATOM     11  O   UNL     1     165.520 179.983 160.235  1.00  0.00    -0.456 OA
ENDROOT
BRANCH   1  12
ATOM     12  C   UNL     1     165.370 179.926 157.817  1.00  0.00     0.021 A 
ATOM     13  C   UNL     1     166.706 179.914 157.374  1.00  0.00     0.016 A 
ATOM     14  C   UNL     1     167.036 179.355 156.137  1.00  0.00     0.051 A 
ATOM     15  C   UNL     1     166.042 178.793 155.326  1.00  0.00     0.157 A 
ATOM     16  C   UNL     1     164.380 179.347 157.003  1.00  0.00     0.062 A 
ATOM     17  C   UNL     1     164.712 178.787 155.761  1.00  0.00     0.158 A 
BRANCH  15  18
ATOM     18  O   UNL     1     166.369 178.236 154.091  1.00  0.00    -0.504 OA
ATOM     19  H   UNL     1     167.106 178.624 153.514  1.00  0.00     0.293 HD
ENDBRANCH  15  18
BRANCH  17  20
ATOM     20  O   UNL     1     163.725 178.223 154.954  1.00  0.00    -0.504 OA
ATOM     21  H   UNL     1     163.736 177.239 154.713  1.00  0.00     0.293 HD
ENDBRANCH  17  20
ENDBRANCH   1  12
BRANCH   6  22
ATOM     22  O   UNL     1     163.391 183.125 163.301  1.00  0.00    -0.507 OA
ATOM     23  H   UNL     1     163.002 183.322 164.210  1.00  0.00     0.293 HD
ENDBRANCH   6  22
BRANCH   8  24
ATOM     24  O   UNL     1     166.158 179.583 164.942  1.00  0.00    -0.508 OA
ATOM     25  H   UNL     1     166.610 178.679 164.848  1.00  0.00     0.293 HD
ENDBRANCH   8  24
TORSDOF 5
ENDMDL
MODEL 4
REMARK VINA RESULT:    -5.508      7.494      9.901
REMARK INTER + INTRA:          -6.785
REMARK INTER:                  -6.522
REMARK INTRA:                  -0.263
REMARK UNBOUND:                -0.312
REMARK SMILES O=c1cc(-c2ccc(O)c(O)c2)oc2cc(O)cc(O)c12
REMARK SMILES IDX 4 1 3 2 2 3 1 4 21 5 19 6 18 7 16 8 15 9 14 10 13 11 5 12
REMARK SMILES IDX 6 13 7 14 8 15 12 16 10 17 9 18 11 20 20 22 17 24
REMARK H PARENT 9 19 11 21 20 23 17 25
REMARK Flexibility Score: inf
ROOT
ATOM      1  C   UNL     1     180.481 165.351 159.144  1.00  0.00     0.138 A 
ATOM      2  C   UNL     1     181.337 164.260 159.354  1.00  0.00     0.100 A 
ATOM      3  C   UNL     1     181.589 163.821 160.654  1.00  0.00     0.197 A 
ATOM      4  O   UNL     1     182.410 162.881 160.815  1.00  0.00    -0.289 OA
ATOM      5  C   UNL     1     180.955 164.458 161.748  1.00  0.00     0.107 A 
ATOM      6  C   UNL     1     181.105 164.069 163.112  1.00  0.00     0.134 A 
ATOM      7  C   UNL     1     180.519 164.848 164.119  1.00  0.00     0.093 A 
ATOM      8  C   UNL     1     179.741 165.962 163.809  1.00  0.00     0.123 A 
ATOM      9  C   UNL     1     179.544 166.320 162.474  1.00  0.00     0.094 A 
ATOM     10  C   UNL     1     180.142 165.584 161.449  1.00  0.00     0.146 A 
ATOM     11  O   UNL     1     179.941 165.966 160.191  1.00  0.00    -0.456 OA
ENDROOT
BRANCH   1  12
ATOM     12  C   UNL     1     180.179 165.859 157.782  1.00  0.00     0.021 A 
ATOM     13  C   UNL     1     178.895 165.735 157.215  1.00  0.00     0.016 A 
ATOM     14  C   UNL     1     178.636 166.233 155.935  1.00  0.00     0.051 A 
ATOM     15  C   UNL     1     179.649 166.868 155.205  1.00  0.00     0.157 A 
ATOM     16  C   UNL     1     181.185 166.511 157.047  1.00  0.00     0.062 A 
ATOM     17  C   UNL     1     180.924 167.009 155.762  1.00  0.00     0.158 A 
BRANCH  15  18
ATOM     18  O   UNL     1     179.392 167.364 153.928  1.00  0.00    -0.504 OA
ATOM     19  H   UNL     1     180.050 167.972 153.454  1.00  0.00     0.293 HD
ENDBRANCH  15  18
BRANCH  17  20
ATOM     20  O   UNL     1     181.929 167.645 155.034  1.00  0.00    -0.504 OA
ATOM     21  H   UNL     1     182.262 167.272 154.153  1.00  0.00     0.293 HD
ENDBRANCH  17  20
ENDBRANCH   1  12
BRANCH   6  22
ATOM     22  O   UNL     1     181.791 162.925 163.528  1.00  0.00    -0.507 OA
ATOM     23  H   UNL     1     181.974 162.120 162.949  1.00  0.00     0.293 HD
ENDBRANCH   6  22
BRANCH   8  24
ATOM     24  O   UNL     1     179.162 166.703 164.836  1.00  0.00    -0.508 OA
ATOM     25  H   UNL     1     178.873 167.665 164.697  1.00  0.00     0.293 HD
ENDBRANCH   8  24
TORSDOF 5
ENDMDL
MODEL 5
REMARK VINA RESULT:    -5.417     19.892     21.077
REMARK INTER + INTRA:          -6.678
REMARK INTER:                  -6.410
REMARK INTRA:                  -0.268
REMARK UNBOUND:                -0.312
REMARK SMILES O=c1cc(-c2ccc(O)c(O)c2)oc2cc(O)cc(O)c12
REMARK SMILES IDX 4 1 3 2 2 3 1 4 21 5 19 6 18 7 16 8 15 9 14 10 13 11 5 12
REMARK SMILES IDX 6 13 7 14 8 15 12 16 10 17 9 18 11 20 20 22 17 24
REMARK H PARENT 9 19 11 21 20 23 17 25
REMARK Flexibility Score: inf
ROOT
ATOM      1  C   UNL     1     165.783 179.757 159.284  1.00  0.00     0.138 A 
ATOM      2  C   UNL     1     166.640 179.006 160.100  1.00  0.00     0.100 A 
ATOM      3  C   UNL     1     166.618 179.194 161.482  1.00  0.00     0.197 A 
ATOM      4  O   UNL     1     167.442 178.550 162.183  1.00  0.00    -0.289 OA
ATOM      5  C   UNL     1     165.709 180.117 162.053  1.00  0.00     0.107 A 
ATOM      6  C   UNL     1     165.571 180.361 163.452  1.00  0.00     0.134 A 
ATOM      7  C   UNL     1     164.719 181.383 163.892  1.00  0.00     0.093 A 
ATOM      8  C   UNL     1     163.959 182.126 162.991  1.00  0.00     0.123 A 
ATOM      9  C   UNL     1     164.047 181.860 161.624  1.00  0.00     0.094 A 
ATOM     10  C   UNL     1     164.912 180.871 161.151  1.00  0.00     0.146 A 
ATOM     11  O   UNL     1     164.978 180.657 159.840  1.00  0.00    -0.456 OA
ENDROOT
BRANCH   1  12
ATOM     12  C   UNL     1     165.766 179.597 157.808  1.00  0.00     0.021 A 
ATOM     13  C   UNL     1     166.844 180.018 157.006  1.00  0.00     0.016 A 
ATOM     14  C   UNL     1     166.805 179.844 155.620  1.00  0.00     0.051 A 
ATOM     15  C   UNL     1     165.695 179.243 155.014  1.00  0.00     0.157 A 
ATOM     16  C   UNL     1     164.662 178.982 157.192  1.00  0.00     0.062 A 
ATOM     17  C   UNL     1     164.623 178.809 155.801  1.00  0.00     0.158 A 
BRANCH  15  18
ATOM     18  O   UNL     1     165.654 179.070 153.631  1.00  0.00    -0.504 OA
ATOM     19  H   UNL     1     165.099 179.676 153.038  1.00  0.00     0.293 HD
ENDBRANCH  15  18
BRANCH  17  20
ATOM     20  O   UNL     1     163.521 178.206 155.194  1.00  0.00    -0.504 OA
ATOM     21  H   UNL     1     162.731 177.879 155.738  1.00  0.00     0.293 HD
ENDBRANCH  17  20
ENDBRANCH   1  12
BRANCH   6  22
ATOM     22  O   UNL     1     166.220 179.619 164.443  1.00  0.00    -0.507 OA
ATOM     23  H   UNL     1     165.838 179.415 165.353  1.00  0.00     0.293 HD
ENDBRANCH   6  22
BRANCH   8  24
ATOM     24  O   UNL     1     163.112 183.124 163.467  1.00  0.00    -0.508 OA
ATOM     25  H   UNL     1     162.162 182.920 163.757  1.00  0.00     0.293 HD
ENDBRANCH   8  24
TORSDOF 5
ENDMDL
MODEL 6
REMARK VINA RESULT:    -5.340     15.606     17.239
REMARK INTER + INTRA:          -6.588
REMARK INTER:                  -6.274
REMARK INTRA:                  -0.314
REMARK UNBOUND:                -0.312
REMARK SMILES O=c1cc(-c2ccc(O)c(O)c2)oc2cc(O)cc(O)c12
REMARK SMILES IDX 4 1 3 2 2 3 1 4 21 5 19 6 18 7 16 8 15 9 14 10 13 11 5 12
REMARK SMILES IDX 6 13 7 14 8 15 12 16 10 17 9 18 11 20 20 22 17 24
REMARK H PARENT 9 19 11 21 20 23 17 25
REMARK Flexibility Score: inf
ROOT
ATOM      1  C   UNL     1     166.541 174.804 169.575  1.00  0.00     0.138 A 
ATOM      2  C   UNL     1     166.691 175.709 168.514  1.00  0.00     0.100 A 
ATOM      3  C   UNL     1     166.069 176.956 168.578  1.00  0.00     0.197 A 
ATOM      4  O   UNL     1     166.170 177.723 167.586  1.00  0.00    -0.289 OA
ATOM      5  C   UNL     1     165.320 177.312 169.726  1.00  0.00     0.107 A 
ATOM      6  C   UNL     1     164.677 178.570 169.918  1.00  0.00     0.134 A 
ATOM      7  C   UNL     1     163.866 178.765 171.044  1.00  0.00     0.093 A 
ATOM      8  C   UNL     1     163.723 177.771 172.011  1.00  0.00     0.123 A 
ATOM      9  C   UNL     1     164.391 176.555 171.859  1.00  0.00     0.094 A 
ATOM     10  C   UNL     1     165.180 176.317 170.731  1.00  0.00     0.146 A 
ATOM     11  O   UNL     1     165.787 175.141 170.616  1.00  0.00    -0.456 OA
ENDROOT
BRANCH   1  12
ATOM     12  C   UNL     1     167.181 173.464 169.558  1.00  0.00     0.021 A 
ATOM     13  C   UNL     1     167.704 172.910 168.374  1.00  0.00     0.016 A 
ATOM     14  C   UNL     1     168.311 171.651 168.390  1.00  0.00     0.051 A 
ATOM     15  C   UNL     1     168.413 170.930 169.586  1.00  0.00     0.157 A 
ATOM     16  C   UNL     1     167.300 172.739 170.757  1.00  0.00     0.062 A 
ATOM     17  C   UNL     1     167.908 171.475 170.772  1.00  0.00     0.158 A 
BRANCH  15  18
ATOM     18  O   UNL     1     169.016 169.674 169.604  1.00  0.00    -0.504 OA
ATOM     19  H   UNL     1     170.008 169.560 169.430  1.00  0.00     0.293 HD
ENDBRANCH  15  18
BRANCH  17  20
ATOM     20  O   UNL     1     168.014 170.757 171.962  1.00  0.00    -0.504 OA
ATOM     21  H   UNL     1     167.486 169.906 172.116  1.00  0.00     0.293 HD
ENDBRANCH  17  20
ENDBRANCH   1  12
BRANCH   6  22
ATOM     22  O   UNL     1     164.821 179.661 169.057  1.00  0.00    -0.507 OA
ATOM     23  H   UNL     1     165.368 179.659 168.210  1.00  0.00     0.293 HD
ENDBRANCH   6  22
BRANCH   8  24
ATOM     24  O   UNL     1     162.920 178.006 173.125  1.00  0.00    -0.508 OA
ATOM     25  H   UNL     1     163.270 178.506 173.935  1.00  0.00     0.293 HD
ENDBRANCH   8  24
TORSDOF 5
ENDMDL
MODEL 7
REMARK VINA RESULT:    -5.315     16.769     17.408
REMARK INTER + INTRA:          -6.559
REMARK INTER:                  -6.291
REMARK INTRA:                  -0.267
REMARK UNBOUND:                -0.312
REMARK SMILES O=c1cc(-c2ccc(O)c(O)c2)oc2cc(O)cc(O)c12
REMARK SMILES IDX 4 1 3 2 2 3 1 4 21 5 19 6 18 7 16 8 15 9 14 10 13 11 5 12
REMARK SMILES IDX 6 13 7 14 8 15 12 16 10 17 9 18 11 20 20 22 17 24
REMARK H PARENT 9 19 11 21 20 23 17 25
REMARK Flexibility Score: inf
ROOT
ATOM      1  C   UNL     1     165.977 176.717 166.115  1.00  0.00     0.138 A 
ATOM      2  C   UNL     1     165.299 175.586 165.640  1.00  0.00     0.100 A 
ATOM      3  C   UNL     1     164.710 174.703 166.546  1.00  0.00     0.197 A 
ATOM      4  O   UNL     1     164.162 173.665 166.094  1.00  0.00    -0.289 OA
ATOM      5  C   UNL     1     164.773 174.973 167.935  1.00  0.00     0.107 A 
ATOM      6  C   UNL     1     164.173 174.166 168.947  1.00  0.00     0.134 A 
ATOM      7  C   UNL     1     164.402 174.469 170.295  1.00  0.00     0.093 A 
ATOM      8  C   UNL     1     165.155 175.582 170.667  1.00  0.00     0.123 A 
ATOM      9  C   UNL     1     165.702 176.409 169.684  1.00  0.00     0.094 A 
ATOM     10  C   UNL     1     165.521 176.114 168.331  1.00  0.00     0.146 A 
ATOM     11  O   UNL     1     166.069 176.918 167.426  1.00  0.00    -0.456 OA
ENDROOT
BRANCH   1  12
ATOM     12  C   UNL     1     166.621 177.688 165.196  1.00  0.00     0.021 A 
ATOM     13  C   UNL     1     167.848 177.406 164.565  1.00  0.00     0.016 A 
ATOM     14  C   UNL     1     168.426 178.335 163.695  1.00  0.00     0.051 A 
ATOM     15  C   UNL     1     167.787 179.554 163.435  1.00  0.00     0.157 A 
ATOM     16  C   UNL     1     165.980 178.909 164.917  1.00  0.00     0.062 A 
ATOM     17  C   UNL     1     166.561 179.840 164.045  1.00  0.00     0.158 A 
BRANCH  15  18
ATOM     18  O   UNL     1     168.363 180.482 162.568  1.00  0.00    -0.504 OA
ATOM     19  H   UNL     1     167.948 181.393 162.416  1.00  0.00     0.293 HD
ENDBRANCH  15  18
BRANCH  17  20
ATOM     20  O   UNL     1     165.926 181.053 163.781  1.00  0.00    -0.504 OA
ATOM     21  H   UNL     1     165.395 181.538 164.494  1.00  0.00     0.293 HD
ENDBRANCH  17  20
ENDBRANCH   1  12
BRANCH   6  22
ATOM     22  O   UNL     1     163.333 173.080 168.685  1.00  0.00    -0.507 OA
ATOM     23  H   UNL     1     162.330 173.136 168.598  1.00  0.00     0.293 HD
ENDBRANCH   6  22
BRANCH   8  24
ATOM     24  O   UNL     1     165.349 175.861 172.018  1.00  0.00    -0.508 OA
ATOM     25  H   UNL     1     166.246 175.714 172.466  1.00  0.00     0.293 HD
ENDBRANCH   8  24
TORSDOF 5
ENDMDL
MODEL 8
REMARK VINA RESULT:    -5.302      3.487      4.960
REMARK INTER + INTRA:          -6.544
REMARK INTER:                  -6.276
REMARK INTRA:                  -0.268
REMARK UNBOUND:                -0.312
REMARK SMILES O=c1cc(-c2ccc(O)c(O)c2)oc2cc(O)cc(O)c12
REMARK SMILES IDX 4 1 3 2 2 3 1 4 21 5 19 6 18 7 16 8 15 9 14 10 13 11 5 12
REMARK SMILES IDX 6 13 7 14 8 15 12 16 10 17 9 18 11 20 20 22 17 24
REMARK H PARENT 9 19 11 21 20 23 17 25
REMARK Flexibility Score: inf
ROOT
ATOM      1  C   UNL     1     179.717 168.888 166.211  1.00  0.00     0.138 A 
ATOM      2  C   UNL     1     180.390 170.026 165.744  1.00  0.00     0.100 A 
ATOM      3  C   UNL     1     180.969 170.908 166.657  1.00  0.00     0.197 A 
ATOM      4  O   UNL     1     181.513 171.951 166.212  1.00  0.00    -0.289 OA
ATOM      5  C   UNL     1     180.902 170.630 168.044  1.00  0.00     0.107 A 
ATOM      6  C   UNL     1     181.491 171.436 169.062  1.00  0.00     0.134 A 
ATOM      7  C   UNL     1     181.259 171.125 170.408  1.00  0.00     0.093 A 
ATOM      8  C   UNL     1     180.511 170.006 170.771  1.00  0.00     0.123 A 
ATOM      9  C   UNL     1     179.974 169.180 169.782  1.00  0.00     0.094 A 
ATOM     10  C   UNL     1     180.159 169.483 168.431  1.00  0.00     0.146 A 
ATOM     11  O   UNL     1     179.620 168.680 167.520  1.00  0.00    -0.456 OA
ENDROOT
BRANCH   1  12
ATOM     12  C   UNL     1     179.082 167.917 165.283  1.00  0.00     0.021 A 
ATOM     13  C   UNL     1     177.865 168.202 164.635  1.00  0.00     0.016 A 
ATOM     14  C   UNL     1     177.296 167.273 163.759  1.00  0.00     0.051 A 
ATOM     15  C   UNL     1     177.935 166.052 163.509  1.00  0.00     0.157 A 
ATOM     16  C   UNL     1     179.723 166.694 165.016  1.00  0.00     0.062 A 
ATOM     17  C   UNL     1     179.152 165.763 164.137  1.00  0.00     0.158 A 
BRANCH  15  18
ATOM     18  O   UNL     1     177.369 165.125 162.636  1.00  0.00    -0.504 OA
ATOM     19  H   UNL     1     176.397 164.849 162.713  1.00  0.00     0.293 HD
ENDBRANCH  15  18
BRANCH  17  20
ATOM     20  O   UNL     1     179.788 164.549 163.884  1.00  0.00    -0.504 OA
ATOM     21  H   UNL     1     180.175 163.987 164.633  1.00  0.00     0.293 HD
ENDBRANCH  17  20
ENDBRANCH   1  12
BRANCH   6  22
ATOM     22  O   UNL     1     182.327 172.529 168.809  1.00  0.00    -0.507 OA
ATOM     23  H   UNL     1     183.104 172.523 168.168  1.00  0.00     0.293 HD
ENDBRANCH   6  22
BRANCH   8  24
ATOM     24  O   UNL     1     180.313 169.719 172.120  1.00  0.00    -0.508 OA
ATOM     25  H   UNL     1     180.057 170.442 172.784  1.00  0.00     0.293 HD
ENDBRANCH   8  24
TORSDOF 5
ENDMDL
MODEL 9
REMARK VINA RESULT:    -5.293      7.687     11.844
REMARK INTER + INTRA:          -6.533
REMARK INTER:                  -6.233
REMARK INTRA:                  -0.299
REMARK UNBOUND:                -0.312
REMARK SMILES O=c1cc(-c2ccc(O)c(O)c2)oc2cc(O)cc(O)c12
REMARK SMILES IDX 4 1 3 2 2 3 1 4 21 5 19 6 18 7 16 8 15 9 14 10 13 11 5 12
REMARK SMILES IDX 6 13 7 14 8 15 12 16 10 17 9 18 11 20 20 22 17 24
REMARK H PARENT 9 19 11 21 20 23 17 25
REMARK Flexibility Score: inf
ROOT
ATOM      1  C   UNL     1     179.058 165.564 160.057  1.00  0.00     0.138 A 
ATOM      2  C   UNL     1     177.781 165.377 159.508  1.00  0.00     0.100 A 
ATOM      3  C   UNL     1     177.578 165.593 158.144  1.00  0.00     0.197 A 
ATOM      4  O   UNL     1     176.410 165.477 157.692  1.00  0.00    -0.289 OA
ATOM      5  C   UNL     1     178.667 165.966 157.320  1.00  0.00     0.107 A 
ATOM      6  C   UNL     1     178.586 166.172 155.911  1.00  0.00     0.134 A 
ATOM      7  C   UNL     1     179.705 166.654 155.219  1.00  0.00     0.093 A 
ATOM      8  C   UNL     1     180.916 166.878 155.873  1.00  0.00     0.123 A 
ATOM      9  C   UNL     1     181.021 166.629 157.242  1.00  0.00     0.094 A 
ATOM     10  C   UNL     1     179.914 166.181 157.967  1.00  0.00     0.146 A 
ATOM     11  O   UNL     1     180.051 165.969 159.272  1.00  0.00    -0.456 OA
ENDROOT
BRANCH   1  12
ATOM     12  C   UNL     1     179.329 165.349 161.500  1.00  0.00     0.021 A 
ATOM     13  C   UNL     1     178.388 165.694 162.489  1.00  0.00     0.016 A 
ATOM     14  C   UNL     1     178.666 165.470 163.840  1.00  0.00     0.051 A 
ATOM     15  C   UNL     1     179.882 164.892 164.226  1.00  0.00     0.157 A 
ATOM     16  C   UNL     1     180.542 164.757 161.896  1.00  0.00     0.062 A 
ATOM     17  C   UNL     1     180.821 164.533 163.252  1.00  0.00     0.158 A 
BRANCH  15  18
ATOM     18  O   UNL     1     180.162 164.669 165.573  1.00  0.00    -0.504 OA
ATOM     19  H   UNL     1     181.052 164.289 165.873  1.00  0.00     0.293 HD
ENDBRANCH  15  18
BRANCH  17  20
ATOM     20  O   UNL     1     182.029 163.955 163.639  1.00  0.00    -0.504 OA
ATOM     21  H   UNL     1     182.652 163.528 162.963  1.00  0.00     0.293 HD
ENDBRANCH  17  20
ENDBRANCH   1  12
BRANCH   6  22
ATOM     22  O   UNL     1     177.449 165.898 155.145  1.00  0.00    -0.507 OA
ATOM     23  H   UNL     1     176.500 165.981 155.473  1.00  0.00     0.293 HD
ENDBRANCH   6  22
BRANCH   8  24
ATOM     24  O   UNL     1     182.011 167.343 155.150  1.00  0.00    -0.508 OA
ATOM     25  H   UNL     1     182.169 167.063 154.187  1.00  0.00     0.293 HD
ENDBRANCH   8  24
TORSDOF 5
ENDMDL
