MODEL 1
REMARK VINA RESULT:    -4.344      0.000      0.000
REMARK INTER + INTRA:         -15.565
REMARK INTER:                 -10.946
REMARK INTRA:                  -4.619
REMARK UNBOUND:                -4.619
REMARK SMILES CCCCCCCCCCCCCCCCCCCCCCCCCCCC(=O)[O-]
REMARK SMILES IDX 15 1 16 2 17 3 18 4 19 5 20 6 21 7 22 8 23 9 24 10 25 11
REMARK SMILES IDX 26 12 27 13 28 14 29 15 30 16 14 17 13 18 12 19 11 20 10 21
REMARK SMILES IDX 9 22 8 23 7 24 6 25 5 26 4 27 3 28 2 29 1 30
REMARK H PARENT
REMARK Flexibility Score: inf
ROOT
ATOM      1  C   UNL     1     -27.287  19.535  24.563  1.00  0.00     0.000 C 
ENDROOT
BRANCH   1   2
ATOM      2  C   UNL     1     -27.575  20.277  23.245  1.00  0.00     0.000 C 
BRANCH   2   3
ATOM      3  C   UNL     1     -27.921  21.759  23.484  1.00  0.00     0.000 C 
BRANCH   3   4
ATOM      4  C   UNL     1     -28.879  21.969  24.676  1.00  0.00     0.000 C 
BRANCH   4   5
ATOM      5  C   UNL     1     -28.235  22.677  25.884  1.00  0.00     0.000 C 
BRANCH   5   6
ATOM      6  C   UNL     1     -28.999  22.543  27.211  1.00  0.00     0.000 C 
BRANCH   6   7
ATOM      7  C   UNL     1     -28.103  22.070  28.366  1.00  0.00     0.000 C 
BRANCH   7   8
ATOM      8  C   UNL     1     -28.908  21.271  29.402  1.00  0.00     0.000 C 
BRANCH   8   9
ATOM      9  C   UNL     1     -29.766  22.176  30.301  1.00  0.00     0.000 C 
BRANCH   9  10
ATOM     10  C   UNL     1     -31.274  21.923  30.126  1.00  0.00     0.000 C 
BRANCH  10  11
ATOM     11  C   UNL     1     -31.990  23.057  29.369  1.00  0.00     0.000 C 
BRANCH  11  12
ATOM     12  C   UNL     1     -31.390  24.463  29.584  1.00  0.00     0.006 C 
BRANCH  12  13
ATOM     13  C   UNL     1     -31.996  25.249  30.759  1.00  0.00     0.053 C 
BRANCH  13  14
ATOM     14  C   UNL     1     -33.461  24.981  30.917  1.00  0.00     0.041 C 
ATOM     15  O   UNL     1     -34.307  25.693  30.314  1.00  0.00    -0.550 OA
ATOM     16  O   UNL     1     -33.893  23.968  31.762  1.00  0.00    -0.550 OA
ENDBRANCH  13  14
ENDBRANCH  12  13
ENDBRANCH  11  12
ENDBRANCH  10  11
ENDBRANCH   9  10
ENDBRANCH   8   9
ENDBRANCH   7   8
ENDBRANCH   6   7
ENDBRANCH   5   6
ENDBRANCH   4   5
ENDBRANCH   3   4
ENDBRANCH   2   3
ENDBRANCH   1   2
BRANCH   1  17
ATOM     17  C   UNL     1     -27.778  18.081  24.520  1.00  0.00     0.000 C 
BRANCH  17  18
ATOM     18  C   UNL     1     -28.418  17.662  25.853  1.00  0.00     0.000 C 
BRANCH  18  19
ATOM     19  C   UNL     1     -29.050  18.848  26.611  1.00  0.00     0.000 C 
BRANCH  19  20
ATOM     20  C   UNL     1     -30.582  18.759  26.771  1.00  0.00     0.000 C 
BRANCH  20  21
ATOM     21  C   UNL     1     -31.377  19.971  26.255  1.00  0.00     0.000 C 
BRANCH  21  22
ATOM     22  C   UNL     1     -32.199  19.735  24.970  1.00  0.00    -0.000 C 
BRANCH  22  23
ATOM     23  C   UNL     1     -31.361  19.672  23.677  1.00  0.00    -0.000 C 
BRANCH  23  24
ATOM     24  C   UNL     1     -31.158  18.233  23.168  1.00  0.00    -0.000 C 
BRANCH  24  25
ATOM     25  C   UNL     1     -30.273  18.166  21.910  1.00  0.00    -0.000 C 
BRANCH  25  26
ATOM     26  C   UNL     1     -30.490  16.922  21.020  1.00  0.00    -0.000 C 
BRANCH  26  27
ATOM     27  C   UNL     1     -29.234  16.395  20.298  1.00  0.00    -0.000 C 
BRANCH  27  28
ATOM     28  C   UNL     1     -27.906  16.604  21.055  1.00  0.00    -0.000 C 
BRANCH  28  29
ATOM     29  C   UNL     1     -26.896  17.496  20.306  1.00  0.00    -0.003 C 
ATOM     30  C   UNL     1     -25.657  17.828  21.141  1.00  0.00     0.004 C 
ENDBRANCH  28  29
ENDBRANCH  27  28
ENDBRANCH  26  27
ENDBRANCH  25  26
ENDBRANCH  24  25
ENDBRANCH  23  24
ENDBRANCH  22  23
ENDBRANCH  21  22
ENDBRANCH  20  21
ENDBRANCH  19  20
ENDBRANCH  18  19
ENDBRANCH  17  18
ENDBRANCH   1  17
TORSDOF 26
ENDMDL
MODEL 2
REMARK VINA RESULT:    -4.155      3.222      5.021
REMARK INTER + INTRA:         -15.089
REMARK INTER:                 -10.748
REMARK INTRA:                  -4.340
REMARK UNBOUND:                -4.619
REMARK SMILES CCCCCCCCCCCCCCCCCCCCCCCCCCCC(=O)[O-]
REMARK SMILES IDX 15 1 16 2 17 3 18 4 19 5 20 6 21 7 22 8 23 9 24 10 25 11
REMARK SMILES IDX 26 12 27 13 28 14 29 15 30 16 14 17 13 18 12 19 11 20 10 21
REMARK SMILES IDX 9 22 8 23 7 24 6 25 5 26 4 27 3 28 2 29 1 30
REMARK H PARENT
REMARK Flexibility Score: inf
ROOT
ATOM      1  C   UNL     1     -30.923  17.855  27.295  1.00  0.00     0.000 C 
ENDROOT
BRANCH   1   2
ATOM      2  C   UNL     1     -30.486  18.699  26.084  1.00  0.00     0.000 C 
BRANCH   2   3
ATOM      3  C   UNL     1     -31.597  19.662  25.623  1.00  0.00     0.000 C 
BRANCH   3   4
ATOM      4  C   UNL     1     -31.514  20.003  24.120  1.00  0.00     0.000 C 
BRANCH   4   5
ATOM      5  C   UNL     1     -30.077  20.209  23.601  1.00  0.00     0.000 C 
BRANCH   5   6
ATOM      6  C   UNL     1     -29.479  21.602  23.853  1.00  0.00     0.000 C 
BRANCH   6   7
ATOM      7  C   UNL     1     -28.492  21.620  25.031  1.00  0.00     0.000 C 
BRANCH   7   8
ATOM      8  C   UNL     1     -29.081  22.367  26.238  1.00  0.00     0.000 C 
BRANCH   8   9
ATOM      9  C   UNL     1     -28.492  21.880  27.572  1.00  0.00     0.000 C 
BRANCH   9  10
ATOM     10  C   UNL     1     -29.577  21.447  28.574  1.00  0.00     0.000 C 
BRANCH  10  11
ATOM     11  C   UNL     1     -30.956  22.060  28.268  1.00  0.00     0.000 C 
BRANCH  11  12
ATOM     12  C   UNL     1     -31.648  22.736  29.471  1.00  0.00     0.006 C 
BRANCH  12  13
ATOM     13  C   UNL     1     -31.521  24.268  29.510  1.00  0.00     0.053 C 
BRANCH  13  14
ATOM     14  C   UNL     1     -32.163  24.852  30.730  1.00  0.00     0.041 C 
ATOM     15  O   UNL     1     -31.661  24.660  31.869  1.00  0.00    -0.550 OA
ATOM     16  O   UNL     1     -33.340  25.578  30.613  1.00  0.00    -0.550 OA
ENDBRANCH  13  14
ENDBRANCH  12  13
ENDBRANCH  11  12
ENDBRANCH  10  11
ENDBRANCH   9  10
ENDBRANCH   8   9
ENDBRANCH   7   8
ENDBRANCH   6   7
ENDBRANCH   5   6
ENDBRANCH   4   5
ENDBRANCH   3   4
ENDBRANCH   2   3
ENDBRANCH   1   2
BRANCH   1  17
ATOM     17  C   UNL     1     -29.743  17.530  28.221  1.00  0.00     0.000 C 
BRANCH  17  18
ATOM     18  C   UNL     1     -29.962  16.207  28.971  1.00  0.00     0.000 C 
BRANCH  18  19
ATOM     19  C   UNL     1     -30.251  16.413  30.473  1.00  0.00     0.000 C 
BRANCH  19  20
ATOM     20  C   UNL     1     -31.126  15.315  31.111  1.00  0.00     0.000 C 
BRANCH  20  21
ATOM     21  C   UNL     1     -31.399  14.083  30.230  1.00  0.00     0.000 C 
BRANCH  21  22
ATOM     22  C   UNL     1     -32.818  13.487  30.332  1.00  0.00    -0.000 C 
BRANCH  22  23
ATOM     23  C   UNL     1     -33.571  13.394  28.989  1.00  0.00    -0.000 C 
BRANCH  23  24
ATOM     24  C   UNL     1     -33.120  14.464  27.978  1.00  0.00    -0.000 C 
BRANCH  24  25
ATOM     25  C   UNL     1     -33.956  15.754  28.064  1.00  0.00    -0.000 C 
BRANCH  25  26
ATOM     26  C   UNL     1     -34.255  16.433  26.708  1.00  0.00    -0.000 C 
BRANCH  26  27
ATOM     27  C   UNL     1     -33.494  15.858  25.497  1.00  0.00    -0.000 C 
BRANCH  27  28
ATOM     28  C   UNL     1     -33.496  16.749  24.237  1.00  0.00    -0.000 C 
BRANCH  28  29
ATOM     29  C   UNL     1     -32.403  16.381  23.213  1.00  0.00    -0.003 C 
ATOM     30  C   UNL     1     -31.135  15.827  23.867  1.00  0.00     0.004 C 
ENDBRANCH  28  29
ENDBRANCH  27  28
ENDBRANCH  26  27
ENDBRANCH  25  26
ENDBRANCH  24  25
ENDBRANCH  23  24
ENDBRANCH  22  23
ENDBRANCH  21  22
ENDBRANCH  20  21
ENDBRANCH  19  20
ENDBRANCH  18  19
ENDBRANCH  17  18
ENDBRANCH   1  17
TORSDOF 26
ENDMDL
MODEL 3
REMARK VINA RESULT:    -4.114      2.477      8.557
REMARK INTER + INTRA:         -14.987
REMARK INTER:                 -11.426
REMARK INTRA:                  -3.561
REMARK UNBOUND:                -4.619
REMARK SMILES CCCCCCCCCCCCCCCCCCCCCCCCCCCC(=O)[O-]
REMARK SMILES IDX 15 1 16 2 17 3 18 4 19 5 20 6 21 7 22 8 23 9 24 10 25 11
REMARK SMILES IDX 26 12 27 13 28 14 29 15 30 16 14 17 13 18 12 19 11 20 10 21
REMARK SMILES IDX 9 22 8 23 7 24 6 25 5 26 4 27 3 28 2 29 1 30
REMARK H PARENT
REMARK Flexibility Score: inf
ROOT
ATOM      1  C   UNL     1     -27.203  19.495  23.841  1.00  0.00     0.000 C 
ENDROOT
BRANCH   1   2
ATOM      2  C   UNL     1     -26.750  18.244  23.067  1.00  0.00     0.000 C 
BRANCH   2   3
ATOM      3  C   UNL     1     -26.213  18.598  21.667  1.00  0.00     0.000 C 
BRANCH   3   4
ATOM      4  C   UNL     1     -26.048  17.363  20.756  1.00  0.00     0.000 C 
BRANCH   4   5
ATOM      5  C   UNL     1     -27.233  17.125  19.799  1.00  0.00     0.000 C 
BRANCH   5   6
ATOM      6  C   UNL     1     -27.793  15.694  19.788  1.00  0.00     0.000 C 
BRANCH   6   7
ATOM      7  C   UNL     1     -29.329  15.658  19.793  1.00  0.00     0.000 C 
BRANCH   7   8
ATOM      8  C   UNL     1     -29.912  16.920  20.447  1.00  0.00     0.000 C 
BRANCH   8   9
ATOM      9  C   UNL     1     -30.776  16.595  21.677  1.00  0.00     0.000 C 
BRANCH   9  10
ATOM     10  C   UNL     1     -30.535  17.572  22.842  1.00  0.00     0.000 C 
BRANCH  10  11
ATOM     11  C   UNL     1     -30.510  19.045  22.394  1.00  0.00     0.000 C 
BRANCH  11  12
ATOM     12  C   UNL     1     -31.176  20.035  23.374  1.00  0.00     0.006 C 
BRANCH  12  13
ATOM     13  C   UNL     1     -31.641  19.413  24.701  1.00  0.00     0.053 C 
BRANCH  13  14
ATOM     14  C   UNL     1     -33.134  19.392  24.818  1.00  0.00     0.041 C 
ATOM     15  O   UNL     1     -33.826  20.313  24.307  1.00  0.00    -0.550 OA
ATOM     16  O   UNL     1     -33.759  18.375  25.525  1.00  0.00    -0.550 OA
ENDBRANCH  13  14
ENDBRANCH  12  13
ENDBRANCH  11  12
ENDBRANCH  10  11
ENDBRANCH   9  10
ENDBRANCH   8   9
ENDBRANCH   7   8
ENDBRANCH   6   7
ENDBRANCH   5   6
ENDBRANCH   4   5
ENDBRANCH   3   4
ENDBRANCH   2   3
ENDBRANCH   1   2
BRANCH   1  17
ATOM     17  C   UNL     1     -27.102  20.765  22.985  1.00  0.00     0.000 C 
BRANCH  17  18
ATOM     18  C   UNL     1     -27.988  21.892  23.538  1.00  0.00     0.000 C 
BRANCH  18  19
ATOM     19  C   UNL     1     -28.522  21.591  24.955  1.00  0.00     0.000 C 
BRANCH  19  20
ATOM     20  C   UNL     1     -28.364  22.754  25.956  1.00  0.00     0.000 C 
BRANCH  20  21
ATOM     21  C   UNL     1     -29.365  22.769  27.124  1.00  0.00     0.000 C 
BRANCH  21  22
ATOM     22  C   UNL     1     -30.032  21.417  27.453  1.00  0.00    -0.000 C 
BRANCH  22  23
ATOM     23  C   UNL     1     -29.997  21.032  28.946  1.00  0.00    -0.000 C 
BRANCH  23  24
ATOM     24  C   UNL     1     -28.916  21.796  29.733  1.00  0.00    -0.000 C 
BRANCH  24  25
ATOM     25  C   UNL     1     -29.002  21.552  31.251  1.00  0.00    -0.000 C 
BRANCH  25  26
ATOM     26  C   UNL     1     -29.576  22.729  32.073  1.00  0.00    -0.000 C 
BRANCH  26  27
ATOM     27  C   UNL     1     -31.086  22.986  31.895  1.00  0.00    -0.000 C 
BRANCH  27  28
ATOM     28  C   UNL     1     -31.530  24.450  32.095  1.00  0.00    -0.000 C 
BRANCH  28  29
ATOM     29  C   UNL     1     -31.904  25.171  30.784  1.00  0.00    -0.003 C 
ATOM     30  C   UNL     1     -31.804  24.266  29.555  1.00  0.00     0.004 C 
ENDBRANCH  28  29
ENDBRANCH  27  28
ENDBRANCH  26  27
ENDBRANCH  25  26
ENDBRANCH  24  25
ENDBRANCH  23  24
ENDBRANCH  22  23
ENDBRANCH  21  22
ENDBRANCH  20  21
ENDBRANCH  19  20
ENDBRANCH  18  19
ENDBRANCH  17  18
ENDBRANCH   1  17
TORSDOF 26
ENDMDL
MODEL 4
REMARK VINA RESULT:    -4.098      4.024      7.823
REMARK INTER + INTRA:         -14.947
REMARK INTER:                  -9.800
REMARK INTRA:                  -5.146
REMARK UNBOUND:                -4.619
REMARK SMILES CCCCCCCCCCCCCCCCCCCCCCCCCCCC(=O)[O-]
REMARK SMILES IDX 15 1 16 2 17 3 18 4 19 5 20 6 21 7 22 8 23 9 24 10 25 11
REMARK SMILES IDX 26 12 27 13 28 14 29 15 30 16 14 17 13 18 12 19 11 20 10 21
REMARK SMILES IDX 9 22 8 23 7 24 6 25 5 26 4 27 3 28 2 29 1 30
REMARK H PARENT
REMARK Flexibility Score: inf
ROOT
ATOM      1  C   UNL     1     -33.584  18.386  25.319  1.00  0.00     0.000 C 
ENDROOT
BRANCH   1   2
ATOM      2  C   UNL     1     -32.886  19.381  24.374  1.00  0.00     0.000 C 
BRANCH   2   3
ATOM      3  C   UNL     1     -31.625  18.773  23.729  1.00  0.00     0.000 C 
BRANCH   3   4
ATOM      4  C   UNL     1     -30.855  19.780  22.848  1.00  0.00     0.000 C 
BRANCH   4   5
ATOM      5  C   UNL     1     -30.165  20.909  23.640  1.00  0.00     0.000 C 
BRANCH   5   6
ATOM      6  C   UNL     1     -29.122  21.721  22.855  1.00  0.00     0.000 C 
BRANCH   6   7
ATOM      7  C   UNL     1     -27.709  21.598  23.445  1.00  0.00     0.000 C 
BRANCH   7   8
ATOM      8  C   UNL     1     -27.170  20.166  23.302  1.00  0.00     0.000 C 
BRANCH   8   9
ATOM      9  C   UNL     1     -27.173  19.404  24.638  1.00  0.00     0.000 C 
BRANCH   9  10
ATOM     10  C   UNL     1     -27.932  18.068  24.553  1.00  0.00     0.000 C 
BRANCH  10  11
ATOM     11  C   UNL     1     -27.609  17.274  23.274  1.00  0.00     0.000 C 
BRANCH  11  12
ATOM     12  C   UNL     1     -28.833  16.661  22.561  1.00  0.00     0.006 C 
BRANCH  12  13
ATOM     13  C   UNL     1     -29.030  17.125  21.108  1.00  0.00     0.053 C 
BRANCH  13  14
ATOM     14  C   UNL     1     -30.420  16.855  20.617  1.00  0.00     0.041 C 
ATOM     15  O   UNL     1     -30.806  17.318  19.511  1.00  0.00    -0.550 OA
ATOM     16  O   UNL     1     -31.301  16.123  21.401  1.00  0.00    -0.550 OA
ENDBRANCH  13  14
ENDBRANCH  12  13
ENDBRANCH  11  12
ENDBRANCH  10  11
ENDBRANCH   9  10
ENDBRANCH   8   9
ENDBRANCH   7   8
ENDBRANCH   6   7
ENDBRANCH   5   6
ENDBRANCH   4   5
ENDBRANCH   3   4
ENDBRANCH   2   3
ENDBRANCH   1   2
BRANCH   1  17
ATOM     17  C   UNL     1     -33.542  16.952  24.772  1.00  0.00     0.000 C 
BRANCH  17  18
ATOM     18  C   UNL     1     -33.850  15.920  25.869  1.00  0.00     0.000 C 
BRANCH  18  19
ATOM     19  C   UNL     1     -33.588  16.462  27.290  1.00  0.00     0.000 C 
BRANCH  19  20
ATOM     20  C   UNL     1     -32.415  15.781  28.025  1.00  0.00     0.000 C 
BRANCH  20  21
ATOM     21  C   UNL     1     -31.264  16.711  28.448  1.00  0.00     0.000 C 
BRANCH  21  22
ATOM     22  C   UNL     1     -30.694  17.619  27.338  1.00  0.00    -0.000 C 
BRANCH  22  23
ATOM     23  C   UNL     1     -30.139  18.969  27.838  1.00  0.00    -0.000 C 
BRANCH  23  24
ATOM     24  C   UNL     1     -30.642  20.164  27.009  1.00  0.00    -0.000 C 
BRANCH  24  25
ATOM     25  C   UNL     1     -30.497  21.506  27.749  1.00  0.00    -0.000 C 
BRANCH  25  26
ATOM     26  C   UNL     1     -29.519  22.511  27.100  1.00  0.00    -0.000 C 
BRANCH  26  27
ATOM     27  C   UNL     1     -28.034  22.100  27.122  1.00  0.00    -0.000 C 
BRANCH  27  28
ATOM     28  C   UNL     1     -27.363  22.135  28.511  1.00  0.00    -0.000 C 
BRANCH  28  29
ATOM     29  C   UNL     1     -27.154  20.741  29.137  1.00  0.00    -0.003 C 
ATOM     30  C   UNL     1     -26.450  19.763  28.194  1.00  0.00     0.004 C 
ENDBRANCH  28  29
ENDBRANCH  27  28
ENDBRANCH  26  27
ENDBRANCH  25  26
ENDBRANCH  24  25
ENDBRANCH  23  24
ENDBRANCH  22  23
ENDBRANCH  21  22
ENDBRANCH  20  21
ENDBRANCH  19  20
ENDBRANCH  18  19
ENDBRANCH  17  18
ENDBRANCH   1  17
TORSDOF 26
ENDMDL
MODEL 5
REMARK VINA RESULT:    -4.096      2.448      4.152
REMARK INTER + INTRA:         -14.942
REMARK INTER:                 -10.672
REMARK INTRA:                  -4.270
REMARK UNBOUND:                -4.619
REMARK SMILES CCCCCCCCCCCCCCCCCCCCCCCCCCCC(=O)[O-]
REMARK SMILES IDX 15 1 16 2 17 3 18 4 19 5 20 6 21 7 22 8 23 9 24 10 25 11
REMARK SMILES IDX 26 12 27 13 28 14 29 15 30 16 14 17 13 18 12 19 11 20 10 21
REMARK SMILES IDX 9 22 8 23 7 24 6 25 5 26 4 27 3 28 2 29 1 30
REMARK H PARENT
REMARK Flexibility Score: inf
ROOT
ATOM      1  C   UNL     1     -30.881  17.474  27.403  1.00  0.00     0.000 C 
ENDROOT
BRANCH   1   2
ATOM      2  C   UNL     1     -29.666  18.292  27.878  1.00  0.00     0.000 C 
BRANCH   2   3
ATOM      3  C   UNL     1     -29.582  18.355  29.415  1.00  0.00     0.000 C 
BRANCH   3   4
ATOM      4  C   UNL     1     -28.143  18.576  29.930  1.00  0.00     0.000 C 
BRANCH   4   5
ATOM      5  C   UNL     1     -27.750  20.059  30.079  1.00  0.00     0.000 C 
BRANCH   5   6
ATOM      6  C   UNL     1     -26.951  20.650  28.906  1.00  0.00     0.000 C 
BRANCH   6   7
ATOM      7  C   UNL     1     -27.468  22.030  28.472  1.00  0.00     0.000 C 
BRANCH   7   8
ATOM      8  C   UNL     1     -28.342  21.925  27.213  1.00  0.00     0.000 C 
BRANCH   8   9
ATOM      9  C   UNL     1     -29.723  22.574  27.403  1.00  0.00     0.000 C 
BRANCH   9  10
ATOM     10  C   UNL     1     -30.632  21.761  28.343  1.00  0.00     0.000 C 
BRANCH  10  11
ATOM     11  C   UNL     1     -31.693  22.625  29.048  1.00  0.00     0.000 C 
BRANCH  11  12
ATOM     12  C   UNL     1     -31.153  23.526  30.178  1.00  0.00     0.006 C 
BRANCH  12  13
ATOM     13  C   UNL     1     -31.663  24.977  30.145  1.00  0.00     0.053 C 
BRANCH  13  14
ATOM     14  C   UNL     1     -32.907  25.153  30.960  1.00  0.00     0.041 C 
ATOM     15  O   UNL     1     -33.957  25.605  30.431  1.00  0.00    -0.550 OA
ATOM     16  O   UNL     1     -32.895  24.853  32.315  1.00  0.00    -0.550 OA
ENDBRANCH  13  14
ENDBRANCH  12  13
ENDBRANCH  11  12
ENDBRANCH  10  11
ENDBRANCH   9  10
ENDBRANCH   8   9
ENDBRANCH   7   8
ENDBRANCH   6   7
ENDBRANCH   5   6
ENDBRANCH   4   5
ENDBRANCH   3   4
ENDBRANCH   2   3
ENDBRANCH   1   2
BRANCH   1  17
ATOM     17  C   UNL     1     -30.463  16.112  26.830  1.00  0.00     0.000 C 
BRANCH  17  18
ATOM     18  C   UNL     1     -30.727  14.974  27.828  1.00  0.00     0.000 C 
BRANCH  18  19
ATOM     19  C   UNL     1     -32.104  15.088  28.514  1.00  0.00     0.000 C 
BRANCH  19  20
ATOM     20  C   UNL     1     -33.293  14.645  27.637  1.00  0.00     0.000 C 
BRANCH  20  21
ATOM     21  C   UNL     1     -34.515  15.580  27.648  1.00  0.00     0.000 C 
BRANCH  21  22
ATOM     22  C   UNL     1     -34.604  16.580  26.477  1.00  0.00    -0.000 C 
BRANCH  22  23
ATOM     23  C   UNL     1     -33.830  16.155  25.211  1.00  0.00    -0.000 C 
BRANCH  23  24
ATOM     24  C   UNL     1     -33.220  17.349  24.456  1.00  0.00    -0.000 C 
BRANCH  24  25
ATOM     25  C   UNL     1     -33.574  18.703  25.097  1.00  0.00    -0.000 C 
BRANCH  25  26
ATOM     26  C   UNL     1     -32.863  19.928  24.479  1.00  0.00    -0.000 C 
BRANCH  26  27
ATOM     27  C   UNL     1     -31.407  20.149  24.935  1.00  0.00    -0.000 C 
BRANCH  27  28
ATOM     28  C   UNL     1     -30.377  20.293  23.796  1.00  0.00    -0.000 C 
BRANCH  28  29
ATOM     29  C   UNL     1     -30.496  19.206  22.708  1.00  0.00    -0.003 C 
ATOM     30  C   UNL     1     -29.309  18.241  22.695  1.00  0.00     0.004 C 
ENDBRANCH  28  29
ENDBRANCH  27  28
ENDBRANCH  26  27
ENDBRANCH  25  26
ENDBRANCH  24  25
ENDBRANCH  23  24
ENDBRANCH  22  23
ENDBRANCH  21  22
ENDBRANCH  20  21
ENDBRANCH  19  20
ENDBRANCH  18  19
ENDBRANCH  17  18
ENDBRANCH   1  17
TORSDOF 26
ENDMDL
MODEL 6
REMARK VINA RESULT:    -4.045      2.191      4.189
REMARK INTER + INTRA:         -14.811
REMARK INTER:                 -11.176
REMARK INTRA:                  -3.635
REMARK UNBOUND:                -4.619
REMARK SMILES CCCCCCCCCCCCCCCCCCCCCCCCCCCC(=O)[O-]
REMARK SMILES IDX 15 1 16 2 17 3 18 4 19 5 20 6 21 7 22 8 23 9 24 10 25 11
REMARK SMILES IDX 26 12 27 13 28 14 29 15 30 16 14 17 13 18 12 19 11 20 10 21
REMARK SMILES IDX 9 22 8 23 7 24 6 25 5 26 4 27 3 28 2 29 1 30
REMARK H PARENT
REMARK Flexibility Score: inf
ROOT
ATOM      1  C   UNL     1     -27.729  20.159  24.182  1.00  0.00     0.000 C 
ENDROOT
BRANCH   1   2
ATOM      2  C   UNL     1     -27.953  21.681  24.257  1.00  0.00     0.000 C 
BRANCH   2   3
ATOM      3  C   UNL     1     -29.210  22.037  25.073  1.00  0.00     0.000 C 
BRANCH   3   4
ATOM      4  C   UNL     1     -28.886  22.791  26.380  1.00  0.00     0.000 C 
BRANCH   4   5
ATOM      5  C   UNL     1     -27.992  22.002  27.357  1.00  0.00     0.000 C 
BRANCH   5   6
ATOM      6  C   UNL     1     -28.739  21.101  28.353  1.00  0.00     0.000 C 
BRANCH   6   7
ATOM      7  C   UNL     1     -28.451  21.469  29.817  1.00  0.00     0.000 C 
BRANCH   7   8
ATOM      8  C   UNL     1     -29.622  22.248  30.435  1.00  0.00     0.000 C 
BRANCH   8   9
ATOM      9  C   UNL     1     -30.987  21.737  29.945  1.00  0.00     0.000 C 
BRANCH   9  10
ATOM     10  C   UNL     1     -31.804  22.827  29.229  1.00  0.00     0.000 C 
BRANCH  10  11
ATOM     11  C   UNL     1     -31.259  24.246  29.476  1.00  0.00     0.000 C 
BRANCH  11  12
ATOM     12  C   UNL     1     -31.903  24.993  30.663  1.00  0.00     0.006 C 
BRANCH  12  13
ATOM     13  C   UNL     1     -33.441  25.016  30.653  1.00  0.00     0.053 C 
BRANCH  13  14
ATOM     14  C   UNL     1     -34.020  24.351  31.864  1.00  0.00     0.041 C 
ATOM     15  O   UNL     1     -34.657  25.024  32.717  1.00  0.00    -0.550 OA
ATOM     16  O   UNL     1     -33.822  22.993  32.070  1.00  0.00    -0.550 OA
ENDBRANCH  13  14
ENDBRANCH  12  13
ENDBRANCH  11  12
ENDBRANCH  10  11
ENDBRANCH   9  10
ENDBRANCH   8   9
ENDBRANCH   7   8
ENDBRANCH   6   7
ENDBRANCH   5   6
ENDBRANCH   4   5
ENDBRANCH   3   4
ENDBRANCH   2   3
ENDBRANCH   1   2
BRANCH   1  17
ATOM     17  C   UNL     1     -28.641  19.498  23.140  1.00  0.00     0.000 C 
BRANCH  17  18
ATOM     18  C   UNL     1     -29.670  18.566  23.800  1.00  0.00     0.000 C 
BRANCH  18  19
ATOM     19  C   UNL     1     -29.495  18.472  25.331  1.00  0.00     0.000 C 
BRANCH  19  20
ATOM     20  C   UNL     1     -30.757  18.837  26.141  1.00  0.00     0.000 C 
BRANCH  20  21
ATOM     21  C   UNL     1     -31.759  19.764  25.431  1.00  0.00     0.000 C 
BRANCH  21  22
ATOM     22  C   UNL     1     -33.135  19.143  25.110  1.00  0.00    -0.000 C 
BRANCH  22  23
ATOM     23  C   UNL     1     -33.070  17.806  24.344  1.00  0.00    -0.000 C 
BRANCH  23  24
ATOM     24  C   UNL     1     -34.214  16.848  24.720  1.00  0.00    -0.000 C 
BRANCH  24  25
ATOM     25  C   UNL     1     -34.649  16.987  26.191  1.00  0.00    -0.000 C 
BRANCH  25  26
ATOM     26  C   UNL     1     -34.644  15.673  27.004  1.00  0.00    -0.000 C 
BRANCH  26  27
ATOM     27  C   UNL     1     -33.612  15.605  28.148  1.00  0.00    -0.000 C 
BRANCH  27  28
ATOM     28  C   UNL     1     -32.158  15.919  27.740  1.00  0.00    -0.000 C 
BRANCH  28  29
ATOM     29  C   UNL     1     -31.261  16.348  28.919  1.00  0.00    -0.003 C 
ATOM     30  C   UNL     1     -31.194  15.299  30.031  1.00  0.00     0.004 C 
ENDBRANCH  28  29
ENDBRANCH  27  28
ENDBRANCH  26  27
ENDBRANCH  25  26
ENDBRANCH  24  25
ENDBRANCH  23  24
ENDBRANCH  22  23
ENDBRANCH  21  22
ENDBRANCH  20  21
ENDBRANCH  19  20
ENDBRANCH  18  19
ENDBRANCH  17  18
ENDBRANCH   1  17
TORSDOF 26
ENDMDL
MODEL 7
REMARK VINA RESULT:    -4.042      4.583      8.691
REMARK INTER + INTRA:         -14.804
REMARK INTER:                  -9.488
REMARK INTRA:                  -5.316
REMARK UNBOUND:                -4.619
REMARK SMILES CCCCCCCCCCCCCCCCCCCCCCCCCCCC(=O)[O-]
REMARK SMILES IDX 15 1 16 2 17 3 18 4 19 5 20 6 21 7 22 8 23 9 24 10 25 11
REMARK SMILES IDX 26 12 27 13 28 14 29 15 30 16 14 17 13 18 12 19 11 20 10 21
REMARK SMILES IDX 9 22 8 23 7 24 6 25 5 26 4 27 3 28 2 29 1 30
REMARK H PARENT
REMARK Flexibility Score: inf
ROOT
ATOM      1  C   UNL     1     -31.611  18.822  23.829  1.00  0.00     0.000 C 
ENDROOT
BRANCH   1   2
ATOM      2  C   UNL     1     -32.989  19.368  24.243  1.00  0.00     0.000 C 
BRANCH   2   3
ATOM      3  C   UNL     1     -33.543  18.647  25.487  1.00  0.00     0.000 C 
BRANCH   3   4
ATOM      4  C   UNL     1     -34.240  17.312  25.149  1.00  0.00     0.000 C 
BRANCH   4   5
ATOM      5  C   UNL     1     -34.428  16.376  26.359  1.00  0.00     0.000 C 
BRANCH   5   6
ATOM      6  C   UNL     1     -33.188  15.560  26.760  1.00  0.00     0.000 C 
BRANCH   6   7
ATOM      7  C   UNL     1     -33.032  14.275  25.933  1.00  0.00     0.000 C 
BRANCH   7   8
ATOM      8  C   UNL     1     -31.603  14.137  25.385  1.00  0.00     0.000 C 
BRANCH   8   9
ATOM      9  C   UNL     1     -31.233  15.279  24.425  1.00  0.00     0.000 C 
BRANCH   9  10
ATOM     10  C   UNL     1     -32.058  15.249  23.126  1.00  0.00     0.000 C 
BRANCH  10  11
ATOM     11  C   UNL     1     -31.193  15.389  21.860  1.00  0.00     0.000 C 
BRANCH  11  12
ATOM     12  C   UNL     1     -29.828  16.077  22.078  1.00  0.00     0.006 C 
BRANCH  12  13
ATOM     13  C   UNL     1     -29.386  17.007  20.936  1.00  0.00     0.053 C 
BRANCH  13  14
ATOM     14  C   UNL     1     -28.257  16.423  20.143  1.00  0.00     0.041 C 
ATOM     15  O   UNL     1     -27.447  17.175  19.539  1.00  0.00    -0.550 OA
ATOM     16  O   UNL     1     -28.123  15.046  20.039  1.00  0.00    -0.550 OA
ENDBRANCH  13  14
ENDBRANCH  12  13
ENDBRANCH  11  12
ENDBRANCH  10  11
ENDBRANCH   9  10
ENDBRANCH   8   9
ENDBRANCH   7   8
ENDBRANCH   6   7
ENDBRANCH   5   6
ENDBRANCH   4   5
ENDBRANCH   3   4
ENDBRANCH   2   3
ENDBRANCH   1   2
BRANCH   1  17
ATOM     17  C   UNL     1     -30.849  19.810  22.935  1.00  0.00     0.000 C 
BRANCH  17  18
ATOM     18  C   UNL     1     -30.122  20.879  23.765  1.00  0.00     0.000 C 
BRANCH  18  19
ATOM     19  C   UNL     1     -29.034  21.623  22.962  1.00  0.00     0.000 C 
BRANCH  19  20
ATOM     20  C   UNL     1     -27.622  21.015  23.085  1.00  0.00     0.000 C 
BRANCH  20  21
ATOM     21  C   UNL     1     -27.442  19.968  24.198  1.00  0.00     0.000 C 
BRANCH  21  22
ATOM     22  C   UNL     1     -27.408  18.496  23.736  1.00  0.00    -0.000 C 
BRANCH  22  23
ATOM     23  C   UNL     1     -27.885  17.482  24.795  1.00  0.00    -0.000 C 
BRANCH  23  24
ATOM     24  C   UNL     1     -28.179  18.136  26.157  1.00  0.00    -0.000 C 
BRANCH  24  25
ATOM     25  C   UNL     1     -29.403  17.521  26.861  1.00  0.00    -0.000 C 
BRANCH  25  26
ATOM     26  C   UNL     1     -30.522  18.522  27.225  1.00  0.00    -0.000 C 
BRANCH  26  27
ATOM     27  C   UNL     1     -30.055  19.809  27.935  1.00  0.00    -0.000 C 
BRANCH  27  28
ATOM     28  C   UNL     1     -30.521  21.126  27.281  1.00  0.00    -0.000 C 
BRANCH  28  29
ATOM     29  C   UNL     1     -29.631  22.338  27.622  1.00  0.00    -0.003 C 
ATOM     30  C   UNL     1     -28.680  22.720  26.486  1.00  0.00     0.004 C 
ENDBRANCH  28  29
ENDBRANCH  27  28
ENDBRANCH  26  27
ENDBRANCH  25  26
ENDBRANCH  24  25
ENDBRANCH  23  24
ENDBRANCH  22  23
ENDBRANCH  21  22
ENDBRANCH  20  21
ENDBRANCH  19  20
ENDBRANCH  18  19
ENDBRANCH  17  18
ENDBRANCH   1  17
TORSDOF 26
ENDMDL
MODEL 8
REMARK VINA RESULT:    -4.026      3.510      8.926
REMARK INTER + INTRA:         -14.763
REMARK INTER:                 -11.019
REMARK INTRA:                  -3.744
REMARK UNBOUND:                -4.619
REMARK SMILES CCCCCCCCCCCCCCCCCCCCCCCCCCCC(=O)[O-]
REMARK SMILES IDX 15 1 16 2 17 3 18 4 19 5 20 6 21 7 22 8 23 9 24 10 25 11
REMARK SMILES IDX 26 12 27 13 28 14 29 15 30 16 14 17 13 18 12 19 11 20 10 21
REMARK SMILES IDX 9 22 8 23 7 24 6 25 5 26 4 27 3 28 2 29 1 30
REMARK H PARENT
REMARK Flexibility Score: inf
ROOT
ATOM      1  C   UNL     1     -31.915  22.890  29.554  1.00  0.00     0.000 C 
ENDROOT
BRANCH   1   2
ATOM      2  C   UNL     1     -31.215  22.033  28.483  1.00  0.00     0.000 C 
BRANCH   2   3
ATOM      3  C   UNL     1     -29.864  21.484  28.980  1.00  0.00     0.000 C 
BRANCH   3   4
ATOM      4  C   UNL     1     -28.656  22.098  28.240  1.00  0.00     0.000 C 
BRANCH   4   5
ATOM      5  C   UNL     1     -28.968  22.558  26.801  1.00  0.00     0.000 C 
BRANCH   5   6
ATOM      6  C   UNL     1     -28.534  21.587  25.691  1.00  0.00     0.000 C 
BRANCH   6   7
ATOM      7  C   UNL     1     -29.295  21.811  24.376  1.00  0.00     0.000 C 
BRANCH   7   8
ATOM      8  C   UNL     1     -30.147  20.585  24.011  1.00  0.00     0.000 C 
BRANCH   8   9
ATOM      9  C   UNL     1     -30.442  19.695  25.230  1.00  0.00     0.000 C 
BRANCH   9  10
ATOM     10  C   UNL     1     -31.896  19.825  25.717  1.00  0.00     0.000 C 
BRANCH  10  11
ATOM     11  C   UNL     1     -32.926  19.422  24.647  1.00  0.00     0.000 C 
BRANCH  11  12
ATOM     12  C   UNL     1     -32.749  17.999  24.075  1.00  0.00     0.006 C 
BRANCH  12  13
ATOM     13  C   UNL     1     -33.901  17.030  24.389  1.00  0.00     0.053 C 
BRANCH  13  14
ATOM     14  C   UNL     1     -33.834  16.516  25.795  1.00  0.00     0.041 C 
ATOM     15  O   UNL     1     -33.142  15.499  26.069  1.00  0.00    -0.550 OA
ATOM     16  O   UNL     1     -34.567  17.138  26.796  1.00  0.00    -0.550 OA
ENDBRANCH  13  14
ENDBRANCH  12  13
ENDBRANCH  11  12
ENDBRANCH  10  11
ENDBRANCH   9  10
ENDBRANCH   8   9
ENDBRANCH   7   8
ENDBRANCH   6   7
ENDBRANCH   5   6
ENDBRANCH   4   5
ENDBRANCH   3   4
ENDBRANCH   2   3
ENDBRANCH   1   2
BRANCH   1  17
ATOM     17  C   UNL     1     -31.281  24.282  29.676  1.00  0.00     0.000 C 
BRANCH  17  18
ATOM     18  C   UNL     1     -32.038  25.162  30.684  1.00  0.00     0.000 C 
BRANCH  18  19
ATOM     19  C   UNL     1     -33.557  25.207  30.414  1.00  0.00     0.000 C 
BRANCH  19  20
ATOM     20  C   UNL     1     -34.428  25.306  31.683  1.00  0.00     0.000 C 
BRANCH  20  21
ATOM     21  C   UNL     1     -35.017  23.980  32.193  1.00  0.00     0.000 C 
BRANCH  21  22
ATOM     22  C   UNL     1     -34.665  23.606  33.648  1.00  0.00    -0.000 C 
BRANCH  22  23
ATOM     23  C   UNL     1     -33.196  23.869  34.039  1.00  0.00    -0.000 C 
BRANCH  23  24
ATOM     24  C   UNL     1     -32.313  22.614  33.918  1.00  0.00    -0.000 C 
BRANCH  24  25
ATOM     25  C   UNL     1     -30.983  22.890  33.194  1.00  0.00    -0.000 C 
BRANCH  25  26
ATOM     26  C   UNL     1     -30.177  21.632  32.799  1.00  0.00    -0.000 C 
BRANCH  26  27
ATOM     27  C   UNL     1     -31.010  20.462  32.236  1.00  0.00    -0.000 C 
BRANCH  27  28
ATOM     28  C   UNL     1     -30.276  19.107  32.166  1.00  0.00    -0.000 C 
BRANCH  28  29
ATOM     29  C   UNL     1     -28.748  19.217  32.346  1.00  0.00    -0.003 C 
ATOM     30  C   UNL     1     -27.979  19.049  31.034  1.00  0.00     0.004 C 
ENDBRANCH  28  29
ENDBRANCH  27  28
ENDBRANCH  26  27
ENDBRANCH  25  26
ENDBRANCH  24  25
ENDBRANCH  23  24
ENDBRANCH  22  23
ENDBRANCH  21  22
ENDBRANCH  20  21
ENDBRANCH  19  20
ENDBRANCH  18  19
ENDBRANCH  17  18
ENDBRANCH   1  17
TORSDOF 26
ENDMDL
MODEL 9
REMARK VINA RESULT:    -3.994      2.406      4.376
REMARK INTER + INTRA:         -14.685
REMARK INTER:                 -10.016
REMARK INTRA:                  -4.668
REMARK UNBOUND:                -4.619
REMARK SMILES CCCCCCCCCCCCCCCCCCCCCCCCCCCC(=O)[O-]
REMARK SMILES IDX 15 1 16 2 17 3 18 4 19 5 20 6 21 7 22 8 23 9 24 10 25 11
REMARK SMILES IDX 26 12 27 13 28 14 29 15 30 16 14 17 13 18 12 19 11 20 10 21
REMARK SMILES IDX 9 22 8 23 7 24 6 25 5 26 4 27 3 28 2 29 1 30
REMARK H PARENT
REMARK Flexibility Score: inf
ROOT
ATOM      1  C   UNL     1     -34.248  17.020  24.747  1.00  0.00     0.000 C 
ENDROOT
BRANCH   1   2
ATOM      2  C   UNL     1     -33.098  17.968  24.361  1.00  0.00     0.000 C 
BRANCH   2   3
ATOM      3  C   UNL     1     -32.569  18.754  25.576  1.00  0.00     0.000 C 
BRANCH   3   4
ATOM      4  C   UNL     1     -31.647  19.927  25.180  1.00  0.00     0.000 C 
BRANCH   4   5
ATOM      5  C   UNL     1     -31.319  19.987  23.675  1.00  0.00     0.000 C 
BRANCH   5   6
ATOM      6  C   UNL     1     -29.828  20.138  23.331  1.00  0.00     0.000 C 
BRANCH   6   7
ATOM      7  C   UNL     1     -29.373  21.605  23.292  1.00  0.00     0.000 C 
BRANCH   7   8
ATOM      8  C   UNL     1     -28.321  21.890  24.374  1.00  0.00     0.000 C 
BRANCH   8   9
ATOM      9  C   UNL     1     -27.992  20.643  25.212  1.00  0.00     0.000 C 
BRANCH   9  10
ATOM     10  C   UNL     1     -28.547  20.731  26.645  1.00  0.00     0.000 C 
BRANCH  10  11
ATOM     11  C   UNL     1     -29.108  22.123  26.987  1.00  0.00     0.000 C 
BRANCH  11  12
ATOM     12  C   UNL     1     -30.413  22.114  27.811  1.00  0.00     0.006 C 
BRANCH  12  13
ATOM     13  C   UNL     1     -30.456  23.133  28.962  1.00  0.00     0.053 C 
BRANCH  13  14
ATOM     14  C   UNL     1     -31.791  23.156  29.641  1.00  0.00     0.041 C 
ATOM     15  O   UNL     1     -32.538  24.166  29.543  1.00  0.00    -0.550 OA
ATOM     16  O   UNL     1     -32.193  22.077  30.415  1.00  0.00    -0.550 OA
ENDBRANCH  13  14
ENDBRANCH  12  13
ENDBRANCH  11  12
ENDBRANCH  10  11
ENDBRANCH   9  10
ENDBRANCH   8   9
ENDBRANCH   7   8
ENDBRANCH   6   7
ENDBRANCH   5   6
ENDBRANCH   4   5
ENDBRANCH   3   4
ENDBRANCH   2   3
ENDBRANCH   1   2
BRANCH   1  17
ATOM     17  C   UNL     1     -34.549  17.069  26.252  1.00  0.00     0.000 C 
BRANCH  17  18
ATOM     18  C   UNL     1     -34.255  15.723  26.931  1.00  0.00     0.000 C 
BRANCH  18  19
ATOM     19  C   UNL     1     -33.023  15.778  27.859  1.00  0.00     0.000 C 
BRANCH  19  20
ATOM     20  C   UNL     1     -31.797  14.998  27.340  1.00  0.00     0.000 C 
BRANCH  20  21
ATOM     21  C   UNL     1     -31.947  14.374  25.941  1.00  0.00     0.000 C 
BRANCH  21  22
ATOM     22  C   UNL     1     -31.025  14.952  24.847  1.00  0.00    -0.000 C 
BRANCH  22  23
ATOM     23  C   UNL     1     -30.022  16.011  25.349  1.00  0.00    -0.000 C 
BRANCH  23  24
ATOM     24  C   UNL     1     -29.300  16.740  24.201  1.00  0.00    -0.000 C 
BRANCH  24  25
ATOM     25  C   UNL     1     -30.016  16.574  22.849  1.00  0.00    -0.000 C 
BRANCH  25  26
ATOM     26  C   UNL     1     -29.148  15.980  21.716  1.00  0.00    -0.000 C 
BRANCH  26  27
ATOM     27  C   UNL     1     -27.628  16.186  21.868  1.00  0.00    -0.000 C 
BRANCH  27  28
ATOM     28  C   UNL     1     -26.928  16.838  20.657  1.00  0.00    -0.000 C 
BRANCH  28  29
ATOM     29  C   UNL     1     -26.150  18.122  21.006  1.00  0.00    -0.003 C 
ATOM     30  C   UNL     1     -26.596  18.751  22.328  1.00  0.00     0.004 C 
ENDBRANCH  28  29
ENDBRANCH  27  28
ENDBRANCH  26  27
ENDBRANCH  25  26
ENDBRANCH  24  25
ENDBRANCH  23  24
ENDBRANCH  22  23
ENDBRANCH  21  22
ENDBRANCH  20  21
ENDBRANCH  19  20
ENDBRANCH  18  19
ENDBRANCH  17  18
ENDBRANCH   1  17
TORSDOF 26
ENDMDL
