MODEL 1
REMARK VINA RESULT:    -6.061      0.000      0.000
REMARK INTER + INTRA:          -7.771
REMARK INTER:                  -7.478
REMARK INTRA:                  -0.293
REMARK UNBOUND:                -0.293
REMARK SMILES Oc1cc(O)c2cc(O)c(-c3cc(O)c(O)c(O)c3)[o+]c2c1
REMARK SMILES IDX 10 1 20 2 21 3 22 4 2 5 3 6 4 7 6 8 7 9 8 10 11 11 12 12
REMARK SMILES IDX 13 13 19 14 15 15 17 16 14 17 16 19 18 21 9 23 1 25 5 27
REMARK H PARENT 14 18 16 20 18 22 9 24 1 26 5 28
REMARK Flexibility Score: inf
ROOT
ATOM      1  C   UNL     1     163.348 157.442 163.675  1.00  0.00     0.402 A 
ATOM      2  O   UNL     1     162.402 156.716 164.264  1.00  0.00    -0.202 OA
ATOM      3  C   UNL     1     162.191 155.432 163.994  1.00  0.00     0.368 A 
ATOM      4  C   UNL     1     161.174 154.754 164.669  1.00  0.00     0.162 A 
ATOM      5  C   UNL     1     160.932 153.401 164.406  1.00  0.00     0.128 A 
ATOM      6  C   UNL     1     161.713 152.727 163.466  1.00  0.00     0.093 A 
ATOM      7  C   UNL     1     162.740 153.384 162.777  1.00  0.00     0.136 A 
ATOM      8  C   UNL     1     162.986 154.756 163.038  1.00  0.00     0.125 A 
ATOM      9  C   UNL     1     163.985 155.499 162.386  1.00  0.00     0.078 A 
ATOM     10  C   UNL     1     164.166 156.851 162.693  1.00  0.00     0.223 A 
ENDROOT
BRANCH   1  11
ATOM     11  C   UNL     1     163.491 158.862 164.069  1.00  0.00     0.091 A 
ATOM     12  C   UNL     1     164.620 159.316 164.772  1.00  0.00     0.068 A 
ATOM     13  C   UNL     1     164.726 160.660 165.156  1.00  0.00     0.162 A 
ATOM     14  C   UNL     1     162.455 159.763 163.786  1.00  0.00     0.068 A 
ATOM     15  C   UNL     1     163.693 161.561 164.849  1.00  0.00     0.200 A 
ATOM     16  C   UNL     1     162.553 161.106 164.163  1.00  0.00     0.162 A 
BRANCH  13  17
ATOM     17  O   UNL     1     165.854 161.101 165.849  1.00  0.00    -0.504 OA
ATOM     18  H   UNL     1     166.390 160.479 166.442  1.00  0.00     0.293 HD
ENDBRANCH  13  17
BRANCH  15  19
ATOM     19  O   UNL     1     163.785 162.904 165.219  1.00  0.00    -0.502 OA
ATOM     20  H   UNL     1     164.664 163.405 165.215  1.00  0.00     0.293 HD
ENDBRANCH  15  19
BRANCH  16  21
ATOM     21  O   UNL     1     161.507 161.974 163.851  1.00  0.00    -0.504 OA
ATOM     22  H   UNL     1     161.321 162.811 164.390  1.00  0.00     0.293 HD
ENDBRANCH  16  21
ENDBRANCH   1  11
BRANCH  10  23
ATOM     23  O   UNL     1     165.124 157.601 162.010  1.00  0.00    -0.500 OA
ATOM     24  H   UNL     1     165.237 158.596 162.172  1.00  0.00     0.294 HD
ENDBRANCH  10  23
BRANCH   5  25
ATOM     25  O   UNL     1     159.918 152.719 165.075  1.00  0.00    -0.507 OA
ATOM     26  H   UNL     1     159.775 151.725 164.946  1.00  0.00     0.293 HD
ENDBRANCH   5  25
BRANCH   7  27
ATOM     27  O   UNL     1     163.478 152.636 161.855  1.00  0.00    -0.507 OA
ATOM     28  H   UNL     1     163.679 152.931 160.912  1.00  0.00     0.293 HD
ENDBRANCH   7  27
TORSDOF 7
ENDMDL
MODEL 2
REMARK VINA RESULT:    -5.946      0.185      1.792
REMARK INTER + INTRA:          -7.630
REMARK INTER:                  -7.317
REMARK INTRA:                  -0.314
REMARK UNBOUND:                -0.293
REMARK SMILES Oc1cc(O)c2cc(O)c(-c3cc(O)c(O)c(O)c3)[o+]c2c1
REMARK SMILES IDX 10 1 20 2 21 3 22 4 2 5 3 6 4 7 6 8 7 9 8 10 11 11 12 12
REMARK SMILES IDX 13 13 19 14 15 15 17 16 14 17 16 19 18 21 9 23 1 25 5 27
REMARK H PARENT 14 18 16 20 18 22 9 24 1 26 5 28
REMARK Flexibility Score: inf
ROOT
ATOM      1  C   UNL     1     163.309 157.452 163.631  1.00  0.00     0.402 A 
ATOM      2  O   UNL     1     162.356 156.722 164.205  1.00  0.00    -0.202 OA
ATOM      3  C   UNL     1     162.179 155.429 163.958  1.00  0.00     0.368 A 
ATOM      4  C   UNL     1     161.151 154.746 164.613  1.00  0.00     0.162 A 
ATOM      5  C   UNL     1     160.943 153.384 164.374  1.00  0.00     0.128 A 
ATOM      6  C   UNL     1     161.769 152.703 163.476  1.00  0.00     0.093 A 
ATOM      7  C   UNL     1     162.806 153.364 162.807  1.00  0.00     0.136 A 
ATOM      8  C   UNL     1     163.019 154.747 163.045  1.00  0.00     0.125 A 
ATOM      9  C   UNL     1     164.025 155.494 162.410  1.00  0.00     0.078 A 
ATOM     10  C   UNL     1     164.171 156.855 162.692  1.00  0.00     0.223 A 
ENDROOT
BRANCH   1  11
ATOM     11  C   UNL     1     163.412 158.883 163.998  1.00  0.00     0.091 A 
ATOM     12  C   UNL     1     162.504 159.833 163.500  1.00  0.00     0.068 A 
ATOM     13  C   UNL     1     162.630 161.186 163.841  1.00  0.00     0.162 A 
ATOM     14  C   UNL     1     164.470 159.311 164.813  1.00  0.00     0.068 A 
ATOM     15  C   UNL     1     163.680 161.604 164.677  1.00  0.00     0.200 A 
ATOM     16  C   UNL     1     164.604 160.660 165.160  1.00  0.00     0.162 A 
BRANCH  13  17
ATOM     17  O   UNL     1     161.720 162.119 163.346  1.00  0.00    -0.504 OA
ATOM     18  H   UNL     1     162.020 162.917 162.798  1.00  0.00     0.293 HD
ENDBRANCH  13  17
BRANCH  15  19
ATOM     19  O   UNL     1     163.819 162.947 165.031  1.00  0.00    -0.502 OA
ATOM     20  H   UNL     1     163.422 163.324 165.883  1.00  0.00     0.293 HD
ENDBRANCH  15  19
BRANCH  16  21
ATOM     21  O   UNL     1     165.661 161.044 165.984  1.00  0.00    -0.504 OA
ATOM     22  H   UNL     1     166.608 161.137 165.638  1.00  0.00     0.293 HD
ENDBRANCH  16  21
ENDBRANCH   1  11
BRANCH  10  23
ATOM     23  O   UNL     1     165.138 157.608 162.025  1.00  0.00    -0.500 OA
ATOM     24  H   UNL     1     165.122 158.622 162.031  1.00  0.00     0.294 HD
ENDBRANCH  10  23
BRANCH   5  25
ATOM     25  O   UNL     1     159.920 152.697 165.023  1.00  0.00    -0.507 OA
ATOM     26  H   UNL     1     159.767 152.793 166.020  1.00  0.00     0.293 HD
ENDBRANCH   5  25
BRANCH   7  27
ATOM     27  O   UNL     1     163.589 152.610 161.929  1.00  0.00    -0.507 OA
ATOM     28  H   UNL     1     163.229 151.897 161.312  1.00  0.00     0.293 HD
ENDBRANCH   7  27
TORSDOF 7
ENDMDL
MODEL 3
REMARK VINA RESULT:    -5.825      1.288      6.979
REMARK INTER + INTRA:          -7.480
REMARK INTER:                  -7.612
REMARK INTRA:                   0.132
REMARK UNBOUND:                -0.293
REMARK SMILES Oc1cc(O)c2cc(O)c(-c3cc(O)c(O)c(O)c3)[o+]c2c1
REMARK SMILES IDX 10 1 20 2 21 3 22 4 2 5 3 6 4 7 6 8 7 9 8 10 11 11 12 12
REMARK SMILES IDX 13 13 19 14 15 15 17 16 14 17 16 19 18 21 9 23 1 25 5 27
REMARK H PARENT 14 18 16 20 18 22 9 24 1 26 5 28
REMARK Flexibility Score: inf
ROOT
ATOM      1  C   UNL     1     163.358 156.194 163.551  1.00  0.00     0.402 A 
ATOM      2  O   UNL     1     162.591 157.256 163.784  1.00  0.00    -0.202 OA
ATOM      3  C   UNL     1     163.046 158.505 163.762  1.00  0.00     0.368 A 
ATOM      4  C   UNL     1     162.161 159.555 164.015  1.00  0.00     0.162 A 
ATOM      5  C   UNL     1     162.611 160.879 163.996  1.00  0.00     0.128 A 
ATOM      6  C   UNL     1     163.953 161.151 163.720  1.00  0.00     0.093 A 
ATOM      7  C   UNL     1     164.860 160.116 163.461  1.00  0.00     0.136 A 
ATOM      8  C   UNL     1     164.408 158.771 163.483  1.00  0.00     0.125 A 
ATOM      9  C   UNL     1     165.248 157.670 163.249  1.00  0.00     0.078 A 
ATOM     10  C   UNL     1     164.730 156.372 163.292  1.00  0.00     0.223 A 
ENDROOT
BRANCH   1  11
ATOM     11  C   UNL     1     162.731 154.854 163.594  1.00  0.00     0.091 A 
ATOM     12  C   UNL     1     163.180 153.809 162.769  1.00  0.00     0.068 A 
ATOM     13  C   UNL     1     162.560 152.553 162.808  1.00  0.00     0.162 A 
ATOM     14  C   UNL     1     161.630 154.635 164.434  1.00  0.00     0.068 A 
ATOM     15  C   UNL     1     161.471 152.335 163.670  1.00  0.00     0.200 A 
ATOM     16  C   UNL     1     161.005 153.384 164.482  1.00  0.00     0.162 A 
BRANCH  13  17
ATOM     17  O   UNL     1     163.018 151.522 161.989  1.00  0.00    -0.504 OA
ATOM     18  H   UNL     1     163.292 150.623 162.368  1.00  0.00     0.293 HD
ENDBRANCH  13  17
BRANCH  15  19
ATOM     19  O   UNL     1     160.844 151.090 163.725  1.00  0.00    -0.502 OA
ATOM     20  H   UNL     1     159.866 150.989 163.965  1.00  0.00     0.293 HD
ENDBRANCH  15  19
BRANCH  16  21
ATOM     21  O   UNL     1     159.921 153.203 165.341  1.00  0.00    -0.504 OA
ATOM     22  H   UNL     1     159.910 152.479 166.049  1.00  0.00     0.293 HD
ENDBRANCH  16  21
ENDBRANCH   1  11
BRANCH  10  23
ATOM     23  O   UNL     1     165.574 155.276 163.109  1.00  0.00    -0.500 OA
ATOM     24  H   UNL     1     165.944 155.035 162.197  1.00  0.00     0.294 HD
ENDBRANCH  10  23
BRANCH   5  25
ATOM     25  O   UNL     1     161.734 161.931 164.248  1.00  0.00    -0.507 OA
ATOM     26  H   UNL     1     162.020 162.897 164.138  1.00  0.00     0.293 HD
ENDBRANCH   5  25
BRANCH   7  27
ATOM     27  O   UNL     1     166.184 160.473 163.190  1.00  0.00    -0.507 OA
ATOM     28  H   UNL     1     166.492 161.412 162.987  1.00  0.00     0.293 HD
ENDBRANCH   7  27
TORSDOF 7
ENDMDL
MODEL 4
REMARK VINA RESULT:    -5.770      2.968      6.971
REMARK INTER + INTRA:          -7.413
REMARK INTER:                  -7.274
REMARK INTRA:                  -0.139
REMARK UNBOUND:                -0.293
REMARK SMILES Oc1cc(O)c2cc(O)c(-c3cc(O)c(O)c(O)c3)[o+]c2c1
REMARK SMILES IDX 10 1 20 2 21 3 22 4 2 5 3 6 4 7 6 8 7 9 8 10 11 11 12 12
REMARK SMILES IDX 13 13 19 14 15 15 17 16 14 17 16 19 18 21 9 23 1 25 5 27
REMARK H PARENT 14 18 16 20 18 22 9 24 1 26 5 28
REMARK Flexibility Score: inf
ROOT
ATOM      1  C   UNL     1     164.460 155.217 162.488  1.00  0.00     0.402 A 
ATOM      2  O   UNL     1     164.920 156.292 163.122  1.00  0.00    -0.202 OA
ATOM      3  C   UNL     1     165.878 157.074 162.635  1.00  0.00     0.368 A 
ATOM      4  C   UNL     1     166.292 158.183 163.375  1.00  0.00     0.162 A 
ATOM      5  C   UNL     1     167.296 159.025 162.885  1.00  0.00     0.128 A 
ATOM      6  C   UNL     1     167.886 158.754 161.648  1.00  0.00     0.093 A 
ATOM      7  C   UNL     1     167.488 157.648 160.886  1.00  0.00     0.136 A 
ATOM      8  C   UNL     1     166.472 156.791 161.381  1.00  0.00     0.125 A 
ATOM      9  C   UNL     1     166.018 155.653 160.693  1.00  0.00     0.078 A 
ATOM     10  C   UNL     1     165.015 154.852 161.247  1.00  0.00     0.223 A 
ENDROOT
BRANCH   1  11
ATOM     11  C   UNL     1     163.381 154.432 163.130  1.00  0.00     0.091 A 
ATOM     12  C   UNL     1     163.542 153.065 163.415  1.00  0.00     0.068 A 
ATOM     13  C   UNL     1     162.502 152.334 164.004  1.00  0.00     0.162 A 
ATOM     14  C   UNL     1     162.154 155.048 163.411  1.00  0.00     0.068 A 
ATOM     15  C   UNL     1     161.282 152.965 164.303  1.00  0.00     0.200 A 
ATOM     16  C   UNL     1     161.110 154.327 164.001  1.00  0.00     0.162 A 
BRANCH  13  17
ATOM     17  O   UNL     1     162.674 150.979 164.288  1.00  0.00    -0.504 OA
ATOM     18  H   UNL     1     162.170 150.525 165.040  1.00  0.00     0.293 HD
ENDBRANCH  13  17
BRANCH  15  19
ATOM     19  O   UNL     1     160.237 152.253 164.894  1.00  0.00    -0.502 OA
ATOM     20  H   UNL     1     159.267 152.508 164.760  1.00  0.00     0.293 HD
ENDBRANCH  15  19
BRANCH  16  21
ATOM     21  O   UNL     1     159.909 154.980 164.277  1.00  0.00    -0.504 OA
ATOM     22  H   UNL     1     159.019 154.635 163.940  1.00  0.00     0.293 HD
ENDBRANCH  16  21
ENDBRANCH   1  11
BRANCH  10  23
ATOM     23  O   UNL     1     164.600 153.695 160.587  1.00  0.00    -0.500 OA
ATOM     24  H   UNL     1     165.254 153.101 160.090  1.00  0.00     0.294 HD
ENDBRANCH  10  23
BRANCH   5  25
ATOM     25  O   UNL     1     167.715 160.132 163.618  1.00  0.00    -0.507 OA
ATOM     26  H   UNL     1     167.821 160.092 164.625  1.00  0.00     0.293 HD
ENDBRANCH   5  25
BRANCH   7  27
ATOM     27  O   UNL     1     168.125 157.450 159.658  1.00  0.00    -0.507 OA
ATOM     28  H   UNL     1     168.056 158.079 158.872  1.00  0.00     0.293 HD
ENDBRANCH   7  27
TORSDOF 7
ENDMDL
MODEL 5
REMARK VINA RESULT:    -5.759      2.835      7.516
REMARK INTER + INTRA:          -7.399
REMARK INTER:                  -7.047
REMARK INTRA:                  -0.352
REMARK UNBOUND:                -0.293
REMARK SMILES Oc1cc(O)c2cc(O)c(-c3cc(O)c(O)c(O)c3)[o+]c2c1
REMARK SMILES IDX 10 1 20 2 21 3 22 4 2 5 3 6 4 7 6 8 7 9 8 10 11 11 12 12
REMARK SMILES IDX 13 13 19 14 15 15 17 16 14 17 16 19 18 21 9 23 1 25 5 27
REMARK H PARENT 14 18 16 20 18 22 9 24 1 26 5 28
REMARK Flexibility Score: inf
ROOT
ATOM      1  C   UNL     1     164.270 154.385 162.201  1.00  0.00     0.402 A 
ATOM      2  O   UNL     1     164.379 155.588 162.759  1.00  0.00    -0.202 OA
ATOM      3  C   UNL     1     165.241 156.510 162.344  1.00  0.00     0.368 A 
ATOM      4  C   UNL     1     165.278 157.747 162.993  1.00  0.00     0.162 A 
ATOM      5  C   UNL     1     166.174 158.737 162.576  1.00  0.00     0.128 A 
ATOM      6  C   UNL     1     167.034 158.487 161.504  1.00  0.00     0.093 A 
ATOM      7  C   UNL     1     167.016 157.256 160.837  1.00  0.00     0.136 A 
ATOM      8  C   UNL     1     166.111 156.248 161.259  1.00  0.00     0.125 A 
ATOM      9  C   UNL     1     166.032 154.981 160.658  1.00  0.00     0.078 A 
ATOM     10  C   UNL     1     165.117 154.036 161.132  1.00  0.00     0.223 A 
ENDROOT
BRANCH   1  11
ATOM     11  C   UNL     1     163.263 153.447 162.747  1.00  0.00     0.091 A 
ATOM     12  C   UNL     1     161.904 153.552 162.403  1.00  0.00     0.068 A 
ATOM     13  C   UNL     1     160.962 152.669 162.947  1.00  0.00     0.162 A 
ATOM     14  C   UNL     1     163.660 152.469 163.669  1.00  0.00     0.068 A 
ATOM     15  C   UNL     1     161.372 151.677 163.854  1.00  0.00     0.200 A 
ATOM     16  C   UNL     1     162.727 151.582 164.217  1.00  0.00     0.162 A 
BRANCH  13  17
ATOM     17  O   UNL     1     159.617 152.778 162.594  1.00  0.00    -0.504 OA
ATOM     18  H   UNL     1     158.932 152.094 162.893  1.00  0.00     0.293 HD
ENDBRANCH  13  17
BRANCH  15  19
ATOM     19  O   UNL     1     160.448 150.786 164.402  1.00  0.00    -0.502 OA
ATOM     20  H   UNL     1     159.571 151.096 164.800  1.00  0.00     0.293 HD
ENDBRANCH  15  19
BRANCH  16  21
ATOM     21  O   UNL     1     163.165 150.615 165.121  1.00  0.00    -0.504 OA
ATOM     22  H   UNL     1     164.148 150.454 165.304  1.00  0.00     0.293 HD
ENDBRANCH  16  21
ENDBRANCH   1  11
BRANCH  10  23
ATOM     23  O   UNL     1     165.073 152.760 160.568  1.00  0.00    -0.500 OA
ATOM     24  H   UNL     1     164.319 152.114 160.771  1.00  0.00     0.294 HD
ENDBRANCH  10  23
BRANCH   5  25
ATOM     25  O   UNL     1     166.217 159.972 163.218  1.00  0.00    -0.507 OA
ATOM     26  H   UNL     1     166.858 160.699 162.926  1.00  0.00     0.293 HD
ENDBRANCH   5  25
BRANCH   7  27
ATOM     27  O   UNL     1     167.906 157.088 159.772  1.00  0.00    -0.507 OA
ATOM     28  H   UNL     1     167.662 157.206 158.800  1.00  0.00     0.293 HD
ENDBRANCH   7  27
TORSDOF 7
ENDMDL
MODEL 6
REMARK VINA RESULT:    -5.721      1.273      7.070
REMARK INTER + INTRA:          -7.353
REMARK INTER:                  -7.566
REMARK INTRA:                   0.214
REMARK UNBOUND:                -0.293
REMARK SMILES Oc1cc(O)c2cc(O)c(-c3cc(O)c(O)c(O)c3)[o+]c2c1
REMARK SMILES IDX 10 1 20 2 21 3 22 4 2 5 3 6 4 7 6 8 7 9 8 10 11 11 12 12
REMARK SMILES IDX 13 13 19 14 15 15 17 16 14 17 16 19 18 21 9 23 1 25 5 27
REMARK H PARENT 14 18 16 20 18 22 9 24 1 26 5 28
REMARK Flexibility Score: inf
ROOT
ATOM      1  C   UNL     1     163.271 156.248 163.561  1.00  0.00     0.402 A 
ATOM      2  O   UNL     1     162.514 157.322 163.772  1.00  0.00    -0.202 OA
ATOM      3  C   UNL     1     162.987 158.563 163.758  1.00  0.00     0.368 A 
ATOM      4  C   UNL     1     162.111 159.627 163.988  1.00  0.00     0.162 A 
ATOM      5  C   UNL     1     162.581 160.944 163.977  1.00  0.00     0.128 A 
ATOM      6  C   UNL     1     163.933 161.196 163.733  1.00  0.00     0.093 A 
ATOM      7  C   UNL     1     164.831 160.148 163.499  1.00  0.00     0.136 A 
ATOM      8  C   UNL     1     164.359 158.810 163.513  1.00  0.00     0.125 A 
ATOM      9  C   UNL     1     165.189 157.696 163.301  1.00  0.00     0.078 A 
ATOM     10  C   UNL     1     164.651 156.406 163.334  1.00  0.00     0.223 A 
ENDROOT
BRANCH   1  11
ATOM     11  C   UNL     1     162.624 154.917 163.591  1.00  0.00     0.091 A 
ATOM     12  C   UNL     1     161.537 154.651 164.441  1.00  0.00     0.068 A 
ATOM     13  C   UNL     1     160.952 153.378 164.472  1.00  0.00     0.162 A 
ATOM     14  C   UNL     1     163.140 153.882 162.797  1.00  0.00     0.068 A 
ATOM     15  C   UNL     1     161.460 152.352 163.657  1.00  0.00     0.200 A 
ATOM     16  C   UNL     1     162.561 152.608 162.820  1.00  0.00     0.162 A 
BRANCH  13  17
ATOM     17  O   UNL     1     159.870 153.127 165.315  1.00  0.00    -0.504 OA
ATOM     18  H   UNL     1     159.642 152.189 165.623  1.00  0.00     0.293 HD
ENDBRANCH  13  17
BRANCH  15  19
ATOM     19  O   UNL     1     160.887 151.080 163.670  1.00  0.00    -0.502 OA
ATOM     20  H   UNL     1     161.440 150.241 163.792  1.00  0.00     0.293 HD
ENDBRANCH  15  19
BRANCH  16  21
ATOM     21  O   UNL     1     163.094 151.610 162.006  1.00  0.00    -0.504 OA
ATOM     22  H   UNL     1     163.962 151.139 162.228  1.00  0.00     0.293 HD
ENDBRANCH  16  21
ENDBRANCH   1  11
BRANCH  10  23
ATOM     23  O   UNL     1     165.484 155.297 163.174  1.00  0.00    -0.500 OA
ATOM     24  H   UNL     1     165.226 154.520 162.578  1.00  0.00     0.294 HD
ENDBRANCH  10  23
BRANCH   5  25
ATOM     25  O   UNL     1     161.713 162.010 164.206  1.00  0.00    -0.507 OA
ATOM     26  H   UNL     1     160.711 161.907 164.107  1.00  0.00     0.293 HD
ENDBRANCH   5  25
BRANCH   7  27
ATOM     27  O   UNL     1     166.166 160.486 163.259  1.00  0.00    -0.507 OA
ATOM     28  H   UNL     1     166.840 159.874 162.824  1.00  0.00     0.293 HD
ENDBRANCH   7  27
TORSDOF 7
ENDMDL
MODEL 7
REMARK VINA RESULT:    -5.607      2.163      7.370
REMARK INTER + INTRA:          -7.212
REMARK INTER:                  -6.869
REMARK INTRA:                  -0.343
REMARK UNBOUND:                -0.293
REMARK SMILES Oc1cc(O)c2cc(O)c(-c3cc(O)c(O)c(O)c3)[o+]c2c1
REMARK SMILES IDX 10 1 20 2 21 3 22 4 2 5 3 6 4 7 6 8 7 9 8 10 11 11 12 12
REMARK SMILES IDX 13 13 19 14 15 15 17 16 14 17 16 19 18 21 9 23 1 25 5 27
REMARK H PARENT 14 18 16 20 18 22 9 24 1 26 5 28
REMARK Flexibility Score: inf
ROOT
ATOM      1  C   UNL     1     163.067 158.461 163.872  1.00  0.00     0.402 A 
ATOM      2  O   UNL     1     163.853 159.338 163.254  1.00  0.00    -0.202 OA
ATOM      3  C   UNL     1     163.737 160.654 163.400  1.00  0.00     0.368 A 
ATOM      4  C   UNL     1     164.614 161.494 162.711  1.00  0.00     0.162 A 
ATOM      5  C   UNL     1     164.515 162.883 162.848  1.00  0.00     0.128 A 
ATOM      6  C   UNL     1     163.536 163.430 163.680  1.00  0.00     0.093 A 
ATOM      7  C   UNL     1     162.646 162.609 164.383  1.00  0.00     0.136 A 
ATOM      8  C   UNL     1     162.740 161.200 164.244  1.00  0.00     0.125 A 
ATOM      9  C   UNL     1     161.883 160.301 164.899  1.00  0.00     0.078 A 
ATOM     10  C   UNL     1     162.034 158.924 164.709  1.00  0.00     0.223 A 
ENDROOT
BRANCH   1  11
ATOM     11  C   UNL     1     163.303 157.018 163.636  1.00  0.00     0.091 A 
ATOM     12  C   UNL     1     163.925 156.211 164.604  1.00  0.00     0.068 A 
ATOM     13  C   UNL     1     164.160 154.852 164.353  1.00  0.00     0.162 A 
ATOM     14  C   UNL     1     162.952 156.456 162.401  1.00  0.00     0.068 A 
ATOM     15  C   UNL     1     163.784 154.291 163.120  1.00  0.00     0.200 A 
ATOM     16  C   UNL     1     163.181 155.100 162.141  1.00  0.00     0.162 A 
BRANCH  13  17
ATOM     17  O   UNL     1     164.772 154.059 165.323  1.00  0.00    -0.504 OA
ATOM     18  H   UNL     1     164.236 153.603 166.052  1.00  0.00     0.293 HD
ENDBRANCH  13  17
BRANCH  15  19
ATOM     19  O   UNL     1     164.006 152.939 162.856  1.00  0.00    -0.502 OA
ATOM     20  H   UNL     1     164.539 152.627 162.053  1.00  0.00     0.293 HD
ENDBRANCH  15  19
BRANCH  16  21
ATOM     21  O   UNL     1     162.805 154.576 160.906  1.00  0.00    -0.504 OA
ATOM     22  H   UNL     1     162.225 155.091 160.255  1.00  0.00     0.293 HD
ENDBRANCH  16  21
ENDBRANCH   1  11
BRANCH  10  23
ATOM     23  O   UNL     1     161.151 158.032 165.320  1.00  0.00    -0.500 OA
ATOM     24  H   UNL     1     160.207 157.899 164.977  1.00  0.00     0.294 HD
ENDBRANCH  10  23
BRANCH   5  25
ATOM     25  O   UNL     1     165.386 163.727 162.162  1.00  0.00    -0.507 OA
ATOM     26  H   UNL     1     165.554 164.677 162.470  1.00  0.00     0.293 HD
ENDBRANCH   5  25
BRANCH   7  27
ATOM     27  O   UNL     1     161.699 163.236 165.197  1.00  0.00    -0.507 OA
ATOM     28  H   UNL     1     160.782 163.524 164.889  1.00  0.00     0.293 HD
ENDBRANCH   7  27
TORSDOF 7
ENDMDL
MODEL 8
REMARK VINA RESULT:    -5.426      1.686      7.371
REMARK INTER + INTRA:          -6.988
REMARK INTER:                  -7.354
REMARK INTRA:                   0.366
REMARK UNBOUND:                -0.293
REMARK SMILES Oc1cc(O)c2cc(O)c(-c3cc(O)c(O)c(O)c3)[o+]c2c1
REMARK SMILES IDX 10 1 20 2 21 3 22 4 2 5 3 6 4 7 6 8 7 9 8 10 11 11 12 12
REMARK SMILES IDX 13 13 19 14 15 15 17 16 14 17 16 19 18 21 9 23 1 25 5 27
REMARK H PARENT 14 18 16 20 18 22 9 24 1 26 5 28
REMARK Flexibility Score: inf
ROOT
ATOM      1  C   UNL     1     163.248 156.267 163.565  1.00  0.00     0.402 A 
ATOM      2  O   UNL     1     164.358 156.421 162.847  1.00  0.00    -0.202 OA
ATOM      3  C   UNL     1     165.017 157.571 162.759  1.00  0.00     0.368 A 
ATOM      4  C   UNL     1     166.176 157.633 161.982  1.00  0.00     0.162 A 
ATOM      5  C   UNL     1     166.890 158.831 161.873  1.00  0.00     0.128 A 
ATOM      6  C   UNL     1     166.442 159.969 162.546  1.00  0.00     0.093 A 
ATOM      7  C   UNL     1     165.283 159.934 163.331  1.00  0.00     0.136 A 
ATOM      8  C   UNL     1     164.554 158.722 163.442  1.00  0.00     0.125 A 
ATOM      9  C   UNL     1     163.375 158.596 164.196  1.00  0.00     0.078 A 
ATOM     10  C   UNL     1     162.709 157.368 164.254  1.00  0.00     0.223 A 
ENDROOT
BRANCH   1  11
ATOM     11  C   UNL     1     162.612 154.930 163.593  1.00  0.00     0.091 A 
ATOM     12  C   UNL     1     161.522 154.656 164.437  1.00  0.00     0.068 A 
ATOM     13  C   UNL     1     160.947 153.378 164.466  1.00  0.00     0.162 A 
ATOM     14  C   UNL     1     163.139 153.899 162.803  1.00  0.00     0.068 A 
ATOM     15  C   UNL     1     161.468 152.356 163.655  1.00  0.00     0.200 A 
ATOM     16  C   UNL     1     162.571 152.621 162.824  1.00  0.00     0.162 A 
BRANCH  13  17
ATOM     17  O   UNL     1     159.863 153.119 165.304  1.00  0.00    -0.504 OA
ATOM     18  H   UNL     1     158.908 153.259 164.996  1.00  0.00     0.293 HD
ENDBRANCH  13  17
BRANCH  15  19
ATOM     19  O   UNL     1     160.905 151.080 163.666  1.00  0.00    -0.502 OA
ATOM     20  H   UNL     1     161.262 150.338 164.256  1.00  0.00     0.293 HD
ENDBRANCH  15  19
BRANCH  16  21
ATOM     21  O   UNL     1     163.116 151.626 162.013  1.00  0.00    -0.504 OA
ATOM     22  H   UNL     1     162.540 150.952 161.525  1.00  0.00     0.293 HD
ENDBRANCH  16  21
ENDBRANCH   1  11
BRANCH  10  23
ATOM     23  O   UNL     1     161.511 157.256 164.962  1.00  0.00    -0.500 OA
ATOM     24  H   UNL     1     161.419 157.597 165.911  1.00  0.00     0.294 HD
ENDBRANCH  10  23
BRANCH   5  25
ATOM     25  O   UNL     1     168.047 158.899 161.100  1.00  0.00    -0.507 OA
ATOM     26  H   UNL     1     168.625 158.084 160.938  1.00  0.00     0.293 HD
ENDBRANCH   5  25
BRANCH   7  27
ATOM     27  O   UNL     1     164.905 161.116 163.975  1.00  0.00    -0.507 OA
ATOM     28  H   UNL     1     165.507 161.654 164.579  1.00  0.00     0.293 HD
ENDBRANCH   7  27
TORSDOF 7
ENDMDL
MODEL 9
REMARK VINA RESULT:    -5.371      1.284      3.284
REMARK INTER + INTRA:          -6.921
REMARK INTER:                  -6.766
REMARK INTRA:                  -0.154
REMARK UNBOUND:                -0.293
REMARK SMILES Oc1cc(O)c2cc(O)c(-c3cc(O)c(O)c(O)c3)[o+]c2c1
REMARK SMILES IDX 10 1 20 2 21 3 22 4 2 5 3 6 4 7 6 8 7 9 8 10 11 11 12 12
REMARK SMILES IDX 13 13 19 14 15 15 17 16 14 17 16 19 18 21 9 23 1 25 5 27
REMARK H PARENT 14 18 16 20 18 22 9 24 1 26 5 28
REMARK Flexibility Score: inf
ROOT
ATOM      1  C   UNL     1     163.403 157.148 163.719  1.00  0.00     0.402 A 
ATOM      2  O   UNL     1     164.141 156.540 162.793  1.00  0.00    -0.202 OA
ATOM      3  C   UNL     1     164.067 155.237 162.540  1.00  0.00     0.368 A 
ATOM      4  C   UNL     1     164.881 154.691 161.545  1.00  0.00     0.162 A 
ATOM      5  C   UNL     1     164.822 153.324 161.256  1.00  0.00     0.128 A 
ATOM      6  C   UNL     1     163.944 152.502 161.966  1.00  0.00     0.093 A 
ATOM      7  C   UNL     1     163.117 153.025 162.968  1.00  0.00     0.136 A 
ATOM      8  C   UNL     1     163.176 154.411 163.266  1.00  0.00     0.125 A 
ATOM      9  C   UNL     1     162.394 155.020 164.262  1.00  0.00     0.078 A 
ATOM     10  C   UNL     1     162.511 156.392 164.502  1.00  0.00     0.223 A 
ENDROOT
BRANCH   1  11
ATOM     11  C   UNL     1     163.569 158.608 163.899  1.00  0.00     0.091 A 
ATOM     12  C   UNL     1     162.472 159.484 163.826  1.00  0.00     0.068 A 
ATOM     13  C   UNL     1     162.652 160.865 163.978  1.00  0.00     0.162 A 
ATOM     14  C   UNL     1     164.853 159.137 164.091  1.00  0.00     0.068 A 
ATOM     15  C   UNL     1     163.939 161.385 164.192  1.00  0.00     0.200 A 
ATOM     16  C   UNL     1     165.043 160.515 164.245  1.00  0.00     0.162 A 
BRANCH  13  17
ATOM     17  O   UNL     1     161.555 161.724 163.909  1.00  0.00    -0.504 OA
ATOM     18  H   UNL     1     160.701 161.538 164.422  1.00  0.00     0.293 HD
ENDBRANCH  13  17
BRANCH  15  19
ATOM     19  O   UNL     1     164.137 162.758 164.350  1.00  0.00    -0.502 OA
ATOM     20  H   UNL     1     163.422 163.365 164.732  1.00  0.00     0.293 HD
ENDBRANCH  15  19
BRANCH  16  21
ATOM     21  O   UNL     1     166.334 161.000 164.448  1.00  0.00    -0.504 OA
ATOM     22  H   UNL     1     167.124 160.673 163.907  1.00  0.00     0.293 HD
ENDBRANCH  16  21
ENDBRANCH   1  11
BRANCH  10  23
ATOM     23  O   UNL     1     161.771 156.989 165.525  1.00  0.00    -0.500 OA
ATOM     24  H   UNL     1     161.297 156.437 166.230  1.00  0.00     0.294 HD
ENDBRANCH  10  23
BRANCH   5  25
ATOM     25  O   UNL     1     165.631 152.772 160.265  1.00  0.00    -0.507 OA
ATOM     26  H   UNL     1     165.853 151.784 160.251  1.00  0.00     0.293 HD
ENDBRANCH   5  25
BRANCH   7  27
ATOM     27  O   UNL     1     162.265 152.136 163.628  1.00  0.00    -0.507 OA
ATOM     28  H   UNL     1     162.510 151.190 163.879  1.00  0.00     0.293 HD
ENDBRANCH   7  27
TORSDOF 7
ENDMDL
