MODEL 1
REMARK VINA RESULT:    -5.239      0.000      0.000
REMARK INTER + INTRA:          -8.893
REMARK INTER:                  -8.302
REMARK INTRA:                  -0.591
REMARK UNBOUND:                -0.591
REMARK SMILES CCCCCCCCCCCC(=O)[O-]
REMARK SMILES IDX 7 1 8 2 9 3 10 4 11 5 12 6 13 7 14 8 6 9 5 10 4 11 3 12 2 13
REMARK SMILES IDX 1 14
REMARK H PARENT
REMARK Flexibility Score: inf
ROOT
ATOM      1  C   UNL     1      34.916  42.707  47.779  1.00  0.00     0.000 C 
ENDROOT
BRANCH   1   2
ATOM      2  C   UNL     1      36.050  42.917  46.757  1.00  0.00     0.000 C 
BRANCH   2   3
ATOM      3  C   UNL     1      35.932  44.194  45.906  1.00  0.00     0.000 C 
BRANCH   3   4
ATOM      4  C   UNL     1      34.475  44.556  45.573  1.00  0.00     0.006 C 
BRANCH   4   5
ATOM      5  C   UNL     1      34.253  44.739  44.066  1.00  0.00     0.053 C 
BRANCH   5   6
ATOM      6  C   UNL     1      32.796  44.773  43.718  1.00  0.00     0.041 C 
ATOM      7  O   UNL     1      32.341  45.684  42.978  1.00  0.00    -0.550 OA
ATOM      8  O   UNL     1      31.936  43.813  44.236  1.00  0.00    -0.550 OA
ENDBRANCH   5   6
ENDBRANCH   4   5
ENDBRANCH   3   4
ENDBRANCH   2   3
ENDBRANCH   1   2
BRANCH   1   9
ATOM      9  C   UNL     1      35.086  43.464  49.112  1.00  0.00     0.000 C 
BRANCH   9  10
ATOM     10  C   UNL     1      35.691  42.637  50.262  1.00  0.00    -0.000 C 
BRANCH  10  11
ATOM     11  C   UNL     1      37.122  43.072  50.622  1.00  0.00    -0.000 C 
BRANCH  11  12
ATOM     12  C   UNL     1      38.171  42.517  49.645  1.00  0.00    -0.000 C 
BRANCH  12  13
ATOM     13  C   UNL     1      38.855  41.245  50.171  1.00  0.00    -0.003 C 
ATOM     14  C   UNL     1      39.631  41.532  51.453  1.00  0.00     0.004 C 
ENDBRANCH  12  13
ENDBRANCH  11  12
ENDBRANCH  10  11
ENDBRANCH   9  10
ENDBRANCH   1   9
TORSDOF 10
ENDMDL
MODEL 2
REMARK VINA RESULT:    -5.237      2.218      3.246
REMARK INTER + INTRA:          -8.890
REMARK INTER:                  -8.175
REMARK INTRA:                  -0.715
REMARK UNBOUND:                -0.591
REMARK SMILES CCCCCCCCCCCC(=O)[O-]
REMARK SMILES IDX 7 1 8 2 9 3 10 4 11 5 12 6 13 7 14 8 6 9 5 10 4 11 3 12 2 13
REMARK SMILES IDX 1 14
REMARK H PARENT
REMARK Flexibility Score: inf
ROOT
ATOM      1  C   UNL     1      35.177  44.533  45.957  1.00  0.00     0.000 C 
ENDROOT
BRANCH   1   2
ATOM      2  C   UNL     1      34.658  44.749  44.522  1.00  0.00     0.000 C 
BRANCH   2   3
ATOM      3  C   UNL     1      33.153  44.488  44.328  1.00  0.00     0.000 C 
BRANCH   3   4
ATOM      4  C   UNL     1      32.401  44.318  45.658  1.00  0.00     0.006 C 
BRANCH   4   5
ATOM      5  C   UNL     1      31.824  42.905  45.821  1.00  0.00     0.053 C 
BRANCH   5   6
ATOM      6  C   UNL     1      32.339  42.234  47.058  1.00  0.00     0.041 C 
ATOM      7  O   UNL     1      32.779  41.055  47.004  1.00  0.00    -0.550 OA
ATOM      8  O   UNL     1      32.306  42.901  48.275  1.00  0.00    -0.550 OA
ENDBRANCH   5   6
ENDBRANCH   4   5
ENDBRANCH   3   4
ENDBRANCH   2   3
ENDBRANCH   1   2
BRANCH   1   9
ATOM      9  C   UNL     1      36.175  43.369  46.126  1.00  0.00     0.000 C 
BRANCH   9  10
ATOM     10  C   UNL     1      36.040  42.577  47.439  1.00  0.00    -0.000 C 
BRANCH  10  11
ATOM     11  C   UNL     1      37.393  42.340  48.134  1.00  0.00    -0.000 C 
BRANCH  11  12
ATOM     12  C   UNL     1      37.345  42.652  49.639  1.00  0.00    -0.000 C 
BRANCH  12  13
ATOM     13  C   UNL     1      38.384  41.855  50.442  1.00  0.00    -0.003 C 
ATOM     14  C   UNL     1      39.181  40.923  49.533  1.00  0.00     0.004 C 
ENDBRANCH  12  13
ENDBRANCH  11  12
ENDBRANCH  10  11
ENDBRANCH   9  10
ENDBRANCH   1   9
TORSDOF 10
ENDMDL
MODEL 3
REMARK VINA RESULT:    -5.192      1.516      2.289
REMARK INTER + INTRA:          -8.819
REMARK INTER:                  -8.270
REMARK INTRA:                  -0.549
REMARK UNBOUND:                -0.591
REMARK SMILES CCCCCCCCCCCC(=O)[O-]
REMARK SMILES IDX 7 1 8 2 9 3 10 4 11 5 12 6 13 7 14 8 6 9 5 10 4 11 3 12 2 13
REMARK SMILES IDX 1 14
REMARK H PARENT
REMARK Flexibility Score: inf
ROOT
ATOM      1  C   UNL     1      34.959  44.158  47.239  1.00  0.00     0.000 C 
ENDROOT
BRANCH   1   2
ATOM      2  C   UNL     1      33.713  44.607  48.028  1.00  0.00     0.000 C 
BRANCH   2   3
ATOM      3  C   UNL     1      32.373  44.410  47.296  1.00  0.00     0.000 C 
BRANCH   3   4
ATOM      4  C   UNL     1      32.527  43.663  45.960  1.00  0.00     0.006 C 
BRANCH   4   5
ATOM      5  C   UNL     1      31.824  44.390  44.806  1.00  0.00     0.053 C 
BRANCH   5   6
ATOM      6  C   UNL     1      32.795  44.839  43.757  1.00  0.00     0.041 C 
ATOM      7  O   UNL     1      34.035  44.761  43.966  1.00  0.00    -0.550 OA
ATOM      8  O   UNL     1      32.331  45.370  42.562  1.00  0.00    -0.550 OA
ENDBRANCH   5   6
ENDBRANCH   4   5
ENDBRANCH   3   4
ENDBRANCH   2   3
ENDBRANCH   1   2
BRANCH   1   9
ATOM      9  C   UNL     1      35.510  42.769  47.620  1.00  0.00     0.000 C 
BRANCH   9  10
ATOM     10  C   UNL     1      36.942  42.478  47.134  1.00  0.00    -0.000 C 
BRANCH  10  11
ATOM     11  C   UNL     1      37.910  42.162  48.288  1.00  0.00    -0.000 C 
BRANCH  11  12
ATOM     12  C   UNL     1      37.370  42.619  49.653  1.00  0.00    -0.000 C 
BRANCH  12  13
ATOM     13  C   UNL     1      38.472  42.732  50.717  1.00  0.00    -0.003 C 
ATOM     14  C   UNL     1      39.263  41.431  50.828  1.00  0.00     0.004 C 
ENDBRANCH  12  13
ENDBRANCH  11  12
ENDBRANCH  10  11
ENDBRANCH   9  10
ENDBRANCH   1   9
TORSDOF 10
ENDMDL
MODEL 4
REMARK VINA RESULT:    -5.166      4.087      6.520
REMARK INTER + INTRA:          -8.777
REMARK INTER:                  -7.497
REMARK INTRA:                  -1.281
REMARK UNBOUND:                -0.591
REMARK SMILES CCCCCCCCCCCC(=O)[O-]
REMARK SMILES IDX 7 1 8 2 9 3 10 4 11 5 12 6 13 7 14 8 6 9 5 10 4 11 3 12 2 13
REMARK SMILES IDX 1 14
REMARK H PARENT
REMARK Flexibility Score: inf
ROOT
ATOM      1  C   UNL     1      33.838  42.631  50.093  1.00  0.00     0.000 C 
ENDROOT
BRANCH   1   2
ATOM      2  C   UNL     1      34.458  43.918  50.671  1.00  0.00     0.000 C 
BRANCH   2   3
ATOM      3  C   UNL     1      35.974  44.066  50.449  1.00  0.00     0.000 C 
BRANCH   3   4
ATOM      4  C   UNL     1      36.759  42.795  50.815  1.00  0.00     0.006 C 
BRANCH   4   5
ATOM      5  C   UNL     1      38.276  43.007  50.733  1.00  0.00     0.053 C 
BRANCH   5   6
ATOM      6  C   UNL     1      39.012  41.709  50.597  1.00  0.00     0.041 C 
ATOM      7  O   UNL     1      38.934  41.045  49.530  1.00  0.00    -0.550 OA
ATOM      8  O   UNL     1      39.760  41.220  51.659  1.00  0.00    -0.550 OA
ENDBRANCH   5   6
ENDBRANCH   4   5
ENDBRANCH   3   4
ENDBRANCH   2   3
ENDBRANCH   1   2
BRANCH   1   9
ATOM      9  C   UNL     1      32.920  42.837  48.871  1.00  0.00     0.000 C 
BRANCH   9  10
ATOM     10  C   UNL     1      33.061  44.200  48.169  1.00  0.00    -0.000 C 
BRANCH  10  11
ATOM     11  C   UNL     1      33.743  44.095  46.794  1.00  0.00    -0.000 C 
BRANCH  11  12
ATOM     12  C   UNL     1      35.220  44.518  46.834  1.00  0.00    -0.000 C 
BRANCH  12  13
ATOM     13  C   UNL     1      36.148  43.489  46.169  1.00  0.00    -0.003 C 
ATOM     14  C   UNL     1      36.600  42.431  47.172  1.00  0.00     0.004 C 
ENDBRANCH  12  13
ENDBRANCH  11  12
ENDBRANCH  10  11
ENDBRANCH   9  10
ENDBRANCH   1   9
TORSDOF 10
ENDMDL
MODEL 5
REMARK VINA RESULT:    -5.087      3.614      6.845
REMARK INTER + INTRA:          -8.651
REMARK INTER:                  -7.641
REMARK INTRA:                  -1.011
REMARK UNBOUND:                -0.591
REMARK SMILES CCCCCCCCCCCC(=O)[O-]
REMARK SMILES IDX 7 1 8 2 9 3 10 4 11 5 12 6 13 7 14 8 6 9 5 10 4 11 3 12 2 13
REMARK SMILES IDX 1 14
REMARK H PARENT
REMARK Flexibility Score: inf
ROOT
ATOM      1  C   UNL     1      34.356  44.441  48.126  1.00  0.00     0.000 C 
ENDROOT
BRANCH   1   2
ATOM      2  C   UNL     1      35.406  44.565  47.005  1.00  0.00     0.000 C 
BRANCH   2   3
ATOM      3  C   UNL     1      35.837  43.233  46.366  1.00  0.00     0.000 C 
BRANCH   3   4
ATOM      4  C   UNL     1      36.377  42.225  47.394  1.00  0.00     0.006 C 
BRANCH   4   5
ATOM      5  C   UNL     1      37.762  42.621  47.922  1.00  0.00     0.053 C 
BRANCH   5   6
ATOM      6  C   UNL     1      37.930  42.260  49.366  1.00  0.00     0.041 C 
ATOM      7  O   UNL     1      38.688  41.310  49.699  1.00  0.00    -0.550 OA
ATOM      8  O   UNL     1      37.227  42.953  50.342  1.00  0.00    -0.550 OA
ENDBRANCH   5   6
ENDBRANCH   4   5
ENDBRANCH   3   4
ENDBRANCH   2   3
ENDBRANCH   1   2
BRANCH   1   9
ATOM      9  C   UNL     1      32.888  44.448  47.654  1.00  0.00     0.000 C 
BRANCH   9  10
ATOM     10  C   UNL     1      32.331  43.078  47.228  1.00  0.00    -0.000 C 
BRANCH  10  11
ATOM     11  C   UNL     1      31.799  43.073  45.784  1.00  0.00    -0.000 C 
BRANCH  11  12
ATOM     12  C   UNL     1      31.905  44.452  45.112  1.00  0.00    -0.000 C 
BRANCH  12  13
ATOM     13  C   UNL     1      32.923  44.474  43.961  1.00  0.00    -0.003 C 
ATOM     14  C   UNL     1      32.445  45.372  42.824  1.00  0.00     0.004 C 
ENDBRANCH  12  13
ENDBRANCH  11  12
ENDBRANCH  10  11
ENDBRANCH   9  10
ENDBRANCH   1   9
TORSDOF 10
ENDMDL
MODEL 6
REMARK VINA RESULT:    -5.081      2.207      3.161
REMARK INTER + INTRA:          -8.643
REMARK INTER:                  -7.769
REMARK INTRA:                  -0.874
REMARK UNBOUND:                -0.591
REMARK SMILES CCCCCCCCCCCC(=O)[O-]
REMARK SMILES IDX 7 1 8 2 9 3 10 4 11 5 12 6 13 7 14 8 6 9 5 10 4 11 3 12 2 13
REMARK SMILES IDX 1 14
REMARK H PARENT
REMARK Flexibility Score: inf
ROOT
ATOM      1  C   UNL     1      34.191  42.300  50.370  1.00  0.00     0.000 C 
ENDROOT
BRANCH   1   2
ATOM      2  C   UNL     1      33.060  43.053  49.642  1.00  0.00     0.000 C 
BRANCH   2   3
ATOM      3  C   UNL     1      33.112  42.978  48.105  1.00  0.00     0.000 C 
BRANCH   3   4
ATOM      4  C   UNL     1      33.571  44.296  47.458  1.00  0.00     0.006 C 
BRANCH   4   5
ATOM      5  C   UNL     1      35.094  44.474  47.525  1.00  0.00     0.053 C 
BRANCH   5   6
ATOM      6  C   UNL     1      35.774  43.901  46.320  1.00  0.00     0.041 C 
ATOM      7  O   UNL     1      36.656  43.011  46.452  1.00  0.00    -0.550 OA
ATOM      8  O   UNL     1      35.454  44.370  45.053  1.00  0.00    -0.550 OA
ENDBRANCH   5   6
ENDBRANCH   4   5
ENDBRANCH   3   4
ENDBRANCH   2   3
ENDBRANCH   1   2
BRANCH   1   9
ATOM      9  C   UNL     1      34.896  43.096  51.487  1.00  0.00     0.000 C 
BRANCH   9  10
ATOM     10  C   UNL     1      36.162  43.856  51.050  1.00  0.00    -0.000 C 
BRANCH  10  11
ATOM     11  C   UNL     1      37.146  42.973  50.262  1.00  0.00    -0.000 C 
BRANCH  11  12
ATOM     12  C   UNL     1      38.520  42.869  50.943  1.00  0.00    -0.000 C 
BRANCH  12  13
ATOM     13  C   UNL     1      39.205  41.517  50.690  1.00  0.00    -0.003 C 
ATOM     14  C   UNL     1      38.907  41.006  49.283  1.00  0.00     0.004 C 
ENDBRANCH  12  13
ENDBRANCH  11  12
ENDBRANCH  10  11
ENDBRANCH   9  10
ENDBRANCH   1   9
TORSDOF 10
ENDMDL
MODEL 7
REMARK VINA RESULT:    -5.063      1.584      3.533
REMARK INTER + INTRA:          -8.613
REMARK INTER:                  -7.539
REMARK INTRA:                  -1.074
REMARK UNBOUND:                -0.591
REMARK SMILES CCCCCCCCCCCC(=O)[O-]
REMARK SMILES IDX 7 1 8 2 9 3 10 4 11 5 12 6 13 7 14 8 6 9 5 10 4 11 3 12 2 13
REMARK SMILES IDX 1 14
REMARK H PARENT
REMARK Flexibility Score: inf
ROOT
ATOM      1  C   UNL     1      38.229  42.249  49.761  1.00  0.00     0.000 C 
ENDROOT
BRANCH   1   2
ATOM      2  C   UNL     1      37.911  42.261  48.253  1.00  0.00     0.000 C 
BRANCH   2   3
ATOM      3  C   UNL     1      36.438  42.539  47.901  1.00  0.00     0.000 C 
BRANCH   3   4
ATOM      4  C   UNL     1      36.245  42.961  46.435  1.00  0.00     0.006 C 
BRANCH   4   5
ATOM      5  C   UNL     1      35.684  44.384  46.310  1.00  0.00     0.053 C 
BRANCH   5   6
ATOM      6  C   UNL     1      34.489  44.434  45.408  1.00  0.00     0.041 C 
ATOM      7  O   UNL     1      34.599  44.876  44.234  1.00  0.00    -0.550 OA
ATOM      8  O   UNL     1      33.249  44.018  45.874  1.00  0.00    -0.550 OA
ENDBRANCH   5   6
ENDBRANCH   4   5
ENDBRANCH   3   4
ENDBRANCH   2   3
ENDBRANCH   1   2
BRANCH   1   9
ATOM      9  C   UNL     1      36.999  42.289  50.691  1.00  0.00     0.000 C 
BRANCH   9  10
ATOM     10  C   UNL     1      36.612  43.688  51.204  1.00  0.00    -0.000 C 
BRANCH  10  11
ATOM     11  C   UNL     1      35.104  43.825  51.483  1.00  0.00    -0.000 C 
BRANCH  11  12
ATOM     12  C   UNL     1      34.310  42.582  51.049  1.00  0.00    -0.000 C 
BRANCH  12  13
ATOM     13  C   UNL     1      33.304  42.884  49.927  1.00  0.00    -0.003 C 
ATOM     14  C   UNL     1      33.537  44.274  49.342  1.00  0.00     0.004 C 
ENDBRANCH  12  13
ENDBRANCH  11  12
ENDBRANCH  10  11
ENDBRANCH   9  10
ENDBRANCH   1   9
TORSDOF 10
ENDMDL
MODEL 8
REMARK VINA RESULT:    -5.059      3.261      7.284
REMARK INTER + INTRA:          -8.608
REMARK INTER:                  -8.027
REMARK INTRA:                  -0.581
REMARK UNBOUND:                -0.591
REMARK SMILES CCCCCCCCCCCC(=O)[O-]
REMARK SMILES IDX 7 1 8 2 9 3 10 4 11 5 12 6 13 7 14 8 6 9 5 10 4 11 3 12 2 13
REMARK SMILES IDX 1 14
REMARK H PARENT
REMARK Flexibility Score: inf
ROOT
ATOM      1  C   UNL     1      35.068  44.559  48.130  1.00  0.00     0.000 C 
ENDROOT
BRANCH   1   2
ATOM      2  C   UNL     1      34.821  43.687  49.377  1.00  0.00     0.000 C 
BRANCH   2   3
ATOM      3  C   UNL     1      35.788  43.938  50.549  1.00  0.00     0.000 C 
BRANCH   3   4
ATOM      4  C   UNL     1      36.591  42.685  50.938  1.00  0.00     0.006 C 
BRANCH   4   5
ATOM      5  C   UNL     1      38.050  42.764  50.470  1.00  0.00     0.053 C 
BRANCH   5   6
ATOM      6  C   UNL     1      38.301  41.888  49.281  1.00  0.00     0.041 C 
ATOM      7  O   UNL     1      39.102  40.920  49.364  1.00  0.00    -0.550 OA
ATOM      8  O   UNL     1      37.671  42.159  48.074  1.00  0.00    -0.550 OA
ENDBRANCH   5   6
ENDBRANCH   4   5
ENDBRANCH   3   4
ENDBRANCH   2   3
ENDBRANCH   1   2
BRANCH   1   9
ATOM      9  C   UNL     1      34.649  43.921  46.790  1.00  0.00     0.000 C 
BRANCH   9  10
ATOM     10  C   UNL     1      35.374  44.471  45.549  1.00  0.00    -0.000 C 
BRANCH  10  11
ATOM     11  C   UNL     1      34.408  44.841  44.409  1.00  0.00    -0.000 C 
BRANCH  11  12
ATOM     12  C   UNL     1      33.005  44.247  44.609  1.00  0.00    -0.000 C 
BRANCH  12  13
ATOM     13  C   UNL     1      32.063  44.543  43.432  1.00  0.00    -0.003 C 
ATOM     14  C   UNL     1      32.621  45.657  42.551  1.00  0.00     0.004 C 
ENDBRANCH  12  13
ENDBRANCH  11  12
ENDBRANCH  10  11
ENDBRANCH   9  10
ENDBRANCH   1   9
TORSDOF 10
ENDMDL
MODEL 9
REMARK VINA RESULT:    -4.920      1.556      2.003
REMARK INTER + INTRA:          -8.388
REMARK INTER:                  -7.476
REMARK INTRA:                  -0.912
REMARK UNBOUND:                -0.591
REMARK SMILES CCCCCCCCCCCC(=O)[O-]
REMARK SMILES IDX 7 1 8 2 9 3 10 4 11 5 12 6 13 7 14 8 6 9 5 10 4 11 3 12 2 13
REMARK SMILES IDX 1 14
REMARK H PARENT
REMARK Flexibility Score: inf
ROOT
ATOM      1  C   UNL     1      35.151  45.101  50.101  1.00  0.00     0.000 C 
ENDROOT
BRANCH   1   2
ATOM      2  C   UNL     1      34.443  45.200  48.735  1.00  0.00     0.000 C 
BRANCH   2   3
ATOM      3  C   UNL     1      35.176  44.509  47.570  1.00  0.00     0.000 C 
BRANCH   3   4
ATOM      4  C   UNL     1      34.268  43.559  46.773  1.00  0.00     0.006 C 
BRANCH   4   5
ATOM      5  C   UNL     1      32.792  43.975  46.841  1.00  0.00     0.053 C 
BRANCH   5   6
ATOM      6  C   UNL     1      32.111  43.824  45.515  1.00  0.00     0.041 C 
ATOM      7  O   UNL     1      32.525  44.464  44.513  1.00  0.00    -0.550 OA
ATOM      8  O   UNL     1      31.000  43.000  45.395  1.00  0.00    -0.550 OA
ENDBRANCH   5   6
ENDBRANCH   4   5
ENDBRANCH   3   4
ENDBRANCH   2   3
ENDBRANCH   1   2
BRANCH   1   9
ATOM      9  C   UNL     1      34.754  43.882  50.958  1.00  0.00     0.000 C 
BRANCH   9  10
ATOM     10  C   UNL     1      35.631  42.632  50.764  1.00  0.00    -0.000 C 
BRANCH  10  11
ATOM     11  C   UNL     1      37.097  42.976  50.445  1.00  0.00    -0.000 C 
BRANCH  11  12
ATOM     12  C   UNL     1      37.606  42.270  49.178  1.00  0.00    -0.000 C 
BRANCH  12  13
ATOM     13  C   UNL     1      38.826  41.375  49.448  1.00  0.00    -0.003 C 
ATOM     14  C   UNL     1      39.225  41.424  50.920  1.00  0.00     0.004 C 
ENDBRANCH  12  13
ENDBRANCH  11  12
ENDBRANCH  10  11
ENDBRANCH   9  10
ENDBRANCH   1   9
TORSDOF 10
ENDMDL
