MODEL 1
REMARK VINA RESULT:    -4.784      0.000      0.000
REMARK INTER + INTRA:         -12.988
REMARK INTER:                 -10.377
REMARK INTRA:                  -2.611
REMARK UNBOUND:                -2.611
REMARK SMILES CCCCCCCCCCCCCCCCCCCCCC(=O)[O-]
REMARK SMILES IDX 12 1 11 2 10 3 9 4 8 5 7 6 6 7 5 8 4 9 3 10 2 11 1 12 13 13
REMARK SMILES IDX 14 14 15 15 16 16 17 17 18 18 19 19 20 20 21 21 22 22 23 23
REMARK SMILES IDX 24 24
REMARK H PARENT
REMARK Flexibility Score: inf
ROOT
ATOM      1  C   UNL     1     -18.583   0.805  27.690  1.00  0.00     0.000 C 
ENDROOT
BRANCH   1   2
ATOM      2  C   UNL     1     -19.491   0.549  26.473  1.00  0.00     0.000 C 
BRANCH   2   3
ATOM      3  C   UNL     1     -20.947   0.980  26.714  1.00  0.00     0.000 C 
BRANCH   3   4
ATOM      4  C   UNL     1     -21.966  -0.024  26.150  1.00  0.00    -0.000 C 
BRANCH   4   5
ATOM      5  C   UNL     1     -23.225  -0.147  27.029  1.00  0.00    -0.000 C 
BRANCH   5   6
ATOM      6  C   UNL     1     -22.977   0.030  28.540  1.00  0.00    -0.000 C 
BRANCH   6   7
ATOM      7  C   UNL     1     -23.962  -0.727  29.450  1.00  0.00    -0.000 C 
BRANCH   7   8
ATOM      8  C   UNL     1     -23.270  -1.668  30.460  1.00  0.00    -0.000 C 
BRANCH   8   9
ATOM      9  C   UNL     1     -23.090  -3.088  29.904  1.00  0.00    -0.000 C 
BRANCH   9  10
ATOM     10  C   UNL     1     -23.028  -4.119  31.040  1.00  0.00    -0.000 C 
BRANCH  10  11
ATOM     11  C   UNL     1     -21.627  -4.730  31.152  1.00  0.00    -0.003 C 
ATOM     12  C   UNL     1     -21.116  -4.677  32.589  1.00  0.00     0.004 C 
ENDBRANCH  10  11
ENDBRANCH   9  10
ENDBRANCH   8   9
ENDBRANCH   7   8
ENDBRANCH   6   7
ENDBRANCH   5   6
ENDBRANCH   4   5
ENDBRANCH   3   4
ENDBRANCH   2   3
ENDBRANCH   1   2
BRANCH   1  13
ATOM     13  C   UNL     1     -18.406  -0.455  28.564  1.00  0.00     0.000 C 
BRANCH  13  14
ATOM     14  C   UNL     1     -19.411  -0.537  29.726  1.00  0.00     0.000 C 
BRANCH  14  15
ATOM     15  C   UNL     1     -19.544  -1.957  30.298  1.00  0.00     0.000 C 
BRANCH  15  16
ATOM     16  C   UNL     1     -18.425  -2.899  29.820  1.00  0.00     0.000 C 
BRANCH  16  17
ATOM     17  C   UNL     1     -17.209  -3.001  30.764  1.00  0.00     0.000 C 
BRANCH  17  18
ATOM     18  C   UNL     1     -17.457  -2.403  32.165  1.00  0.00     0.000 C 
BRANCH  18  19
ATOM     19  C   UNL     1     -16.786  -1.030  32.336  1.00  0.00     0.000 C 
BRANCH  19  20
ATOM     20  C   UNL     1     -15.837  -0.674  31.176  1.00  0.00     0.006 C 
BRANCH  20  21
ATOM     21  C   UNL     1     -14.421  -0.281  31.632  1.00  0.00     0.053 C 
BRANCH  21  22
ATOM     22  C   UNL     1     -13.629   0.379  30.548  1.00  0.00     0.041 C 
ATOM     23  O   UNL     1     -14.052   1.434  30.005  1.00  0.00    -0.550 OA
ATOM     24  O   UNL     1     -12.427  -0.179  30.124  1.00  0.00    -0.550 OA
ENDBRANCH  21  22
ENDBRANCH  20  21
ENDBRANCH  19  20
ENDBRANCH  18  19
ENDBRANCH  17  18
ENDBRANCH  16  17
ENDBRANCH  15  16
ENDBRANCH  14  15
ENDBRANCH  13  14
ENDBRANCH   1  13
TORSDOF 20
ENDMDL
MODEL 2
REMARK VINA RESULT:    -4.742      3.651      6.303
REMARK INTER + INTRA:         -12.898
REMARK INTER:                  -9.936
REMARK INTRA:                  -2.962
REMARK UNBOUND:                -2.611
REMARK SMILES CCCCCCCCCCCCCCCCCCCCCC(=O)[O-]
REMARK SMILES IDX 12 1 11 2 10 3 9 4 8 5 7 6 6 7 5 8 4 9 3 10 2 11 1 12 13 13
REMARK SMILES IDX 14 14 15 15 16 16 17 17 18 18 19 19 20 20 21 21 22 22 23 23
REMARK SMILES IDX 24 24
REMARK H PARENT
REMARK Flexibility Score: inf
ROOT
ATOM      1  C   UNL     1     -23.124   0.331  27.981  1.00  0.00     0.000 C 
ENDROOT
BRANCH   1   2
ATOM      2  C   UNL     1     -23.253  -0.111  26.511  1.00  0.00     0.000 C 
BRANCH   2   3
ATOM      3  C   UNL     1     -21.976   0.153  25.696  1.00  0.00     0.000 C 
BRANCH   3   4
ATOM      4  C   UNL     1     -20.901   0.903  26.499  1.00  0.00    -0.000 C 
BRANCH   4   5
ATOM      5  C   UNL     1     -19.559   0.148  26.544  1.00  0.00    -0.000 C 
BRANCH   5   6
ATOM      6  C   UNL     1     -18.741   0.359  27.833  1.00  0.00    -0.000 C 
BRANCH   6   7
ATOM      7  C   UNL     1     -19.549   0.235  29.139  1.00  0.00    -0.000 C 
BRANCH   7   8
ATOM      8  C   UNL     1     -18.899  -0.702  30.179  1.00  0.00    -0.000 C 
BRANCH   8   9
ATOM      9  C   UNL     1     -18.098  -1.835  29.522  1.00  0.00    -0.000 C 
BRANCH   9  10
ATOM     10  C   UNL     1     -17.453  -2.739  30.582  1.00  0.00    -0.000 C 
BRANCH  10  11
ATOM     11  C   UNL     1     -17.046  -1.930  31.819  1.00  0.00    -0.003 C 
ATOM     12  C   UNL     1     -17.605  -2.554  33.094  1.00  0.00     0.004 C 
ENDBRANCH  10  11
ENDBRANCH   9  10
ENDBRANCH   8   9
ENDBRANCH   7   8
ENDBRANCH   6   7
ENDBRANCH   5   6
ENDBRANCH   4   5
ENDBRANCH   3   4
ENDBRANCH   2   3
ENDBRANCH   1   2
BRANCH   1  13
ATOM     13  C   UNL     1     -23.103  -0.869  28.952  1.00  0.00     0.000 C 
BRANCH  13  14
ATOM     14  C   UNL     1     -23.265  -2.226  28.247  1.00  0.00     0.000 C 
BRANCH  14  15
ATOM     15  C   UNL     1     -22.674  -3.391  29.057  1.00  0.00     0.000 C 
BRANCH  15  16
ATOM     16  C   UNL     1     -21.747  -2.919  30.190  1.00  0.00     0.000 C 
BRANCH  16  17
ATOM     17  C   UNL     1     -20.956  -4.038  30.897  1.00  0.00     0.000 C 
BRANCH  17  18
ATOM     18  C   UNL     1     -20.264  -5.019  29.927  1.00  0.00     0.000 C 
BRANCH  18  19
ATOM     19  C   UNL     1     -20.745  -6.466  30.124  1.00  0.00     0.000 C 
BRANCH  19  20
ATOM     20  C   UNL     1     -21.978  -6.570  31.042  1.00  0.00     0.006 C 
BRANCH  20  21
ATOM     21  C   UNL     1     -21.776  -7.505  32.247  1.00  0.00     0.053 C 
BRANCH  21  22
ATOM     22  C   UNL     1     -21.588  -6.759  33.531  1.00  0.00     0.041 C 
ATOM     23  O   UNL     1     -20.649  -7.065  34.312  1.00  0.00    -0.550 OA
ATOM     24  O   UNL     1     -22.461  -5.732  33.874  1.00  0.00    -0.550 OA
ENDBRANCH  21  22
ENDBRANCH  20  21
ENDBRANCH  19  20
ENDBRANCH  18  19
ENDBRANCH  17  18
ENDBRANCH  16  17
ENDBRANCH  15  16
ENDBRANCH  14  15
ENDBRANCH  13  14
ENDBRANCH   1  13
TORSDOF 20
ENDMDL
MODEL 3
REMARK VINA RESULT:    -4.726      3.198      7.150
REMARK INTER + INTRA:         -12.863
REMARK INTER:                 -10.463
REMARK INTRA:                  -2.400
REMARK UNBOUND:                -2.611
REMARK SMILES CCCCCCCCCCCCCCCCCCCCCC(=O)[O-]
REMARK SMILES IDX 12 1 11 2 10 3 9 4 8 5 7 6 6 7 5 8 4 9 3 10 2 11 1 12 13 13
REMARK SMILES IDX 14 14 15 15 16 16 17 17 18 18 19 19 20 20 21 21 22 22 23 23
REMARK SMILES IDX 24 24
REMARK H PARENT
REMARK Flexibility Score: inf
ROOT
ATOM      1  C   UNL     1     -20.211   1.736  27.958  1.00  0.00     0.000 C 
ENDROOT
BRANCH   1   2
ATOM      2  C   UNL     1     -18.918   1.088  27.429  1.00  0.00     0.000 C 
BRANCH   2   3
ATOM      3  C   UNL     1     -18.135   0.342  28.522  1.00  0.00     0.000 C 
BRANCH   3   4
ATOM      4  C   UNL     1     -18.481  -1.156  28.585  1.00  0.00    -0.000 C 
BRANCH   4   5
ATOM      5  C   UNL     1     -19.145  -1.555  29.916  1.00  0.00    -0.000 C 
BRANCH   5   6
ATOM      6  C   UNL     1     -18.744  -2.945  30.447  1.00  0.00    -0.000 C 
BRANCH   6   7
ATOM      7  C   UNL     1     -17.378  -2.997  31.156  1.00  0.00    -0.000 C 
BRANCH   7   8
ATOM      8  C   UNL     1     -17.339  -2.198  32.477  1.00  0.00    -0.000 C 
BRANCH   8   9
ATOM      9  C   UNL     1     -16.593  -0.864  32.328  1.00  0.00    -0.000 C 
BRANCH   9  10
ATOM     10  C   UNL     1     -15.677  -0.880  31.097  1.00  0.00    -0.000 C 
BRANCH  10  11
ATOM     11  C   UNL     1     -14.322  -0.235  31.411  1.00  0.00    -0.003 C 
ATOM     12  C   UNL     1     -14.008   0.891  30.431  1.00  0.00     0.004 C 
ENDBRANCH  10  11
ENDBRANCH   9  10
ENDBRANCH   8   9
ENDBRANCH   7   8
ENDBRANCH   6   7
ENDBRANCH   5   6
ENDBRANCH   4   5
ENDBRANCH   3   4
ENDBRANCH   2   3
ENDBRANCH   1   2
BRANCH   1  13
ATOM     13  C   UNL     1     -21.460   0.879  27.658  1.00  0.00     0.000 C 
BRANCH  13  14
ATOM     14  C   UNL     1     -21.428   0.224  26.266  1.00  0.00     0.000 C 
BRANCH  14  15
ATOM     15  C   UNL     1     -22.819   0.137  25.618  1.00  0.00     0.000 C 
BRANCH  15  16
ATOM     16  C   UNL     1     -23.928  -0.195  26.631  1.00  0.00     0.000 C 
BRANCH  16  17
ATOM     17  C   UNL     1     -23.989  -1.672  27.072  1.00  0.00     0.000 C 
BRANCH  17  18
ATOM     18  C   UNL     1     -23.945  -1.867  28.602  1.00  0.00     0.000 C 
BRANCH  18  19
ATOM     19  C   UNL     1     -22.568  -2.352  29.085  1.00  0.00     0.000 C 
BRANCH  19  20
ATOM     20  C   UNL     1     -22.615  -3.751  29.729  1.00  0.00     0.006 C 
BRANCH  20  21
ATOM     21  C   UNL     1     -23.246  -3.766  31.132  1.00  0.00     0.053 C 
BRANCH  21  22
ATOM     22  C   UNL     1     -22.491  -4.629  32.094  1.00  0.00     0.041 C 
ATOM     23  O   UNL     1     -23.100  -5.478  32.798  1.00  0.00    -0.550 OA
ATOM     24  O   UNL     1     -21.114  -4.487  32.226  1.00  0.00    -0.550 OA
ENDBRANCH  21  22
ENDBRANCH  20  21
ENDBRANCH  19  20
ENDBRANCH  18  19
ENDBRANCH  17  18
ENDBRANCH  16  17
ENDBRANCH  15  16
ENDBRANCH  14  15
ENDBRANCH  13  14
ENDBRANCH   1  13
TORSDOF 20
ENDMDL
MODEL 4
REMARK VINA RESULT:    -4.718     14.435     16.727
REMARK INTER + INTRA:         -12.844
REMARK INTER:                 -10.477
REMARK INTRA:                  -2.367
REMARK UNBOUND:                -2.611
REMARK SMILES CCCCCCCCCCCCCCCCCCCCCC(=O)[O-]
REMARK SMILES IDX 12 1 11 2 10 3 9 4 8 5 7 6 6 7 5 8 4 9 3 10 2 11 1 12 13 13
REMARK SMILES IDX 14 14 15 15 16 16 17 17 18 18 19 19 20 20 21 21 22 22 23 23
REMARK SMILES IDX 24 24
REMARK H PARENT
REMARK Flexibility Score: inf
ROOT
ATOM      1  C   UNL     1      -4.564   8.244  28.021  1.00  0.00     0.000 C 
ENDROOT
BRANCH   1   2
ATOM      2  C   UNL     1      -3.976   7.119  27.150  1.00  0.00     0.000 C 
BRANCH   2   3
ATOM      3  C   UNL     1      -4.030   7.439  25.647  1.00  0.00     0.000 C 
BRANCH   3   4
ATOM      4  C   UNL     1      -4.624   8.827  25.355  1.00  0.00    -0.000 C 
BRANCH   4   5
ATOM      5  C   UNL     1      -4.871   9.062  23.853  1.00  0.00    -0.000 C 
BRANCH   5   6
ATOM      6  C   UNL     1      -5.991   8.198  23.239  1.00  0.00    -0.000 C 
BRANCH   6   7
ATOM      7  C   UNL     1      -7.257   8.974  22.832  1.00  0.00    -0.000 C 
BRANCH   7   8
ATOM      8  C   UNL     1      -8.464   8.716  23.759  1.00  0.00    -0.000 C 
BRANCH   8   9
ATOM      9  C   UNL     1      -8.185   9.140  25.209  1.00  0.00    -0.000 C 
BRANCH   9  10
ATOM     10  C   UNL     1      -8.877   8.195  26.201  1.00  0.00    -0.000 C 
BRANCH  10  11
ATOM     11  C   UNL     1      -7.860   7.269  26.879  1.00  0.00    -0.003 C 
ATOM     12  C   UNL     1      -8.331   6.859  28.271  1.00  0.00     0.004 C 
ENDBRANCH  10  11
ENDBRANCH   9  10
ENDBRANCH   8   9
ENDBRANCH   7   8
ENDBRANCH   6   7
ENDBRANCH   5   6
ENDBRANCH   4   5
ENDBRANCH   3   4
ENDBRANCH   2   3
ENDBRANCH   1   2
BRANCH   1  13
ATOM     13  C   UNL     1      -4.082   8.163  29.485  1.00  0.00     0.000 C 
BRANCH  13  14
ATOM     14  C   UNL     1      -5.215   8.342  30.510  1.00  0.00     0.000 C 
BRANCH  14  15
ATOM     15  C   UNL     1      -5.569   7.035  31.239  1.00  0.00     0.000 C 
BRANCH  15  16
ATOM     16  C   UNL     1      -5.109   5.783  30.473  1.00  0.00     0.000 C 
BRANCH  16  17
ATOM     17  C   UNL     1      -5.230   4.458  31.254  1.00  0.00     0.000 C 
BRANCH  17  18
ATOM     18  C   UNL     1      -4.053   4.194  32.217  1.00  0.00     0.000 C 
BRANCH  18  19
ATOM     19  C   UNL     1      -4.507   3.492  33.508  1.00  0.00     0.000 C 
BRANCH  19  20
ATOM     20  C   UNL     1      -4.808   4.475  34.654  1.00  0.00     0.006 C 
BRANCH  20  21
ATOM     21  C   UNL     1      -3.953   5.754  34.614  1.00  0.00     0.053 C 
BRANCH  21  22
ATOM     22  C   UNL     1      -4.732   6.979  34.979  1.00  0.00     0.041 C 
ATOM     23  O   UNL     1      -5.601   6.932  35.889  1.00  0.00    -0.550 OA
ATOM     24  O   UNL     1      -4.509   8.174  34.302  1.00  0.00    -0.550 OA
ENDBRANCH  21  22
ENDBRANCH  20  21
ENDBRANCH  19  20
ENDBRANCH  18  19
ENDBRANCH  17  18
ENDBRANCH  16  17
ENDBRANCH  15  16
ENDBRANCH  14  15
ENDBRANCH  13  14
ENDBRANCH   1  13
TORSDOF 20
ENDMDL
MODEL 5
REMARK VINA RESULT:    -4.695      2.352      5.117
REMARK INTER + INTRA:         -12.796
REMARK INTER:                 -10.474
REMARK INTRA:                  -2.322
REMARK UNBOUND:                -2.611
REMARK SMILES CCCCCCCCCCCCCCCCCCCCCC(=O)[O-]
REMARK SMILES IDX 12 1 11 2 10 3 9 4 8 5 7 6 6 7 5 8 4 9 3 10 2 11 1 12 13 13
REMARK SMILES IDX 14 14 15 15 16 16 17 17 18 18 19 19 20 20 21 21 22 22 23 23
REMARK SMILES IDX 24 24
REMARK H PARENT
REMARK Flexibility Score: inf
ROOT
ATOM      1  C   UNL     1     -22.756  -0.751  29.425  1.00  0.00     0.000 C 
ENDROOT
BRANCH   1   2
ATOM      2  C   UNL     1     -22.745  -2.047  30.257  1.00  0.00     0.000 C 
BRANCH   2   3
ATOM      3  C   UNL     1     -22.048  -3.212  29.535  1.00  0.00     0.000 C 
BRANCH   3   4
ATOM      4  C   UNL     1     -20.852  -3.771  30.322  1.00  0.00    -0.000 C 
BRANCH   4   5
ATOM      5  C   UNL     1     -20.509  -5.220  29.930  1.00  0.00    -0.000 C 
BRANCH   5   6
ATOM      6  C   UNL     1     -21.729  -6.144  29.741  1.00  0.00    -0.000 C 
BRANCH   6   7
ATOM      7  C   UNL     1     -22.390  -6.617  31.049  1.00  0.00    -0.000 C 
BRANCH   7   8
ATOM      8  C   UNL     1     -21.376  -7.028  32.139  1.00  0.00    -0.000 C 
BRANCH   8   9
ATOM      9  C   UNL     1     -21.947  -8.086  33.095  1.00  0.00    -0.000 C 
BRANCH   9  10
ATOM     10  C   UNL     1     -21.771  -7.656  34.558  1.00  0.00    -0.000 C 
BRANCH  10  11
ATOM     11  C   UNL     1     -20.470  -6.869  34.747  1.00  0.00    -0.003 C 
ATOM     12  C   UNL     1     -19.977  -6.956  36.189  1.00  0.00     0.004 C 
ENDBRANCH  10  11
ENDBRANCH   9  10
ENDBRANCH   8   9
ENDBRANCH   7   8
ENDBRANCH   6   7
ENDBRANCH   5   6
ENDBRANCH   4   5
ENDBRANCH   3   4
ENDBRANCH   2   3
ENDBRANCH   1   2
BRANCH   1  13
ATOM     13  C   UNL     1     -22.726  -1.030  27.907  1.00  0.00     0.000 C 
BRANCH  13  14
ATOM     14  C   UNL     1     -22.777   0.248  27.052  1.00  0.00     0.000 C 
BRANCH  14  15
ATOM     15  C   UNL     1     -21.727   0.254  25.929  1.00  0.00     0.000 C 
BRANCH  15  16
ATOM     16  C   UNL     1     -20.285   0.318  26.461  1.00  0.00     0.000 C 
BRANCH  16  17
ATOM     17  C   UNL     1     -20.082   1.230  27.688  1.00  0.00     0.000 C 
BRANCH  17  18
ATOM     18  C   UNL     1     -19.357   0.540  28.863  1.00  0.00     0.000 C 
BRANCH  18  19
ATOM     19  C   UNL     1     -18.923  -0.894  28.515  1.00  0.00     0.000 C 
BRANCH  19  20
ATOM     20  C   UNL     1     -18.012  -1.524  29.586  1.00  0.00     0.006 C 
BRANCH  20  21
ATOM     21  C   UNL     1     -18.149  -0.877  30.975  1.00  0.00     0.053 C 
BRANCH  21  22
ATOM     22  C   UNL     1     -17.029  -1.247  31.896  1.00  0.00     0.041 C 
ATOM     23  O   UNL     1     -15.846  -0.911  31.624  1.00  0.00    -0.550 OA
ATOM     24  O   UNL     1     -17.289  -1.977  33.051  1.00  0.00    -0.550 OA
ENDBRANCH  21  22
ENDBRANCH  20  21
ENDBRANCH  19  20
ENDBRANCH  18  19
ENDBRANCH  17  18
ENDBRANCH  16  17
ENDBRANCH  15  16
ENDBRANCH  14  15
ENDBRANCH  13  14
ENDBRANCH   1  13
TORSDOF 20
ENDMDL
MODEL 6
REMARK VINA RESULT:    -4.692     14.055     17.150
REMARK INTER + INTRA:         -12.788
REMARK INTER:                  -9.821
REMARK INTRA:                  -2.966
REMARK UNBOUND:                -2.611
REMARK SMILES CCCCCCCCCCCCCCCCCCCCCC(=O)[O-]
REMARK SMILES IDX 12 1 11 2 10 3 9 4 8 5 7 6 6 7 5 8 4 9 3 10 2 11 1 12 13 13
REMARK SMILES IDX 14 14 15 15 16 16 17 17 18 18 19 19 20 20 21 21 22 22 23 23
REMARK SMILES IDX 24 24
REMARK H PARENT
REMARK Flexibility Score: inf
ROOT
ATOM      1  C   UNL     1      -7.980   5.859  27.810  1.00  0.00     0.000 C 
ENDROOT
BRANCH   1   2
ATOM      2  C   UNL     1      -8.603   7.247  28.050  1.00  0.00     0.000 C 
BRANCH   2   3
ATOM      3  C   UNL     1      -8.962   7.973  26.743  1.00  0.00     0.000 C 
BRANCH   3   4
ATOM      4  C   UNL     1      -7.723   8.367  25.922  1.00  0.00    -0.000 C 
BRANCH   4   5
ATOM      5  C   UNL     1      -8.085   9.125  24.631  1.00  0.00    -0.000 C 
BRANCH   5   6
ATOM      6  C   UNL     1      -7.455  10.526  24.505  1.00  0.00    -0.000 C 
BRANCH   6   7
ATOM      7  C   UNL     1      -6.869  10.849  23.118  1.00  0.00    -0.000 C 
BRANCH   7   8
ATOM      8  C   UNL     1      -5.346  11.100  23.135  1.00  0.00    -0.000 C 
BRANCH   8   9
ATOM      9  C   UNL     1      -4.544   9.829  22.814  1.00  0.00    -0.000 C 
BRANCH   9  10
ATOM     10  C   UNL     1      -4.186   9.067  24.098  1.00  0.00    -0.000 C 
BRANCH  10  11
ATOM     11  C   UNL     1      -4.537   7.581  23.970  1.00  0.00    -0.003 C 
ATOM     12  C   UNL     1      -5.649   7.363  22.948  1.00  0.00     0.004 C 
ENDBRANCH  10  11
ENDBRANCH   9  10
ENDBRANCH   8   9
ENDBRANCH   7   8
ENDBRANCH   6   7
ENDBRANCH   5   6
ENDBRANCH   4   5
ENDBRANCH   3   4
ENDBRANCH   2   3
ENDBRANCH   1   2
BRANCH   1  13
ATOM     13  C   UNL     1      -6.525   5.776  28.320  1.00  0.00     0.000 C 
BRANCH  13  14
ATOM     14  C   UNL     1      -5.482   6.122  27.243  1.00  0.00     0.000 C 
BRANCH  14  15
ATOM     15  C   UNL     1      -4.249   6.839  27.818  1.00  0.00     0.000 C 
BRANCH  15  16
ATOM     16  C   UNL     1      -4.394   8.370  27.812  1.00  0.00     0.000 C 
BRANCH  16  17
ATOM     17  C   UNL     1      -4.221   9.048  29.187  1.00  0.00     0.000 C 
BRANCH  17  18
ATOM     18  C   UNL     1      -5.196   8.527  30.265  1.00  0.00     0.000 C 
BRANCH  18  19
ATOM     19  C   UNL     1      -4.505   8.332  31.625  1.00  0.00     0.000 C 
BRANCH  19  20
ATOM     20  C   UNL     1      -4.770   6.945  32.241  1.00  0.00     0.006 C 
BRANCH  20  21
ATOM     21  C   UNL     1      -4.291   5.776  31.363  1.00  0.00     0.053 C 
BRANCH  21  22
ATOM     22  C   UNL     1      -4.805   4.452  31.836  1.00  0.00     0.041 C 
ATOM     23  O   UNL     1      -4.225   3.844  32.775  1.00  0.00    -0.550 OA
ATOM     24  O   UNL     1      -5.918   3.879  31.230  1.00  0.00    -0.550 OA
ENDBRANCH  21  22
ENDBRANCH  20  21
ENDBRANCH  19  20
ENDBRANCH  18  19
ENDBRANCH  17  18
ENDBRANCH  16  17
ENDBRANCH  15  16
ENDBRANCH  14  15
ENDBRANCH  13  14
ENDBRANCH   1  13
TORSDOF 20
ENDMDL
MODEL 7
REMARK VINA RESULT:    -4.578     13.960     17.180
REMARK INTER + INTRA:         -12.540
REMARK INTER:                 -10.257
REMARK INTRA:                  -2.283
REMARK UNBOUND:                -2.611
REMARK SMILES CCCCCCCCCCCCCCCCCCCCCC(=O)[O-]
REMARK SMILES IDX 12 1 11 2 10 3 9 4 8 5 7 6 6 7 5 8 4 9 3 10 2 11 1 12 13 13
REMARK SMILES IDX 14 14 15 15 16 16 17 17 18 18 19 19 20 20 21 21 22 22 23 23
REMARK SMILES IDX 24 24
REMARK H PARENT
REMARK Flexibility Score: inf
ROOT
ATOM      1  C   UNL     1      -8.775   6.842  28.886  1.00  0.00     0.000 C 
ENDROOT
BRANCH   1   2
ATOM      2  C   UNL     1      -8.970   7.790  27.689  1.00  0.00     0.000 C 
BRANCH   2   3
ATOM      3  C   UNL     1      -7.994   7.503  26.536  1.00  0.00     0.000 C 
BRANCH   3   4
ATOM      4  C   UNL     1      -7.862   8.684  25.559  1.00  0.00    -0.000 C 
BRANCH   4   5
ATOM      5  C   UNL     1      -8.745   8.518  24.308  1.00  0.00    -0.000 C 
BRANCH   5   6
ATOM      6  C   UNL     1      -8.039   8.827  22.973  1.00  0.00    -0.000 C 
BRANCH   6   7
ATOM      7  C   UNL     1      -6.924   7.837  22.588  1.00  0.00    -0.000 C 
BRANCH   7   8
ATOM      8  C   UNL     1      -5.503   8.360  22.891  1.00  0.00    -0.000 C 
BRANCH   8   9
ATOM      9  C   UNL     1      -5.237   9.729  22.248  1.00  0.00    -0.000 C 
BRANCH   9  10
ATOM     10  C   UNL     1      -4.808  10.758  23.304  1.00  0.00    -0.000 C 
BRANCH  10  11
ATOM     11  C   UNL     1      -5.913  11.791  23.545  1.00  0.00    -0.003 C 
ATOM     12  C   UNL     1      -6.727  12.034  22.278  1.00  0.00     0.004 C 
ENDBRANCH  10  11
ENDBRANCH   9  10
ENDBRANCH   8   9
ENDBRANCH   7   8
ENDBRANCH   6   7
ENDBRANCH   5   6
ENDBRANCH   4   5
ENDBRANCH   3   4
ENDBRANCH   2   3
ENDBRANCH   1   2
BRANCH   1  13
ATOM     13  C   UNL     1      -7.448   7.103  29.629  1.00  0.00     0.000 C 
BRANCH  13  14
ATOM     14  C   UNL     1      -6.397   6.002  29.404  1.00  0.00     0.000 C 
BRANCH  14  15
ATOM     15  C   UNL     1      -5.132   6.523  28.702  1.00  0.00     0.000 C 
BRANCH  15  16
ATOM     16  C   UNL     1      -4.983   8.051  28.799  1.00  0.00     0.000 C 
BRANCH  16  17
ATOM     17  C   UNL     1      -3.961   8.543  29.843  1.00  0.00     0.000 C 
BRANCH  17  18
ATOM     18  C   UNL     1      -4.589   8.899  31.208  1.00  0.00     0.000 C 
BRANCH  18  19
ATOM     19  C   UNL     1      -4.002   8.058  32.353  1.00  0.00     0.000 C 
BRANCH  19  20
ATOM     20  C   UNL     1      -4.203   6.543  32.151  1.00  0.00     0.006 C 
BRANCH  20  21
ATOM     21  C   UNL     1      -4.483   5.777  33.456  1.00  0.00     0.053 C 
BRANCH  21  22
ATOM     22  C   UNL     1      -4.313   4.297  33.302  1.00  0.00     0.041 C 
ATOM     23  O   UNL     1      -4.071   3.800  32.171  1.00  0.00    -0.550 OA
ATOM     24  O   UNL     1      -4.436   3.463  34.408  1.00  0.00    -0.550 OA
ENDBRANCH  21  22
ENDBRANCH  20  21
ENDBRANCH  19  20
ENDBRANCH  18  19
ENDBRANCH  17  18
ENDBRANCH  16  17
ENDBRANCH  15  16
ENDBRANCH  14  15
ENDBRANCH  13  14
ENDBRANCH   1  13
TORSDOF 20
ENDMDL
MODEL 8
REMARK VINA RESULT:    -4.572      2.147      4.503
REMARK INTER + INTRA:         -12.528
REMARK INTER:                  -9.654
REMARK INTRA:                  -2.874
REMARK UNBOUND:                -2.611
REMARK SMILES CCCCCCCCCCCCCCCCCCCCCC(=O)[O-]
REMARK SMILES IDX 12 1 11 2 10 3 9 4 8 5 7 6 6 7 5 8 4 9 3 10 2 11 1 12 13 13
REMARK SMILES IDX 14 14 15 15 16 16 17 17 18 18 19 19 20 20 21 21 22 22 23 23
REMARK SMILES IDX 24 24
REMARK H PARENT
REMARK Flexibility Score: inf
ROOT
ATOM      1  C   UNL     1     -22.138   0.119  28.403  1.00  0.00     0.000 C 
ENDROOT
BRANCH   1   2
ATOM      2  C   UNL     1     -22.961  -0.988  29.088  1.00  0.00     0.000 C 
BRANCH   2   3
ATOM      3  C   UNL     1     -23.312  -2.144  28.137  1.00  0.00     0.000 C 
BRANCH   3   4
ATOM      4  C   UNL     1     -23.664  -3.442  28.882  1.00  0.00    -0.000 C 
BRANCH   4   5
ATOM      5  C   UNL     1     -22.452  -4.055  29.609  1.00  0.00    -0.000 C 
BRANCH   5   6
ATOM      6  C   UNL     1     -22.052  -5.462  29.123  1.00  0.00    -0.000 C 
BRANCH   6   7
ATOM      7  C   UNL     1     -20.616  -5.887  29.485  1.00  0.00    -0.000 C 
BRANCH   7   8
ATOM      8  C   UNL     1     -20.533  -7.277  30.151  1.00  0.00    -0.000 C 
BRANCH   8   9
ATOM      9  C   UNL     1     -21.721  -7.546  31.086  1.00  0.00    -0.000 C 
BRANCH   9  10
ATOM     10  C   UNL     1     -21.337  -7.291  32.550  1.00  0.00    -0.000 C 
BRANCH  10  11
ATOM     11  C   UNL     1     -22.138  -6.120  33.132  1.00  0.00    -0.003 C 
ATOM     12  C   UNL     1     -21.339  -4.822  33.070  1.00  0.00     0.004 C 
ENDBRANCH  10  11
ENDBRANCH   9  10
ENDBRANCH   8   9
ENDBRANCH   7   8
ENDBRANCH   6   7
ENDBRANCH   5   6
ENDBRANCH   4   5
ENDBRANCH   3   4
ENDBRANCH   2   3
ENDBRANCH   1   2
BRANCH   1  13
ATOM     13  C   UNL     1     -22.336   0.133  26.872  1.00  0.00     0.000 C 
BRANCH  13  14
ATOM     14  C   UNL     1     -21.029   0.361  26.092  1.00  0.00     0.000 C 
BRANCH  14  15
ATOM     15  C   UNL     1     -20.010   1.205  26.874  1.00  0.00     0.000 C 
BRANCH  15  16
ATOM     16  C   UNL     1     -18.709   0.440  27.174  1.00  0.00     0.000 C 
BRANCH  16  17
ATOM     17  C   UNL     1     -18.490   0.080  28.658  1.00  0.00     0.000 C 
BRANCH  17  18
ATOM     18  C   UNL     1     -18.258  -1.425  28.906  1.00  0.00     0.000 C 
BRANCH  18  19
ATOM     19  C   UNL     1     -19.400  -2.062  29.715  1.00  0.00     0.000 C 
BRANCH  19  20
ATOM     20  C   UNL     1     -18.899  -3.006  30.825  1.00  0.00     0.006 C 
BRANCH  20  21
ATOM     21  C   UNL     1     -17.386  -2.903  31.089  1.00  0.00     0.053 C 
BRANCH  21  22
ATOM     22  C   UNL     1     -17.073  -2.240  32.394  1.00  0.00     0.041 C 
ATOM     23  O   UNL     1     -16.882  -2.934  33.428  1.00  0.00    -0.550 OA
ATOM     24  O   UNL     1     -17.006  -0.853  32.473  1.00  0.00    -0.550 OA
ENDBRANCH  21  22
ENDBRANCH  20  21
ENDBRANCH  19  20
ENDBRANCH  18  19
ENDBRANCH  17  18
ENDBRANCH  16  17
ENDBRANCH  15  16
ENDBRANCH  14  15
ENDBRANCH  13  14
ENDBRANCH   1  13
TORSDOF 20
ENDMDL
MODEL 9
REMARK VINA RESULT:    -4.404      2.175      4.723
REMARK INTER + INTRA:         -12.164
REMARK INTER:                  -9.264
REMARK INTRA:                  -2.900
REMARK UNBOUND:                -2.611
REMARK SMILES CCCCCCCCCCCCCCCCCCCCCC(=O)[O-]
REMARK SMILES IDX 12 1 11 2 10 3 9 4 8 5 7 6 6 7 5 8 4 9 3 10 2 11 1 12 13 13
REMARK SMILES IDX 14 14 15 15 16 16 17 17 18 18 19 19 20 20 21 21 22 22 23 23
REMARK SMILES IDX 24 24
REMARK H PARENT
REMARK Flexibility Score: inf
ROOT
ATOM      1  C   UNL     1     -23.813   0.195  27.767  1.00  0.00     0.000 C 
ENDROOT
BRANCH   1   2
ATOM      2  C   UNL     1     -23.845  -1.008  28.729  1.00  0.00     0.000 C 
BRANCH   2   3
ATOM      3  C   UNL     1     -23.173  -2.259  28.140  1.00  0.00     0.000 C 
BRANCH   3   4
ATOM      4  C   UNL     1     -22.999  -3.384  29.174  1.00  0.00    -0.000 C 
BRANCH   4   5
ATOM      5  C   UNL     1     -22.290  -2.906  30.456  1.00  0.00    -0.000 C 
BRANCH   5   6
ATOM      6  C   UNL     1     -21.294  -3.917  31.058  1.00  0.00    -0.000 C 
BRANCH   6   7
ATOM      7  C   UNL     1     -20.581  -4.814  30.028  1.00  0.00    -0.000 C 
BRANCH   7   8
ATOM      8  C   UNL     1     -20.827  -6.322  30.249  1.00  0.00    -0.000 C 
BRANCH   8   9
ATOM      9  C   UNL     1     -22.037  -6.588  31.158  1.00  0.00    -0.000 C 
BRANCH   9  10
ATOM     10  C   UNL     1     -21.868  -7.905  31.926  1.00  0.00    -0.000 C 
BRANCH  10  11
ATOM     11  C   UNL     1     -21.585  -7.644  33.410  1.00  0.00    -0.003 C 
ATOM     12  C   UNL     1     -22.137  -6.290  33.846  1.00  0.00     0.004 C 
ENDBRANCH  10  11
ENDBRANCH   9  10
ENDBRANCH   8   9
ENDBRANCH   7   8
ENDBRANCH   6   7
ENDBRANCH   5   6
ENDBRANCH   4   5
ENDBRANCH   3   4
ENDBRANCH   2   3
ENDBRANCH   1   2
BRANCH   1  13
ATOM     13  C   UNL     1     -23.475  -0.222  26.320  1.00  0.00     0.000 C 
BRANCH  13  14
ATOM     14  C   UNL     1     -22.248   0.508  25.746  1.00  0.00     0.000 C 
BRANCH  14  15
ATOM     15  C   UNL     1     -20.938  -0.266  25.968  1.00  0.00     0.000 C 
BRANCH  15  16
ATOM     16  C   UNL     1     -19.859   0.578  26.668  1.00  0.00     0.000 C 
BRANCH  16  17
ATOM     17  C   UNL     1     -20.333   1.329  27.929  1.00  0.00     0.000 C 
BRANCH  17  18
ATOM     18  C   UNL     1     -20.363   0.455  29.200  1.00  0.00     0.000 C 
BRANCH  18  19
ATOM     19  C   UNL     1     -19.503  -0.811  29.053  1.00  0.00     0.000 C 
BRANCH  19  20
ATOM     20  C   UNL     1     -18.094  -0.656  29.656  1.00  0.00     0.006 C 
BRANCH  20  21
ATOM     21  C   UNL     1     -17.565  -1.932  30.333  1.00  0.00     0.053 C 
BRANCH  21  22
ATOM     22  C   UNL     1     -17.501  -1.811  31.823  1.00  0.00     0.041 C 
ATOM     23  O   UNL     1     -16.865  -0.863  32.356  1.00  0.00    -0.550 OA
ATOM     24  O   UNL     1     -18.131  -2.754  32.627  1.00  0.00    -0.550 OA
ENDBRANCH  21  22
ENDBRANCH  20  21
ENDBRANCH  19  20
ENDBRANCH  18  19
ENDBRANCH  17  18
ENDBRANCH  16  17
ENDBRANCH  15  16
ENDBRANCH  14  15
ENDBRANCH  13  14
ENDBRANCH   1  13
TORSDOF 20
ENDMDL
