MODEL 1
REMARK VINA RESULT:    -6.657      0.000      0.000
REMARK INTER + INTRA:          -8.343
REMARK INTER:                  -8.020
REMARK INTRA:                  -0.323
REMARK UNBOUND:                -0.323
REMARK SMILES O=c1c(O)c(-c2ccc(O)c(O)c2)oc2cc(O)cc(O)c12
REMARK SMILES IDX 5 1 3 2 2 3 1 4 22 5 20 6 19 7 17 8 16 9 15 10 14 11 6 12
REMARK SMILES IDX 7 13 8 14 9 15 13 16 11 17 10 18 12 20 4 22 21 24 18 26
REMARK H PARENT 10 19 12 21 4 23 21 25 18 27
REMARK Flexibility Score: inf
ROOT
ATOM      1  C   UNL     1      20.677  30.684 -21.735  1.00  0.00     0.180 A 
ATOM      2  C   UNL     1      21.268  31.911 -22.083  1.00  0.00     0.208 A 
ATOM      3  C   UNL     1      21.515  32.187 -23.438  1.00  0.00     0.238 A 
ATOM      4  O   UNL     1      22.094  33.264 -23.739  1.00  0.00    -0.285 OA
ATOM      5  C   UNL     1      21.153  31.242 -24.428  1.00  0.00     0.111 A 
ATOM      6  C   UNL     1      21.320  31.435 -25.832  1.00  0.00     0.134 A 
ATOM      7  C   UNL     1      21.047  30.380 -26.711  1.00  0.00     0.093 A 
ATOM      8  C   UNL     1      20.552  29.161 -26.241  1.00  0.00     0.123 A 
ATOM      9  C   UNL     1      20.329  28.983 -24.878  1.00  0.00     0.094 A 
ATOM     10  C   UNL     1      20.627  30.005 -23.972  1.00  0.00     0.146 A 
ATOM     11  O   UNL     1      20.409  29.791 -22.681  1.00  0.00    -0.452 OA
ENDROOT
BRANCH   1  12
ATOM     12  C   UNL     1      20.363  30.331 -20.332  1.00  0.00     0.025 A 
ATOM     13  C   UNL     1      19.184  30.776 -19.711  1.00  0.00     0.016 A 
ATOM     14  C   UNL     1      18.897  30.410 -18.394  1.00  0.00     0.051 A 
ATOM     15  C   UNL     1      19.777  29.586 -17.681  1.00  0.00     0.157 A 
ATOM     16  C   UNL     1      21.232  29.487 -19.620  1.00  0.00     0.062 A 
ATOM     17  C   UNL     1      20.949  29.119 -18.300  1.00  0.00     0.158 A 
BRANCH  15  18
ATOM     18  O   UNL     1      19.489  29.224 -16.365  1.00  0.00    -0.504 OA
ATOM     19  H   UNL     1      19.519  29.899 -15.611  1.00  0.00     0.293 HD
ENDBRANCH  15  18
BRANCH  17  20
ATOM     20  O   UNL     1      21.842  28.291 -17.621  1.00  0.00    -0.504 OA
ATOM     21  H   UNL     1      22.845  28.356 -17.755  1.00  0.00     0.293 HD
ENDBRANCH  17  20
ENDBRANCH   1  12
BRANCH   2  22
ATOM     22  O   UNL     1      21.638  32.821 -21.090  1.00  0.00    -0.502 OA
ATOM     23  H   UNL     1      21.158  33.703 -20.953  1.00  0.00     0.293 HD
ENDBRANCH   2  22
BRANCH   6  24
ATOM     24  O   UNL     1      21.720  32.643 -26.412  1.00  0.00    -0.507 OA
ATOM     25  H   UNL     1      22.552  32.766 -26.968  1.00  0.00     0.293 HD
ENDBRANCH   6  24
BRANCH   8  26
ATOM     26  O   UNL     1      20.268  28.121 -27.125  1.00  0.00    -0.508 OA
ATOM     27  H   UNL     1      20.940  27.819 -27.821  1.00  0.00     0.293 HD
ENDBRANCH   8  26
TORSDOF 6
ENDMDL
MODEL 2
REMARK VINA RESULT:    -6.157     21.410     23.437
REMARK INTER + INTRA:          -7.739
REMARK INTER:                  -7.424
REMARK INTRA:                  -0.316
REMARK UNBOUND:                -0.323
REMARK SMILES O=c1c(O)c(-c2ccc(O)c(O)c2)oc2cc(O)cc(O)c12
REMARK SMILES IDX 5 1 3 2 2 3 1 4 22 5 20 6 19 7 17 8 16 9 15 10 14 11 6 12
REMARK SMILES IDX 7 13 8 14 9 15 13 16 11 17 10 18 12 20 4 22 21 24 18 26
REMARK H PARENT 10 19 12 21 4 23 21 25 18 27
REMARK Flexibility Score: inf
ROOT
ATOM      1  C   UNL     1       5.261  21.686  -8.437  1.00  0.00     0.180 A 
ATOM      2  C   UNL     1       6.563  21.217  -8.680  1.00  0.00     0.208 A 
ATOM      3  C   UNL     1       6.804  19.833  -8.653  1.00  0.00     0.238 A 
ATOM      4  O   UNL     1       7.982  19.422  -8.817  1.00  0.00    -0.285 OA
ATOM      5  C   UNL     1       5.738  18.937  -8.400  1.00  0.00     0.111 A 
ATOM      6  C   UNL     1       5.860  17.515  -8.389  1.00  0.00     0.134 A 
ATOM      7  C   UNL     1       4.767  16.731  -7.998  1.00  0.00     0.093 A 
ATOM      8  C   UNL     1       3.539  17.316  -7.680  1.00  0.00     0.123 A 
ATOM      9  C   UNL     1       3.393  18.699  -7.746  1.00  0.00     0.094 A 
ATOM     10  C   UNL     1       4.475  19.510  -8.098  1.00  0.00     0.146 A 
ATOM     11  O   UNL     1       4.296  20.825  -8.138  1.00  0.00    -0.452 OA
ENDROOT
BRANCH   1  12
ATOM     12  C   UNL     1       4.924  23.128  -8.474  1.00  0.00     0.025 A 
ATOM     13  C   UNL     1       5.111  23.953  -7.352  1.00  0.00     0.016 A 
ATOM     14  C   UNL     1       4.809  25.315  -7.417  1.00  0.00     0.051 A 
ATOM     15  C   UNL     1       4.328  25.876  -8.608  1.00  0.00     0.157 A 
ATOM     16  C   UNL     1       4.462  23.700  -9.671  1.00  0.00     0.062 A 
ATOM     17  C   UNL     1       4.158  25.064  -9.741  1.00  0.00     0.158 A 
BRANCH  15  18
ATOM     18  O   UNL     1       4.025  27.236  -8.670  1.00  0.00    -0.504 OA
ATOM     19  H   UNL     1       4.705  27.942  -8.415  1.00  0.00     0.293 HD
ENDBRANCH  15  18
BRANCH  17  20
ATOM     20  O   UNL     1       3.689  25.592 -10.943  1.00  0.00    -0.504 OA
ATOM     21  H   UNL     1       3.826  25.119 -11.829  1.00  0.00     0.293 HD
ENDBRANCH  17  20
ENDBRANCH   1  12
BRANCH   2  22
ATOM     22  O   UNL     1       7.605  22.119  -8.907  1.00  0.00    -0.502 OA
ATOM     23  H   UNL     1       7.445  23.106  -9.072  1.00  0.00     0.293 HD
ENDBRANCH   2  22
BRANCH   6  24
ATOM     24  O   UNL     1       7.014  16.828  -8.777  1.00  0.00    -0.507 OA
ATOM     25  H   UNL     1       7.659  17.143  -9.485  1.00  0.00     0.293 HD
ENDBRANCH   6  24
BRANCH   8  26
ATOM     26  O   UNL     1       2.452  16.528  -7.308  1.00  0.00    -0.508 OA
ATOM     27  H   UNL     1       2.299  16.257  -6.343  1.00  0.00     0.293 HD
ENDBRANCH   8  26
TORSDOF 6
ENDMDL
MODEL 3
REMARK VINA RESULT:    -5.941     17.612     21.960
REMARK INTER + INTRA:          -7.480
REMARK INTER:                  -7.163
REMARK INTRA:                  -0.317
REMARK UNBOUND:                -0.323
REMARK SMILES O=c1c(O)c(-c2ccc(O)c(O)c2)oc2cc(O)cc(O)c12
REMARK SMILES IDX 5 1 3 2 2 3 1 4 22 5 20 6 19 7 17 8 16 9 15 10 14 11 6 12
REMARK SMILES IDX 7 13 8 14 9 15 13 16 11 17 10 18 12 20 4 22 21 24 18 26
REMARK H PARENT 10 19 12 21 4 23 21 25 18 27
REMARK Flexibility Score: inf
ROOT
ATOM      1  C   UNL     1       5.567  23.347 -10.018  1.00  0.00     0.180 A 
ATOM      2  C   UNL     1       4.191  23.531  -9.797  1.00  0.00     0.208 A 
ATOM      3  C   UNL     1       3.497  22.598  -9.009  1.00  0.00     0.238 A 
ATOM      4  O   UNL     1       2.255  22.738  -8.860  1.00  0.00    -0.285 OA
ATOM      5  C   UNL     1       4.190  21.503  -8.439  1.00  0.00     0.111 A 
ATOM      6  C   UNL     1       3.595  20.521  -7.591  1.00  0.00     0.134 A 
ATOM      7  C   UNL     1       4.346  19.409  -7.190  1.00  0.00     0.093 A 
ATOM      8  C   UNL     1       5.689  19.279  -7.553  1.00  0.00     0.123 A 
ATOM      9  C   UNL     1       6.295  20.262  -8.330  1.00  0.00     0.094 A 
ATOM     10  C   UNL     1       5.561  21.365  -8.776  1.00  0.00     0.146 A 
ATOM     11  O   UNL     1       6.175  22.275  -9.523  1.00  0.00    -0.452 OA
ENDROOT
BRANCH   1  12
ATOM     12  C   UNL     1       6.371  24.300 -10.815  1.00  0.00     0.025 A 
ATOM     13  C   UNL     1       7.113  25.324 -10.202  1.00  0.00     0.016 A 
ATOM     14  C   UNL     1       7.884  26.197 -10.974  1.00  0.00     0.051 A 
ATOM     15  C   UNL     1       7.935  26.053 -12.367  1.00  0.00     0.157 A 
ATOM     16  C   UNL     1       6.443  24.147 -12.210  1.00  0.00     0.062 A 
ATOM     17  C   UNL     1       7.213  25.020 -12.987  1.00  0.00     0.158 A 
BRANCH  15  18
ATOM     18  O   UNL     1       8.704  26.928 -13.134  1.00  0.00    -0.504 OA
ATOM     19  H   UNL     1       9.679  27.102 -12.923  1.00  0.00     0.293 HD
ENDBRANCH  15  18
BRANCH  17  20
ATOM     20  O   UNL     1       7.249  24.844 -14.370  1.00  0.00    -0.504 OA
ATOM     21  H   UNL     1       6.997  23.965 -14.807  1.00  0.00     0.293 HD
ENDBRANCH  17  20
ENDBRANCH   1  12
BRANCH   2  22
ATOM     22  O   UNL     1       3.522  24.606 -10.387  1.00  0.00    -0.502 OA
ATOM     23  H   UNL     1       2.687  24.486 -10.949  1.00  0.00     0.293 HD
ENDBRANCH   2  22
BRANCH   6  24
ATOM     24  O   UNL     1       2.290  20.604  -7.097  1.00  0.00    -0.507 OA
ATOM     25  H   UNL     1       2.043  20.581  -6.119  1.00  0.00     0.293 HD
ENDBRANCH   6  24
BRANCH   8  26
ATOM     26  O   UNL     1       6.434  18.177  -7.136  1.00  0.00    -0.508 OA
ATOM     27  H   UNL     1       6.886  17.560  -7.801  1.00  0.00     0.293 HD
ENDBRANCH   8  26
TORSDOF 6
ENDMDL
MODEL 4
REMARK VINA RESULT:    -5.744     17.154     20.746
REMARK INTER + INTRA:          -7.243
REMARK INTER:                  -6.954
REMARK INTRA:                  -0.289
REMARK UNBOUND:                -0.323
REMARK SMILES O=c1c(O)c(-c2ccc(O)c(O)c2)oc2cc(O)cc(O)c12
REMARK SMILES IDX 5 1 3 2 2 3 1 4 22 5 20 6 19 7 17 8 16 9 15 10 14 11 6 12
REMARK SMILES IDX 7 13 8 14 9 15 13 16 11 17 10 18 12 20 4 22 21 24 18 26
REMARK H PARENT 10 19 12 21 4 23 21 25 18 27
REMARK Flexibility Score: inf
ROOT
ATOM      1  C   UNL     1       6.202  22.746  -9.199  1.00  0.00     0.180 A 
ATOM      2  C   UNL     1       6.537  23.777  -8.304  1.00  0.00     0.208 A 
ATOM      3  C   UNL     1       6.950  25.017  -8.819  1.00  0.00     0.238 A 
ATOM      4  O   UNL     1       7.300  25.919  -8.013  1.00  0.00    -0.285 OA
ATOM      5  C   UNL     1       7.007  25.215 -10.219  1.00  0.00     0.111 A 
ATOM      6  C   UNL     1       7.372  26.443 -10.850  1.00  0.00     0.134 A 
ATOM      7  C   UNL     1       7.520  26.487 -12.241  1.00  0.00     0.093 A 
ATOM      8  C   UNL     1       7.253  25.364 -13.029  1.00  0.00     0.123 A 
ATOM      9  C   UNL     1       6.839  24.179 -12.429  1.00  0.00     0.094 A 
ATOM     10  C   UNL     1       6.716  24.094 -11.039  1.00  0.00     0.146 A 
ATOM     11  O   UNL     1       6.328  22.942 -10.506  1.00  0.00    -0.452 OA
ENDROOT
BRANCH   1  12
ATOM     12  C   UNL     1       5.734  21.421  -8.733  1.00  0.00     0.025 A 
ATOM     13  C   UNL     1       4.424  21.231  -8.260  1.00  0.00     0.016 A 
ATOM     14  C   UNL     1       3.998  19.966  -7.849  1.00  0.00     0.051 A 
ATOM     15  C   UNL     1       4.868  18.870  -7.914  1.00  0.00     0.157 A 
ATOM     16  C   UNL     1       6.596  20.314  -8.817  1.00  0.00     0.062 A 
ATOM     17  C   UNL     1       6.173  19.045  -8.404  1.00  0.00     0.158 A 
BRANCH  15  18
ATOM     18  O   UNL     1       4.440  17.609  -7.501  1.00  0.00    -0.504 OA
ATOM     19  H   UNL     1       5.098  16.882  -7.248  1.00  0.00     0.293 HD
ENDBRANCH  15  18
BRANCH  17  20
ATOM     20  O   UNL     1       7.061  17.974  -8.490  1.00  0.00    -0.504 OA
ATOM     21  H   UNL     1       7.648  17.698  -7.711  1.00  0.00     0.293 HD
ENDBRANCH  17  20
ENDBRANCH   1  12
BRANCH   2  22
ATOM     22  O   UNL     1       6.494  23.554  -6.926  1.00  0.00    -0.502 OA
ATOM     23  H   UNL     1       7.236  23.853  -6.302  1.00  0.00     0.293 HD
ENDBRANCH   2  22
BRANCH   6  24
ATOM     24  O   UNL     1       7.571  27.644 -10.162  1.00  0.00    -0.507 OA
ATOM     25  H   UNL     1       7.828  27.714  -9.190  1.00  0.00     0.293 HD
ENDBRANCH   6  24
BRANCH   8  26
ATOM     26  O   UNL     1       7.388  25.422 -14.415  1.00  0.00    -0.508 OA
ATOM     27  H   UNL     1       7.995  26.100 -14.861  1.00  0.00     0.293 HD
ENDBRANCH   8  26
TORSDOF 6
ENDMDL
MODEL 5
REMARK VINA RESULT:    -5.731     17.828     20.651
REMARK INTER + INTRA:          -7.226
REMARK INTER:                  -7.001
REMARK INTRA:                  -0.225
REMARK UNBOUND:                -0.323
REMARK SMILES O=c1c(O)c(-c2ccc(O)c(O)c2)oc2cc(O)cc(O)c12
REMARK SMILES IDX 5 1 3 2 2 3 1 4 22 5 20 6 19 7 17 8 16 9 15 10 14 11 6 12
REMARK SMILES IDX 7 13 8 14 9 15 13 16 11 17 10 18 12 20 4 22 21 24 18 26
REMARK H PARENT 10 19 12 21 4 23 21 25 18 27
REMARK Flexibility Score: inf
ROOT
ATOM      1  C   UNL     1       3.685  21.186 -15.599  1.00  0.00     0.180 A 
ATOM      2  C   UNL     1       2.992  22.022 -16.491  1.00  0.00     0.208 A 
ATOM      3  C   UNL     1       3.355  23.375 -16.578  1.00  0.00     0.238 A 
ATOM      4  O   UNL     1       2.694  24.131 -17.338  1.00  0.00    -0.285 OA
ATOM      5  C   UNL     1       4.417  23.872 -15.785  1.00  0.00     0.111 A 
ATOM      6  C   UNL     1       4.896  25.217 -15.822  1.00  0.00     0.134 A 
ATOM      7  C   UNL     1       5.865  25.630 -14.900  1.00  0.00     0.093 A 
ATOM      8  C   UNL     1       6.419  24.731 -13.986  1.00  0.00     0.123 A 
ATOM      9  C   UNL     1       6.001  23.403 -13.981  1.00  0.00     0.094 A 
ATOM     10  C   UNL     1       5.009  22.969 -14.865  1.00  0.00     0.146 A 
ATOM     11  O   UNL     1       4.633  21.696 -14.821  1.00  0.00    -0.452 OA
ENDROOT
BRANCH   1  12
ATOM     12  C   UNL     1       3.377  19.743 -15.470  1.00  0.00     0.025 A 
ATOM     13  C   UNL     1       2.187  19.300 -14.868  1.00  0.00     0.016 A 
ATOM     14  C   UNL     1       1.907  17.934 -14.779  1.00  0.00     0.051 A 
ATOM     15  C   UNL     1       2.804  16.993 -15.301  1.00  0.00     0.157 A 
ATOM     16  C   UNL     1       4.263  18.796 -16.010  1.00  0.00     0.062 A 
ATOM     17  C   UNL     1       3.986  17.427 -15.922  1.00  0.00     0.158 A 
BRANCH  15  18
ATOM     18  O   UNL     1       2.522  15.630 -15.209  1.00  0.00    -0.504 OA
ATOM     19  H   UNL     1       2.737  14.992 -15.965  1.00  0.00     0.293 HD
ENDBRANCH  15  18
BRANCH  17  20
ATOM     20  O   UNL     1       4.896  16.516 -16.459  1.00  0.00    -0.504 OA
ATOM     21  H   UNL     1       4.930  16.310 -17.450  1.00  0.00     0.293 HD
ENDBRANCH  17  20
ENDBRANCH   1  12
BRANCH   2  22
ATOM     22  O   UNL     1       1.932  21.516 -17.249  1.00  0.00    -0.502 OA
ATOM     23  H   UNL     1       2.016  21.320 -18.240  1.00  0.00     0.293 HD
ENDBRANCH   2  22
BRANCH   6  24
ATOM     24  O   UNL     1       4.475  26.169 -16.755  1.00  0.00    -0.507 OA
ATOM     25  H   UNL     1       4.793  27.126 -16.784  1.00  0.00     0.293 HD
ENDBRANCH   6  24
BRANCH   8  26
ATOM     26  O   UNL     1       7.395  25.147 -13.082  1.00  0.00    -0.508 OA
ATOM     27  H   UNL     1       7.249  25.089 -12.081  1.00  0.00     0.293 HD
ENDBRANCH   8  26
TORSDOF 6
ENDMDL
MODEL 6
REMARK VINA RESULT:    -5.633     17.025     19.816
REMARK INTER + INTRA:          -7.109
REMARK INTER:                  -6.785
REMARK INTRA:                  -0.324
REMARK UNBOUND:                -0.323
REMARK SMILES O=c1c(O)c(-c2ccc(O)c(O)c2)oc2cc(O)cc(O)c12
REMARK SMILES IDX 5 1 3 2 2 3 1 4 22 5 20 6 19 7 17 8 16 9 15 10 14 11 6 12
REMARK SMILES IDX 7 13 8 14 9 15 13 16 11 17 10 18 12 20 4 22 21 24 18 26
REMARK H PARENT 10 19 12 21 4 23 21 25 18 27
REMARK Flexibility Score: inf
ROOT
ATOM      1  C   UNL     1       4.880  22.401 -14.708  1.00  0.00     0.180 A 
ATOM      2  C   UNL     1       4.827  23.651 -15.347  1.00  0.00     0.208 A 
ATOM      3  C   UNL     1       5.621  24.700 -14.856  1.00  0.00     0.238 A 
ATOM      4  O   UNL     1       5.529  25.833 -15.398  1.00  0.00    -0.285 OA
ATOM      5  C   UNL     1       6.469  24.482 -13.744  1.00  0.00     0.111 A 
ATOM      6  C   UNL     1       7.346  25.462 -13.188  1.00  0.00     0.134 A 
ATOM      7  C   UNL     1       8.042  25.175 -12.007  1.00  0.00     0.093 A 
ATOM      8  C   UNL     1       7.942  23.921 -11.399  1.00  0.00     0.123 A 
ATOM      9  C   UNL     1       7.136  22.938 -11.967  1.00  0.00     0.094 A 
ATOM     10  C   UNL     1       6.400  23.206 -13.125  1.00  0.00     0.146 A 
ATOM     11  O   UNL     1       5.636  22.245 -13.628  1.00  0.00    -0.452 OA
ENDROOT
BRANCH   1  12
ATOM     12  C   UNL     1       4.093  21.240 -15.183  1.00  0.00     0.025 A 
ATOM     13  C   UNL     1       2.790  20.997 -14.715  1.00  0.00     0.016 A 
ATOM     14  C   UNL     1       2.057  19.910 -15.195  1.00  0.00     0.051 A 
ATOM     15  C   UNL     1       2.609  19.056 -16.160  1.00  0.00     0.157 A 
ATOM     16  C   UNL     1       4.632  20.393 -16.166  1.00  0.00     0.062 A 
ATOM     17  C   UNL     1       3.902  19.302 -16.649  1.00  0.00     0.158 A 
BRANCH  15  18
ATOM     18  O   UNL     1       1.875  17.970 -16.636  1.00  0.00    -0.504 OA
ATOM     19  H   UNL     1       0.867  17.930 -16.546  1.00  0.00     0.293 HD
ENDBRANCH  15  18
BRANCH  17  20
ATOM     20  O   UNL     1       4.477  18.476 -17.615  1.00  0.00    -0.504 OA
ATOM     21  H   UNL     1       4.546  17.473 -17.492  1.00  0.00     0.293 HD
ENDBRANCH  17  20
ENDBRANCH   1  12
BRANCH   2  22
ATOM     22  O   UNL     1       3.968  23.852 -16.430  1.00  0.00    -0.502 OA
ATOM     23  H   UNL     1       2.992  23.580 -16.409  1.00  0.00     0.293 HD
ENDBRANCH   2  22
BRANCH   6  24
ATOM     24  O   UNL     1       7.587  26.711 -13.767  1.00  0.00    -0.507 OA
ATOM     25  H   UNL     1       7.911  27.524 -13.266  1.00  0.00     0.293 HD
ENDBRANCH   6  24
BRANCH   8  26
ATOM     26  O   UNL     1       8.651  23.638 -10.233  1.00  0.00    -0.508 OA
ATOM     27  H   UNL     1       9.354  22.910 -10.204  1.00  0.00     0.293 HD
ENDBRANCH   8  26
TORSDOF 6
ENDMDL
MODEL 7
REMARK VINA RESULT:    -5.626     20.656     22.811
REMARK INTER + INTRA:          -7.100
REMARK INTER:                  -7.049
REMARK INTRA:                  -0.051
REMARK UNBOUND:                -0.323
REMARK SMILES O=c1c(O)c(-c2ccc(O)c(O)c2)oc2cc(O)cc(O)c12
REMARK SMILES IDX 5 1 3 2 2 3 1 4 22 5 20 6 19 7 17 8 16 9 15 10 14 11 6 12
REMARK SMILES IDX 7 13 8 14 9 15 13 16 11 17 10 18 12 20 4 22 21 24 18 26
REMARK H PARENT 10 19 12 21 4 23 21 25 18 27
REMARK Flexibility Score: inf
ROOT
ATOM      1  C   UNL     1       5.722  20.879  -8.155  1.00  0.00     0.180 A 
ATOM      2  C   UNL     1       6.899  21.413  -7.603  1.00  0.00     0.208 A 
ATOM      3  C   UNL     1       7.157  22.786  -7.748  1.00  0.00     0.238 A 
ATOM      4  O   UNL     1       8.238  23.248  -7.300  1.00  0.00    -0.285 OA
ATOM      5  C   UNL     1       6.227  23.610  -8.426  1.00  0.00     0.111 A 
ATOM      6  C   UNL     1       6.366  25.020  -8.595  1.00  0.00     0.134 A 
ATOM      7  C   UNL     1       5.451  25.714  -9.396  1.00  0.00     0.093 A 
ATOM      8  C   UNL     1       4.364  25.058  -9.980  1.00  0.00     0.123 A 
ATOM      9  C   UNL     1       4.185  23.693  -9.771  1.00  0.00     0.094 A 
ATOM     10  C   UNL     1       5.103  22.967  -9.007  1.00  0.00     0.146 A 
ATOM     11  O   UNL     1       4.901  21.665  -8.841  1.00  0.00    -0.452 OA
ENDROOT
BRANCH   1  12
ATOM     12  C   UNL     1       5.369  19.447  -8.022  1.00  0.00     0.025 A 
ATOM     13  C   UNL     1       4.142  19.043  -7.467  1.00  0.00     0.016 A 
ATOM     14  C   UNL     1       3.821  17.687  -7.374  1.00  0.00     0.051 A 
ATOM     15  C   UNL     1       4.714  16.715  -7.845  1.00  0.00     0.157 A 
ATOM     16  C   UNL     1       6.250  18.469  -8.511  1.00  0.00     0.062 A 
ATOM     17  C   UNL     1       5.933  17.109  -8.419  1.00  0.00     0.158 A 
BRANCH  15  18
ATOM     18  O   UNL     1       4.391  15.362  -7.749  1.00  0.00    -0.504 OA
ATOM     19  H   UNL     1       3.509  15.053  -7.359  1.00  0.00     0.293 HD
ENDBRANCH  15  18
BRANCH  17  20
ATOM     20  O   UNL     1       6.840  16.168  -8.905  1.00  0.00    -0.504 OA
ATOM     21  H   UNL     1       7.038  16.071  -9.894  1.00  0.00     0.293 HD
ENDBRANCH  17  20
ENDBRANCH   1  12
BRANCH   2  22
ATOM     22  O   UNL     1       7.814  20.578  -6.956  1.00  0.00    -0.502 OA
ATOM     23  H   UNL     1       7.655  19.585  -6.837  1.00  0.00     0.293 HD
ENDBRANCH   2  22
BRANCH   6  24
ATOM     24  O   UNL     1       7.362  25.785  -7.981  1.00  0.00    -0.507 OA
ATOM     25  H   UNL     1       7.280  26.214  -7.072  1.00  0.00     0.293 HD
ENDBRANCH   6  24
BRANCH   8  26
ATOM     26  O   UNL     1       3.448  25.759 -10.763  1.00  0.00    -0.508 OA
ATOM     27  H   UNL     1       3.744  26.307 -11.562  1.00  0.00     0.293 HD
ENDBRANCH   8  26
TORSDOF 6
ENDMDL
MODEL 8
REMARK VINA RESULT:    -5.483     15.957     20.467
REMARK INTER + INTRA:          -6.928
REMARK INTER:                  -6.620
REMARK INTRA:                  -0.308
REMARK UNBOUND:                -0.323
REMARK SMILES O=c1c(O)c(-c2ccc(O)c(O)c2)oc2cc(O)cc(O)c12
REMARK SMILES IDX 5 1 3 2 2 3 1 4 22 5 20 6 19 7 17 8 16 9 15 10 14 11 6 12
REMARK SMILES IDX 7 13 8 14 9 15 13 16 11 17 10 18 12 20 4 22 21 24 18 26
REMARK H PARENT 10 19 12 21 4 23 21 25 18 27
REMARK Flexibility Score: inf
ROOT
ATOM      1  C   UNL     1       6.666  25.041 -10.455  1.00  0.00     0.180 A 
ATOM      2  C   UNL     1       5.311  24.732 -10.667  1.00  0.00     0.208 A 
ATOM      3  C   UNL     1       4.757  23.618 -10.015  1.00  0.00     0.238 A 
ATOM      4  O   UNL     1       3.558  23.314 -10.251  1.00  0.00    -0.285 OA
ATOM      5  C   UNL     1       5.558  22.839  -9.147  1.00  0.00     0.111 A 
ATOM      6  C   UNL     1       5.090  21.714  -8.402  1.00  0.00     0.134 A 
ATOM      7  C   UNL     1       6.002  20.939  -7.676  1.00  0.00     0.093 A 
ATOM      8  C   UNL     1       7.354  21.287  -7.614  1.00  0.00     0.123 A 
ATOM      9  C   UNL     1       7.809  22.416  -8.288  1.00  0.00     0.094 A 
ATOM     10  C   UNL     1       6.930  23.189  -9.051  1.00  0.00     0.146 A 
ATOM     11  O   UNL     1       7.408  24.253  -9.686  1.00  0.00    -0.452 OA
ENDROOT
BRANCH   1  12
ATOM     12  C   UNL     1       7.315  26.212 -11.087  1.00  0.00     0.025 A 
ATOM     13  C   UNL     1       8.037  26.091 -12.286  1.00  0.00     0.016 A 
ATOM     14  C   UNL     1       8.620  27.214 -12.877  1.00  0.00     0.051 A 
ATOM     15  C   UNL     1       8.480  28.477 -12.286  1.00  0.00     0.157 A 
ATOM     16  C   UNL     1       7.159  27.484 -10.511  1.00  0.00     0.062 A 
ATOM     17  C   UNL     1       7.742  28.612 -11.098  1.00  0.00     0.158 A 
BRANCH  15  18
ATOM     18  O   UNL     1       9.065  29.597 -12.877  1.00  0.00    -0.504 OA
ATOM     19  H   UNL     1       8.582  30.136 -13.584  1.00  0.00     0.293 HD
ENDBRANCH  15  18
BRANCH  17  20
ATOM     20  O   UNL     1       7.576  29.855 -10.489  1.00  0.00    -0.504 OA
ATOM     21  H   UNL     1       6.660  30.255 -10.321  1.00  0.00     0.293 HD
ENDBRANCH  17  20
ENDBRANCH   1  12
BRANCH   2  22
ATOM     22  O   UNL     1       4.544  25.501 -11.545  1.00  0.00    -0.502 OA
ATOM     23  H   UNL     1       3.531  25.466 -11.557  1.00  0.00     0.293 HD
ENDBRANCH   2  22
BRANCH   6  24
ATOM     24  O   UNL     1       3.746  21.337  -8.323  1.00  0.00    -0.507 OA
ATOM     25  H   UNL     1       3.349  20.776  -7.584  1.00  0.00     0.293 HD
ENDBRANCH   6  24
BRANCH   8  26
ATOM     26  O   UNL     1       8.251  20.518  -6.875  1.00  0.00    -0.508 OA
ATOM     27  H   UNL     1       9.250  20.683  -6.918  1.00  0.00     0.293 HD
ENDBRANCH   8  26
TORSDOF 6
ENDMDL
MODEL 9
REMARK VINA RESULT:    -5.426     18.273     20.375
REMARK INTER + INTRA:          -6.859
REMARK INTER:                  -6.562
REMARK INTRA:                  -0.298
REMARK UNBOUND:                -0.323
REMARK SMILES O=c1c(O)c(-c2ccc(O)c(O)c2)oc2cc(O)cc(O)c12
REMARK SMILES IDX 5 1 3 2 2 3 1 4 22 5 20 6 19 7 17 8 16 9 15 10 14 11 6 12
REMARK SMILES IDX 7 13 8 14 9 15 13 16 11 17 10 18 12 20 4 22 21 24 18 26
REMARK H PARENT 10 19 12 21 4 23 21 25 18 27
REMARK Flexibility Score: inf
ROOT
ATOM      1  C   UNL     1       3.453  20.979 -16.706  1.00  0.00     0.180 A 
ATOM      2  C   UNL     1       3.623  22.116 -15.896  1.00  0.00     0.208 A 
ATOM      3  C   UNL     1       3.760  23.373 -16.508  1.00  0.00     0.238 A 
ATOM      4  O   UNL     1       3.967  24.379 -15.780  1.00  0.00    -0.285 OA
ATOM      5  C   UNL     1       3.709  23.480 -17.918  1.00  0.00     0.111 A 
ATOM      6  C   UNL     1       3.796  24.708 -18.641  1.00  0.00     0.134 A 
ATOM      7  C   UNL     1       3.865  24.682 -20.039  1.00  0.00     0.093 A 
ATOM      8  C   UNL     1       3.785  23.477 -20.742  1.00  0.00     0.123 A 
ATOM      9  C   UNL     1       3.639  22.279 -20.048  1.00  0.00     0.094 A 
ATOM     10  C   UNL     1       3.604  22.269 -18.651  1.00  0.00     0.146 A 
ATOM     11  O   UNL     1       3.475  21.104 -18.028  1.00  0.00    -0.452 OA
ENDROOT
BRANCH   1  12
ATOM     12  C   UNL     1       3.277  19.625 -16.135  1.00  0.00     0.025 A 
ATOM     13  C   UNL     1       2.046  19.211 -15.598  1.00  0.00     0.016 A 
ATOM     14  C   UNL     1       1.897  17.920 -15.087  1.00  0.00     0.051 A 
ATOM     15  C   UNL     1       2.969  17.019 -15.116  1.00  0.00     0.157 A 
ATOM     16  C   UNL     1       4.343  18.711 -16.181  1.00  0.00     0.062 A 
ATOM     17  C   UNL     1       4.198  17.416 -15.669  1.00  0.00     0.158 A 
BRANCH  15  18
ATOM     18  O   UNL     1       2.817  15.731 -14.602  1.00  0.00    -0.504 OA
ATOM     19  H   UNL     1       2.294  15.020 -15.099  1.00  0.00     0.293 HD
ENDBRANCH  15  18
BRANCH  17  20
ATOM     20  O   UNL     1       5.282  16.542 -15.721  1.00  0.00    -0.504 OA
ATOM     21  H   UNL     1       5.279  15.651 -15.236  1.00  0.00     0.293 HD
ENDBRANCH  17  20
ENDBRANCH   1  12
BRANCH   2  22
ATOM     22  O   UNL     1       3.693  21.985 -14.507  1.00  0.00    -0.502 OA
ATOM     23  H   UNL     1       3.962  22.751 -13.901  1.00  0.00     0.293 HD
ENDBRANCH   2  22
BRANCH   6  24
ATOM     24  O   UNL     1       3.790  25.969 -18.039  1.00  0.00    -0.507 OA
ATOM     25  H   UNL     1       3.791  26.132 -17.044  1.00  0.00     0.293 HD
ENDBRANCH   6  24
BRANCH   8  26
ATOM     26  O   UNL     1       3.838  23.462 -22.135  1.00  0.00    -0.508 OA
ATOM     27  H   UNL     1       3.168  22.937 -22.685  1.00  0.00     0.293 HD
ENDBRANCH   8  26
TORSDOF 6
ENDMDL
