MODEL 1
REMARK VINA RESULT:    -5.388      0.000      0.000
REMARK INTER + INTRA:         -11.099
REMARK INTER:                 -10.113
REMARK INTRA:                  -0.986
REMARK UNBOUND:                -0.986
REMARK SMILES CCCCCCCCC=CCCCCCCCC(=O)[O-]
REMARK SMILES IDX 10 1 9 2 11 3 12 4 13 5 14 6 15 7 16 8 17 9 18 10 19 11
REMARK SMILES IDX 20 12 8 13 7 14 6 15 5 16 4 17 3 18 2 19 1 20
REMARK H PARENT
REMARK Flexibility Score: inf
ROOT
ATOM      1  C   UNL     1      21.372 118.446 296.201  1.00  0.00    -0.031 C 
ATOM      2  C   UNL     1      20.990 117.397 296.946  1.00  0.00    -0.031 C 
ENDROOT
BRANCH   1   3
ATOM      3  C   UNL     1      22.743 119.053 296.332  1.00  0.00     0.027 C 
BRANCH   3   4
ATOM      4  C   UNL     1      23.029 120.104 295.247  1.00  0.00     0.004 C 
BRANCH   4   5
ATOM      5  C   UNL     1      24.495 120.144 294.774  1.00  0.00     0.000 C 
BRANCH   5   6
ATOM      6  C   UNL     1      25.158 118.751 294.695  1.00  0.00     0.000 C 
BRANCH   6   7
ATOM      7  C   UNL     1      24.668 117.942 293.482  1.00  0.00     0.000 C 
BRANCH   7   8
ATOM      8  C   UNL     1      24.803 118.713 292.160  1.00  0.00     0.006 C 
BRANCH   8   9
ATOM      9  C   UNL     1      25.442 117.875 291.046  1.00  0.00     0.053 C 
BRANCH   9  10
ATOM     10  C   UNL     1      24.555 117.840 289.841  1.00  0.00     0.041 C 
ATOM     11  O   UNL     1      24.849 118.514 288.818  1.00  0.00    -0.550 OA
ATOM     12  O   UNL     1      23.423 117.032 289.833  1.00  0.00    -0.550 OA
ENDBRANCH   9  10
ENDBRANCH   8   9
ENDBRANCH   7   8
ENDBRANCH   6   7
ENDBRANCH   5   6
ENDBRANCH   4   5
ENDBRANCH   3   4
ENDBRANCH   1   3
BRANCH   2  13
ATOM     13  C   UNL     1      19.620 116.791 296.806  1.00  0.00     0.027 C 
BRANCH  13  14
ATOM     14  C   UNL     1      18.651 117.763 296.117  1.00  0.00     0.004 C 
BRANCH  14  15
ATOM     15  C   UNL     1      17.619 117.047 295.229  1.00  0.00     0.000 C 
BRANCH  15  16
ATOM     16  C   UNL     1      17.585 117.521 293.765  1.00  0.00     0.000 C 
BRANCH  16  17
ATOM     17  C   UNL     1      17.353 116.370 292.768  1.00  0.00    -0.000 C 
BRANCH  17  18
ATOM     18  C   UNL     1      18.387 116.372 291.623  1.00  0.00    -0.000 C 
BRANCH  18  19
ATOM     19  C   UNL     1      17.884 115.695 290.336  1.00  0.00    -0.003 C 
ATOM     20  C   UNL     1      17.149 114.382 290.596  1.00  0.00     0.004 C 
ENDBRANCH  18  19
ENDBRANCH  17  18
ENDBRANCH  16  17
ENDBRANCH  15  16
ENDBRANCH  14  15
ENDBRANCH  13  14
ENDBRANCH   2  13
TORSDOF 15
ENDMDL
MODEL 2
REMARK VINA RESULT:    -5.183      5.206      6.739
REMARK INTER + INTRA:         -10.714
REMARK INTER:                  -9.927
REMARK INTRA:                  -0.787
REMARK UNBOUND:                -0.986
REMARK SMILES CCCCCCCCC=CCCCCCCCC(=O)[O-]
REMARK SMILES IDX 10 1 9 2 11 3 12 4 13 5 14 6 15 7 16 8 17 9 18 10 19 11
REMARK SMILES IDX 20 12 8 13 7 14 6 15 5 16 4 17 3 18 2 19 1 20
REMARK H PARENT
REMARK Flexibility Score: inf
ROOT
ATOM      1  C   UNL     1      21.068 117.466 296.848  1.00  0.00    -0.031 C 
ATOM      2  C   UNL     1      20.087 116.568 297.020  1.00  0.00    -0.031 C 
ENDROOT
BRANCH   1   3
ATOM      3  C   UNL     1      22.487 117.179 297.261  1.00  0.00     0.027 C 
BRANCH   3   4
ATOM      4  C   UNL     1      23.296 118.460 297.525  1.00  0.00     0.004 C 
BRANCH   4   5
ATOM      5  C   UNL     1      22.699 119.371 298.615  1.00  0.00     0.000 C 
BRANCH   5   6
ATOM      6  C   UNL     1      23.757 120.191 299.384  1.00  0.00     0.000 C 
BRANCH   6   7
ATOM      7  C   UNL     1      23.131 121.053 300.494  1.00  0.00     0.000 C 
BRANCH   7   8
ATOM      8  C   UNL     1      24.135 122.033 301.122  1.00  0.00     0.006 C 
BRANCH   8   9
ATOM      9  C   UNL     1      24.656 121.556 302.483  1.00  0.00     0.053 C 
BRANCH   9  10
ATOM     10  C   UNL     1      26.053 121.034 302.356  1.00  0.00     0.041 C 
ATOM     11  O   UNL     1      26.543 120.308 303.261  1.00  0.00    -0.550 OA
ATOM     12  O   UNL     1      26.800 121.315 301.217  1.00  0.00    -0.550 OA
ENDBRANCH   9  10
ENDBRANCH   8   9
ENDBRANCH   7   8
ENDBRANCH   6   7
ENDBRANCH   5   6
ENDBRANCH   4   5
ENDBRANCH   3   4
ENDBRANCH   1   3
BRANCH   2  13
ATOM     13  C   UNL     1      18.672 116.859 296.600  1.00  0.00     0.027 C 
BRANCH  13  14
ATOM     14  C   UNL     1      18.627 117.964 295.533  1.00  0.00     0.004 C 
BRANCH  14  15
ATOM     15  C   UNL     1      17.193 118.313 295.098  1.00  0.00     0.000 C 
BRANCH  15  16
ATOM     16  C   UNL     1      16.868 117.997 293.627  1.00  0.00     0.000 C 
BRANCH  16  17
ATOM     17  C   UNL     1      17.945 117.129 292.950  1.00  0.00    -0.000 C 
BRANCH  17  18
ATOM     18  C   UNL     1      17.335 115.936 292.184  1.00  0.00    -0.000 C 
BRANCH  18  19
ATOM     19  C   UNL     1      18.053 115.621 290.860  1.00  0.00    -0.003 C 
ATOM     20  C   UNL     1      17.383 114.504 290.064  1.00  0.00     0.004 C 
ENDBRANCH  18  19
ENDBRANCH  17  18
ENDBRANCH  16  17
ENDBRANCH  15  16
ENDBRANCH  14  15
ENDBRANCH  13  14
ENDBRANCH   2  13
TORSDOF 15
ENDMDL
MODEL 3
REMARK VINA RESULT:    -5.165      1.950      2.711
REMARK INTER + INTRA:         -10.681
REMARK INTER:                  -9.421
REMARK INTRA:                  -1.260
REMARK UNBOUND:                -0.986
REMARK SMILES CCCCCCCCC=CCCCCCCCC(=O)[O-]
REMARK SMILES IDX 10 1 9 2 11 3 12 4 13 5 14 6 15 7 16 8 17 9 18 10 19 11
REMARK SMILES IDX 20 12 8 13 7 14 6 15 5 16 4 17 3 18 2 19 1 20
REMARK H PARENT
REMARK Flexibility Score: inf
ROOT
ATOM      1  C   UNL     1      19.678 116.986 296.797  1.00  0.00    -0.031 C 
ATOM      2  C   UNL     1      19.356 118.282 296.926  1.00  0.00    -0.031 C 
ENDROOT
BRANCH   1   3
ATOM      3  C   UNL     1      21.055 116.475 297.128  1.00  0.00     0.027 C 
BRANCH   3   4
ATOM      4  C   UNL     1      22.147 117.535 296.907  1.00  0.00     0.004 C 
BRANCH   4   5
ATOM      5  C   UNL     1      22.879 117.416 295.557  1.00  0.00     0.000 C 
BRANCH   5   6
ATOM      6  C   UNL     1      22.293 118.324 294.453  1.00  0.00     0.000 C 
BRANCH   6   7
ATOM      7  C   UNL     1      23.389 118.956 293.577  1.00  0.00     0.000 C 
BRANCH   7   8
ATOM      8  C   UNL     1      24.762 118.978 294.268  1.00  0.00     0.006 C 
BRANCH   8   9
ATOM      9  C   UNL     1      25.865 119.566 293.379  1.00  0.00     0.053 C 
BRANCH   9  10
ATOM     10  C   UNL     1      26.817 118.496 292.947  1.00  0.00     0.041 C 
ATOM     11  O   UNL     1      26.428 117.572 292.184  1.00  0.00    -0.550 OA
ATOM     12  O   UNL     1      28.146 118.541 293.354  1.00  0.00    -0.550 OA
ENDBRANCH   9  10
ENDBRANCH   8   9
ENDBRANCH   7   8
ENDBRANCH   6   7
ENDBRANCH   5   6
ENDBRANCH   4   5
ENDBRANCH   3   4
ENDBRANCH   1   3
BRANCH   2  13
ATOM     13  C   UNL     1      17.976 118.785 296.600  1.00  0.00     0.027 C 
BRANCH  13  14
ATOM     14  C   UNL     1      16.947 117.646 296.634  1.00  0.00     0.004 C 
BRANCH  14  15
ATOM     15  C   UNL     1      16.501 117.203 295.230  1.00  0.00     0.000 C 
BRANCH  15  16
ATOM     16  C   UNL     1      17.007 118.093 294.080  1.00  0.00     0.000 C 
BRANCH  16  17
ATOM     17  C   UNL     1      18.051 117.387 293.193  1.00  0.00    -0.000 C 
BRANCH  17  18
ATOM     18  C   UNL     1      17.446 116.203 292.411  1.00  0.00    -0.000 C 
BRANCH  18  19
ATOM     19  C   UNL     1      18.133 115.942 291.059  1.00  0.00    -0.003 C 
ATOM     20  C   UNL     1      17.429 114.875 290.223  1.00  0.00     0.004 C 
ENDBRANCH  18  19
ENDBRANCH  17  18
ENDBRANCH  16  17
ENDBRANCH  15  16
ENDBRANCH  14  15
ENDBRANCH  13  14
ENDBRANCH   2  13
TORSDOF 15
ENDMDL
MODEL 4
REMARK VINA RESULT:    -5.076      5.066      6.836
REMARK INTER + INTRA:         -10.513
REMARK INTER:                  -8.796
REMARK INTRA:                  -1.717
REMARK UNBOUND:                -0.986
REMARK SMILES CCCCCCCCC=CCCCCCCCC(=O)[O-]
REMARK SMILES IDX 10 1 9 2 11 3 12 4 13 5 14 6 15 7 16 8 17 9 18 10 19 11
REMARK SMILES IDX 20 12 8 13 7 14 6 15 5 16 4 17 3 18 2 19 1 20
REMARK H PARENT
REMARK Flexibility Score: inf
ROOT
ATOM      1  C   UNL     1      15.590 122.165 292.464  1.00  0.00    -0.031 C 
ATOM      2  C   UNL     1      16.060 121.108 293.143  1.00  0.00    -0.031 C 
ENDROOT
BRANCH   1   3
ATOM      3  C   UNL     1      16.442 123.378 292.197  1.00  0.00     0.027 C 
BRANCH   3   4
ATOM      4  C   UNL     1      16.938 124.046 293.491  1.00  0.00     0.004 C 
BRANCH   4   5
ATOM      5  C   UNL     1      18.455 123.920 293.726  1.00  0.00     0.000 C 
BRANCH   5   6
ATOM      6  C   UNL     1      18.831 122.867 294.791  1.00  0.00     0.000 C 
BRANCH   6   7
ATOM      7  C   UNL     1      17.682 122.604 295.780  1.00  0.00     0.000 C 
BRANCH   7   8
ATOM      8  C   UNL     1      18.102 121.698 296.949  1.00  0.00     0.006 C 
BRANCH   8   9
ATOM      9  C   UNL     1      19.428 120.972 296.692  1.00  0.00     0.053 C 
BRANCH   9  10
ATOM     10  C   UNL     1      19.566 119.794 297.604  1.00  0.00     0.041 C 
ATOM     11  O   UNL     1      18.881 118.756 297.406  1.00  0.00    -0.550 OA
ATOM     12  O   UNL     1      20.482 119.828 298.650  1.00  0.00    -0.550 OA
ENDBRANCH   9  10
ENDBRANCH   8   9
ENDBRANCH   7   8
ENDBRANCH   6   7
ENDBRANCH   5   6
ENDBRANCH   4   5
ENDBRANCH   3   4
ENDBRANCH   1   3
BRANCH   2  13
ATOM     13  C   UNL     1      15.206 119.897 293.400  1.00  0.00     0.027 C 
BRANCH  13  14
ATOM     14  C   UNL     1      15.908 118.914 294.349  1.00  0.00     0.004 C 
BRANCH  14  15
ATOM     15  C   UNL     1      17.437 118.905 294.173  1.00  0.00     0.000 C 
BRANCH  15  16
ATOM     16  C   UNL     1      18.040 117.533 293.822  1.00  0.00     0.000 C 
BRANCH  16  17
ATOM     17  C   UNL     1      17.335 116.856 292.632  1.00  0.00    -0.000 C 
BRANCH  17  18
ATOM     18  C   UNL     1      18.338 116.240 291.634  1.00  0.00    -0.000 C 
BRANCH  18  19
ATOM     19  C   UNL     1      17.691 115.777 290.316  1.00  0.00    -0.003 C 
ATOM     20  C   UNL     1      17.259 114.313 290.341  1.00  0.00     0.004 C 
ENDBRANCH  18  19
ENDBRANCH  17  18
ENDBRANCH  16  17
ENDBRANCH  15  16
ENDBRANCH  14  15
ENDBRANCH  13  14
ENDBRANCH   2  13
TORSDOF 15
ENDMDL
MODEL 5
REMARK VINA RESULT:    -5.057      2.755      4.503
REMARK INTER + INTRA:         -10.478
REMARK INTER:                  -9.003
REMARK INTRA:                  -1.474
REMARK UNBOUND:                -0.986
REMARK SMILES CCCCCCCCC=CCCCCCCCC(=O)[O-]
REMARK SMILES IDX 10 1 9 2 11 3 12 4 13 5 14 6 15 7 16 8 17 9 18 10 19 11
REMARK SMILES IDX 20 12 8 13 7 14 6 15 5 16 4 17 3 18 2 19 1 20
REMARK H PARENT
REMARK Flexibility Score: inf
ROOT
ATOM      1  C   UNL     1      18.233 121.252 294.619  1.00  0.00    -0.031 C 
ATOM      2  C   UNL     1      16.971 120.857 294.842  1.00  0.00    -0.031 C 
ENDROOT
BRANCH   1   3
ATOM      3  C   UNL     1      19.189 121.528 295.749  1.00  0.00     0.027 C 
BRANCH   3   4
ATOM      4  C   UNL     1      20.170 120.368 295.988  1.00  0.00     0.004 C 
BRANCH   4   5
ATOM      5  C   UNL     1      19.605 119.231 296.861  1.00  0.00     0.000 C 
BRANCH   5   6
ATOM      6  C   UNL     1      19.957 117.820 296.343  1.00  0.00     0.000 C 
BRANCH   6   7
ATOM      7  C   UNL     1      20.848 117.044 297.328  1.00  0.00     0.000 C 
BRANCH   7   8
ATOM      8  C   UNL     1      22.348 117.229 297.045  1.00  0.00     0.006 C 
BRANCH   8   9
ATOM      9  C   UNL     1      22.640 117.535 295.571  1.00  0.00     0.053 C 
BRANCH   9  10
ATOM     10  C   UNL     1      23.487 118.763 295.449  1.00  0.00     0.041 C 
ATOM     11  O   UNL     1      24.052 119.246 296.465  1.00  0.00    -0.550 OA
ATOM     12  O   UNL     1      23.685 119.351 294.204  1.00  0.00    -0.550 OA
ENDBRANCH   9  10
ENDBRANCH   8   9
ENDBRANCH   7   8
ENDBRANCH   6   7
ENDBRANCH   5   6
ENDBRANCH   4   5
ENDBRANCH   3   4
ENDBRANCH   1   3
BRANCH   2  13
ATOM     13  C   UNL     1      16.023 120.577 293.708  1.00  0.00     0.027 C 
BRANCH  13  14
ATOM     14  C   UNL     1      15.812 119.067 293.522  1.00  0.00     0.004 C 
BRANCH  14  15
ATOM     15  C   UNL     1      16.754 118.221 294.396  1.00  0.00     0.000 C 
BRANCH  15  16
ATOM     16  C   UNL     1      17.838 117.451 293.620  1.00  0.00     0.000 C 
BRANCH  16  17
ATOM     17  C   UNL     1      17.280 116.700 292.398  1.00  0.00    -0.000 C 
BRANCH  17  18
ATOM     18  C   UNL     1      18.399 116.108 291.515  1.00  0.00    -0.000 C 
BRANCH  18  19
ATOM     19  C   UNL     1      17.912 115.640 290.133  1.00  0.00    -0.003 C 
ATOM     20  C   UNL     1      17.173 114.305 290.176  1.00  0.00     0.004 C 
ENDBRANCH  18  19
ENDBRANCH  17  18
ENDBRANCH  16  17
ENDBRANCH  15  16
ENDBRANCH  14  15
ENDBRANCH  13  14
ENDBRANCH   2  13
TORSDOF 15
ENDMDL
MODEL 6
REMARK VINA RESULT:    -5.054      2.078      6.474
REMARK INTER + INTRA:         -10.472
REMARK INTER:                  -9.317
REMARK INTRA:                  -1.155
REMARK UNBOUND:                -0.986
REMARK SMILES CCCCCCCCC=CCCCCCCCC(=O)[O-]
REMARK SMILES IDX 10 1 9 2 11 3 12 4 13 5 14 6 15 7 16 8 17 9 18 10 19 11
REMARK SMILES IDX 20 12 8 13 7 14 6 15 5 16 4 17 3 18 2 19 1 20
REMARK H PARENT
REMARK Flexibility Score: inf
ROOT
ATOM      1  C   UNL     1      19.992 117.493 296.436  1.00  0.00    -0.031 C 
ATOM      2  C   UNL     1      21.215 117.253 296.930  1.00  0.00    -0.031 C 
ENDROOT
BRANCH   1   3
ATOM      3  C   UNL     1      18.831 116.574 296.710  1.00  0.00     0.027 C 
BRANCH   3   4
ATOM      4  C   UNL     1      17.473 117.235 296.419  1.00  0.00     0.004 C 
BRANCH   4   5
ATOM      5  C   UNL     1      17.572 118.683 295.903  1.00  0.00     0.000 C 
BRANCH   5   6
ATOM      6  C   UNL     1      17.369 118.813 294.378  1.00  0.00     0.000 C 
BRANCH   6   7
ATOM      7  C   UNL     1      16.870 117.502 293.744  1.00  0.00     0.000 C 
BRANCH   7   8
ATOM      8  C   UNL     1      17.842 116.946 292.691  1.00  0.00     0.006 C 
BRANCH   8   9
ATOM      9  C   UNL     1      17.302 115.695 291.987  1.00  0.00     0.053 C 
BRANCH   9  10
ATOM     10  C   UNL     1      18.130 115.372 290.783  1.00  0.00     0.041 C 
ATOM     11  O   UNL     1      17.611 114.788 289.795  1.00  0.00    -0.550 OA
ATOM     12  O   UNL     1      19.467 115.752 290.735  1.00  0.00    -0.550 OA
ENDBRANCH   9  10
ENDBRANCH   8   9
ENDBRANCH   7   8
ENDBRANCH   6   7
ENDBRANCH   5   6
ENDBRANCH   4   5
ENDBRANCH   3   4
ENDBRANCH   1   3
BRANCH   2  13
ATOM     13  C   UNL     1      22.369 118.179 296.658  1.00  0.00     0.027 C 
BRANCH  13  14
ATOM     14  C   UNL     1      23.280 117.621 295.555  1.00  0.00     0.004 C 
BRANCH  14  15
ATOM     15  C   UNL     1      22.865 118.082 294.148  1.00  0.00     0.000 C 
BRANCH  15  16
ATOM     16  C   UNL     1      24.002 118.684 293.302  1.00  0.00     0.000 C 
BRANCH  16  17
ATOM     17  C   UNL     1      25.120 117.671 292.996  1.00  0.00    -0.000 C 
BRANCH  17  18
ATOM     18  C   UNL     1      25.449 117.604 291.490  1.00  0.00    -0.000 C 
BRANCH  18  19
ATOM     19  C   UNL     1      24.492 118.429 290.612  1.00  0.00    -0.003 C 
ATOM     20  C   UNL     1      24.726 118.230 289.116  1.00  0.00     0.004 C 
ENDBRANCH  18  19
ENDBRANCH  17  18
ENDBRANCH  16  17
ENDBRANCH  15  16
ENDBRANCH  14  15
ENDBRANCH  13  14
ENDBRANCH   2  13
TORSDOF 15
ENDMDL
MODEL 7
REMARK VINA RESULT:    -5.044      3.728      5.732
REMARK INTER + INTRA:         -10.453
REMARK INTER:                  -8.538
REMARK INTRA:                  -1.916
REMARK UNBOUND:                -0.986
REMARK SMILES CCCCCCCCC=CCCCCCCCC(=O)[O-]
REMARK SMILES IDX 10 1 9 2 11 3 12 4 13 5 14 6 15 7 16 8 17 9 18 10 19 11
REMARK SMILES IDX 20 12 8 13 7 14 6 15 5 16 4 17 3 18 2 19 1 20
REMARK H PARENT
REMARK Flexibility Score: inf
ROOT
ATOM      1  C   UNL     1      16.061 120.264 293.749  1.00  0.00    -0.031 C 
ATOM      2  C   UNL     1      15.180 119.523 294.438  1.00  0.00    -0.031 C 
ENDROOT
BRANCH   1   3
ATOM      3  C   UNL     1      15.625 121.422 292.891  1.00  0.00     0.027 C 
BRANCH   3   4
ATOM      4  C   UNL     1      16.090 122.777 293.450  1.00  0.00     0.004 C 
BRANCH   4   5
ATOM      5  C   UNL     1      16.935 122.676 294.733  1.00  0.00     0.000 C 
BRANCH   5   6
ATOM      6  C   UNL     1      18.326 123.338 294.613  1.00  0.00     0.000 C 
BRANCH   6   7
ATOM      7  C   UNL     1      19.333 122.445 293.867  1.00  0.00     0.000 C 
BRANCH   7   8
ATOM      8  C   UNL     1      19.390 121.016 294.431  1.00  0.00     0.006 C 
BRANCH   8   9
ATOM      9  C   UNL     1      20.172 120.929 295.747  1.00  0.00     0.053 C 
BRANCH   9  10
ATOM     10  C   UNL     1      21.369 120.045 295.588  1.00  0.00     0.041 C 
ATOM     11  O   UNL     1      22.471 120.530 295.217  1.00  0.00    -0.550 OA
ATOM     12  O   UNL     1      21.279 118.690 295.887  1.00  0.00    -0.550 OA
ENDBRANCH   9  10
ENDBRANCH   8   9
ENDBRANCH   7   8
ENDBRANCH   6   7
ENDBRANCH   5   6
ENDBRANCH   4   5
ENDBRANCH   3   4
ENDBRANCH   1   3
BRANCH   2  13
ATOM     13  C   UNL     1      15.623 118.372 295.298  1.00  0.00     0.027 C 
BRANCH  13  14
ATOM     14  C   UNL     1      17.113 118.486 295.653  1.00  0.00     0.004 C 
BRANCH  14  15
ATOM     15  C   UNL     1      17.956 117.346 295.057  1.00  0.00     0.000 C 
BRANCH  15  16
ATOM     16  C   UNL     1      17.193 116.404 294.107  1.00  0.00     0.000 C 
BRANCH  16  17
ATOM     17  C   UNL     1      17.242 116.867 292.639  1.00  0.00    -0.000 C 
BRANCH  17  18
ATOM     18  C   UNL     1      18.565 116.473 291.948  1.00  0.00    -0.000 C 
BRANCH  18  19
ATOM     19  C   UNL     1      18.370 115.616 290.686  1.00  0.00    -0.003 C 
ATOM     20  C   UNL     1      17.216 114.623 290.806  1.00  0.00     0.004 C 
ENDBRANCH  18  19
ENDBRANCH  17  18
ENDBRANCH  16  17
ENDBRANCH  15  16
ENDBRANCH  14  15
ENDBRANCH  13  14
ENDBRANCH   2  13
TORSDOF 15
ENDMDL
MODEL 8
REMARK VINA RESULT:    -5.002      3.501      5.178
REMARK INTER + INTRA:         -10.374
REMARK INTER:                  -8.539
REMARK INTRA:                  -1.835
REMARK UNBOUND:                -0.986
REMARK SMILES CCCCCCCCC=CCCCCCCCC(=O)[O-]
REMARK SMILES IDX 10 1 9 2 11 3 12 4 13 5 14 6 15 7 16 8 17 9 18 10 19 11
REMARK SMILES IDX 20 12 8 13 7 14 6 15 5 16 4 17 3 18 2 19 1 20
REMARK H PARENT
REMARK Flexibility Score: inf
ROOT
ATOM      1  C   UNL     1      16.163 120.296 294.072  1.00  0.00    -0.031 C 
ATOM      2  C   UNL     1      15.517 119.791 295.134  1.00  0.00    -0.031 C 
ENDROOT
BRANCH   1   3
ATOM      3  C   UNL     1      16.452 121.768 293.946  1.00  0.00     0.027 C 
BRANCH   3   4
ATOM      4  C   UNL     1      17.959 122.074 293.919  1.00  0.00     0.004 C 
BRANCH   4   5
ATOM      5  C   UNL     1      18.665 121.897 295.277  1.00  0.00     0.000 C 
BRANCH   5   6
ATOM      6  C   UNL     1      19.466 120.582 295.391  1.00  0.00     0.000 C 
BRANCH   6   7
ATOM      7  C   UNL     1      20.910 120.734 294.884  1.00  0.00     0.000 C 
BRANCH   7   8
ATOM      8  C   UNL     1      21.644 119.388 294.769  1.00  0.00     0.006 C 
BRANCH   8   9
ATOM      9  C   UNL     1      20.798 118.207 295.259  1.00  0.00     0.053 C 
BRANCH   9  10
ATOM     10  C   UNL     1      21.409 117.594 296.480  1.00  0.00     0.041 C 
ATOM     11  O   UNL     1      22.423 116.854 296.377  1.00  0.00    -0.550 OA
ATOM     12  O   UNL     1      20.882 117.872 297.737  1.00  0.00    -0.550 OA
ENDBRANCH   9  10
ENDBRANCH   8   9
ENDBRANCH   7   8
ENDBRANCH   6   7
ENDBRANCH   5   6
ENDBRANCH   4   5
ENDBRANCH   3   4
ENDBRANCH   1   3
BRANCH   2  13
ATOM     13  C   UNL     1      15.237 118.318 295.257  1.00  0.00     0.027 C 
BRANCH  13  14
ATOM     14  C   UNL     1      16.226 117.645 296.220  1.00  0.00     0.004 C 
BRANCH  14  15
ATOM     15  C   UNL     1      17.416 116.994 295.494  1.00  0.00     0.000 C 
BRANCH  15  16
ATOM     16  C   UNL     1      17.124 116.538 294.053  1.00  0.00     0.000 C 
BRANCH  16  17
ATOM     17  C   UNL     1      18.012 117.244 293.011  1.00  0.00    -0.000 C 
BRANCH  17  18
ATOM     18  C   UNL     1      18.313 116.343 291.795  1.00  0.00    -0.000 C 
BRANCH  18  19
ATOM     19  C   UNL     1      17.195 115.332 291.485  1.00  0.00    -0.003 C 
ATOM     20  C   UNL     1      17.424 114.563 290.186  1.00  0.00     0.004 C 
ENDBRANCH  18  19
ENDBRANCH  17  18
ENDBRANCH  16  17
ENDBRANCH  15  16
ENDBRANCH  14  15
ENDBRANCH  13  14
ENDBRANCH   2  13
TORSDOF 15
ENDMDL
MODEL 9
REMARK VINA RESULT:    -4.986      2.686      3.638
REMARK INTER + INTRA:         -10.344
REMARK INTER:                  -9.247
REMARK INTRA:                  -1.097
REMARK UNBOUND:                -0.986
REMARK SMILES CCCCCCCCC=CCCCCCCCC(=O)[O-]
REMARK SMILES IDX 10 1 9 2 11 3 12 4 13 5 14 6 15 7 16 8 17 9 18 10 19 11
REMARK SMILES IDX 20 12 8 13 7 14 6 15 5 16 4 17 3 18 2 19 1 20
REMARK H PARENT
REMARK Flexibility Score: inf
ROOT
ATOM      1  C   UNL     1      20.270 118.309 297.778  1.00  0.00    -0.031 C 
ATOM      2  C   UNL     1      20.370 117.049 297.330  1.00  0.00    -0.031 C 
ENDROOT
BRANCH   1   3
ATOM      3  C   UNL     1      21.479 119.096 298.211  1.00  0.00     0.027 C 
BRANCH   3   4
ATOM      4  C   UNL     1      22.791 118.320 298.009  1.00  0.00     0.004 C 
BRANCH   4   5
ATOM      5  C   UNL     1      23.723 118.322 299.235  1.00  0.00     0.000 C 
BRANCH   5   6
ATOM      6  C   UNL     1      25.171 118.749 298.912  1.00  0.00     0.000 C 
BRANCH   6   7
ATOM      7  C   UNL     1      25.305 120.273 298.744  1.00  0.00     0.000 C 
BRANCH   7   8
ATOM      8  C   UNL     1      25.766 120.676 297.334  1.00  0.00     0.006 C 
BRANCH   8   9
ATOM      9  C   UNL     1      26.053 119.468 296.435  1.00  0.00     0.053 C 
BRANCH   9  10
ATOM     10  C   UNL     1      25.100 119.434 295.282  1.00  0.00     0.041 C 
ATOM     11  O   UNL     1      24.291 120.382 295.100  1.00  0.00    -0.550 OA
ATOM     12  O   UNL     1      25.132 118.373 294.383  1.00  0.00    -0.550 OA
ENDBRANCH   9  10
ENDBRANCH   8   9
ENDBRANCH   7   8
ENDBRANCH   6   7
ENDBRANCH   5   6
ENDBRANCH   4   5
ENDBRANCH   3   4
ENDBRANCH   1   3
BRANCH   2  13
ATOM     13  C   UNL     1      19.160 116.271 296.893  1.00  0.00     0.027 C 
BRANCH  13  14
ATOM     14  C   UNL     1      18.027 117.210 296.451  1.00  0.00     0.004 C 
BRANCH  14  15
ATOM     15  C   UNL     1      17.221 116.653 295.264  1.00  0.00     0.000 C 
BRANCH  15  16
ATOM     16  C   UNL     1      17.212 117.548 294.012  1.00  0.00     0.000 C 
BRANCH  16  17
ATOM     17  C   UNL     1      18.108 117.006 292.883  1.00  0.00    -0.000 C 
BRANCH  17  18
ATOM     18  C   UNL     1      17.288 116.368 291.742  1.00  0.00    -0.000 C 
BRANCH  18  19
ATOM     19  C   UNL     1      18.132 115.518 290.776  1.00  0.00    -0.003 C 
ATOM     20  C   UNL     1      17.360 114.345 290.178  1.00  0.00     0.004 C 
ENDBRANCH  18  19
ENDBRANCH  17  18
ENDBRANCH  16  17
ENDBRANCH  15  16
ENDBRANCH  14  15
ENDBRANCH  13  14
ENDBRANCH   2  13
TORSDOF 15
ENDMDL
