MODEL 1
REMARK VINA RESULT:    -4.563      0.000      0.000
REMARK INTER + INTRA:          -5.028
REMARK INTER:                  -4.963
REMARK INTRA:                  -0.064
REMARK UNBOUND:                -0.064
REMARK SMILES COc1cc2ccc(=O)oc2cc1O
REMARK SMILES IDX 3 1 13 2 12 3 11 4 5 5 4 6 6 7 7 8 8 9 9 10 10 11 2 12 1 13
REMARK SMILES IDX 14 14
REMARK H PARENT 14 15
REMARK Flexibility Score: inf
ROOT
ATOM      1  C   UNL     1      31.290  32.188  24.722  1.00  0.00     0.161 A 
ATOM      2  C   UNL     1      29.919  31.897  24.874  1.00  0.00     0.161 A 
ATOM      3  C   UNL     1      29.498  30.967  25.832  1.00  0.00     0.098 A 
ATOM      4  C   UNL     1      30.429  30.320  26.647  1.00  0.00     0.142 A 
ATOM      5  C   UNL     1      31.803  30.605  26.503  1.00  0.00     0.022 A 
ATOM      6  C   UNL     1      32.229  31.535  25.545  1.00  0.00     0.062 A 
ATOM      7  C   UNL     1      32.711  29.940  27.334  1.00  0.00     0.019 A 
ATOM      8  C   UNL     1      32.238  29.025  28.272  1.00  0.00     0.094 A 
ATOM      9  C   UNL     1      30.861  28.793  28.358  1.00  0.00     0.336 A 
ATOM     10  O   UNL     1      30.413  27.970  29.199  1.00  0.00    -0.246 OA
ATOM     11  O   UNL     1      30.018  29.439  27.556  1.00  0.00    -0.423 OA
ENDROOT
BRANCH   1  12
ATOM     12  O   UNL     1      31.677  33.125  23.751  1.00  0.00    -0.493 OA
ATOM     13  C   UNL     1      32.286  32.794  22.507  1.00  0.00     0.278 C 
ENDBRANCH   1  12
BRANCH   2  14
ATOM     14  O   UNL     1      28.959  32.522  24.079  1.00  0.00    -0.504 OA
ATOM     15  H   UNL     1      28.448  32.026  23.357  1.00  0.00     0.293 HD
ENDBRANCH   2  14
TORSDOF 2
ENDMDL
MODEL 2
REMARK VINA RESULT:    -4.420     13.928     15.967
REMARK INTER + INTRA:          -4.872
REMARK INTER:                  -4.807
REMARK INTRA:                  -0.064
REMARK UNBOUND:                -0.064
REMARK SMILES COc1cc2ccc(=O)oc2cc1O
REMARK SMILES IDX 3 1 13 2 12 3 11 4 5 5 4 6 6 7 7 8 8 9 9 10 10 11 2 12 1 13
REMARK SMILES IDX 14 14
REMARK H PARENT 14 15
REMARK Flexibility Score: inf
ROOT
ATOM      1  C   UNL     1      45.598  27.846  29.123  1.00  0.00     0.161 A 
ATOM      2  C   UNL     1      46.970  28.118  28.946  1.00  0.00     0.161 A 
ATOM      3  C   UNL     1      47.388  29.016  27.956  1.00  0.00     0.098 A 
ATOM      4  C   UNL     1      46.453  29.649  27.135  1.00  0.00     0.142 A 
ATOM      5  C   UNL     1      45.078  29.384  27.304  1.00  0.00     0.022 A 
ATOM      6  C   UNL     1      44.655  28.487  28.294  1.00  0.00     0.062 A 
ATOM      7  C   UNL     1      44.166  30.034  26.466  1.00  0.00     0.019 A 
ATOM      8  C   UNL     1      44.637  30.918  25.497  1.00  0.00     0.094 A 
ATOM      9  C   UNL     1      46.015  31.132  25.387  1.00  0.00     0.336 A 
ATOM     10  O   UNL     1      46.461  31.927  24.518  1.00  0.00    -0.246 OA
ATOM     11  O   UNL     1      46.861  30.501  26.197  1.00  0.00    -0.423 OA
ENDROOT
BRANCH   1  12
ATOM     12  O   UNL     1      45.213  26.942  30.125  1.00  0.00    -0.493 OA
ATOM     13  C   UNL     1      44.938  25.561  29.905  1.00  0.00     0.278 C 
ENDBRANCH   1  12
BRANCH   2  14
ATOM     14  O   UNL     1      47.933  27.506  29.746  1.00  0.00    -0.504 OA
ATOM     15  H   UNL     1      48.036  26.499  29.793  1.00  0.00     0.293 HD
ENDBRANCH   2  14
TORSDOF 2
ENDMDL
MODEL 3
REMARK VINA RESULT:    -4.337     13.285     14.468
REMARK INTER + INTRA:          -4.782
REMARK INTER:                  -4.726
REMARK INTRA:                  -0.056
REMARK UNBOUND:                -0.064
REMARK SMILES COc1cc2ccc(=O)oc2cc1O
REMARK SMILES IDX 3 1 13 2 12 3 11 4 5 5 4 6 6 7 7 8 8 9 9 10 10 11 2 12 1 13
REMARK SMILES IDX 14 14
REMARK H PARENT 14 15
REMARK Flexibility Score: inf
ROOT
ATOM      1  C   UNL     1      45.211  31.196  25.410  1.00  0.00     0.161 A 
ATOM      2  C   UNL     1      46.501  30.637  25.510  1.00  0.00     0.161 A 
ATOM      3  C   UNL     1      46.786  29.698  26.508  1.00  0.00     0.098 A 
ATOM      4  C   UNL     1      45.798  29.306  27.414  1.00  0.00     0.142 A 
ATOM      5  C   UNL     1      44.504  29.858  27.321  1.00  0.00     0.022 A 
ATOM      6  C   UNL     1      44.214  30.799  26.324  1.00  0.00     0.062 A 
ATOM      7  C   UNL     1      43.536  29.445  28.243  1.00  0.00     0.019 A 
ATOM      8  C   UNL     1      43.874  28.506  29.216  1.00  0.00     0.094 A 
ATOM      9  C   UNL     1      45.178  28.001  29.247  1.00  0.00     0.336 A 
ATOM     10  O   UNL     1      45.503  27.152  30.118  1.00  0.00    -0.246 OA
ATOM     11  O   UNL     1      46.080  28.411  28.358  1.00  0.00    -0.423 OA
ENDROOT
BRANCH   1  12
ATOM     12  O   UNL     1      44.959  32.136  24.398  1.00  0.00    -0.493 OA
ATOM     13  C   UNL     1      43.942  32.005  23.409  1.00  0.00     0.278 C 
ENDBRANCH   1  12
BRANCH   2  14
ATOM     14  O   UNL     1      47.514  31.004  24.626  1.00  0.00    -0.504 OA
ATOM     15  H   UNL     1      48.341  31.506  24.928  1.00  0.00     0.293 HD
ENDBRANCH   2  14
TORSDOF 2
ENDMDL
MODEL 4
REMARK VINA RESULT:    -4.112      1.383      1.718
REMARK INTER + INTRA:          -4.537
REMARK INTER:                  -4.472
REMARK INTRA:                  -0.065
REMARK UNBOUND:                -0.064
REMARK SMILES COc1cc2ccc(=O)oc2cc1O
REMARK SMILES IDX 3 1 13 2 12 3 11 4 5 5 4 6 6 7 7 8 8 9 9 10 10 11 2 12 1 13
REMARK SMILES IDX 14 14
REMARK H PARENT 14 15
REMARK Flexibility Score: inf
ROOT
ATOM      1  C   UNL     1      32.970  31.948  25.842  1.00  0.00     0.161 A 
ATOM      2  C   UNL     1      31.636  32.038  25.394  1.00  0.00     0.161 A 
ATOM      3  C   UNL     1      30.678  31.124  25.848  1.00  0.00     0.098 A 
ATOM      4  C   UNL     1      31.032  30.116  26.747  1.00  0.00     0.142 A 
ATOM      5  C   UNL     1      32.363  30.018  27.202  1.00  0.00     0.022 A 
ATOM      6  C   UNL     1      33.326  30.931  26.750  1.00  0.00     0.062 A 
ATOM      7  C   UNL     1      32.686  28.997  28.102  1.00  0.00     0.019 A 
ATOM      8  C   UNL     1      31.693  28.115  28.522  1.00  0.00     0.094 A 
ATOM      9  C   UNL     1      30.393  28.273  28.029  1.00  0.00     0.336 A 
ATOM     10  O   UNL     1      29.481  27.487  28.396  1.00  0.00    -0.246 OA
ATOM     11  O   UNL     1      30.112  29.253  27.173  1.00  0.00    -0.423 OA
ENDROOT
BRANCH   1  12
ATOM     12  O   UNL     1      33.905  32.880  25.366  1.00  0.00    -0.493 OA
ATOM     13  C   UNL     1      34.799  32.647  24.281  1.00  0.00     0.278 C 
ENDBRANCH   1  12
BRANCH   2  14
ATOM     14  O   UNL     1      31.245  33.030  24.496  1.00  0.00    -0.504 OA
ATOM     15  H   UNL     1      31.915  33.595  23.988  1.00  0.00     0.293 HD
ENDBRANCH   2  14
TORSDOF 2
ENDMDL
MODEL 5
REMARK VINA RESULT:    -4.008      1.540      5.184
REMARK INTER + INTRA:          -4.423
REMARK INTER:                  -4.363
REMARK INTRA:                  -0.060
REMARK UNBOUND:                -0.064
REMARK SMILES COc1cc2ccc(=O)oc2cc1O
REMARK SMILES IDX 3 1 13 2 12 3 11 4 5 5 4 6 6 7 7 8 8 9 9 10 10 11 2 12 1 13
REMARK SMILES IDX 14 14
REMARK H PARENT 14 15
REMARK Flexibility Score: inf
ROOT
ATOM      1  C   UNL     1      31.675  28.224  28.786  1.00  0.00     0.161 A 
ATOM      2  C   UNL     1      30.365  28.266  28.267  1.00  0.00     0.161 A 
ATOM      3  C   UNL     1      30.026  29.204  27.284  1.00  0.00     0.098 A 
ATOM      4  C   UNL     1      30.980  30.107  26.810  1.00  0.00     0.142 A 
ATOM      5  C   UNL     1      32.293  30.073  27.323  1.00  0.00     0.022 A 
ATOM      6  C   UNL     1      32.637  29.135  28.306  1.00  0.00     0.062 A 
ATOM      7  C   UNL     1      33.226  30.991  26.827  1.00  0.00     0.019 A 
ATOM      8  C   UNL     1      32.835  31.903  25.849  1.00  0.00     0.094 A 
ATOM      9  C   UNL     1      31.514  31.878  25.387  1.00  0.00     0.336 A 
ATOM     10  O   UNL     1      31.141  32.694  24.504  1.00  0.00    -0.246 OA
ATOM     11  O   UNL     1      30.647  30.995  25.875  1.00  0.00    -0.423 OA
ENDROOT
BRANCH   1  12
ATOM     12  O   UNL     1      31.981  27.271  29.770  1.00  0.00    -0.493 OA
ATOM     13  C   UNL     1      32.904  26.199  29.598  1.00  0.00     0.278 C 
ENDBRANCH   1  12
BRANCH   2  14
ATOM     14  O   UNL     1      29.386  27.381  28.715  1.00  0.00    -0.504 OA
ATOM     15  H   UNL     1      28.398  27.602  28.674  1.00  0.00     0.293 HD
ENDBRANCH   2  14
TORSDOF 2
ENDMDL
MODEL 6
REMARK VINA RESULT:    -3.893      2.885      5.135
REMARK INTER + INTRA:          -4.298
REMARK INTER:                  -4.234
REMARK INTRA:                  -0.064
REMARK UNBOUND:                -0.064
REMARK SMILES COc1cc2ccc(=O)oc2cc1O
REMARK SMILES IDX 3 1 13 2 12 3 11 4 5 5 4 6 6 7 7 8 8 9 9 10 10 11 2 12 1 13
REMARK SMILES IDX 14 14
REMARK H PARENT 14 15
REMARK Flexibility Score: inf
ROOT
ATOM      1  C   UNL     1      31.585  32.197  25.808  1.00  0.00     0.161 A 
ATOM      2  C   UNL     1      31.551  32.441  24.420  1.00  0.00     0.161 A 
ATOM      3  C   UNL     1      32.739  32.677  23.717  1.00  0.00     0.098 A 
ATOM      4  C   UNL     1      33.967  32.673  24.383  1.00  0.00     0.142 A 
ATOM      5  C   UNL     1      34.011  32.429  25.771  1.00  0.00     0.022 A 
ATOM      6  C   UNL     1      32.824  32.193  26.478  1.00  0.00     0.062 A 
ATOM      7  C   UNL     1      35.256  32.432  26.408  1.00  0.00     0.019 A 
ATOM      8  C   UNL     1      36.408  32.672  25.661  1.00  0.00     0.094 A 
ATOM      9  C   UNL     1      36.287  32.906  24.287  1.00  0.00     0.336 A 
ATOM     10  O   UNL     1      37.315  33.125  23.593  1.00  0.00    -0.246 OA
ATOM     11  O   UNL     1      35.090  32.898  23.705  1.00  0.00    -0.423 OA
ENDROOT
BRANCH   1  12
ATOM     12  O   UNL     1      30.375  31.964  26.481  1.00  0.00    -0.493 OA
ATOM     13  C   UNL     1      29.844  30.673  26.765  1.00  0.00     0.278 C 
ENDBRANCH   1  12
BRANCH   2  14
ATOM     14  O   UNL     1      30.345  32.453  23.721  1.00  0.00    -0.504 OA
ATOM     15  H   UNL     1      30.303  32.354  22.713  1.00  0.00     0.293 HD
ENDBRANCH   2  14
TORSDOF 2
ENDMDL
MODEL 7
REMARK VINA RESULT:    -3.874     13.484     15.323
REMARK INTER + INTRA:          -4.278
REMARK INTER:                  -4.216
REMARK INTRA:                  -0.061
REMARK UNBOUND:                -0.064
REMARK SMILES COc1cc2ccc(=O)oc2cc1O
REMARK SMILES IDX 3 1 13 2 12 3 11 4 5 5 4 6 6 7 7 8 8 9 9 10 10 11 2 12 1 13
REMARK SMILES IDX 14 14
REMARK H PARENT 14 15
REMARK Flexibility Score: inf
ROOT
ATOM      1  C   UNL     1      46.156  28.981  28.365  1.00  0.00     0.161 A 
ATOM      2  C   UNL     1      44.830  29.424  28.542  1.00  0.00     0.161 A 
ATOM      3  C   UNL     1      44.195  30.165  27.539  1.00  0.00     0.098 A 
ATOM      4  C   UNL     1      44.867  30.474  26.354  1.00  0.00     0.142 A 
ATOM      5  C   UNL     1      46.194  30.035  26.167  1.00  0.00     0.022 A 
ATOM      6  C   UNL     1      46.833  29.293  27.169  1.00  0.00     0.062 A 
ATOM      7  C   UNL     1      46.840  30.360  24.970  1.00  0.00     0.019 A 
ATOM      8  C   UNL     1      46.161  31.100  24.004  1.00  0.00     0.094 A 
ATOM      9  C   UNL     1      44.845  31.501  24.259  1.00  0.00     0.336 A 
ATOM     10  O   UNL     1      44.214  32.170  23.399  1.00  0.00    -0.246 OA
ATOM     11  O   UNL     1      44.253  31.179  25.406  1.00  0.00    -0.423 OA
ENDROOT
BRANCH   1  12
ATOM     12  O   UNL     1      46.763  28.240  29.391  1.00  0.00    -0.493 OA
ATOM     13  C   UNL     1      46.783  26.817  29.457  1.00  0.00     0.278 C 
ENDBRANCH   1  12
BRANCH   2  14
ATOM     14  O   UNL     1      44.126  29.136  29.711  1.00  0.00    -0.504 OA
ATOM     15  H   UNL     1      44.399  29.510  30.612  1.00  0.00     0.293 HD
ENDBRANCH   2  14
TORSDOF 2
ENDMDL
MODEL 8
REMARK VINA RESULT:    -3.772      2.786      4.316
REMARK INTER + INTRA:          -4.167
REMARK INTER:                  -4.122
REMARK INTRA:                  -0.045
REMARK UNBOUND:                -0.064
REMARK SMILES COc1cc2ccc(=O)oc2cc1O
REMARK SMILES IDX 3 1 13 2 12 3 11 4 5 5 4 6 6 7 7 8 8 9 9 10 10 11 2 12 1 13
REMARK SMILES IDX 14 14
REMARK H PARENT 14 15
REMARK Flexibility Score: inf
ROOT
ATOM      1  C   UNL     1      34.840  32.829  24.592  1.00  0.00     0.161 A 
ATOM      2  C   UNL     1      34.909  32.718  25.995  1.00  0.00     0.161 A 
ATOM      3  C   UNL     1      33.753  32.447  26.738  1.00  0.00     0.098 A 
ATOM      4  C   UNL     1      32.523  32.284  26.097  1.00  0.00     0.142 A 
ATOM      5  C   UNL     1      32.445  32.392  24.693  1.00  0.00     0.022 A 
ATOM      6  C   UNL     1      33.598  32.663  23.947  1.00  0.00     0.062 A 
ATOM      7  C   UNL     1      31.198  32.223  24.081  1.00  0.00     0.019 A 
ATOM      8  C   UNL     1      30.079  31.954  24.868  1.00  0.00     0.094 A 
ATOM      9  C   UNL     1      30.234  31.861  26.256  1.00  0.00     0.336 A 
ATOM     10  O   UNL     1      29.236  31.618  26.984  1.00  0.00    -0.246 OA
ATOM     11  O   UNL     1      31.431  32.025  26.813  1.00  0.00    -0.423 OA
ENDROOT
BRANCH   1  12
ATOM     12  O   UNL     1      36.018  33.102  23.878  1.00  0.00    -0.493 OA
ATOM     13  C   UNL     1      36.251  32.719  22.526  1.00  0.00     0.278 C 
ENDBRANCH   1  12
BRANCH   2  14
ATOM     14  O   UNL     1      36.118  32.875  26.671  1.00  0.00    -0.504 OA
ATOM     15  H   UNL     1      36.943  32.337  26.434  1.00  0.00     0.293 HD
ENDBRANCH   2  14
TORSDOF 2
ENDMDL
MODEL 9
REMARK VINA RESULT:    -1.822     12.269     13.717
REMARK INTER + INTRA:          -2.046
REMARK INTER:                  -2.000
REMARK INTRA:                  -0.046
REMARK UNBOUND:                -0.064
REMARK SMILES COc1cc2ccc(=O)oc2cc1O
REMARK SMILES IDX 3 1 13 2 12 3 11 4 5 5 4 6 6 7 7 8 8 9 9 10 10 11 2 12 1 13
REMARK SMILES IDX 14 14
REMARK H PARENT 14 15
REMARK Flexibility Score: inf
ROOT
ATOM      1  C   UNL     1      45.561  29.119  28.646  1.00  0.00     0.161 A 
ATOM      2  C   UNL     1      44.526  29.723  27.905  1.00  0.00     0.161 A 
ATOM      3  C   UNL     1      43.240  29.170  27.911  1.00  0.00     0.098 A 
ATOM      4  C   UNL     1      42.970  28.016  28.650  1.00  0.00     0.142 A 
ATOM      5  C   UNL     1      43.999  27.404  29.395  1.00  0.00     0.022 A 
ATOM      6  C   UNL     1      45.288  27.955  29.391  1.00  0.00     0.062 A 
ATOM      7  C   UNL     1      43.697  26.250  30.125  1.00  0.00     0.019 A 
ATOM      8  C   UNL     1      42.400  25.741  30.097  1.00  0.00     0.094 A 
ATOM      9  C   UNL     1      41.430  26.402  29.335  1.00  0.00     0.336 A 
ATOM     10  O   UNL     1      40.252  25.959  29.297  1.00  0.00    -0.246 OA
ATOM     11  O   UNL     1      41.743  27.498  28.650  1.00  0.00    -0.423 OA
ENDROOT
BRANCH   1  12
ATOM     12  O   UNL     1      46.839  29.699  28.617  1.00  0.00    -0.493 OA
ATOM     13  C   UNL     1      48.060  28.971  28.707  1.00  0.00     0.278 C 
ENDBRANCH   1  12
BRANCH   2  14
ATOM     14  O   UNL     1      44.756  30.875  27.154  1.00  0.00    -0.504 OA
ATOM     15  H   UNL     1      44.283  31.750  27.348  1.00  0.00     0.293 HD
ENDBRANCH   2  14
TORSDOF 2
ENDMDL
