MODEL 1
REMARK VINA RESULT:    -4.495      0.000      0.000
REMARK INTER + INTRA:          -9.484
REMARK INTER:                  -8.699
REMARK INTRA:                  -0.786
REMARK UNBOUND:                -0.786
REMARK SMILES CCCCCCCCCCCCCCCCCC(=O)[O-]
REMARK SMILES IDX 10 1 11 2 12 3 13 4 14 5 15 6 16 7 17 8 18 9 19 10 20 11
REMARK SMILES IDX 9 12 8 13 7 14 6 15 5 16 4 17 3 18 2 19 1 20
REMARK H PARENT
REMARK Flexibility Score: inf
ROOT
ATOM      1  C   UNL     1      10.394  78.806   1.098  1.00  0.00     0.000 C 
ENDROOT
BRANCH   1   2
ATOM      2  C   UNL     1      10.796  79.552  -0.189  1.00  0.00     0.000 C 
BRANCH   2   3
ATOM      3  C   UNL     1      12.226  80.124  -0.184  1.00  0.00     0.000 C 
BRANCH   3   4
ATOM      4  C   UNL     1      12.964  79.866   1.140  1.00  0.00     0.000 C 
BRANCH   4   5
ATOM      5  C   UNL     1      14.494  79.931   0.990  1.00  0.00     0.000 C 
BRANCH   5   6
ATOM      6  C   UNL     1      15.125  78.745   0.231  1.00  0.00     0.000 C 
BRANCH   6   7
ATOM      7  C   UNL     1      14.804  78.686  -1.277  1.00  0.00     0.006 C 
BRANCH   7   8
ATOM      8  C   UNL     1      14.240  77.339  -1.753  1.00  0.00     0.053 C 
BRANCH   8   9
ATOM      9  C   UNL     1      13.780  76.490  -0.609  1.00  0.00     0.041 C 
ATOM     10  O   UNL     1      12.568  76.486  -0.268  1.00  0.00    -0.550 OA
ATOM     11  O   UNL     1      14.686  75.677   0.063  1.00  0.00    -0.550 OA
ENDBRANCH   8   9
ENDBRANCH   7   8
ENDBRANCH   6   7
ENDBRANCH   5   6
ENDBRANCH   4   5
ENDBRANCH   3   4
ENDBRANCH   2   3
ENDBRANCH   1   2
BRANCH   1  12
ATOM     12  C   UNL     1       9.205  79.415   1.868  1.00  0.00     0.000 C 
BRANCH  12  13
ATOM     13  C   UNL     1       8.048  79.925   0.991  1.00  0.00    -0.000 C 
BRANCH  13  14
ATOM     14  C   UNL     1       6.724  80.044   1.763  1.00  0.00    -0.000 C 
BRANCH  14  15
ATOM     15  C   UNL     1       6.205  78.688   2.274  1.00  0.00    -0.000 C 
BRANCH  15  16
ATOM     16  C   UNL     1       6.003  77.607   1.191  1.00  0.00    -0.000 C 
BRANCH  16  17
ATOM     17  C   UNL     1       5.452  76.262   1.699  1.00  0.00    -0.000 C 
BRANCH  17  18
ATOM     18  C   UNL     1       5.531  75.148   0.643  1.00  0.00    -0.000 C 
BRANCH  18  19
ATOM     19  C   UNL     1       4.491  75.323  -0.475  1.00  0.00    -0.003 C 
ATOM     20  C   UNL     1       4.894  74.628  -1.776  1.00  0.00     0.004 C 
ENDBRANCH  18  19
ENDBRANCH  17  18
ENDBRANCH  16  17
ENDBRANCH  15  16
ENDBRANCH  14  15
ENDBRANCH  13  14
ENDBRANCH  12  13
ENDBRANCH   1  12
TORSDOF 16
ENDMDL
MODEL 2
REMARK VINA RESULT:    -4.424      3.017      7.799
REMARK INTER + INTRA:          -9.348
REMARK INTER:                  -8.172
REMARK INTRA:                  -1.176
REMARK UNBOUND:                -0.786
REMARK SMILES CCCCCCCCCCCCCCCCCC(=O)[O-]
REMARK SMILES IDX 10 1 11 2 12 3 13 4 14 5 15 6 16 7 17 8 18 9 19 10 20 11
REMARK SMILES IDX 9 12 8 13 7 14 6 15 5 16 4 17 3 18 2 19 1 20
REMARK H PARENT
REMARK Flexibility Score: inf
ROOT
ATOM      1  C   UNL     1       9.441  78.647   3.034  1.00  0.00     0.000 C 
ENDROOT
BRANCH   1   2
ATOM      2  C   UNL     1       7.974  78.996   3.353  1.00  0.00     0.000 C 
BRANCH   2   3
ATOM      3  C   UNL     1       7.331  80.020   2.399  1.00  0.00     0.000 C 
BRANCH   3   4
ATOM      4  C   UNL     1       6.156  79.432   1.600  1.00  0.00     0.000 C 
BRANCH   4   5
ATOM      5  C   UNL     1       5.813  77.992   2.020  1.00  0.00     0.000 C 
BRANCH   5   6
ATOM      6  C   UNL     1       5.779  76.967   0.868  1.00  0.00     0.000 C 
BRANCH   6   7
ATOM      7  C   UNL     1       5.315  75.551   1.264  1.00  0.00     0.006 C 
BRANCH   7   8
ATOM      8  C   UNL     1       5.494  74.493   0.164  1.00  0.00     0.053 C 
BRANCH   8   9
ATOM      9  C   UNL     1       4.649  74.789  -1.037  1.00  0.00     0.041 C 
ATOM     10  O   UNL     1       3.498  75.282  -0.897  1.00  0.00    -0.550 OA
ATOM     11  O   UNL     1       5.145  74.552  -2.313  1.00  0.00    -0.550 OA
ENDBRANCH   8   9
ENDBRANCH   7   8
ENDBRANCH   6   7
ENDBRANCH   5   6
ENDBRANCH   4   5
ENDBRANCH   3   4
ENDBRANCH   2   3
ENDBRANCH   1   2
BRANCH   1  12
ATOM     12  C   UNL     1      10.436  79.818   3.150  1.00  0.00     0.000 C 
BRANCH  12  13
ATOM     13  C   UNL     1      11.420  79.961   1.975  1.00  0.00    -0.000 C 
BRANCH  13  14
ATOM     14  C   UNL     1      10.993  79.151   0.740  1.00  0.00    -0.000 C 
BRANCH  14  15
ATOM     15  C   UNL     1      11.628  79.670  -0.564  1.00  0.00    -0.000 C 
BRANCH  15  16
ATOM     16  C   UNL     1      13.134  79.995  -0.482  1.00  0.00    -0.000 C 
BRANCH  16  17
ATOM     17  C   UNL     1      14.070  78.772  -0.467  1.00  0.00    -0.000 C 
BRANCH  17  18
ATOM     18  C   UNL     1      13.826  77.821  -1.650  1.00  0.00    -0.000 C 
BRANCH  18  19
ATOM     19  C   UNL     1      13.661  76.359  -1.205  1.00  0.00    -0.003 C 
ATOM     20  C   UNL     1      14.261  76.087   0.175  1.00  0.00     0.004 C 
ENDBRANCH  18  19
ENDBRANCH  17  18
ENDBRANCH  16  17
ENDBRANCH  15  16
ENDBRANCH  14  15
ENDBRANCH  13  14
ENDBRANCH  12  13
ENDBRANCH   1  12
TORSDOF 16
ENDMDL
MODEL 3
REMARK VINA RESULT:    -4.216      2.878      7.730
REMARK INTER + INTRA:          -8.945
REMARK INTER:                  -8.057
REMARK INTRA:                  -0.888
REMARK UNBOUND:                -0.786
REMARK SMILES CCCCCCCCCCCCCCCCCC(=O)[O-]
REMARK SMILES IDX 10 1 11 2 12 3 13 4 14 5 15 6 16 7 17 8 18 9 19 10 20 11
REMARK SMILES IDX 9 12 8 13 7 14 6 15 5 16 4 17 3 18 2 19 1 20
REMARK H PARENT
REMARK Flexibility Score: inf
ROOT
ATOM      1  C   UNL     1      11.016  78.640   1.269  1.00  0.00     0.000 C 
ENDROOT
BRANCH   1   2
ATOM      2  C   UNL     1       9.997  79.530   2.008  1.00  0.00     0.000 C 
BRANCH   2   3
ATOM      3  C   UNL     1       9.301  78.857   3.205  1.00  0.00     0.000 C 
BRANCH   3   4
ATOM      4  C   UNL     1       7.840  79.310   3.375  1.00  0.00     0.000 C 
BRANCH   4   5
ATOM      5  C   UNL     1       7.182  79.703   2.041  1.00  0.00     0.000 C 
BRANCH   5   6
ATOM      6  C   UNL     1       5.839  79.003   1.746  1.00  0.00     0.000 C 
BRANCH   6   7
ATOM      7  C   UNL     1       5.894  77.461   1.733  1.00  0.00     0.006 C 
BRANCH   7   8
ATOM      8  C   UNL     1       5.423  76.820   0.418  1.00  0.00     0.053 C 
BRANCH   8   9
ATOM      9  C   UNL     1       5.276  75.335   0.542  1.00  0.00     0.041 C 
ATOM     10  O   UNL     1       5.103  74.807   1.672  1.00  0.00    -0.550 OA
ATOM     11  O   UNL     1       5.298  74.536  -0.595  1.00  0.00    -0.550 OA
ENDBRANCH   8   9
ENDBRANCH   7   8
ENDBRANCH   6   7
ENDBRANCH   5   6
ENDBRANCH   4   5
ENDBRANCH   3   4
ENDBRANCH   2   3
ENDBRANCH   1   2
BRANCH   1  12
ATOM     12  C   UNL     1      12.189  79.391   0.608  1.00  0.00     0.000 C 
BRANCH  12  13
ATOM     13  C   UNL     1      13.128  80.125   1.582  1.00  0.00    -0.000 C 
BRANCH  13  14
ATOM     14  C   UNL     1      14.614  79.914   1.247  1.00  0.00    -0.000 C 
BRANCH  14  15
ATOM     15  C   UNL     1      14.856  78.691   0.343  1.00  0.00    -0.000 C 
BRANCH  15  16
ATOM     16  C   UNL     1      15.113  79.010  -1.145  1.00  0.00    -0.000 C 
BRANCH  16  17
ATOM     17  C   UNL     1      14.743  77.885  -2.130  1.00  0.00    -0.000 C 
BRANCH  17  18
ATOM     18  C   UNL     1      13.455  77.145  -1.734  1.00  0.00    -0.000 C 
BRANCH  18  19
ATOM     19  C   UNL     1      13.719  75.992  -0.751  1.00  0.00    -0.003 C 
ATOM     20  C   UNL     1      12.520  75.692   0.148  1.00  0.00     0.004 C 
ENDBRANCH  18  19
ENDBRANCH  17  18
ENDBRANCH  16  17
ENDBRANCH  15  16
ENDBRANCH  14  15
ENDBRANCH  13  14
ENDBRANCH  12  13
ENDBRANCH   1  12
TORSDOF 16
ENDMDL
MODEL 4
REMARK VINA RESULT:    -3.683      1.438      2.000
REMARK INTER + INTRA:          -7.914
REMARK INTER:                  -7.176
REMARK INTRA:                  -0.738
REMARK UNBOUND:                -0.786
REMARK SMILES CCCCCCCCCCCCCCCCCC(=O)[O-]
REMARK SMILES IDX 10 1 11 2 12 3 13 4 14 5 15 6 16 7 17 8 18 9 19 10 20 11
REMARK SMILES IDX 9 12 8 13 7 14 6 15 5 16 4 17 3 18 2 19 1 20
REMARK H PARENT
REMARK Flexibility Score: inf
ROOT
ATOM      1  C   UNL     1       9.496  79.399   3.411  1.00  0.00     0.000 C 
ENDROOT
BRANCH   1   2
ATOM      2  C   UNL     1      10.523  79.815   2.339  1.00  0.00     0.000 C 
BRANCH   2   3
ATOM      3  C   UNL     1      10.371  79.095   0.986  1.00  0.00     0.000 C 
BRANCH   3   4
ATOM      4  C   UNL     1      11.609  79.253   0.087  1.00  0.00     0.000 C 
BRANCH   4   5
ATOM      5  C   UNL     1      12.703  80.124   0.729  1.00  0.00     0.000 C 
BRANCH   5   6
ATOM      6  C   UNL     1      13.840  79.340   1.415  1.00  0.00     0.000 C 
BRANCH   6   7
ATOM      7  C   UNL     1      14.901  78.754   0.460  1.00  0.00     0.006 C 
BRANCH   7   8
ATOM      8  C   UNL     1      14.393  77.605  -0.424  1.00  0.00     0.053 C 
BRANCH   8   9
ATOM      9  C   UNL     1      14.617  77.880  -1.879  1.00  0.00     0.041 C 
ATOM     10  O   UNL     1      15.123  78.973  -2.248  1.00  0.00    -0.550 OA
ATOM     11  O   UNL     1      14.298  76.916  -2.827  1.00  0.00    -0.550 OA
ENDBRANCH   8   9
ENDBRANCH   7   8
ENDBRANCH   6   7
ENDBRANCH   5   6
ENDBRANCH   4   5
ENDBRANCH   3   4
ENDBRANCH   2   3
ENDBRANCH   1   2
BRANCH   1  12
ATOM     12  C   UNL     1       8.160  78.856   2.867  1.00  0.00     0.000 C 
BRANCH  12  13
ATOM     13  C   UNL     1       7.158  79.927   2.400  1.00  0.00    -0.000 C 
BRANCH  13  14
ATOM     14  C   UNL     1       6.034  79.350   1.524  1.00  0.00    -0.000 C 
BRANCH  14  15
ATOM     15  C   UNL     1       6.315  77.907   1.066  1.00  0.00    -0.000 C 
BRANCH  15  16
ATOM     16  C   UNL     1       5.418  76.825   1.702  1.00  0.00    -0.000 C 
BRANCH  16  17
ATOM     17  C   UNL     1       5.494  75.436   1.041  1.00  0.00    -0.000 C 
BRANCH  17  18
ATOM     18  C   UNL     1       4.630  75.333  -0.227  1.00  0.00    -0.000 C 
BRANCH  18  19
ATOM     19  C   UNL     1       5.211  74.348  -1.255  1.00  0.00    -0.003 C 
ATOM     20  C   UNL     1       5.157  74.882  -2.686  1.00  0.00     0.004 C 
ENDBRANCH  18  19
ENDBRANCH  17  18
ENDBRANCH  16  17
ENDBRANCH  15  16
ENDBRANCH  14  15
ENDBRANCH  13  14
ENDBRANCH  12  13
ENDBRANCH   1  12
TORSDOF 16
ENDMDL
MODEL 5
REMARK VINA RESULT:    -3.193      4.651      8.806
REMARK INTER + INTRA:          -6.965
REMARK INTER:                  -5.697
REMARK INTRA:                  -1.268
REMARK UNBOUND:                -0.786
REMARK SMILES CCCCCCCCCCCCCCCCCC(=O)[O-]
REMARK SMILES IDX 10 1 11 2 12 3 13 4 14 5 15 6 16 7 17 8 18 9 19 10 20 11
REMARK SMILES IDX 9 12 8 13 7 14 6 15 5 16 4 17 3 18 2 19 1 20
REMARK H PARENT
REMARK Flexibility Score: inf
ROOT
ATOM      1  C   UNL     1       8.961  80.037   0.937  1.00  0.00     0.000 C 
ENDROOT
BRANCH   1   2
ATOM      2  C   UNL     1       7.439  79.792   0.953  1.00  0.00     0.000 C 
BRANCH   2   3
ATOM      3  C   UNL     1       6.813  79.710   2.357  1.00  0.00     0.000 C 
BRANCH   3   4
ATOM      4  C   UNL     1       7.341  78.518   3.174  1.00  0.00     0.000 C 
BRANCH   4   5
ATOM      5  C   UNL     1       8.106  78.955   4.436  1.00  0.00     0.000 C 
BRANCH   5   6
ATOM      6  C   UNL     1       7.632  78.292   5.746  1.00  0.00     0.000 C 
BRANCH   6   7
ATOM      7  C   UNL     1       6.102  78.183   5.909  1.00  0.00     0.006 C 
BRANCH   7   8
ATOM      8  C   UNL     1       5.647  77.628   7.268  1.00  0.00     0.053 C 
BRANCH   8   9
ATOM      9  C   UNL     1       4.213  77.954   7.552  1.00  0.00     0.041 C 
ATOM     10  O   UNL     1       3.885  78.465   8.655  1.00  0.00    -0.550 OA
ATOM     11  O   UNL     1       3.243  77.723   6.585  1.00  0.00    -0.550 OA
ENDBRANCH   8   9
ENDBRANCH   7   8
ENDBRANCH   6   7
ENDBRANCH   5   6
ENDBRANCH   4   5
ENDBRANCH   3   4
ENDBRANCH   2   3
ENDBRANCH   1   2
BRANCH   1  12
ATOM     12  C   UNL     1       9.646  79.832  -0.429  1.00  0.00     0.000 C 
BRANCH  12  13
ATOM     13  C   UNL     1      11.183  79.916  -0.410  1.00  0.00    -0.000 C 
BRANCH  13  14
ATOM     14  C   UNL     1      11.787  79.464   0.930  1.00  0.00    -0.000 C 
BRANCH  14  15
ATOM     15  C   UNL     1      13.187  80.052   1.183  1.00  0.00    -0.000 C 
BRANCH  15  16
ATOM     16  C   UNL     1      14.114  80.106  -0.050  1.00  0.00    -0.000 C 
BRANCH  16  17
ATOM     17  C   UNL     1      15.034  78.885  -0.234  1.00  0.00    -0.000 C 
BRANCH  17  18
ATOM     18  C   UNL     1      14.891  78.236  -1.621  1.00  0.00    -0.000 C 
BRANCH  18  19
ATOM     19  C   UNL     1      13.624  77.373  -1.737  1.00  0.00    -0.003 C 
ATOM     20  C   UNL     1      13.430  76.438  -0.543  1.00  0.00     0.004 C 
ENDBRANCH  18  19
ENDBRANCH  17  18
ENDBRANCH  16  17
ENDBRANCH  15  16
ENDBRANCH  14  15
ENDBRANCH  13  14
ENDBRANCH  12  13
ENDBRANCH   1  12
TORSDOF 16
ENDMDL
MODEL 6
REMARK VINA RESULT:    -3.119      5.153      7.026
REMARK INTER + INTRA:          -6.823
REMARK INTER:                  -5.866
REMARK INTRA:                  -0.957
REMARK UNBOUND:                -0.786
REMARK SMILES CCCCCCCCCCCCCCCCCC(=O)[O-]
REMARK SMILES IDX 10 1 11 2 12 3 13 4 14 5 15 6 16 7 17 8 18 9 19 10 20 11
REMARK SMILES IDX 9 12 8 13 7 14 6 15 5 16 4 17 3 18 2 19 1 20
REMARK H PARENT
REMARK Flexibility Score: inf
ROOT
ATOM      1  C   UNL     1       7.973  79.018   5.256  1.00  0.00     0.000 C 
ENDROOT
BRANCH   1   2
ATOM      2  C   UNL     1       8.368  78.625   3.820  1.00  0.00     0.000 C 
BRANCH   2   3
ATOM      3  C   UNL     1       7.213  78.651   2.802  1.00  0.00     0.000 C 
BRANCH   3   4
ATOM      4  C   UNL     1       7.499  79.572   1.603  1.00  0.00     0.000 C 
BRANCH   4   5
ATOM      5  C   UNL     1       8.937  80.119   1.603  1.00  0.00     0.000 C 
BRANCH   5   6
ATOM      6  C   UNL     1       9.739  79.843   0.314  1.00  0.00     0.000 C 
BRANCH   6   7
ATOM      7  C   UNL     1      11.270  79.786   0.495  1.00  0.00     0.006 C 
BRANCH   7   8
ATOM      8  C   UNL     1      11.952  78.619  -0.236  1.00  0.00     0.053 C 
BRANCH   8   9
ATOM      9  C   UNL     1      13.444  78.693  -0.135  1.00  0.00     0.041 C 
ATOM     10  O   UNL     1      14.140  77.649  -0.237  1.00  0.00    -0.550 OA
ATOM     11  O   UNL     1      14.069  79.922   0.040  1.00  0.00    -0.550 OA
ENDBRANCH   8   9
ENDBRANCH   7   8
ENDBRANCH   6   7
ENDBRANCH   5   6
ENDBRANCH   4   5
ENDBRANCH   3   4
ENDBRANCH   2   3
ENDBRANCH   1   2
BRANCH   1  12
ATOM     12  C   UNL     1       7.395  77.876   6.116  1.00  0.00     0.000 C 
BRANCH  12  13
ATOM     13  C   UNL     1       5.863  77.877   6.263  1.00  0.00    -0.000 C 
BRANCH  13  14
ATOM     14  C   UNL     1       5.405  77.708   7.721  1.00  0.00    -0.000 C 
BRANCH  14  15
ATOM     15  C   UNL     1       3.890  77.915   7.900  1.00  0.00    -0.000 C 
BRANCH  15  16
ATOM     16  C   UNL     1       3.482  79.197   8.656  1.00  0.00    -0.000 C 
BRANCH  16  17
ATOM     17  C   UNL     1       4.079  79.345  10.068  1.00  0.00    -0.000 C 
BRANCH  17  18
ATOM     18  C   UNL     1       3.466  78.362  11.079  1.00  0.00    -0.000 C 
BRANCH  18  19
ATOM     19  C   UNL     1       4.525  77.475  11.753  1.00  0.00    -0.003 C 
ATOM     20  C   UNL     1       5.922  78.096  11.730  1.00  0.00     0.004 C 
ENDBRANCH  18  19
ENDBRANCH  17  18
ENDBRANCH  16  17
ENDBRANCH  15  16
ENDBRANCH  14  15
ENDBRANCH  13  14
ENDBRANCH  12  13
ENDBRANCH   1  12
TORSDOF 16
ENDMDL
MODEL 7
REMARK VINA RESULT:    -3.074      5.088      9.359
REMARK INTER + INTRA:          -6.734
REMARK INTER:                  -6.121
REMARK INTRA:                  -0.614
REMARK UNBOUND:                -0.786
REMARK SMILES CCCCCCCCCCCCCCCCCC(=O)[O-]
REMARK SMILES IDX 10 1 11 2 12 3 13 4 14 5 15 6 16 7 17 8 18 9 19 10 20 11
REMARK SMILES IDX 9 12 8 13 7 14 6 15 5 16 4 17 3 18 2 19 1 20
REMARK H PARENT
REMARK Flexibility Score: inf
ROOT
ATOM      1  C   UNL     1       7.831  78.445   2.527  1.00  0.00     0.000 C 
ENDROOT
BRANCH   1   2
ATOM      2  C   UNL     1       8.718  78.947   3.684  1.00  0.00     0.000 C 
BRANCH   2   3
ATOM      3  C   UNL     1       7.968  79.220   5.001  1.00  0.00     0.000 C 
BRANCH   3   4
ATOM      4  C   UNL     1       7.641  77.933   5.776  1.00  0.00     0.000 C 
BRANCH   4   5
ATOM      5  C   UNL     1       6.586  78.153   6.875  1.00  0.00     0.000 C 
BRANCH   5   6
ATOM      6  C   UNL     1       5.193  77.566   6.568  1.00  0.00     0.000 C 
BRANCH   6   7
ATOM      7  C   UNL     1       4.168  77.678   7.716  1.00  0.00     0.006 C 
BRANCH   7   8
ATOM      8  C   UNL     1       2.724  77.341   7.312  1.00  0.00     0.053 C 
BRANCH   8   9
ATOM      9  C   UNL     1       2.114  78.419   6.471  1.00  0.00     0.041 C 
ATOM     10  O   UNL     1       1.694  78.160   5.312  1.00  0.00    -0.550 OA
ATOM     11  O   UNL     1       1.980  79.706   6.979  1.00  0.00    -0.550 OA
ENDBRANCH   8   9
ENDBRANCH   7   8
ENDBRANCH   6   7
ENDBRANCH   5   6
ENDBRANCH   4   5
ENDBRANCH   3   4
ENDBRANCH   2   3
ENDBRANCH   1   2
BRANCH   1  12
ATOM     12  C   UNL     1       7.144  79.548   1.698  1.00  0.00     0.000 C 
BRANCH  12  13
ATOM     13  C   UNL     1       7.909  79.993   0.438  1.00  0.00    -0.000 C 
BRANCH  13  14
ATOM     14  C   UNL     1       9.422  80.125   0.676  1.00  0.00    -0.000 C 
BRANCH  14  15
ATOM     15  C   UNL     1      10.262  79.480  -0.441  1.00  0.00    -0.000 C 
BRANCH  15  16
ATOM     16  C   UNL     1      11.757  79.863  -0.450  1.00  0.00    -0.000 C 
BRANCH  16  17
ATOM     17  C   UNL     1      12.651  79.040   0.497  1.00  0.00    -0.000 C 
BRANCH  17  18
ATOM     18  C   UNL     1      14.106  78.944   0.009  1.00  0.00    -0.000 C 
BRANCH  18  19
ATOM     19  C   UNL     1      14.418  77.589  -0.644  1.00  0.00    -0.003 C 
ATOM     20  C   UNL     1      13.209  76.654  -0.682  1.00  0.00     0.004 C 
ENDBRANCH  18  19
ENDBRANCH  17  18
ENDBRANCH  16  17
ENDBRANCH  15  16
ENDBRANCH  14  15
ENDBRANCH  13  14
ENDBRANCH  12  13
ENDBRANCH   1  12
TORSDOF 16
ENDMDL
MODEL 8
REMARK VINA RESULT:    -3.037      3.270      4.757
REMARK INTER + INTRA:          -6.663
REMARK INTER:                  -5.845
REMARK INTRA:                  -0.818
REMARK UNBOUND:                -0.786
REMARK SMILES CCCCCCCCCCCCCCCCCC(=O)[O-]
REMARK SMILES IDX 10 1 11 2 12 3 13 4 14 5 15 6 16 7 17 8 18 9 19 10 20 11
REMARK SMILES IDX 9 12 8 13 7 14 6 15 5 16 4 17 3 18 2 19 1 20
REMARK H PARENT
REMARK Flexibility Score: inf
ROOT
ATOM      1  C   UNL     1       6.894  78.888   2.285  1.00  0.00     0.000 C 
ENDROOT
BRANCH   1   2
ATOM      2  C   UNL     1       6.973  79.132   0.766  1.00  0.00     0.000 C 
BRANCH   2   3
ATOM      3  C   UNL     1       8.066  80.125   0.327  1.00  0.00     0.000 C 
BRANCH   3   4
ATOM      4  C   UNL     1       9.111  79.485  -0.602  1.00  0.00     0.000 C 
BRANCH   4   5
ATOM      5  C   UNL     1      10.504  80.123  -0.457  1.00  0.00     0.000 C 
BRANCH   5   6
ATOM      6  C   UNL     1      11.193  79.883   0.901  1.00  0.00     0.000 C 
BRANCH   6   7
ATOM      7  C   UNL     1      12.721  80.099   0.909  1.00  0.00     0.006 C 
BRANCH   7   8
ATOM      8  C   UNL     1      13.399  79.886  -0.453  1.00  0.00     0.053 C 
BRANCH   8   9
ATOM      9  C   UNL     1      13.729  78.445  -0.692  1.00  0.00     0.041 C 
ATOM     10  O   UNL     1      14.779  78.128  -1.312  1.00  0.00    -0.550 OA
ATOM     11  O   UNL     1      12.893  77.449  -0.202  1.00  0.00    -0.550 OA
ENDBRANCH   8   9
ENDBRANCH   7   8
ENDBRANCH   6   7
ENDBRANCH   5   6
ENDBRANCH   4   5
ENDBRANCH   3   4
ENDBRANCH   2   3
ENDBRANCH   1   2
BRANCH   1  12
ATOM     12  C   UNL     1       8.214  79.093   3.055  1.00  0.00     0.000 C 
BRANCH  12  13
ATOM     13  C   UNL     1       8.062  79.317   4.570  1.00  0.00    -0.000 C 
BRANCH  13  14
ATOM     14  C   UNL     1       7.807  78.011   5.342  1.00  0.00    -0.000 C 
BRANCH  14  15
ATOM     15  C   UNL     1       6.906  78.211   6.574  1.00  0.00    -0.000 C 
BRANCH  15  16
ATOM     16  C   UNL     1       5.434  77.784   6.391  1.00  0.00    -0.000 C 
BRANCH  16  17
ATOM     17  C   UNL     1       4.691  77.416   7.689  1.00  0.00    -0.000 C 
BRANCH  17  18
ATOM     18  C   UNL     1       3.176  77.253   7.483  1.00  0.00    -0.000 C 
BRANCH  18  19
ATOM     19  C   UNL     1       2.541  78.473   6.797  1.00  0.00    -0.003 C 
ATOM     20  C   UNL     1       2.042  78.167   5.384  1.00  0.00     0.004 C 
ENDBRANCH  18  19
ENDBRANCH  17  18
ENDBRANCH  16  17
ENDBRANCH  15  16
ENDBRANCH  14  15
ENDBRANCH  13  14
ENDBRANCH  12  13
ENDBRANCH   1  12
TORSDOF 16
ENDMDL
MODEL 9
REMARK VINA RESULT:    -2.852      6.529     10.613
REMARK INTER + INTRA:          -6.306
REMARK INTER:                  -5.522
REMARK INTRA:                  -0.784
REMARK UNBOUND:                -0.786
REMARK SMILES CCCCCCCCCCCCCCCCCC(=O)[O-]
REMARK SMILES IDX 10 1 11 2 12 3 13 4 14 5 15 6 16 7 17 8 18 9 19 10 20 11
REMARK SMILES IDX 9 12 8 13 7 14 6 15 5 16 4 17 3 18 2 19 1 20
REMARK H PARENT
REMARK Flexibility Score: inf
ROOT
ATOM      1  C   UNL     1       8.014  79.048   4.626  1.00  0.00     0.000 C 
ENDROOT
BRANCH   1   2
ATOM      2  C   UNL     1       7.671  77.883   5.575  1.00  0.00     0.000 C 
BRANCH   2   3
ATOM      3  C   UNL     1       6.750  78.258   6.750  1.00  0.00     0.000 C 
BRANCH   3   4
ATOM      4  C   UNL     1       5.321  77.715   6.582  1.00  0.00     0.000 C 
BRANCH   4   5
ATOM      5  C   UNL     1       4.530  77.705   7.902  1.00  0.00     0.000 C 
BRANCH   5   6
ATOM      6  C   UNL     1       3.382  78.733   7.981  1.00  0.00     0.000 C 
BRANCH   6   7
ATOM      7  C   UNL     1       3.502  79.763   9.123  1.00  0.00     0.006 C 
BRANCH   7   8
ATOM      8  C   UNL     1       4.265  79.256  10.357  1.00  0.00     0.053 C 
BRANCH   8   9
ATOM      9  C   UNL     1       3.342  78.691  11.391  1.00  0.00     0.041 C 
ATOM     10  O   UNL     1       2.374  79.374  11.820  1.00  0.00    -0.550 OA
ATOM     11  O   UNL     1       3.529  77.396  11.858  1.00  0.00    -0.550 OA
ENDBRANCH   8   9
ENDBRANCH   7   8
ENDBRANCH   6   7
ENDBRANCH   5   6
ENDBRANCH   4   5
ENDBRANCH   3   4
ENDBRANCH   2   3
ENDBRANCH   1   2
BRANCH   1  12
ATOM     12  C   UNL     1       7.398  78.952   3.216  1.00  0.00     0.000 C 
BRANCH  12  13
ATOM     13  C   UNL     1       8.158  79.713   2.115  1.00  0.00    -0.000 C 
BRANCH  13  14
ATOM     14  C   UNL     1       9.684  79.650   2.293  1.00  0.00    -0.000 C 
BRANCH  14  15
ATOM     15  C   UNL     1      10.404  79.054   1.069  1.00  0.00    -0.000 C 
BRANCH  15  16
ATOM     16  C   UNL     1      11.488  79.953   0.437  1.00  0.00    -0.000 C 
BRANCH  16  17
ATOM     17  C   UNL     1      12.935  79.625   0.847  1.00  0.00    -0.000 C 
BRANCH  17  18
ATOM     18  C   UNL     1      13.774  79.074  -0.318  1.00  0.00    -0.000 C 
BRANCH  18  19
ATOM     19  C   UNL     1      13.714  77.542  -0.413  1.00  0.00    -0.003 C 
ATOM     20  C   UNL     1      13.599  77.039  -1.852  1.00  0.00     0.004 C 
ENDBRANCH  18  19
ENDBRANCH  17  18
ENDBRANCH  16  17
ENDBRANCH  15  16
ENDBRANCH  14  15
ENDBRANCH  13  14
ENDBRANCH  12  13
ENDBRANCH   1  12
TORSDOF 16
ENDMDL
