MODEL 1
REMARK VINA RESULT:    -3.414      0.000      0.000
REMARK INTER + INTRA:          -8.945
REMARK INTER:                  -6.607
REMARK INTRA:                  -2.338
REMARK UNBOUND:                -2.338
REMARK SMILES CCCCCCCCCCCCCCCCCC(=O)[O-]
REMARK SMILES IDX 10 1 11 2 12 3 13 4 14 5 15 6 16 7 17 8 18 9 19 10 20 11
REMARK SMILES IDX 9 12 8 13 7 14 6 15 5 16 4 17 3 18 2 19 1 20
REMARK H PARENT
REMARK Flexibility Score: inf
ROOT
ATOM      1  C   UNL     1      61.645  28.838  50.378  1.00  0.00     0.000 C 
ENDROOT
BRANCH   1   2
ATOM      2  C   UNL     1      62.083  28.123  51.665  1.00  0.00     0.000 C 
BRANCH   2   3
ATOM      3  C   UNL     1      61.034  28.293  52.772  1.00  0.00     0.000 C 
BRANCH   3   4
ATOM      4  C   UNL     1      60.121  27.064  52.926  1.00  0.00     0.000 C 
BRANCH   4   5
ATOM      5  C   UNL     1      60.697  25.745  52.370  1.00  0.00     0.000 C 
BRANCH   5   6
ATOM      6  C   UNL     1      59.744  24.947  51.461  1.00  0.00     0.000 C 
BRANCH   6   7
ATOM      7  C   UNL     1      60.443  24.394  50.206  1.00  0.00     0.006 C 
BRANCH   7   8
ATOM      8  C   UNL     1      61.663  23.531  50.554  1.00  0.00     0.053 C 
BRANCH   8   9
ATOM      9  C   UNL     1      61.608  22.192  49.887  1.00  0.00     0.041 C 
ATOM     10  O   UNL     1      60.867  22.015  48.885  1.00  0.00    -0.550 OA
ATOM     11  O   UNL     1      62.397  21.149  50.353  1.00  0.00    -0.550 OA
ENDBRANCH   8   9
ENDBRANCH   7   8
ENDBRANCH   6   7
ENDBRANCH   5   6
ENDBRANCH   4   5
ENDBRANCH   3   4
ENDBRANCH   2   3
ENDBRANCH   1   2
BRANCH   1  12
ATOM     12  C   UNL     1      61.077  27.855  49.332  1.00  0.00     0.000 C 
BRANCH  12  13
ATOM     13  C   UNL     1      59.539  27.857  49.254  1.00  0.00    -0.000 C 
BRANCH  13  14
ATOM     14  C   UNL     1      58.942  29.274  49.282  1.00  0.00    -0.000 C 
BRANCH  14  15
ATOM     15  C   UNL     1      57.888  29.460  50.389  1.00  0.00    -0.000 C 
BRANCH  15  16
ATOM     16  C   UNL     1      57.320  28.153  50.975  1.00  0.00    -0.000 C 
BRANCH  16  17
ATOM     17  C   UNL     1      55.960  27.764  50.370  1.00  0.00    -0.000 C 
BRANCH  17  18
ATOM     18  C   UNL     1      55.885  26.260  50.031  1.00  0.00    -0.000 C 
BRANCH  18  19
ATOM     19  C   UNL     1      54.463  25.680  50.118  1.00  0.00    -0.003 C 
ATOM     20  C   UNL     1      53.586  26.061  48.927  1.00  0.00     0.004 C 
ENDBRANCH  18  19
ENDBRANCH  17  18
ENDBRANCH  16  17
ENDBRANCH  15  16
ENDBRANCH  14  15
ENDBRANCH  13  14
ENDBRANCH  12  13
ENDBRANCH   1  12
TORSDOF 16
ENDMDL
MODEL 2
REMARK VINA RESULT:    -3.304      2.348      3.438
REMARK INTER + INTRA:          -8.734
REMARK INTER:                  -7.307
REMARK INTRA:                  -1.427
REMARK UNBOUND:                -2.338
REMARK SMILES CCCCCCCCCCCCCCCCCC(=O)[O-]
REMARK SMILES IDX 10 1 11 2 12 3 13 4 14 5 15 6 16 7 17 8 18 9 19 10 20 11
REMARK SMILES IDX 9 12 8 13 7 14 6 15 5 16 4 17 3 18 2 19 1 20
REMARK H PARENT
REMARK Flexibility Score: inf
ROOT
ATOM      1  C   UNL     1      59.249  25.861  49.837  1.00  0.00     0.000 C 
ENDROOT
BRANCH   1   2
ATOM      2  C   UNL     1      59.385  24.780  50.920  1.00  0.00     0.000 C 
BRANCH   2   3
ATOM      3  C   UNL     1      60.860  24.526  51.261  1.00  0.00     0.000 C 
BRANCH   3   4
ATOM      4  C   UNL     1      61.591  23.704  50.186  1.00  0.00     0.000 C 
BRANCH   4   5
ATOM      5  C   UNL     1      61.669  22.188  50.459  1.00  0.00     0.000 C 
BRANCH   5   6
ATOM      6  C   UNL     1      60.637  21.333  49.702  1.00  0.00     0.000 C 
BRANCH   6   7
ATOM      7  C   UNL     1      60.466  19.929  50.309  1.00  0.00     0.006 C 
BRANCH   7   8
ATOM      8  C   UNL     1      59.025  19.667  50.766  1.00  0.00     0.053 C 
BRANCH   8   9
ATOM      9  C   UNL     1      58.384  18.561  49.984  1.00  0.00     0.041 C 
ATOM     10  O   UNL     1      59.006  18.016  49.037  1.00  0.00    -0.550 OA
ATOM     11  O   UNL     1      57.114  18.115  50.323  1.00  0.00    -0.550 OA
ENDBRANCH   8   9
ENDBRANCH   7   8
ENDBRANCH   6   7
ENDBRANCH   5   6
ENDBRANCH   4   5
ENDBRANCH   3   4
ENDBRANCH   2   3
ENDBRANCH   1   2
BRANCH   1  12
ATOM     12  C   UNL     1      59.999  27.156  50.213  1.00  0.00     0.000 C 
BRANCH  12  13
ATOM     13  C   UNL     1      59.845  28.283  49.175  1.00  0.00    -0.000 C 
BRANCH  13  14
ATOM     14  C   UNL     1      58.623  29.179  49.442  1.00  0.00    -0.000 C 
BRANCH  14  15
ATOM     15  C   UNL     1      58.464  29.549  50.928  1.00  0.00    -0.000 C 
BRANCH  15  16
ATOM     16  C   UNL     1      57.226  28.948  51.621  1.00  0.00    -0.000 C 
BRANCH  16  17
ATOM     17  C   UNL     1      56.151  28.477  50.627  1.00  0.00    -0.000 C 
BRANCH  17  18
ATOM     18  C   UNL     1      55.880  26.962  50.741  1.00  0.00    -0.000 C 
BRANCH  18  19
ATOM     19  C   UNL     1      54.958  26.416  49.637  1.00  0.00    -0.003 C 
ATOM     20  C   UNL     1      53.625  27.155  49.550  1.00  0.00     0.004 C 
ENDBRANCH  18  19
ENDBRANCH  17  18
ENDBRANCH  16  17
ENDBRANCH  15  16
ENDBRANCH  14  15
ENDBRANCH  13  14
ENDBRANCH  12  13
ENDBRANCH   1  12
TORSDOF 16
ENDMDL
MODEL 3
REMARK VINA RESULT:    -3.292      2.584      4.415
REMARK INTER + INTRA:          -8.709
REMARK INTER:                  -6.761
REMARK INTRA:                  -1.948
REMARK UNBOUND:                -2.338
REMARK SMILES CCCCCCCCCCCCCCCCCC(=O)[O-]
REMARK SMILES IDX 10 1 11 2 12 3 13 4 14 5 15 6 16 7 17 8 18 9 19 10 20 11
REMARK SMILES IDX 9 12 8 13 7 14 6 15 5 16 4 17 3 18 2 19 1 20
REMARK H PARENT
REMARK Flexibility Score: inf
ROOT
ATOM      1  C   UNL     1      57.141  30.402  53.773  1.00  0.00     0.000 C 
ENDROOT
BRANCH   1   2
ATOM      2  C   UNL     1      57.493  29.324  52.737  1.00  0.00     0.000 C 
BRANCH   2   3
ATOM      3  C   UNL     1      58.234  29.933  51.539  1.00  0.00     0.000 C 
BRANCH   3   4
ATOM      4  C   UNL     1      57.851  29.276  50.201  1.00  0.00     0.000 C 
BRANCH   4   5
ATOM      5  C   UNL     1      58.974  29.241  49.143  1.00  0.00     0.000 C 
BRANCH   5   6
ATOM      6  C   UNL     1      60.030  28.139  49.345  1.00  0.00     0.000 C 
BRANCH   6   7
ATOM      7  C   UNL     1      59.404  26.760  49.621  1.00  0.00     0.006 C 
BRANCH   7   8
ATOM      8  C   UNL     1      60.304  25.882  50.500  1.00  0.00     0.053 C 
BRANCH   8   9
ATOM      9  C   UNL     1      59.581  24.672  51.005  1.00  0.00     0.041 C 
ATOM     10  O   UNL     1      58.519  24.801  51.668  1.00  0.00    -0.550 OA
ATOM     11  O   UNL     1      60.063  23.402  50.718  1.00  0.00    -0.550 OA
ENDBRANCH   8   9
ENDBRANCH   7   8
ENDBRANCH   6   7
ENDBRANCH   5   6
ENDBRANCH   4   5
ENDBRANCH   3   4
ENDBRANCH   2   3
ENDBRANCH   1   2
BRANCH   1  12
ATOM     12  C   UNL     1      55.658  30.824  53.690  1.00  0.00     0.000 C 
BRANCH  12  13
ATOM     13  C   UNL     1      54.672  29.660  53.895  1.00  0.00    -0.000 C 
BRANCH  13  14
ATOM     14  C   UNL     1      53.444  29.748  52.973  1.00  0.00    -0.000 C 
BRANCH  14  15
ATOM     15  C   UNL     1      53.701  30.591  51.710  1.00  0.00    -0.000 C 
BRANCH  15  16
ATOM     16  C   UNL     1      53.551  29.831  50.378  1.00  0.00    -0.000 C 
BRANCH  16  17
ATOM     17  C   UNL     1      54.283  28.478  50.373  1.00  0.00    -0.000 C 
BRANCH  17  18
ATOM     18  C   UNL     1      53.488  27.392  49.616  1.00  0.00    -0.000 C 
BRANCH  18  19
ATOM     19  C   UNL     1      54.289  26.102  49.370  1.00  0.00    -0.003 C 
ATOM     20  C   UNL     1      55.722  26.177  49.892  1.00  0.00     0.004 C 
ENDBRANCH  18  19
ENDBRANCH  17  18
ENDBRANCH  16  17
ENDBRANCH  15  16
ENDBRANCH  14  15
ENDBRANCH  13  14
ENDBRANCH  12  13
ENDBRANCH   1  12
TORSDOF 16
ENDMDL
MODEL 4
REMARK VINA RESULT:    -3.287      3.169      4.862
REMARK INTER + INTRA:          -8.699
REMARK INTER:                  -7.166
REMARK INTRA:                  -1.533
REMARK UNBOUND:                -2.338
REMARK SMILES CCCCCCCCCCCCCCCCCC(=O)[O-]
REMARK SMILES IDX 10 1 11 2 12 3 13 4 14 5 15 6 16 7 17 8 18 9 19 10 20 11
REMARK SMILES IDX 9 12 8 13 7 14 6 15 5 16 4 17 3 18 2 19 1 20
REMARK H PARENT
REMARK Flexibility Score: inf
ROOT
ATOM      1  C   UNL     1      60.588  24.410  51.862  1.00  0.00     0.000 C 
ENDROOT
BRANCH   1   2
ATOM      2  C   UNL     1      61.086  22.991  51.547  1.00  0.00     0.000 C 
BRANCH   2   3
ATOM      3  C   UNL     1      61.571  22.888  50.095  1.00  0.00     0.000 C 
BRANCH   3   4
ATOM      4  C   UNL     1      60.775  21.862  49.269  1.00  0.00     0.000 C 
BRANCH   4   5
ATOM      5  C   UNL     1      60.519  20.512  49.970  1.00  0.00     0.000 C 
BRANCH   5   6
ATOM      6  C   UNL     1      59.243  19.775  49.526  1.00  0.00     0.000 C 
BRANCH   6   7
ATOM      7  C   UNL     1      59.267  18.277  49.881  1.00  0.00     0.006 C 
BRANCH   7   8
ATOM      8  C   UNL     1      57.869  17.647  49.826  1.00  0.00     0.053 C 
BRANCH   8   9
ATOM      9  C   UNL     1      56.933  18.279  50.809  1.00  0.00     0.041 C 
ATOM     10  O   UNL     1      55.872  18.824  50.411  1.00  0.00    -0.550 OA
ATOM     11  O   UNL     1      57.219  18.238  52.167  1.00  0.00    -0.550 OA
ENDBRANCH   8   9
ENDBRANCH   7   8
ENDBRANCH   6   7
ENDBRANCH   5   6
ENDBRANCH   4   5
ENDBRANCH   3   4
ENDBRANCH   2   3
ENDBRANCH   1   2
BRANCH   1  12
ATOM     12  C   UNL     1      59.146  24.643  51.363  1.00  0.00     0.000 C 
BRANCH  12  13
ATOM     13  C   UNL     1      59.061  25.560  50.128  1.00  0.00    -0.000 C 
BRANCH  13  14
ATOM     14  C   UNL     1      60.343  26.380  49.904  1.00  0.00    -0.000 C 
BRANCH  14  15
ATOM     15  C   UNL     1      60.059  27.832  49.478  1.00  0.00    -0.000 C 
BRANCH  15  16
ATOM     16  C   UNL     1      59.238  28.659  50.486  1.00  0.00    -0.000 C 
BRANCH  16  17
ATOM     17  C   UNL     1      57.971  29.274  49.867  1.00  0.00    -0.000 C 
BRANCH  17  18
ATOM     18  C   UNL     1      56.744  29.129  50.793  1.00  0.00    -0.000 C 
BRANCH  18  19
ATOM     19  C   UNL     1      56.413  27.669  51.150  1.00  0.00    -0.003 C 
ATOM     20  C   UNL     1      55.542  26.979  50.102  1.00  0.00     0.004 C 
ENDBRANCH  18  19
ENDBRANCH  17  18
ENDBRANCH  16  17
ENDBRANCH  15  16
ENDBRANCH  14  15
ENDBRANCH  13  14
ENDBRANCH  12  13
ENDBRANCH   1  12
TORSDOF 16
ENDMDL
MODEL 5
REMARK VINA RESULT:    -3.260      9.901     12.427
REMARK INTER + INTRA:          -8.647
REMARK INTER:                  -6.198
REMARK INTRA:                  -2.448
REMARK UNBOUND:                -2.338
REMARK SMILES CCCCCCCCCCCCCCCCCC(=O)[O-]
REMARK SMILES IDX 10 1 11 2 12 3 13 4 14 5 15 6 16 7 17 8 18 9 19 10 20 11
REMARK SMILES IDX 9 12 8 13 7 14 6 15 5 16 4 17 3 18 2 19 1 20
REMARK H PARENT
REMARK Flexibility Score: inf
ROOT
ATOM      1  C   UNL     1      62.402  28.170  58.756  1.00  0.00     0.000 C 
ENDROOT
BRANCH   1   2
ATOM      2  C   UNL     1      63.637  27.709  57.967  1.00  0.00     0.000 C 
BRANCH   2   3
ATOM      3  C   UNL     1      64.481  28.909  57.516  1.00  0.00     0.000 C 
BRANCH   3   4
ATOM      4  C   UNL     1      64.432  30.084  58.509  1.00  0.00     0.000 C 
BRANCH   4   5
ATOM      5  C   UNL     1      65.665  30.220  59.426  1.00  0.00     0.000 C 
BRANCH   5   6
ATOM      6  C   UNL     1      65.622  29.375  60.712  1.00  0.00     0.000 C 
BRANCH   6   7
ATOM      7  C   UNL     1      66.620  28.204  60.688  1.00  0.00     0.006 C 
BRANCH   7   8
ATOM      8  C   UNL     1      67.839  28.463  61.584  1.00  0.00     0.053 C 
BRANCH   8   9
ATOM      9  C   UNL     1      69.001  28.996  60.804  1.00  0.00     0.041 C 
ATOM     10  O   UNL     1      69.037  28.864  59.554  1.00  0.00    -0.550 OA
ATOM     11  O   UNL     1      70.028  29.666  61.457  1.00  0.00    -0.550 OA
ENDBRANCH   8   9
ENDBRANCH   7   8
ENDBRANCH   6   7
ENDBRANCH   5   6
ENDBRANCH   4   5
ENDBRANCH   3   4
ENDBRANCH   2   3
ENDBRANCH   1   2
BRANCH   1  12
ATOM     12  C   UNL     1      62.356  27.557  60.171  1.00  0.00     0.000 C 
BRANCH  12  13
ATOM     13  C   UNL     1      61.519  28.375  61.173  1.00  0.00    -0.000 C 
BRANCH  13  14
ATOM     14  C   UNL     1      62.196  29.696  61.577  1.00  0.00    -0.000 C 
BRANCH  14  15
ATOM     15  C   UNL     1      61.223  30.890  61.587  1.00  0.00    -0.000 C 
BRANCH  15  16
ATOM     16  C   UNL     1      60.706  31.321  60.201  1.00  0.00    -0.000 C 
BRANCH  16  17
ATOM     17  C   UNL     1      61.671  32.266  59.466  1.00  0.00    -0.000 C 
BRANCH  17  18
ATOM     18  C   UNL     1      62.236  33.358  60.400  1.00  0.00    -0.000 C 
BRANCH  18  19
ATOM     19  C   UNL     1      63.771  33.347  60.501  1.00  0.00    -0.003 C 
ATOM     20  C   UNL     1      64.334  34.567  61.227  1.00  0.00     0.004 C 
ENDBRANCH  18  19
ENDBRANCH  17  18
ENDBRANCH  16  17
ENDBRANCH  15  16
ENDBRANCH  14  15
ENDBRANCH  13  14
ENDBRANCH  12  13
ENDBRANCH   1  12
TORSDOF 16
ENDMDL
MODEL 6
REMARK VINA RESULT:    -3.253     10.304     12.786
REMARK INTER + INTRA:          -8.634
REMARK INTER:                  -5.732
REMARK INTRA:                  -2.902
REMARK UNBOUND:                -2.338
REMARK SMILES CCCCCCCCCCCCCCCCCC(=O)[O-]
REMARK SMILES IDX 10 1 11 2 12 3 13 4 14 5 15 6 16 7 17 8 18 9 19 10 20 11
REMARK SMILES IDX 9 12 8 13 7 14 6 15 5 16 4 17 3 18 2 19 1 20
REMARK H PARENT
REMARK Flexibility Score: inf
ROOT
ATOM      1  C   UNL     1      64.100  32.780  58.224  1.00  0.00     0.000 C 
ENDROOT
BRANCH   1   2
ATOM      2  C   UNL     1      64.501  32.398  59.656  1.00  0.00     0.000 C 
BRANCH   2   3
ATOM      3  C   UNL     1      64.103  33.497  60.651  1.00  0.00     0.000 C 
BRANCH   3   4
ATOM      4  C   UNL     1      63.301  34.636  59.996  1.00  0.00     0.000 C 
BRANCH   4   5
ATOM      5  C   UNL     1      62.756  35.700  60.972  1.00  0.00     0.000 C 
BRANCH   5   6
ATOM      6  C   UNL     1      61.386  36.292  60.596  1.00  0.00     0.000 C 
BRANCH   6   7
ATOM      7  C   UNL     1      60.611  35.412  59.600  1.00  0.00     0.006 C 
BRANCH   7   8
ATOM      8  C   UNL     1      60.134  36.205  58.376  1.00  0.00     0.053 C 
BRANCH   8   9
ATOM      9  C   UNL     1      58.860  35.653  57.815  1.00  0.00     0.041 C 
ATOM     10  O   UNL     1      58.783  34.438  57.498  1.00  0.00    -0.550 OA
ATOM     11  O   UNL     1      57.749  36.473  57.671  1.00  0.00    -0.550 OA
ENDBRANCH   8   9
ENDBRANCH   7   8
ENDBRANCH   6   7
ENDBRANCH   5   6
ENDBRANCH   4   5
ENDBRANCH   3   4
ENDBRANCH   2   3
ENDBRANCH   1   2
BRANCH   1  12
ATOM     12  C   UNL     1      63.696  31.548  57.386  1.00  0.00     0.000 C 
BRANCH  12  13
ATOM     13  C   UNL     1      62.340  30.941  57.794  1.00  0.00    -0.000 C 
BRANCH  13  14
ATOM     14  C   UNL     1      61.279  32.009  58.107  1.00  0.00    -0.000 C 
BRANCH  14  15
ATOM     15  C   UNL     1      60.336  31.601  59.254  1.00  0.00    -0.000 C 
BRANCH  15  16
ATOM     16  C   UNL     1      60.828  31.974  60.666  1.00  0.00    -0.000 C 
BRANCH  16  17
ATOM     17  C   UNL     1      60.982  30.754  61.591  1.00  0.00    -0.000 C 
BRANCH  17  18
ATOM     18  C   UNL     1      62.424  30.202  61.586  1.00  0.00    -0.000 C 
BRANCH  18  19
ATOM     19  C   UNL     1      62.550  28.818  60.927  1.00  0.00    -0.003 C 
ATOM     20  C   UNL     1      63.911  28.585  60.275  1.00  0.00     0.004 C 
ENDBRANCH  18  19
ENDBRANCH  17  18
ENDBRANCH  16  17
ENDBRANCH  15  16
ENDBRANCH  14  15
ENDBRANCH  13  14
ENDBRANCH  12  13
ENDBRANCH   1  12
TORSDOF 16
ENDMDL
MODEL 7
REMARK VINA RESULT:    -3.245      4.194      7.344
REMARK INTER + INTRA:          -8.618
REMARK INTER:                  -6.145
REMARK INTRA:                  -2.473
REMARK UNBOUND:                -2.338
REMARK SMILES CCCCCCCCCCCCCCCCCC(=O)[O-]
REMARK SMILES IDX 10 1 11 2 12 3 13 4 14 5 15 6 16 7 17 8 18 9 19 10 20 11
REMARK SMILES IDX 9 12 8 13 7 14 6 15 5 16 4 17 3 18 2 19 1 20
REMARK H PARENT
REMARK Flexibility Score: inf
ROOT
ATOM      1  C   UNL     1      56.502  27.960  51.539  1.00  0.00     0.000 C 
ENDROOT
BRANCH   1   2
ATOM      2  C   UNL     1      56.401  27.130  50.250  1.00  0.00     0.000 C 
BRANCH   2   3
ATOM      3  C   UNL     1      55.395  25.983  50.412  1.00  0.00     0.000 C 
BRANCH   3   4
ATOM      4  C   UNL     1      54.324  25.965  49.308  1.00  0.00     0.000 C 
BRANCH   4   5
ATOM      5  C   UNL     1      52.967  26.586  49.700  1.00  0.00     0.000 C 
BRANCH   5   6
ATOM      6  C   UNL     1      52.905  28.123  49.623  1.00  0.00     0.000 C 
BRANCH   6   7
ATOM      7  C   UNL     1      52.933  28.789  51.010  1.00  0.00     0.006 C 
BRANCH   7   8
ATOM      8  C   UNL     1      53.604  30.169  50.976  1.00  0.00     0.053 C 
BRANCH   8   9
ATOM      9  C   UNL     1      53.884  30.687  52.354  1.00  0.00     0.041 C 
ATOM     10  O   UNL     1      54.071  29.884  53.304  1.00  0.00    -0.550 OA
ATOM     11  O   UNL     1      53.968  32.054  52.579  1.00  0.00    -0.550 OA
ENDBRANCH   8   9
ENDBRANCH   7   8
ENDBRANCH   6   7
ENDBRANCH   5   6
ENDBRANCH   4   5
ENDBRANCH   3   4
ENDBRANCH   2   3
ENDBRANCH   1   2
BRANCH   1  12
ATOM     12  C   UNL     1      57.194  29.320  51.300  1.00  0.00     0.000 C 
BRANCH  12  13
ATOM     13  C   UNL     1      58.728  29.262  51.421  1.00  0.00    -0.000 C 
BRANCH  13  14
ATOM     14  C   UNL     1      59.442  29.519  50.083  1.00  0.00    -0.000 C 
BRANCH  14  15
ATOM     15  C   UNL     1      59.635  28.238  49.250  1.00  0.00    -0.000 C 
BRANCH  15  16
ATOM     16  C   UNL     1      60.859  27.387  49.638  1.00  0.00    -0.000 C 
BRANCH  16  17
ATOM     17  C   UNL     1      60.493  25.937  49.999  1.00  0.00    -0.000 C 
BRANCH  17  18
ATOM     18  C   UNL     1      59.885  25.828  51.414  1.00  0.00    -0.000 C 
BRANCH  18  19
ATOM     19  C   UNL     1      58.789  24.755  51.531  1.00  0.00    -0.003 C 
ATOM     20  C   UNL     1      58.025  24.820  52.852  1.00  0.00     0.004 C 
ENDBRANCH  18  19
ENDBRANCH  17  18
ENDBRANCH  16  17
ENDBRANCH  15  16
ENDBRANCH  14  15
ENDBRANCH  13  14
ENDBRANCH  12  13
ENDBRANCH   1  12
TORSDOF 16
ENDMDL
MODEL 8
REMARK VINA RESULT:    -3.223      9.366     11.542
REMARK INTER + INTRA:          -8.576
REMARK INTER:                  -5.522
REMARK INTRA:                  -3.054
REMARK UNBOUND:                -2.338
REMARK SMILES CCCCCCCCCCCCCCCCCC(=O)[O-]
REMARK SMILES IDX 10 1 11 2 12 3 13 4 14 5 15 6 16 7 17 8 18 9 19 10 20 11
REMARK SMILES IDX 9 12 8 13 7 14 6 15 5 16 4 17 3 18 2 19 1 20
REMARK H PARENT
REMARK Flexibility Score: inf
ROOT
ATOM      1  C   UNL     1      61.121  32.207  60.082  1.00  0.00     0.000 C 
ENDROOT
BRANCH   1   2
ATOM      2  C   UNL     1      60.846  31.214  61.221  1.00  0.00     0.000 C 
BRANCH   2   3
ATOM      3  C   UNL     1      62.145  30.552  61.700  1.00  0.00     0.000 C 
BRANCH   3   4
ATOM      4  C   UNL     1      63.387  31.054  60.942  1.00  0.00     0.000 C 
BRANCH   4   5
ATOM      5  C   UNL     1      64.549  30.043  60.847  1.00  0.00     0.000 C 
BRANCH   5   6
ATOM      6  C   UNL     1      65.291  30.024  59.498  1.00  0.00     0.000 C 
BRANCH   6   7
ATOM      7  C   UNL     1      66.181  28.780  59.327  1.00  0.00     0.006 C 
BRANCH   7   8
ATOM      8  C   UNL     1      66.263  27.944  60.611  1.00  0.00     0.053 C 
BRANCH   8   9
ATOM      9  C   UNL     1      67.673  27.804  61.097  1.00  0.00     0.041 C 
ATOM     10  O   UNL     1      68.086  28.517  62.047  1.00  0.00    -0.550 OA
ATOM     11  O   UNL     1      68.518  26.867  60.519  1.00  0.00    -0.550 OA
ENDBRANCH   8   9
ENDBRANCH   7   8
ENDBRANCH   6   7
ENDBRANCH   5   6
ENDBRANCH   4   5
ENDBRANCH   3   4
ENDBRANCH   2   3
ENDBRANCH   1   2
BRANCH   1  12
ATOM     12  C   UNL     1      60.307  31.875  58.813  1.00  0.00     0.000 C 
BRANCH  12  13
ATOM     13  C   UNL     1      60.470  30.419  58.338  1.00  0.00    -0.000 C 
BRANCH  13  14
ATOM     14  C   UNL     1      61.779  30.186  57.565  1.00  0.00    -0.000 C 
BRANCH  14  15
ATOM     15  C   UNL     1      62.360  28.776  57.778  1.00  0.00    -0.000 C 
BRANCH  15  16
ATOM     16  C   UNL     1      61.898  28.068  59.066  1.00  0.00    -0.000 C 
BRANCH  16  17
ATOM     17  C   UNL     1      62.821  26.909  59.480  1.00  0.00    -0.000 C 
BRANCH  17  18
ATOM     18  C   UNL     1      62.841  26.702  61.010  1.00  0.00    -0.000 C 
BRANCH  18  19
ATOM     19  C   UNL     1      61.489  26.988  61.687  1.00  0.00    -0.003 C 
ATOM     20  C   UNL     1      60.679  25.724  61.965  1.00  0.00     0.004 C 
ENDBRANCH  18  19
ENDBRANCH  17  18
ENDBRANCH  16  17
ENDBRANCH  15  16
ENDBRANCH  14  15
ENDBRANCH  13  14
ENDBRANCH  12  13
ENDBRANCH   1  12
TORSDOF 16
ENDMDL
MODEL 9
REMARK VINA RESULT:    -3.180      4.731      7.832
REMARK INTER + INTRA:          -8.494
REMARK INTER:                  -5.758
REMARK INTRA:                  -2.736
REMARK UNBOUND:                -2.338
REMARK SMILES CCCCCCCCCCCCCCCCCC(=O)[O-]
REMARK SMILES IDX 10 1 11 2 12 3 13 4 14 5 15 6 16 7 17 8 18 9 19 10 20 11
REMARK SMILES IDX 9 12 8 13 7 14 6 15 5 16 4 17 3 18 2 19 1 20
REMARK H PARENT
REMARK Flexibility Score: inf
ROOT
ATOM      1  C   UNL     1      56.621  26.510  50.426  1.00  0.00     0.000 C 
ENDROOT
BRANCH   1   2
ATOM      2  C   UNL     1      55.235  25.853  50.496  1.00  0.00     0.000 C 
BRANCH   2   3
ATOM      3  C   UNL     1      54.377  26.248  49.285  1.00  0.00     0.000 C 
BRANCH   3   4
ATOM      4  C   UNL     1      53.214  27.185  49.655  1.00  0.00     0.000 C 
BRANCH   4   5
ATOM      5  C   UNL     1      53.622  28.636  49.986  1.00  0.00     0.000 C 
BRANCH   5   6
ATOM      6  C   UNL     1      53.567  29.006  51.480  1.00  0.00     0.000 C 
BRANCH   6   7
ATOM      7  C   UNL     1      54.296  30.325  51.793  1.00  0.00     0.006 C 
BRANCH   7   8
ATOM      8  C   UNL     1      54.767  30.395  53.251  1.00  0.00     0.053 C 
BRANCH   8   9
ATOM      9  C   UNL     1      54.132  31.533  53.989  1.00  0.00     0.041 C 
ATOM     10  O   UNL     1      53.651  32.507  53.354  1.00  0.00    -0.550 OA
ATOM     11  O   UNL     1      54.046  31.503  55.374  1.00  0.00    -0.550 OA
ENDBRANCH   8   9
ENDBRANCH   7   8
ENDBRANCH   6   7
ENDBRANCH   5   6
ENDBRANCH   4   5
ENDBRANCH   3   4
ENDBRANCH   2   3
ENDBRANCH   1   2
BRANCH   1  12
ATOM     12  C   UNL     1      56.970  27.267  51.725  1.00  0.00     0.000 C 
BRANCH  12  13
ATOM     13  C   UNL     1      57.572  28.665  51.483  1.00  0.00    -0.000 C 
BRANCH  13  14
ATOM     14  C   UNL     1      57.495  29.101  50.010  1.00  0.00    -0.000 C 
BRANCH  14  15
ATOM     15  C   UNL     1      58.880  29.231  49.349  1.00  0.00    -0.000 C 
BRANCH  15  16
ATOM     16  C   UNL     1      60.058  29.385  50.330  1.00  0.00    -0.000 C 
BRANCH  16  17
ATOM     17  C   UNL     1      60.983  28.156  50.356  1.00  0.00    -0.000 C 
BRANCH  17  18
ATOM     18  C   UNL     1      60.371  26.954  49.606  1.00  0.00    -0.000 C 
BRANCH  18  19
ATOM     19  C   UNL     1      60.283  25.677  50.459  1.00  0.00    -0.003 C 
ATOM     20  C   UNL     1      60.454  25.941  51.954  1.00  0.00     0.004 C 
ENDBRANCH  18  19
ENDBRANCH  17  18
ENDBRANCH  16  17
ENDBRANCH  15  16
ENDBRANCH  14  15
ENDBRANCH  13  14
ENDBRANCH  12  13
ENDBRANCH   1  12
TORSDOF 16
ENDMDL
