MODEL 1
REMARK VINA RESULT:    -7.150      0.000      0.000
REMARK INTER + INTRA:          -8.933
REMARK INTER:                  -8.613
REMARK INTRA:                  -0.319
REMARK UNBOUND:                -0.319
REMARK SMILES O=c1c(O)c(-c2ccc(O)c(O)c2)oc2cc(O)cc(O)c12
REMARK SMILES IDX 5 1 3 2 2 3 1 4 22 5 20 6 19 7 17 8 16 9 15 10 14 11 6 12
REMARK SMILES IDX 7 13 8 14 9 15 13 16 11 17 10 18 12 20 4 22 21 24 18 26
REMARK H PARENT 10 19 12 21 4 23 21 25 18 27
REMARK Flexibility Score: inf
ROOT
ATOM      1  C   UNL     1      14.792  18.673  30.799  1.00  0.00     0.180 A 
ATOM      2  C   UNL     1      13.771  19.239  30.015  1.00  0.00     0.208 A 
ATOM      3  C   UNL     1      14.079  20.322  29.175  1.00  0.00     0.238 A 
ATOM      4  O   UNL     1      13.150  20.858  28.517  1.00  0.00    -0.285 OA
ATOM      5  C   UNL     1      15.405  20.813  29.117  1.00  0.00     0.111 A 
ATOM      6  C   UNL     1      15.838  21.878  28.271  1.00  0.00     0.134 A 
ATOM      7  C   UNL     1      17.144  22.369  28.392  1.00  0.00     0.093 A 
ATOM      8  C   UNL     1      18.051  21.790  29.278  1.00  0.00     0.123 A 
ATOM      9  C   UNL     1      17.656  20.709  30.068  1.00  0.00     0.094 A 
ATOM     10  C   UNL     1      16.349  20.221  29.996  1.00  0.00     0.146 A 
ATOM     11  O   UNL     1      16.011  19.199  30.771  1.00  0.00    -0.452 OA
ENDROOT
BRANCH   1  12
ATOM     12  C   UNL     1      14.549  17.514  31.689  1.00  0.00     0.025 A 
ATOM     13  C   UNL     1      14.733  16.214  31.193  1.00  0.00     0.016 A 
ATOM     14  C   UNL     1      14.490  15.106  32.008  1.00  0.00     0.051 A 
ATOM     15  C   UNL     1      14.045  15.279  33.325  1.00  0.00     0.157 A 
ATOM     16  C   UNL     1      14.082  17.685  33.004  1.00  0.00     0.062 A 
ATOM     17  C   UNL     1      13.835  16.577  33.823  1.00  0.00     0.158 A 
BRANCH  15  18
ATOM     18  O   UNL     1      13.804  14.172  34.136  1.00  0.00    -0.504 OA
ATOM     19  H   UNL     1      14.294  14.040  35.014  1.00  0.00     0.293 HD
ENDBRANCH  15  18
BRANCH  17  20
ATOM     20  O   UNL     1      13.378  16.784  35.124  1.00  0.00    -0.504 OA
ATOM     21  H   UNL     1      12.550  17.331  35.323  1.00  0.00     0.293 HD
ENDBRANCH  17  20
ENDBRANCH   1  12
BRANCH   2  22
ATOM     22  O   UNL     1      12.464  18.752  30.105  1.00  0.00    -0.502 OA
ATOM     23  H   UNL     1      12.098  18.056  29.466  1.00  0.00     0.293 HD
ENDBRANCH   2  22
BRANCH   6  24
ATOM     24  O   UNL     1      15.039  22.467  27.286  1.00  0.00    -0.507 OA
ATOM     25  H   UNL     1      14.556  23.347  27.388  1.00  0.00     0.293 HD
ENDBRANCH   6  24
BRANCH   8  26
ATOM     26  O   UNL     1      19.348  22.294  29.361  1.00  0.00    -0.508 OA
ATOM     27  H   UNL     1      20.109  21.887  28.831  1.00  0.00     0.293 HD
ENDBRANCH   8  26
TORSDOF 6
ENDMDL
MODEL 2
REMARK VINA RESULT:    -7.028      3.197      4.267
REMARK INTER + INTRA:          -8.786
REMARK INTER:                  -8.492
REMARK INTRA:                  -0.294
REMARK UNBOUND:                -0.319
REMARK SMILES O=c1c(O)c(-c2ccc(O)c(O)c2)oc2cc(O)cc(O)c12
REMARK SMILES IDX 5 1 3 2 2 3 1 4 22 5 20 6 19 7 17 8 16 9 15 10 14 11 6 12
REMARK SMILES IDX 7 13 8 14 9 15 13 16 11 17 10 18 12 20 4 22 21 24 18 26
REMARK H PARENT 10 19 12 21 4 23 21 25 18 27
REMARK Flexibility Score: inf
ROOT
ATOM      1  C   UNL     1      14.322  17.473  32.291  1.00  0.00     0.180 A 
ATOM      2  C   UNL     1      14.822  18.456  33.163  1.00  0.00     0.208 A 
ATOM      3  C   UNL     1      14.424  19.791  32.986  1.00  0.00     0.238 A 
ATOM      4  O   UNL     1      14.918  20.673  33.735  1.00  0.00    -0.285 OA
ATOM      5  C   UNL     1      13.519  20.124  31.949  1.00  0.00     0.111 A 
ATOM      6  C   UNL     1      13.017  21.437  31.703  1.00  0.00     0.134 A 
ATOM      7  C   UNL     1      12.229  21.673  30.569  1.00  0.00     0.093 A 
ATOM      8  C   UNL     1      11.871  20.635  29.712  1.00  0.00     0.123 A 
ATOM      9  C   UNL     1      12.307  19.335  29.976  1.00  0.00     0.094 A 
ATOM     10  C   UNL     1      13.124  19.074  31.078  1.00  0.00     0.146 A 
ATOM     11  O   UNL     1      13.526  17.827  31.288  1.00  0.00    -0.452 OA
ENDROOT
BRANCH   1  12
ATOM     12  C   UNL     1      14.676  16.042  32.432  1.00  0.00     0.025 A 
ATOM     13  C   UNL     1      15.887  15.575  31.896  1.00  0.00     0.016 A 
ATOM     14  C   UNL     1      16.232  14.226  31.999  1.00  0.00     0.051 A 
ATOM     15  C   UNL     1      15.365  13.319  32.624  1.00  0.00     0.157 A 
ATOM     16  C   UNL     1      13.799  15.126  33.040  1.00  0.00     0.062 A 
ATOM     17  C   UNL     1      14.140  13.773  33.142  1.00  0.00     0.158 A 
BRANCH  15  18
ATOM     18  O   UNL     1      15.712  11.973  32.725  1.00  0.00    -0.504 OA
ATOM     19  H   UNL     1      15.147  11.317  33.251  1.00  0.00     0.293 HD
ENDBRANCH  15  18
BRANCH  17  20
ATOM     20  O   UNL     1      13.249  12.893  33.756  1.00  0.00    -0.504 OA
ATOM     21  H   UNL     1      13.192  12.800  34.763  1.00  0.00     0.293 HD
ENDBRANCH  17  20
ENDBRANCH   1  12
BRANCH   2  22
ATOM     22  O   UNL     1      15.732  18.108  34.166  1.00  0.00    -0.502 OA
ATOM     23  H   UNL     1      16.527  18.689  34.404  1.00  0.00     0.293 HD
ENDBRANCH   2  22
BRANCH   6  24
ATOM     24  O   UNL     1      13.239  22.529  32.547  1.00  0.00    -0.507 OA
ATOM     25  H   UNL     1      14.082  22.681  33.080  1.00  0.00     0.293 HD
ENDBRANCH   6  24
BRANCH   8  26
ATOM     26  O   UNL     1      11.072  20.904  28.601  1.00  0.00    -0.508 OA
ATOM     27  H   UNL     1      10.890  20.199  27.897  1.00  0.00     0.293 HD
ENDBRANCH   8  26
TORSDOF 6
ENDMDL
MODEL 3
REMARK VINA RESULT:    -6.996      1.963      6.818
REMARK INTER + INTRA:          -8.747
REMARK INTER:                  -8.418
REMARK INTRA:                  -0.329
REMARK UNBOUND:                -0.319
REMARK SMILES O=c1c(O)c(-c2ccc(O)c(O)c2)oc2cc(O)cc(O)c12
REMARK SMILES IDX 5 1 3 2 2 3 1 4 22 5 20 6 19 7 17 8 16 9 15 10 14 11 6 12
REMARK SMILES IDX 7 13 8 14 9 15 13 16 11 17 10 18 12 20 4 22 21 24 18 26
REMARK H PARENT 10 19 12 21 4 23 21 25 18 27
REMARK Flexibility Score: inf
ROOT
ATOM      1  C   UNL     1      14.609  17.815  30.278  1.00  0.00     0.180 A 
ATOM      2  C   UNL     1      13.654  17.614  31.290  1.00  0.00     0.208 A 
ATOM      3  C   UNL     1      13.719  16.447  32.067  1.00  0.00     0.238 A 
ATOM      4  O   UNL     1      12.829  16.248  32.935  1.00  0.00    -0.285 OA
ATOM      5  C   UNL     1      14.749  15.503  31.835  1.00  0.00     0.111 A 
ATOM      6  C   UNL     1      14.936  14.306  32.589  1.00  0.00     0.134 A 
ATOM      7  C   UNL     1      15.908  13.381  32.187  1.00  0.00     0.093 A 
ATOM      8  C   UNL     1      16.743  13.640  31.101  1.00  0.00     0.123 A 
ATOM      9  C   UNL     1      16.609  14.836  30.393  1.00  0.00     0.094 A 
ATOM     10  C   UNL     1      15.624  15.761  30.747  1.00  0.00     0.146 A 
ATOM     11  O   UNL     1      15.523  16.880  30.042  1.00  0.00    -0.452 OA
ENDROOT
BRANCH   1  12
ATOM     12  C   UNL     1      14.619  19.032  29.435  1.00  0.00     0.025 A 
ATOM     13  C   UNL     1      14.025  18.995  28.164  1.00  0.00     0.016 A 
ATOM     14  C   UNL     1      14.040  20.126  27.343  1.00  0.00     0.051 A 
ATOM     15  C   UNL     1      14.664  21.304  27.773  1.00  0.00     0.157 A 
ATOM     16  C   UNL     1      15.262  20.210  29.856  1.00  0.00     0.062 A 
ATOM     17  C   UNL     1      15.282  21.343  29.035  1.00  0.00     0.158 A 
BRANCH  15  18
ATOM     18  O   UNL     1      14.678  22.431  26.953  1.00  0.00    -0.504 OA
ATOM     19  H   UNL     1      14.036  22.528  26.174  1.00  0.00     0.293 HD
ENDBRANCH  15  18
BRANCH  17  20
ATOM     20  O   UNL     1      15.925  22.496  29.486  1.00  0.00    -0.504 OA
ATOM     21  H   UNL     1      16.067  23.302  28.889  1.00  0.00     0.293 HD
ENDBRANCH  17  20
ENDBRANCH   1  12
BRANCH   2  22
ATOM     22  O   UNL     1      12.633  18.548  31.487  1.00  0.00    -0.502 OA
ATOM     23  H   UNL     1      12.571  19.408  30.955  1.00  0.00     0.293 HD
ENDBRANCH   2  22
BRANCH   6  24
ATOM     24  O   UNL     1      14.217  13.992  33.746  1.00  0.00    -0.507 OA
ATOM     25  H   UNL     1      13.601  13.198  33.843  1.00  0.00     0.293 HD
ENDBRANCH   6  24
BRANCH   8  26
ATOM     26  O   UNL     1      17.710  12.704  30.739  1.00  0.00    -0.508 OA
ATOM     27  H   UNL     1      18.272  12.228  31.434  1.00  0.00     0.293 HD
ENDBRANCH   8  26
TORSDOF 6
ENDMDL
MODEL 4
REMARK VINA RESULT:    -6.973      1.785      6.907
REMARK INTER + INTRA:          -8.719
REMARK INTER:                  -8.397
REMARK INTRA:                  -0.323
REMARK UNBOUND:                -0.319
REMARK SMILES O=c1c(O)c(-c2ccc(O)c(O)c2)oc2cc(O)cc(O)c12
REMARK SMILES IDX 5 1 3 2 2 3 1 4 22 5 20 6 19 7 17 8 16 9 15 10 14 11 6 12
REMARK SMILES IDX 7 13 8 14 9 15 13 16 11 17 10 18 12 20 4 22 21 24 18 26
REMARK H PARENT 10 19 12 21 4 23 21 25 18 27
REMARK Flexibility Score: inf
ROOT
ATOM      1  C   UNL     1      16.204  21.116  29.565  1.00  0.00     0.180 A 
ATOM      2  C   UNL     1      15.183  21.079  28.599  1.00  0.00     0.208 A 
ATOM      3  C   UNL     1      14.339  19.957  28.543  1.00  0.00     0.238 A 
ATOM      4  O   UNL     1      13.462  19.906  27.642  1.00  0.00    -0.285 OA
ATOM      5  C   UNL     1      14.516  18.896  29.464  1.00  0.00     0.111 A 
ATOM      6  C   UNL     1      13.694  17.731  29.525  1.00  0.00     0.134 A 
ATOM      7  C   UNL     1      14.042  16.685  30.388  1.00  0.00     0.093 A 
ATOM      8  C   UNL     1      15.140  16.789  31.240  1.00  0.00     0.123 A 
ATOM      9  C   UNL     1      15.917  17.949  31.231  1.00  0.00     0.094 A 
ATOM     10  C   UNL     1      15.617  18.995  30.355  1.00  0.00     0.146 A 
ATOM     11  O   UNL     1      16.386  20.076  30.370  1.00  0.00    -0.452 OA
ENDROOT
BRANCH   1  12
ATOM     12  C   UNL     1      17.116  22.274  29.701  1.00  0.00     0.025 A 
ATOM     13  C   UNL     1      16.740  23.356  30.513  1.00  0.00     0.016 A 
ATOM     14  C   UNL     1      17.575  24.469  30.640  1.00  0.00     0.051 A 
ATOM     15  C   UNL     1      18.790  24.525  29.945  1.00  0.00     0.157 A 
ATOM     16  C   UNL     1      18.326  22.343  28.989  1.00  0.00     0.062 A 
ATOM     17  C   UNL     1      19.164  23.457  29.111  1.00  0.00     0.158 A 
BRANCH  15  18
ATOM     18  O   UNL     1      19.622  25.635  30.074  1.00  0.00    -0.504 OA
ATOM     19  H   UNL     1      19.444  26.495  29.567  1.00  0.00     0.293 HD
ENDBRANCH  15  18
BRANCH  17  20
ATOM     20  O   UNL     1      20.360  23.488  28.394  1.00  0.00    -0.504 OA
ATOM     21  H   UNL     1      20.584  24.240  27.754  1.00  0.00     0.293 HD
ENDBRANCH  17  20
ENDBRANCH   1  12
BRANCH   2  22
ATOM     22  O   UNL     1      15.040  22.127  27.687  1.00  0.00    -0.502 OA
ATOM     23  H   UNL     1      15.827  22.678  27.363  1.00  0.00     0.293 HD
ENDBRANCH   2  22
BRANCH   6  24
ATOM     24  O   UNL     1      12.520  17.564  28.783  1.00  0.00    -0.507 OA
ATOM     25  H   UNL     1      11.719  17.031  29.088  1.00  0.00     0.293 HD
ENDBRANCH   6  24
BRANCH   8  26
ATOM     26  O   UNL     1      15.448  15.735  32.098  1.00  0.00    -0.508 OA
ATOM     27  H   UNL     1      14.733  15.100  32.434  1.00  0.00     0.293 HD
ENDBRANCH   8  26
TORSDOF 6
ENDMDL
MODEL 5
REMARK VINA RESULT:    -6.958      2.331      4.170
REMARK INTER + INTRA:          -8.701
REMARK INTER:                  -8.379
REMARK INTRA:                  -0.322
REMARK UNBOUND:                -0.319
REMARK SMILES O=c1c(O)c(-c2ccc(O)c(O)c2)oc2cc(O)cc(O)c12
REMARK SMILES IDX 5 1 3 2 2 3 1 4 22 5 20 6 19 7 17 8 16 9 15 10 14 11 6 12
REMARK SMILES IDX 7 13 8 14 9 15 13 16 11 17 10 18 12 20 4 22 21 24 18 26
REMARK H PARENT 10 19 12 21 4 23 21 25 18 27
REMARK Flexibility Score: inf
ROOT
ATOM      1  C   UNL     1      15.309  17.015  31.214  1.00  0.00     0.180 A 
ATOM      2  C   UNL     1      16.375  17.922  31.356  1.00  0.00     0.208 A 
ATOM      3  C   UNL     1      16.191  19.257  30.960  1.00  0.00     0.238 A 
ATOM      4  O   UNL     1      17.165  20.050  31.039  1.00  0.00    -0.285 OA
ATOM      5  C   UNL     1      14.940  19.672  30.443  1.00  0.00     0.111 A 
ATOM      6  C   UNL     1      14.630  21.008  30.048  1.00  0.00     0.134 A 
ATOM      7  C   UNL     1      13.404  21.278  29.428  1.00  0.00     0.093 A 
ATOM      8  C   UNL     1      12.452  20.275  29.248  1.00  0.00     0.123 A 
ATOM      9  C   UNL     1      12.721  18.977  29.684  1.00  0.00     0.094 A 
ATOM     10  C   UNL     1      13.950  18.669  30.273  1.00  0.00     0.146 A 
ATOM     11  O   UNL     1      14.170  17.421  30.664  1.00  0.00    -0.452 OA
ENDROOT
BRANCH   1  12
ATOM     12  C   UNL     1      15.420  15.599  31.633  1.00  0.00     0.025 A 
ATOM     13  C   UNL     1      15.070  15.239  32.944  1.00  0.00     0.016 A 
ATOM     14  C   UNL     1      15.185  13.913  33.367  1.00  0.00     0.051 A 
ATOM     15  C   UNL     1      15.668  12.930  32.493  1.00  0.00     0.157 A 
ATOM     16  C   UNL     1      15.923  14.615  30.764  1.00  0.00     0.062 A 
ATOM     17  C   UNL     1      16.043  13.286  31.185  1.00  0.00     0.158 A 
BRANCH  15  18
ATOM     18  O   UNL     1      15.782  11.608  32.917  1.00  0.00    -0.504 OA
ATOM     19  H   UNL     1      15.912  10.848  32.260  1.00  0.00     0.293 HD
ENDBRANCH  15  18
BRANCH  17  20
ATOM     20  O   UNL     1      16.541  12.335  30.296  1.00  0.00    -0.504 OA
ATOM     21  H   UNL     1      16.643  12.524  29.306  1.00  0.00     0.293 HD
ENDBRANCH  17  20
ENDBRANCH   1  12
BRANCH   2  22
ATOM     22  O   UNL     1      17.608  17.485  31.848  1.00  0.00    -0.502 OA
ATOM     23  H   UNL     1      18.092  17.960  32.602  1.00  0.00     0.293 HD
ENDBRANCH   2  22
BRANCH   6  24
ATOM     24  O   UNL     1      15.473  22.102  30.266  1.00  0.00    -0.507 OA
ATOM     25  H   UNL     1      15.613  22.551  31.159  1.00  0.00     0.293 HD
ENDBRANCH   6  24
BRANCH   8  26
ATOM     26  O   UNL     1      11.235  20.583  28.641  1.00  0.00    -0.508 OA
ATOM     27  H   UNL     1      10.452  19.941  28.669  1.00  0.00     0.293 HD
ENDBRANCH   8  26
TORSDOF 6
ENDMDL
MODEL 6
REMARK VINA RESULT:    -6.954      2.317      6.988
REMARK INTER + INTRA:          -8.696
REMARK INTER:                  -8.374
REMARK INTRA:                  -0.323
REMARK UNBOUND:                -0.319
REMARK SMILES O=c1c(O)c(-c2ccc(O)c(O)c2)oc2cc(O)cc(O)c12
REMARK SMILES IDX 5 1 3 2 2 3 1 4 22 5 20 6 19 7 17 8 16 9 15 10 14 11 6 12
REMARK SMILES IDX 7 13 8 14 9 15 13 16 11 17 10 18 12 20 4 22 21 24 18 26
REMARK H PARENT 10 19 12 21 4 23 21 25 18 27
REMARK Flexibility Score: inf
ROOT
ATOM      1  C   UNL     1      14.417  17.853  31.390  1.00  0.00     0.180 A 
ATOM      2  C   UNL     1      14.652  17.937  32.773  1.00  0.00     0.208 A 
ATOM      3  C   UNL     1      15.063  16.787  33.466  1.00  0.00     0.238 A 
ATOM      4  O   UNL     1      15.219  16.856  34.713  1.00  0.00    -0.285 OA
ATOM      5  C   UNL     1      15.251  15.571  32.764  1.00  0.00     0.111 A 
ATOM      6  C   UNL     1      15.704  14.355  33.357  1.00  0.00     0.134 A 
ATOM      7  C   UNL     1      15.728  13.182  32.593  1.00  0.00     0.093 A 
ATOM      8  C   UNL     1      15.379  13.193  31.244  1.00  0.00     0.123 A 
ATOM      9  C   UNL     1      14.991  14.390  30.638  1.00  0.00     0.094 A 
ATOM     10  C   UNL     1      14.922  15.570  31.383  1.00  0.00     0.146 A 
ATOM     11  O   UNL     1      14.538  16.683  30.772  1.00  0.00    -0.452 OA
ENDROOT
BRANCH   1  12
ATOM     12  C   UNL     1      14.006  19.028  30.588  1.00  0.00     0.025 A 
ATOM     13  C   UNL     1      14.990  19.875  30.052  1.00  0.00     0.016 A 
ATOM     14  C   UNL     1      14.625  21.001  29.310  1.00  0.00     0.051 A 
ATOM     15  C   UNL     1      13.273  21.308  29.107  1.00  0.00     0.157 A 
ATOM     16  C   UNL     1      12.650  19.350  30.400  1.00  0.00     0.062 A 
ATOM     17  C   UNL     1      12.281  20.479  29.660  1.00  0.00     0.158 A 
BRANCH  15  18
ATOM     18  O   UNL     1      12.912  22.431  28.366  1.00  0.00    -0.504 OA
ATOM     19  H   UNL     1      12.471  22.349  27.457  1.00  0.00     0.293 HD
ENDBRANCH  15  18
BRANCH  17  20
ATOM     20  O   UNL     1      10.927  20.765  29.489  1.00  0.00    -0.504 OA
ATOM     21  H   UNL     1      10.290  20.845  30.273  1.00  0.00     0.293 HD
ENDBRANCH  17  20
ENDBRANCH   1  12
BRANCH   2  22
ATOM     22  O   UNL     1      14.439  19.141  33.450  1.00  0.00    -0.502 OA
ATOM     23  H   UNL     1      15.143  19.564  34.044  1.00  0.00     0.293 HD
ENDBRANCH   2  22
BRANCH   6  24
ATOM     24  O   UNL     1      16.164  14.252  34.673  1.00  0.00    -0.507 OA
ATOM     25  H   UNL     1      15.593  13.987  35.462  1.00  0.00     0.293 HD
ENDBRANCH   6  24
BRANCH   8  26
ATOM     26  O   UNL     1      15.430  12.009  30.510  1.00  0.00    -0.508 OA
ATOM     27  H   UNL     1      15.861  11.173  30.884  1.00  0.00     0.293 HD
ENDBRANCH   8  26
TORSDOF 6
ENDMDL
MODEL 7
REMARK VINA RESULT:    -6.898      2.540      3.210
REMARK INTER + INTRA:          -8.628
REMARK INTER:                  -8.347
REMARK INTRA:                  -0.282
REMARK UNBOUND:                -0.319
REMARK SMILES O=c1c(O)c(-c2ccc(O)c(O)c2)oc2cc(O)cc(O)c12
REMARK SMILES IDX 5 1 3 2 2 3 1 4 22 5 20 6 19 7 17 8 16 9 15 10 14 11 6 12
REMARK SMILES IDX 7 13 8 14 9 15 13 16 11 17 10 18 12 20 4 22 21 24 18 26
REMARK H PARENT 10 19 12 21 4 23 21 25 18 27
REMARK Flexibility Score: inf
ROOT
ATOM      1  C   UNL     1      14.568  17.599  31.708  1.00  0.00     0.180 A 
ATOM      2  C   UNL     1      14.274  18.845  32.289  1.00  0.00     0.208 A 
ATOM      3  C   UNL     1      14.002  19.940  31.452  1.00  0.00     0.238 A 
ATOM      4  O   UNL     1      13.793  21.065  31.977  1.00  0.00    -0.285 OA
ATOM      5  C   UNL     1      14.010  19.771  30.046  1.00  0.00     0.111 A 
ATOM      6  C   UNL     1      13.709  20.801  29.105  1.00  0.00     0.134 A 
ATOM      7  C   UNL     1      13.876  20.555  27.736  1.00  0.00     0.093 A 
ATOM      8  C   UNL     1      14.268  19.301  27.272  1.00  0.00     0.123 A 
ATOM      9  C   UNL     1      14.508  18.269  28.182  1.00  0.00     0.094 A 
ATOM     10  C   UNL     1      14.385  18.493  29.555  1.00  0.00     0.146 A 
ATOM     11  O   UNL     1      14.632  17.489  30.386  1.00  0.00    -0.452 OA
ENDROOT
BRANCH   1  12
ATOM     12  C   UNL     1      14.840  16.395  32.525  1.00  0.00     0.025 A 
ATOM     13  C   UNL     1      16.111  16.222  33.096  1.00  0.00     0.016 A 
ATOM     14  C   UNL     1      16.397  15.083  33.853  1.00  0.00     0.051 A 
ATOM     15  C   UNL     1      15.423  14.093  34.038  1.00  0.00     0.157 A 
ATOM     16  C   UNL     1      13.871  15.390  32.695  1.00  0.00     0.062 A 
ATOM     17  C   UNL     1      14.155  14.246  33.450  1.00  0.00     0.158 A 
BRANCH  15  18
ATOM     18  O   UNL     1      15.710  12.959  34.794  1.00  0.00    -0.504 OA
ATOM     19  H   UNL     1      15.891  13.016  35.790  1.00  0.00     0.293 HD
ENDBRANCH  15  18
BRANCH  17  20
ATOM     20  O   UNL     1      13.169  13.272  33.602  1.00  0.00    -0.504 OA
ATOM     21  H   UNL     1      13.301  12.318  33.288  1.00  0.00     0.293 HD
ENDBRANCH  17  20
ENDBRANCH   1  12
BRANCH   2  22
ATOM     22  O   UNL     1      14.293  18.995  33.678  1.00  0.00    -0.502 OA
ATOM     23  H   UNL     1      15.065  19.431  34.168  1.00  0.00     0.293 HD
ENDBRANCH   2  22
BRANCH   6  24
ATOM     24  O   UNL     1      13.221  22.063  29.457  1.00  0.00    -0.507 OA
ATOM     25  H   UNL     1      13.586  22.937  29.111  1.00  0.00     0.293 HD
ENDBRANCH   6  24
BRANCH   8  26
ATOM     26  O   UNL     1      14.410  19.088  25.902  1.00  0.00    -0.508 OA
ATOM     27  H   UNL     1      14.069  19.758  25.224  1.00  0.00     0.293 HD
ENDBRANCH   8  26
TORSDOF 6
ENDMDL
MODEL 8
REMARK VINA RESULT:    -6.887      2.260      2.934
REMARK INTER + INTRA:          -8.615
REMARK INTER:                  -8.282
REMARK INTRA:                  -0.333
REMARK UNBOUND:                -0.319
REMARK SMILES O=c1c(O)c(-c2ccc(O)c(O)c2)oc2cc(O)cc(O)c12
REMARK SMILES IDX 5 1 3 2 2 3 1 4 22 5 20 6 19 7 17 8 16 9 15 10 14 11 6 12
REMARK SMILES IDX 7 13 8 14 9 15 13 16 11 17 10 18 12 20 4 22 21 24 18 26
REMARK H PARENT 10 19 12 21 4 23 21 25 18 27
REMARK Flexibility Score: inf
ROOT
ATOM      1  C   UNL     1      15.279  17.157  30.641  1.00  0.00     0.180 A 
ATOM      2  C   UNL     1      14.480  17.485  29.532  1.00  0.00     0.208 A 
ATOM      3  C   UNL     1      14.385  18.829  29.134  1.00  0.00     0.238 A 
ATOM      4  O   UNL     1      13.626  19.123  28.175  1.00  0.00    -0.285 OA
ATOM      5  C   UNL     1      15.105  19.824  29.839  1.00  0.00     0.111 A 
ATOM      6  C   UNL     1      15.115  21.210  29.499  1.00  0.00     0.134 A 
ATOM      7  C   UNL     1      15.756  22.124  30.344  1.00  0.00     0.093 A 
ATOM      8  C   UNL     1      16.442  21.696  31.479  1.00  0.00     0.123 A 
ATOM      9  C   UNL     1      16.489  20.336  31.789  1.00  0.00     0.094 A 
ATOM     10  C   UNL     1      15.829  19.404  30.985  1.00  0.00     0.146 A 
ATOM     11  O   UNL     1      15.889  18.121  31.321  1.00  0.00    -0.452 OA
ENDROOT
BRANCH   1  12
ATOM     12  C   UNL     1      15.448  15.760  31.104  1.00  0.00     0.025 A 
ATOM     13  C   UNL     1      14.637  15.276  32.143  1.00  0.00     0.016 A 
ATOM     14  C   UNL     1      14.792  13.968  32.609  1.00  0.00     0.051 A 
ATOM     15  C   UNL     1      15.771  13.131  32.057  1.00  0.00     0.157 A 
ATOM     16  C   UNL     1      16.442  14.925  30.566  1.00  0.00     0.062 A 
ATOM     17  C   UNL     1      16.603  13.615  31.033  1.00  0.00     0.158 A 
BRANCH  15  18
ATOM     18  O   UNL     1      15.923  11.827  32.524  1.00  0.00    -0.504 OA
ATOM     19  H   UNL     1      15.421  11.052  32.108  1.00  0.00     0.293 HD
ENDBRANCH  15  18
BRANCH  17  20
ATOM     20  O   UNL     1      17.595  12.812  30.473  1.00  0.00    -0.504 OA
ATOM     21  H   UNL     1      17.987  12.017  30.964  1.00  0.00     0.293 HD
ENDBRANCH  17  20
ENDBRANCH   1  12
BRANCH   2  22
ATOM     22  O   UNL     1      13.761  16.490  28.864  1.00  0.00    -0.502 OA
ATOM     23  H   UNL     1      13.725  15.532  29.193  1.00  0.00     0.293 HD
ENDBRANCH   2  22
BRANCH   6  24
ATOM     24  O   UNL     1      14.538  21.733  28.337  1.00  0.00    -0.507 OA
ATOM     25  H   UNL     1      14.045  21.189  27.645  1.00  0.00     0.293 HD
ENDBRANCH   6  24
BRANCH   8  26
ATOM     26  O   UNL     1      17.083  22.632  32.290  1.00  0.00    -0.508 OA
ATOM     27  H   UNL     1      16.587  23.125  33.023  1.00  0.00     0.293 HD
ENDBRANCH   8  26
TORSDOF 6
ENDMDL
MODEL 9
REMARK VINA RESULT:    -6.840     12.980     14.372
REMARK INTER + INTRA:          -8.559
REMARK INTER:                  -8.231
REMARK INTRA:                  -0.328
REMARK UNBOUND:                -0.319
REMARK SMILES O=c1c(O)c(-c2ccc(O)c(O)c2)oc2cc(O)cc(O)c12
REMARK SMILES IDX 5 1 3 2 2 3 1 4 22 5 20 6 19 7 17 8 16 9 15 10 14 11 6 12
REMARK SMILES IDX 7 13 8 14 9 15 13 16 11 17 10 18 12 20 4 22 21 24 18 26
REMARK H PARENT 10 19 12 21 4 23 21 25 18 27
REMARK Flexibility Score: inf
ROOT
ATOM      1  C   UNL     1       9.316  16.652  18.868  1.00  0.00     0.180 A 
ATOM      2  C   UNL     1       9.698  17.992  19.054  1.00  0.00     0.208 A 
ATOM      3  C   UNL     1       8.786  18.886  19.638  1.00  0.00     0.238 A 
ATOM      4  O   UNL     1       9.114  20.096  19.752  1.00  0.00    -0.285 OA
ATOM      5  C   UNL     1       7.510  18.425  20.045  1.00  0.00     0.111 A 
ATOM      6  C   UNL     1       6.523  19.234  20.684  1.00  0.00     0.134 A 
ATOM      7  C   UNL     1       5.248  18.706  20.923  1.00  0.00     0.093 A 
ATOM      8  C   UNL     1       4.946  17.382  20.608  1.00  0.00     0.123 A 
ATOM      9  C   UNL     1       5.923  16.565  20.037  1.00  0.00     0.094 A 
ATOM     10  C   UNL     1       7.192  17.073  19.753  1.00  0.00     0.146 A 
ATOM     11  O   UNL     1       8.089  16.266  19.200  1.00  0.00    -0.452 OA
ENDROOT
BRANCH   1  12
ATOM     12  C   UNL     1      10.231  15.646  18.283  1.00  0.00     0.025 A 
ATOM     13  C   UNL     1      10.229  15.437  16.894  1.00  0.00     0.016 A 
ATOM     14  C   UNL     1      11.069  14.479  16.322  1.00  0.00     0.051 A 
ATOM     15  C   UNL     1      11.912  13.704  17.130  1.00  0.00     0.157 A 
ATOM     16  C   UNL     1      11.064  14.853  19.092  1.00  0.00     0.062 A 
ATOM     17  C   UNL     1      11.905  13.890  18.523  1.00  0.00     0.158 A 
BRANCH  15  18
ATOM     18  O   UNL     1      12.750  12.750  16.556  1.00  0.00    -0.504 OA
ATOM     19  H   UNL     1      13.476  12.289  17.092  1.00  0.00     0.293 HD
ENDBRANCH  15  18
BRANCH  17  20
ATOM     20  O   UNL     1      12.721  13.125  19.355  1.00  0.00    -0.504 OA
ATOM     21  H   UNL     1      13.121  13.498  20.208  1.00  0.00     0.293 HD
ENDBRANCH  17  20
ENDBRANCH   1  12
BRANCH   2  22
ATOM     22  O   UNL     1      10.954  18.430  18.625  1.00  0.00    -0.502 OA
ATOM     23  H   UNL     1      11.404  19.253  19.010  1.00  0.00     0.293 HD
ENDBRANCH   2  22
BRANCH   6  24
ATOM     24  O   UNL     1       6.750  20.541  21.125  1.00  0.00    -0.507 OA
ATOM     25  H   UNL     1       7.661  20.938  21.301  1.00  0.00     0.293 HD
ENDBRANCH   6  24
BRANCH   8  26
ATOM     26  O   UNL     1       3.671  16.886  20.875  1.00  0.00    -0.508 OA
ATOM     27  H   UNL     1       3.174  17.130  21.723  1.00  0.00     0.293 HD
ENDBRANCH   8  26
TORSDOF 6
ENDMDL
