MODEL 1
REMARK VINA RESULT:    -5.377      0.000      0.000
REMARK INTER + INTRA:          -9.718
REMARK INTER:                  -7.892
REMARK INTRA:                  -1.826
REMARK UNBOUND:                -1.826
REMARK SMILES O=c1c(O[C@@H]2O[C@@H](CO)[C@H](O)[C@H](O)[C@@H]2O)c(-c2ccc(O)c(O)c2)oc2cc(O)cc(O)c12
REMARK SMILES IDX 4 1 3 2 16 3 25 4 2 5 26 6 1 7 33 8 27 9 31 10 28 11 30 12
REMARK SMILES IDX 17 13 18 14 19 15 20 16 24 17 22 18 21 19 23 21 32 23 29 25
REMARK SMILES IDX 5 27 14 28 6 29 12 30 7 31 10 32 15 33 13 35 8 37 9 38 11 40
REMARK H PARENT 21 20 23 22 32 24 29 26 15 34 13 36 9 39 11 41
REMARK Flexibility Score: inf
ROOT
ATOM      1  O   UNL     1      52.571  12.325  90.473  1.00  0.00    -0.454 OA
ENDROOT
BRANCH   1   2
ATOM      2  C   UNL     1      52.521  12.752  89.131  1.00  0.00     0.214 A 
ATOM      3  C   UNL     1      52.392  11.770  88.129  1.00  0.00     0.180 A 
ATOM      4  O   UNL     1      52.416  12.116  86.846  1.00  0.00    -0.452 OA
ATOM      5  C   UNL     1      52.619  14.104  88.733  1.00  0.00     0.239 A 
ATOM      6  C   UNL     1      52.531  13.370  86.430  1.00  0.00     0.146 A 
ATOM      7  O   UNL     1      52.688  15.018  89.597  1.00  0.00    -0.285 OA
ATOM      8  C   UNL     1      52.633  14.429  87.360  1.00  0.00     0.111 A 
ATOM      9  C   UNL     1      52.545  13.631  85.057  1.00  0.00     0.094 A 
ATOM     10  C   UNL     1      52.749  15.757  86.879  1.00  0.00     0.134 A 
ATOM     11  C   UNL     1      52.662  14.943  84.589  1.00  0.00     0.123 A 
ATOM     12  C   UNL     1      52.762  15.999  85.498  1.00  0.00     0.093 A 
BRANCH   3  13
ATOM     13  C   UNL     1      52.255  10.332  88.456  1.00  0.00     0.025 A 
ATOM     14  C   UNL     1      50.994   9.731  88.600  1.00  0.00     0.016 A 
ATOM     15  C   UNL     1      50.890   8.373  88.899  1.00  0.00     0.051 A 
ATOM     16  C   UNL     1      52.036   7.581  89.039  1.00  0.00     0.157 A 
ATOM     17  C   UNL     1      53.406   9.538  88.577  1.00  0.00     0.062 A 
ATOM     18  C   UNL     1      53.311   8.171  88.870  1.00  0.00     0.158 A 
BRANCH  16  19
ATOM     19  O   UNL     1      51.863   6.229  89.338  1.00  0.00    -0.504 OA
ATOM     20  H   UNL     1      51.878   5.492  88.648  1.00  0.00     0.293 HD
ENDBRANCH  16  19
BRANCH  18  21
ATOM     21  O   UNL     1      54.499   7.445  88.982  1.00  0.00    -0.504 OA
ATOM     22  H   UNL     1      54.953   6.982  88.208  1.00  0.00     0.293 HD
ENDBRANCH  18  21
ENDBRANCH   3  13
BRANCH  10  23
ATOM     23  O   UNL     1      52.854  16.835  87.759  1.00  0.00    -0.507 OA
ATOM     24  H   UNL     1      52.118  17.061  88.417  1.00  0.00     0.293 HD
ENDBRANCH  10  23
BRANCH  11  25
ATOM     25  O   UNL     1      52.678  15.209  83.223  1.00  0.00    -0.508 OA
ATOM     26  H   UNL     1      52.318  16.079  82.847  1.00  0.00     0.293 HD
ENDBRANCH  11  25
ENDBRANCH   1   2
BRANCH   1  27
ATOM     27  C   UNL     1      53.736  12.113  91.276  1.00  0.00     0.339 C 
ATOM     28  C   UNL     1      53.608  12.866  92.615  1.00  0.00     0.214 C 
ATOM     29  O   UNL     1      53.975  10.730  91.492  1.00  0.00    -0.332 OA
ATOM     30  C   UNL     1      52.511  12.237  93.492  1.00  0.00     0.180 C 
ATOM     31  C   UNL     1      52.899  10.109  92.181  1.00  0.00     0.179 C 
ATOM     32  C   UNL     1      52.733  10.719  93.594  1.00  0.00     0.177 C 
BRANCH  28  33
ATOM     33  O   UNL     1      53.323  14.223  92.391  1.00  0.00    -0.384 OA
ATOM     34  H   UNL     1      52.570  14.254  91.744  1.00  0.00     0.211 HD
ENDBRANCH  28  33
BRANCH  30  35
ATOM     35  O   UNL     1      51.235  12.495  92.957  1.00  0.00    -0.387 OA
ATOM     36  H   UNL     1      50.662  12.798  93.707  1.00  0.00     0.211 HD
ENDBRANCH  30  35
BRANCH  31  37
ATOM     37  C   UNL     1      53.196   8.604  92.253  1.00  0.00     0.191 C 
BRANCH  37  38
ATOM     38  O   UNL     1      54.554   8.362  91.999  1.00  0.00    -0.394 OA
ATOM     39  H   UNL     1      54.597   7.963  91.091  1.00  0.00     0.210 HD
ENDBRANCH  37  38
ENDBRANCH  31  37
BRANCH  32  40
ATOM     40  O   UNL     1      51.644  10.125  94.254  1.00  0.00    -0.387 OA
ATOM     41  H   UNL     1      50.885  10.124  93.613  1.00  0.00     0.211 HD
ENDBRANCH  32  40
ENDBRANCH   1  27
TORSDOF 12
ENDMDL
MODEL 2
REMARK VINA RESULT:    -5.090      2.159      7.836
REMARK INTER + INTRA:          -9.296
REMARK INTER:                  -8.927
REMARK INTRA:                  -0.370
REMARK UNBOUND:                -1.826
REMARK SMILES O=c1c(O[C@@H]2O[C@@H](CO)[C@H](O)[C@H](O)[C@@H]2O)c(-c2ccc(O)c(O)c2)oc2cc(O)cc(O)c12
REMARK SMILES IDX 4 1 3 2 16 3 25 4 2 5 26 6 1 7 33 8 27 9 31 10 28 11 30 12
REMARK SMILES IDX 17 13 18 14 19 15 20 16 24 17 22 18 21 19 23 21 32 23 29 25
REMARK SMILES IDX 5 27 14 28 6 29 12 30 7 31 10 32 15 33 13 35 8 37 9 38 11 40
REMARK H PARENT 21 20 23 22 32 24 29 26 15 34 13 36 9 39 11 41
REMARK Flexibility Score: inf
ROOT
ATOM      1  O   UNL     1      52.147  11.829  88.704  1.00  0.00    -0.454 OA
ENDROOT
BRANCH   1   2
ATOM      2  C   UNL     1      51.838  11.289  89.968  1.00  0.00     0.214 A 
ATOM      3  C   UNL     1      51.453  12.179  90.991  1.00  0.00     0.180 A 
ATOM      4  O   UNL     1      51.225  11.727  92.220  1.00  0.00    -0.452 OA
ATOM      5  C   UNL     1      51.918   9.912  90.275  1.00  0.00     0.239 A 
ATOM      6  C   UNL     1      51.312  10.447  92.555  1.00  0.00     0.146 A 
ATOM      7  O   UNL     1      52.212   9.077  89.380  1.00  0.00    -0.285 OA
ATOM      8  C   UNL     1      51.660   9.474  91.591  1.00  0.00     0.111 A 
ATOM      9  C   UNL     1      51.051  10.072  93.876  1.00  0.00     0.094 A 
ATOM     10  C   UNL     1      51.738   8.114  91.984  1.00  0.00     0.134 A 
ATOM     11  C   UNL     1      51.133   8.730  94.258  1.00  0.00     0.123 A 
ATOM     12  C   UNL     1      51.473   7.758  93.315  1.00  0.00     0.093 A 
BRANCH   3  13
ATOM     13  C   UNL     1      51.316  13.634  90.751  1.00  0.00     0.025 A 
ATOM     14  C   UNL     1      51.059  14.143  89.468  1.00  0.00     0.016 A 
ATOM     15  C   UNL     1      50.924  15.517  89.268  1.00  0.00     0.051 A 
ATOM     16  C   UNL     1      51.020  16.409  90.342  1.00  0.00     0.157 A 
ATOM     17  C   UNL     1      51.393  14.523  91.834  1.00  0.00     0.062 A 
ATOM     18  C   UNL     1      51.252  15.904  91.644  1.00  0.00     0.158 A 
BRANCH  16  19
ATOM     19  O   UNL     1      50.875  17.771  90.075  1.00  0.00    -0.504 OA
ATOM     20  H   UNL     1      51.556  18.472  90.330  1.00  0.00     0.293 HD
ENDBRANCH  16  19
BRANCH  18  21
ATOM     21  O   UNL     1      51.348  16.730  92.767  1.00  0.00    -0.504 OA
ATOM     22  H   UNL     1      50.649  17.411  93.028  1.00  0.00     0.293 HD
ENDBRANCH  18  21
ENDBRANCH   3  13
BRANCH  10  23
ATOM     23  O   UNL     1      52.079   7.119  91.069  1.00  0.00    -0.507 OA
ATOM     24  H   UNL     1      51.467   6.866  90.302  1.00  0.00     0.293 HD
ENDBRANCH  10  23
BRANCH  11  25
ATOM     25  O   UNL     1      50.875   8.351  95.573  1.00  0.00    -0.508 OA
ATOM     26  H   UNL     1      51.401   8.737  96.349  1.00  0.00     0.293 HD
ENDBRANCH  11  25
ENDBRANCH   1   2
BRANCH   1  27
ATOM     27  C   UNL     1      53.378  11.712  87.985  1.00  0.00     0.339 C 
ATOM     28  C   UNL     1      53.107  11.600  86.472  1.00  0.00     0.214 C 
ATOM     29  O   UNL     1      54.251  12.797  88.265  1.00  0.00    -0.332 OA
ATOM     30  C   UNL     1      52.551  12.924  85.918  1.00  0.00     0.180 C 
ATOM     31  C   UNL     1      53.685  14.043  87.884  1.00  0.00     0.179 C 
ATOM     32  C   UNL     1      53.455  14.090  86.353  1.00  0.00     0.177 C 
BRANCH  28  33
ATOM     33  O   UNL     1      52.204  10.555  86.210  1.00  0.00    -0.384 OA
ATOM     34  H   UNL     1      52.595  10.020  85.471  1.00  0.00     0.211 HD
ENDBRANCH  28  33
BRANCH  30  35
ATOM     35  O   UNL     1      51.239  13.146  86.375  1.00  0.00    -0.387 OA
ATOM     36  H   UNL     1      50.700  12.361  86.099  1.00  0.00     0.211 HD
ENDBRANCH  30  35
BRANCH  31  37
ATOM     37  C   UNL     1      54.645  15.151  88.340  1.00  0.00     0.191 C 
BRANCH  37  38
ATOM     38  O   UNL     1      54.045  16.409  88.190  1.00  0.00    -0.394 OA
ATOM     39  H   UNL     1      53.851  16.733  89.108  1.00  0.00     0.210 HD
ENDBRANCH  37  38
ENDBRANCH  31  37
BRANCH  32  40
ATOM     40  O   UNL     1      52.862  15.311  85.990  1.00  0.00    -0.387 OA
ATOM     41  H   UNL     1      52.148  15.098  85.333  1.00  0.00     0.211 HD
ENDBRANCH  32  40
ENDBRANCH   1  27
TORSDOF 12
ENDMDL
MODEL 3
REMARK VINA RESULT:    -5.020      1.219      1.430
REMARK INTER + INTRA:          -9.194
REMARK INTER:                  -7.736
REMARK INTRA:                  -1.458
REMARK UNBOUND:                -1.826
REMARK SMILES O=c1c(O[C@@H]2O[C@@H](CO)[C@H](O)[C@H](O)[C@@H]2O)c(-c2ccc(O)c(O)c2)oc2cc(O)cc(O)c12
REMARK SMILES IDX 4 1 3 2 16 3 25 4 2 5 26 6 1 7 33 8 27 9 31 10 28 11 30 12
REMARK SMILES IDX 17 13 18 14 19 15 20 16 24 17 22 18 21 19 23 21 32 23 29 25
REMARK SMILES IDX 5 27 14 28 6 29 12 30 7 31 10 32 15 33 13 35 8 37 9 38 11 40
REMARK H PARENT 21 20 23 22 32 24 29 26 15 34 13 36 9 39 11 41
REMARK Flexibility Score: inf
ROOT
ATOM      1  O   UNL     1      52.030  12.983  89.784  1.00  0.00    -0.454 OA
ENDROOT
BRANCH   1   2
ATOM      2  C   UNL     1      52.142  13.221  88.400  1.00  0.00     0.214 A 
ATOM      3  C   UNL     1      52.232  12.107  87.542  1.00  0.00     0.180 A 
ATOM      4  O   UNL     1      52.415  12.280  86.237  1.00  0.00    -0.452 OA
ATOM      5  C   UNL     1      52.196  14.512  87.828  1.00  0.00     0.239 A 
ATOM      6  C   UNL     1      52.496  13.473  85.664  1.00  0.00     0.146 A 
ATOM      7  O   UNL     1      52.072  15.535  88.552  1.00  0.00    -0.285 OA
ATOM      8  C   UNL     1      52.384  14.651  86.436  1.00  0.00     0.111 A 
ATOM      9  C   UNL     1      52.688  13.550  84.282  1.00  0.00     0.094 A 
ATOM     10  C   UNL     1      52.469  15.909  85.788  1.00  0.00     0.134 A 
ATOM     11  C   UNL     1      52.774  14.794  83.649  1.00  0.00     0.123 A 
ATOM     12  C   UNL     1      52.663  15.965  84.401  1.00  0.00     0.093 A 
BRANCH   3  13
ATOM     13  C   UNL     1      52.156  10.719  88.053  1.00  0.00     0.025 A 
ATOM     14  C   UNL     1      50.924  10.117  88.357  1.00  0.00     0.016 A 
ATOM     15  C   UNL     1      50.876   8.805  88.827  1.00  0.00     0.051 A 
ATOM     16  C   UNL     1      52.050   8.059  88.984  1.00  0.00     0.157 A 
ATOM     17  C   UNL     1      53.333   9.967  88.189  1.00  0.00     0.062 A 
ATOM     18  C   UNL     1      53.295   8.646  88.654  1.00  0.00     0.158 A 
BRANCH  16  19
ATOM     19  O   UNL     1      51.934   6.751  89.457  1.00  0.00    -0.504 OA
ATOM     20  H   UNL     1      52.714   6.197  89.783  1.00  0.00     0.293 HD
ENDBRANCH  16  19
BRANCH  18  21
ATOM     21  O   UNL     1      54.506   7.961  88.772  1.00  0.00    -0.504 OA
ATOM     22  H   UNL     1      55.374   8.393  89.056  1.00  0.00     0.293 HD
ENDBRANCH  18  21
ENDBRANCH   3  13
BRANCH  10  23
ATOM     23  O   UNL     1      52.367  17.099  86.509  1.00  0.00    -0.507 OA
ATOM     24  H   UNL     1      51.693  17.815  86.265  1.00  0.00     0.293 HD
ENDBRANCH  10  23
BRANCH  11  25
ATOM     25  O   UNL     1      52.967  14.876  82.272  1.00  0.00    -0.508 OA
ATOM     26  H   UNL     1      52.970  15.768  81.789  1.00  0.00     0.293 HD
ENDBRANCH  11  25
ENDBRANCH   1   2
BRANCH   1  27
ATOM     27  C   UNL     1      52.853  13.511  90.828  1.00  0.00     0.339 C 
ATOM     28  C   UNL     1      52.173  13.316  92.198  1.00  0.00     0.214 C 
ATOM     29  O   UNL     1      54.148  12.926  90.817  1.00  0.00    -0.332 OA
ATOM     30  C   UNL     1      52.119  11.824  92.573  1.00  0.00     0.180 C 
ATOM     31  C   UNL     1      54.096  11.522  91.023  1.00  0.00     0.179 C 
ATOM     32  C   UNL     1      53.516  11.198  92.422  1.00  0.00     0.177 C 
BRANCH  28  33
ATOM     33  O   UNL     1      50.875  13.854  92.183  1.00  0.00    -0.384 OA
ATOM     34  H   UNL     1      50.264  13.132  92.486  1.00  0.00     0.211 HD
ENDBRANCH  28  33
BRANCH  30  35
ATOM     35  O   UNL     1      51.202  11.137  91.757  1.00  0.00    -0.387 OA
ATOM     36  H   UNL     1      50.413  10.928  92.320  1.00  0.00     0.211 HD
ENDBRANCH  30  35
BRANCH  31  37
ATOM     37  C   UNL     1      55.522  10.974  90.868  1.00  0.00     0.191 C 
BRANCH  37  38
ATOM     38  O   UNL     1      55.513   9.572  90.898  1.00  0.00    -0.394 OA
ATOM     39  H   UNL     1      55.859   9.276  90.016  1.00  0.00     0.210 HD
ENDBRANCH  37  38
ENDBRANCH  31  37
BRANCH  32  40
ATOM     40  O   UNL     1      53.434   9.808  92.604  1.00  0.00    -0.387 OA
ATOM     41  H   UNL     1      52.780   9.652  93.335  1.00  0.00     0.211 HD
ENDBRANCH  32  40
ENDBRANCH   1  27
TORSDOF 12
ENDMDL
MODEL 4
REMARK VINA RESULT:    -5.005      2.090      7.668
REMARK INTER + INTRA:          -9.171
REMARK INTER:                  -7.203
REMARK INTRA:                  -1.968
REMARK UNBOUND:                -1.826
REMARK SMILES O=c1c(O[C@@H]2O[C@@H](CO)[C@H](O)[C@H](O)[C@@H]2O)c(-c2ccc(O)c(O)c2)oc2cc(O)cc(O)c12
REMARK SMILES IDX 4 1 3 2 16 3 25 4 2 5 26 6 1 7 33 8 27 9 31 10 28 11 30 12
REMARK SMILES IDX 17 13 18 14 19 15 20 16 24 17 22 18 21 19 23 21 32 23 29 25
REMARK SMILES IDX 5 27 14 28 6 29 12 30 7 31 10 32 15 33 13 35 8 37 9 38 11 40
REMARK H PARENT 21 20 23 22 32 24 29 26 15 34 13 36 9 39 11 41
REMARK Flexibility Score: inf
ROOT
ATOM      1  O   UNL     1      52.029  10.999  88.507  1.00  0.00    -0.454 OA
ENDROOT
BRANCH   1   2
ATOM      2  C   UNL     1      51.767  10.066  89.529  1.00  0.00     0.214 A 
ATOM      3  C   UNL     1      51.727  10.534  90.858  1.00  0.00     0.180 A 
ATOM      4  O   UNL     1      51.559   9.681  91.863  1.00  0.00    -0.452 OA
ATOM      5  C   UNL     1      51.569   8.686  89.300  1.00  0.00     0.239 A 
ATOM      6  C   UNL     1      51.394   8.376  91.693  1.00  0.00     0.146 A 
ATOM      7  O   UNL     1      51.550   8.232  88.126  1.00  0.00    -0.285 OA
ATOM      8  C   UNL     1      51.387   7.816  90.396  1.00  0.00     0.111 A 
ATOM      9  C   UNL     1      51.223   7.562  92.816  1.00  0.00     0.094 A 
ATOM     10  C   UNL     1      51.202   6.417  90.252  1.00  0.00     0.134 A 
ATOM     11  C   UNL     1      51.044   6.183  92.668  1.00  0.00     0.123 A 
ATOM     12  C   UNL     1      51.033   5.617  91.391  1.00  0.00     0.093 A 
BRANCH   3  13
ATOM     13  C   UNL     1      51.896  11.968  91.187  1.00  0.00     0.025 A 
ATOM     14  C   UNL     1      50.875  12.901  90.941  1.00  0.00     0.016 A 
ATOM     15  C   UNL     1      51.054  14.245  91.268  1.00  0.00     0.051 A 
ATOM     16  C   UNL     1      52.241  14.684  91.866  1.00  0.00     0.157 A 
ATOM     17  C   UNL     1      53.079  12.401  91.805  1.00  0.00     0.062 A 
ATOM     18  C   UNL     1      53.265  13.747  92.144  1.00  0.00     0.158 A 
BRANCH  16  19
ATOM     19  O   UNL     1      52.356  16.041  92.170  1.00  0.00    -0.504 OA
ATOM     20  H   UNL     1      51.735  16.534  92.795  1.00  0.00     0.293 HD
ENDBRANCH  16  19
BRANCH  18  21
ATOM     21  O   UNL     1      54.471  14.106  92.750  1.00  0.00    -0.504 OA
ATOM     22  H   UNL     1      55.132  13.443  93.130  1.00  0.00     0.293 HD
ENDBRANCH  18  21
ENDBRANCH   3  13
BRANCH  10  23
ATOM     23  O   UNL     1      51.189   5.819  88.993  1.00  0.00    -0.507 OA
ATOM     24  H   UNL     1      51.961   5.251  88.662  1.00  0.00     0.293 HD
ENDBRANCH  10  23
BRANCH  11  25
ATOM     25  O   UNL     1      50.875   5.367  93.783  1.00  0.00    -0.508 OA
ATOM     26  H   UNL     1      51.551   5.356  94.540  1.00  0.00     0.293 HD
ENDBRANCH  11  25
ENDBRANCH   1   2
BRANCH   1  27
ATOM     27  C   UNL     1      53.237  11.152  87.756  1.00  0.00     0.339 C 
ATOM     28  C   UNL     1      52.922  11.267  86.252  1.00  0.00     0.214 C 
ATOM     29  O   UNL     1      53.991  12.269  88.204  1.00  0.00    -0.332 OA
ATOM     30  C   UNL     1      52.200  12.591  85.945  1.00  0.00     0.180 C 
ATOM     31  C   UNL     1      53.274  13.486  88.054  1.00  0.00     0.179 C 
ATOM     32  C   UNL     1      52.981  13.765  86.559  1.00  0.00     0.177 C 
BRANCH  28  33
ATOM     33  O   UNL     1      52.135  10.183  85.829  1.00  0.00    -0.384 OA
ATOM     34  H   UNL     1      52.422   9.397  86.363  1.00  0.00     0.211 HD
ENDBRANCH  28  33
BRANCH  30  35
ATOM     35  O   UNL     1      50.889  12.575  86.457  1.00  0.00    -0.387 OA
ATOM     36  H   UNL     1      50.299  12.951  85.754  1.00  0.00     0.211 HD
ENDBRANCH  30  35
BRANCH  31  37
ATOM     37  C   UNL     1      54.118  14.607  88.677  1.00  0.00     0.191 C 
BRANCH  37  38
ATOM     38  O   UNL     1      54.659  15.425  87.677  1.00  0.00    -0.394 OA
ATOM     39  H   UNL     1      54.332  15.059  86.814  1.00  0.00     0.210 HD
ENDBRANCH  37  38
ENDBRANCH  31  37
BRANCH  32  40
ATOM     40  O   UNL     1      52.241  14.951  86.422  1.00  0.00    -0.387 OA
ATOM     41  H   UNL     1      52.269  15.409  87.303  1.00  0.00     0.211 HD
ENDBRANCH  32  40
ENDBRANCH   1  27
TORSDOF 12
ENDMDL
MODEL 5
REMARK VINA RESULT:    -4.971      1.727      4.573
REMARK INTER + INTRA:          -9.123
REMARK INTER:                  -8.708
REMARK INTRA:                  -0.414
REMARK UNBOUND:                -1.826
REMARK SMILES O=c1c(O[C@@H]2O[C@@H](CO)[C@H](O)[C@H](O)[C@@H]2O)c(-c2ccc(O)c(O)c2)oc2cc(O)cc(O)c12
REMARK SMILES IDX 4 1 3 2 16 3 25 4 2 5 26 6 1 7 33 8 27 9 31 10 28 11 30 12
REMARK SMILES IDX 17 13 18 14 19 15 20 16 24 17 22 18 21 19 23 21 32 23 29 25
REMARK SMILES IDX 5 27 14 28 6 29 12 30 7 31 10 32 15 33 13 35 8 37 9 38 11 40
REMARK H PARENT 21 20 23 22 32 24 29 26 15 34 13 36 9 39 11 41
REMARK Flexibility Score: inf
ROOT
ATOM      1  O   UNL     1      52.455  11.550  89.481  1.00  0.00    -0.454 OA
ENDROOT
BRANCH   1   2
ATOM      2  C   UNL     1      52.701  12.461  88.435  1.00  0.00     0.214 A 
ATOM      3  C   UNL     1      53.581  13.533  88.684  1.00  0.00     0.180 A 
ATOM      4  O   UNL     1      53.786  14.461  87.755  1.00  0.00    -0.452 OA
ATOM      5  C   UNL     1      52.094  12.377  87.162  1.00  0.00     0.239 A 
ATOM      6  C   UNL     1      53.219  14.432  86.557  1.00  0.00     0.146 A 
ATOM      7  O   UNL     1      51.337  11.410  86.880  1.00  0.00    -0.285 OA
ATOM      8  C   UNL     1      52.345  13.380  86.202  1.00  0.00     0.111 A 
ATOM      9  C   UNL     1      53.500  15.455  85.648  1.00  0.00     0.094 A 
ATOM     10  C   UNL     1      51.761  13.378  84.910  1.00  0.00     0.134 A 
ATOM     11  C   UNL     1      52.918  15.449  84.377  1.00  0.00     0.123 A 
ATOM     12  C   UNL     1      52.055  14.415  84.012  1.00  0.00     0.093 A 
BRANCH   3  13
ATOM     13  C   UNL     1      54.282  13.684  89.981  1.00  0.00     0.025 A 
ATOM     14  C   UNL     1      55.510  14.358  90.075  1.00  0.00     0.016 A 
ATOM     15  C   UNL     1      56.146  14.496  91.309  1.00  0.00     0.051 A 
ATOM     16  C   UNL     1      55.564  13.986  92.475  1.00  0.00     0.157 A 
ATOM     17  C   UNL     1      53.685  13.188  91.150  1.00  0.00     0.062 A 
ATOM     18  C   UNL     1      54.313  13.328  92.395  1.00  0.00     0.158 A 
BRANCH  16  19
ATOM     19  O   UNL     1      56.251  14.157  93.677  1.00  0.00    -0.504 OA
ATOM     20  H   UNL     1      57.152  13.747  93.876  1.00  0.00     0.293 HD
ENDBRANCH  16  19
BRANCH  18  21
ATOM     21  O   UNL     1      53.664  12.804  93.515  1.00  0.00    -0.504 OA
ATOM     22  H   UNL     1      53.369  11.841  93.598  1.00  0.00     0.293 HD
ENDBRANCH  18  21
ENDBRANCH   3  13
BRANCH  10  23
ATOM     23  O   UNL     1      50.892  12.362  84.514  1.00  0.00    -0.507 OA
ATOM     24  H   UNL     1      50.493  12.332  83.582  1.00  0.00     0.293 HD
ENDBRANCH  10  23
BRANCH  11  25
ATOM     25  O   UNL     1      53.194  16.468  83.468  1.00  0.00    -0.508 OA
ATOM     26  H   UNL     1      52.668  17.335  83.467  1.00  0.00     0.293 HD
ENDBRANCH  11  25
ENDBRANCH   1   2
BRANCH   1  27
ATOM     27  C   UNL     1      51.810  10.276  89.393  1.00  0.00     0.339 C 
ATOM     28  C   UNL     1      52.843   9.173  89.091  1.00  0.00     0.214 C 
ATOM     29  O   UNL     1      51.080   9.979  90.575  1.00  0.00    -0.332 OA
ATOM     30  C   UNL     1      53.782   8.960  90.292  1.00  0.00     0.180 C 
ATOM     31  C   UNL     1      51.924   9.919  91.717  1.00  0.00     0.179 C 
ATOM     32  C   UNL     1      52.953   8.771  91.573  1.00  0.00     0.177 C 
BRANCH  28  33
ATOM     33  O   UNL     1      53.593   9.500  87.949  1.00  0.00    -0.384 OA
ATOM     34  H   UNL     1      53.131   9.083  87.175  1.00  0.00     0.211 HD
ENDBRANCH  28  33
BRANCH  30  35
ATOM     35  O   UNL     1      54.650  10.056  90.447  1.00  0.00    -0.387 OA
ATOM     36  H   UNL     1      54.895  10.099  91.407  1.00  0.00     0.211 HD
ENDBRANCH  30  35
BRANCH  31  37
ATOM     37  C   UNL     1      51.029   9.718  92.948  1.00  0.00     0.191 C 
BRANCH  37  38
ATOM     38  O   UNL     1      51.614  10.306  94.078  1.00  0.00    -0.394 OA
ATOM     39  H   UNL     1      50.950  10.217  94.810  1.00  0.00     0.210 HD
ENDBRANCH  37  38
ENDBRANCH  31  37
BRANCH  32  40
ATOM     40  O   UNL     1      53.805   8.742  92.689  1.00  0.00    -0.387 OA
ATOM     41  H   UNL     1      53.394   8.123  93.349  1.00  0.00     0.211 HD
ENDBRANCH  32  40
ENDBRANCH   1  27
TORSDOF 12
ENDMDL
MODEL 6
REMARK VINA RESULT:    -4.782      2.260      8.106
REMARK INTER + INTRA:          -8.845
REMARK INTER:                  -6.965
REMARK INTRA:                  -1.880
REMARK UNBOUND:                -1.826
REMARK SMILES O=c1c(O[C@@H]2O[C@@H](CO)[C@H](O)[C@H](O)[C@@H]2O)c(-c2ccc(O)c(O)c2)oc2cc(O)cc(O)c12
REMARK SMILES IDX 4 1 3 2 16 3 25 4 2 5 26 6 1 7 33 8 27 9 31 10 28 11 30 12
REMARK SMILES IDX 17 13 18 14 19 15 20 16 24 17 22 18 21 19 23 21 32 23 29 25
REMARK SMILES IDX 5 27 14 28 6 29 12 30 7 31 10 32 15 33 13 35 8 37 9 38 11 40
REMARK H PARENT 21 20 23 22 32 24 29 26 15 34 13 36 9 39 11 41
REMARK Flexibility Score: inf
ROOT
ATOM      1  O   UNL     1      52.627   9.960  90.199  1.00  0.00    -0.454 OA
ENDROOT
BRANCH   1   2
ATOM      2  C   UNL     1      52.242   9.553  91.492  1.00  0.00     0.214 A 
ATOM      3  C   UNL     1      51.964  10.552  92.445  1.00  0.00     0.180 A 
ATOM      4  O   UNL     1      51.671  10.219  93.698  1.00  0.00    -0.452 OA
ATOM      5  C   UNL     1      52.148   8.201  91.893  1.00  0.00     0.239 A 
ATOM      6  C   UNL     1      51.595   8.965  94.121  1.00  0.00     0.146 A 
ATOM      7  O   UNL     1      52.342   7.275  91.062  1.00  0.00    -0.285 OA
ATOM      8  C   UNL     1      51.826   7.892  93.232  1.00  0.00     0.111 A 
ATOM      9  C   UNL     1      51.279   8.718  95.460  1.00  0.00     0.094 A 
ATOM     10  C   UNL     1      51.731   6.563  93.718  1.00  0.00     0.134 A 
ATOM     11  C   UNL     1      51.189   7.406  95.934  1.00  0.00     0.123 A 
ATOM     12  C   UNL     1      51.413   6.336  95.065  1.00  0.00     0.093 A 
BRANCH   3  13
ATOM     13  C   UNL     1      52.011  11.993  92.104  1.00  0.00     0.025 A 
ATOM     14  C   UNL     1      50.876  12.672  91.634  1.00  0.00     0.016 A 
ATOM     15  C   UNL     1      50.943  14.031  91.328  1.00  0.00     0.051 A 
ATOM     16  C   UNL     1      52.133  14.746  91.505  1.00  0.00     0.157 A 
ATOM     17  C   UNL     1      53.201  12.710  92.301  1.00  0.00     0.062 A 
ATOM     18  C   UNL     1      53.276  14.078  92.004  1.00  0.00     0.158 A 
BRANCH  16  19
ATOM     19  O   UNL     1      52.134  16.103  91.181  1.00  0.00    -0.504 OA
ATOM     20  H   UNL     1      51.427  16.757  91.487  1.00  0.00     0.293 HD
ENDBRANCH  16  19
BRANCH  18  21
ATOM     21  O   UNL     1      54.495  14.725  92.219  1.00  0.00    -0.504 OA
ATOM     22  H   UNL     1      54.592  15.596  92.722  1.00  0.00     0.293 HD
ENDBRANCH  18  21
ENDBRANCH   3  13
BRANCH  10  23
ATOM     23  O   UNL     1      51.952   5.472  92.878  1.00  0.00    -0.507 OA
ATOM     24  H   UNL     1      51.198   4.859  92.588  1.00  0.00     0.293 HD
ENDBRANCH  10  23
BRANCH  11  25
ATOM     25  O   UNL     1      50.875   7.155  97.267  1.00  0.00    -0.508 OA
ATOM     26  H   UNL     1      49.938   6.892  97.551  1.00  0.00     0.293 HD
ENDBRANCH  11  25
ENDBRANCH   1   2
BRANCH   1  27
ATOM     27  C   UNL     1      53.956  10.152  89.706  1.00  0.00     0.339 C 
ATOM     28  C   UNL     1      54.169   9.344  88.411  1.00  0.00     0.214 C 
ATOM     29  O   UNL     1      54.240  11.528  89.498  1.00  0.00    -0.332 OA
ATOM     30  C   UNL     1      53.327   9.924  87.261  1.00  0.00     0.180 C 
ATOM     31  C   UNL     1      53.371  12.109  88.536  1.00  0.00     0.179 C 
ATOM     32  C   UNL     1      53.566  11.439  87.153  1.00  0.00     0.177 C 
BRANCH  28  33
ATOM     33  O   UNL     1      53.838   7.994  88.614  1.00  0.00    -0.384 OA
ATOM     34  H   UNL     1      54.561   7.457  88.196  1.00  0.00     0.211 HD
ENDBRANCH  28  33
BRANCH  30  35
ATOM     35  O   UNL     1      51.959   9.674  87.468  1.00  0.00    -0.387 OA
ATOM     36  H   UNL     1      51.489  10.544  87.390  1.00  0.00     0.211 HD
ENDBRANCH  30  35
BRANCH  31  37
ATOM     37  C   UNL     1      53.676  13.613  88.477  1.00  0.00     0.191 C 
BRANCH  37  38
ATOM     38  O   UNL     1      54.910  13.885  89.084  1.00  0.00    -0.394 OA
ATOM     39  H   UNL     1      55.498  14.239  88.366  1.00  0.00     0.210 HD
ENDBRANCH  37  38
ENDBRANCH  31  37
BRANCH  32  40
ATOM     40  O   UNL     1      52.679  11.994  86.216  1.00  0.00    -0.387 OA
ATOM     41  H   UNL     1      52.161  12.696  86.692  1.00  0.00     0.211 HD
ENDBRANCH  32  40
ENDBRANCH   1  27
TORSDOF 12
ENDMDL
MODEL 7
REMARK VINA RESULT:    -4.714      2.681      5.767
REMARK INTER + INTRA:          -8.745
REMARK INTER:                  -9.309
REMARK INTRA:                   0.563
REMARK UNBOUND:                -1.826
REMARK SMILES O=c1c(O[C@@H]2O[C@@H](CO)[C@H](O)[C@H](O)[C@@H]2O)c(-c2ccc(O)c(O)c2)oc2cc(O)cc(O)c12
REMARK SMILES IDX 4 1 3 2 16 3 25 4 2 5 26 6 1 7 33 8 27 9 31 10 28 11 30 12
REMARK SMILES IDX 17 13 18 14 19 15 20 16 24 17 22 18 21 19 23 21 32 23 29 25
REMARK SMILES IDX 5 27 14 28 6 29 12 30 7 31 10 32 15 33 13 35 8 37 9 38 11 40
REMARK H PARENT 21 20 23 22 32 24 29 26 15 34 13 36 9 39 11 41
REMARK Flexibility Score: inf
ROOT
ATOM      1  O   UNL     1      52.091  13.623  89.069  1.00  0.00    -0.454 OA
ENDROOT
BRANCH   1   2
ATOM      2  C   UNL     1      51.886  14.994  89.319  1.00  0.00     0.214 A 
ATOM      3  C   UNL     1      52.056  15.895  88.249  1.00  0.00     0.180 A 
ATOM      4  O   UNL     1      51.948  17.204  88.452  1.00  0.00    -0.452 OA
ATOM      5  C   UNL     1      51.548  15.518  90.587  1.00  0.00     0.239 A 
ATOM      6  C   UNL     1      51.656  17.738  89.630  1.00  0.00     0.146 A 
ATOM      7  O   UNL     1      51.340  14.747  91.560  1.00  0.00    -0.285 OA
ATOM      8  C   UNL     1      51.436  16.915  90.757  1.00  0.00     0.111 A 
ATOM      9  C   UNL     1      51.564  19.128  89.741  1.00  0.00     0.094 A 
ATOM     10  C   UNL     1      51.119  17.520  92.000  1.00  0.00     0.134 A 
ATOM     11  C   UNL     1      51.254  19.719  90.970  1.00  0.00     0.123 A 
ATOM     12  C   UNL     1      51.032  18.917  92.091  1.00  0.00     0.093 A 
BRANCH   3  13
ATOM     13  C   UNL     1      52.384  15.431  86.881  1.00  0.00     0.025 A 
ATOM     14  C   UNL     1      52.375  16.311  85.788  1.00  0.00     0.016 A 
ATOM     15  C   UNL     1      52.697  15.853  84.510  1.00  0.00     0.051 A 
ATOM     16  C   UNL     1      53.055  14.516  84.299  1.00  0.00     0.157 A 
ATOM     17  C   UNL     1      52.763  14.095  86.677  1.00  0.00     0.062 A 
ATOM     18  C   UNL     1      53.095  13.627  85.399  1.00  0.00     0.158 A 
BRANCH  16  19
ATOM     19  O   UNL     1      53.367  14.121  82.998  1.00  0.00    -0.504 OA
ATOM     20  H   UNL     1      53.915  13.304  82.771  1.00  0.00     0.293 HD
ENDBRANCH  16  19
BRANCH  18  21
ATOM     21  O   UNL     1      53.455  12.284  85.270  1.00  0.00    -0.504 OA
ATOM     22  H   UNL     1      53.147  11.686  84.516  1.00  0.00     0.293 HD
ENDBRANCH  18  21
ENDBRANCH   3  13
BRANCH  10  23
ATOM     23  O   UNL     1      50.895  16.749  93.140  1.00  0.00    -0.507 OA
ATOM     24  H   UNL     1      50.544  17.155  94.000  1.00  0.00     0.293 HD
ENDBRANCH  10  23
BRANCH  11  25
ATOM     25  O   UNL     1      51.163  21.104  91.086  1.00  0.00    -0.508 OA
ATOM     26  H   UNL     1      51.498  21.721  90.355  1.00  0.00     0.293 HD
ENDBRANCH  11  25
ENDBRANCH   1   2
BRANCH   1  27
ATOM     27  C   UNL     1      51.316  12.523  89.555  1.00  0.00     0.339 C 
ATOM     28  C   UNL     1      51.513  11.289  88.654  1.00  0.00     0.214 C 
ATOM     29  O   UNL     1      51.632  12.221  90.907  1.00  0.00    -0.332 OA
ATOM     30  C   UNL     1      52.944  10.739  88.787  1.00  0.00     0.180 C 
ATOM     31  C   UNL     1      52.993  11.846  91.061  1.00  0.00     0.179 C 
ATOM     32  C   UNL     1      53.293  10.548  90.272  1.00  0.00     0.177 C 
BRANCH  28  33
ATOM     33  O   UNL     1      51.246  11.611  87.313  1.00  0.00    -0.384 OA
ATOM     34  H   UNL     1      51.979  11.216  86.773  1.00  0.00     0.211 HD
ENDBRANCH  28  33
BRANCH  30  35
ATOM     35  O   UNL     1      53.872  11.612  88.191  1.00  0.00    -0.387 OA
ATOM     36  H   UNL     1      54.023  12.356  88.829  1.00  0.00     0.211 HD
ENDBRANCH  30  35
BRANCH  31  37
ATOM     37  C   UNL     1      53.261  11.664  92.562  1.00  0.00     0.191 C 
BRANCH  37  38
ATOM     38  O   UNL     1      53.815  12.831  93.105  1.00  0.00    -0.394 OA
ATOM     39  H   UNL     1      54.676  12.973  92.632  1.00  0.00     0.210 HD
ENDBRANCH  37  38
ENDBRANCH  31  37
BRANCH  32  40
ATOM     40  O   UNL     1      54.649  10.204  90.400  1.00  0.00    -0.387 OA
ATOM     41  H   UNL     1      55.128  10.644  89.649  1.00  0.00     0.211 HD
ENDBRANCH  32  40
ENDBRANCH   1  27
TORSDOF 12
ENDMDL
MODEL 8
REMARK VINA RESULT:    -4.693      2.745      6.171
REMARK INTER + INTRA:          -8.714
REMARK INTER:                  -9.390
REMARK INTRA:                   0.676
REMARK UNBOUND:                -1.826
REMARK SMILES O=c1c(O[C@@H]2O[C@@H](CO)[C@H](O)[C@H](O)[C@@H]2O)c(-c2ccc(O)c(O)c2)oc2cc(O)cc(O)c12
REMARK SMILES IDX 4 1 3 2 16 3 25 4 2 5 26 6 1 7 33 8 27 9 31 10 28 11 30 12
REMARK SMILES IDX 17 13 18 14 19 15 20 16 24 17 22 18 21 19 23 21 32 23 29 25
REMARK SMILES IDX 5 27 14 28 6 29 12 30 7 31 10 32 15 33 13 35 8 37 9 38 11 40
REMARK H PARENT 21 20 23 22 32 24 29 26 15 34 13 36 9 39 11 41
REMARK Flexibility Score: inf
ROOT
ATOM      1  O   UNL     1      51.840  14.415  89.970  1.00  0.00    -0.454 OA
ENDROOT
BRANCH   1   2
ATOM      2  C   UNL     1      52.152  14.766  88.642  1.00  0.00     0.214 A 
ATOM      3  C   UNL     1      52.130  16.132  88.296  1.00  0.00     0.180 A 
ATOM      4  O   UNL     1      52.343  16.508  87.039  1.00  0.00    -0.452 OA
ATOM      5  C   UNL     1      52.458  13.826  87.632  1.00  0.00     0.239 A 
ATOM      6  C   UNL     1      52.609  15.657  86.058  1.00  0.00     0.146 A 
ATOM      7  O   UNL     1      52.534  12.599  87.907  1.00  0.00    -0.285 OA
ATOM      8  C   UNL     1      52.684  14.269  86.312  1.00  0.00     0.111 A 
ATOM      9  C   UNL     1      52.819  16.152  84.768  1.00  0.00     0.094 A 
ATOM     10  C   UNL     1      52.977  13.389  85.239  1.00  0.00     0.134 A 
ATOM     11  C   UNL     1      53.105  15.279  83.715  1.00  0.00     0.123 A 
ATOM     12  C   UNL     1      53.184  13.905  83.952  1.00  0.00     0.093 A 
BRANCH   3  13
ATOM     13  C   UNL     1      51.846  17.187  89.296  1.00  0.00     0.025 A 
ATOM     14  C   UNL     1      51.122  16.910  90.467  1.00  0.00     0.016 A 
ATOM     15  C   UNL     1      50.875  17.918  91.399  1.00  0.00     0.051 A 
ATOM     16  C   UNL     1      51.363  19.214  91.197  1.00  0.00     0.157 A 
ATOM     17  C   UNL     1      52.354  18.481  89.099  1.00  0.00     0.062 A 
ATOM     18  C   UNL     1      52.118  19.498  90.034  1.00  0.00     0.158 A 
BRANCH  16  19
ATOM     19  O   UNL     1      51.083  20.176  92.168  1.00  0.00    -0.504 OA
ATOM     20  H   UNL     1      50.261  20.164  92.754  1.00  0.00     0.293 HD
ENDBRANCH  16  19
BRANCH  18  21
ATOM     21  O   UNL     1      52.648  20.762  89.768  1.00  0.00    -0.504 OA
ATOM     22  H   UNL     1      53.513  21.107  90.162  1.00  0.00     0.293 HD
ENDBRANCH  18  21
ENDBRANCH   3  13
BRANCH  10  23
ATOM     23  O   UNL     1      53.061  12.011  85.441  1.00  0.00    -0.507 OA
ATOM     24  H   UNL     1      53.938  11.556  85.665  1.00  0.00     0.293 HD
ENDBRANCH  10  23
BRANCH  11  25
ATOM     25  O   UNL     1      53.314  15.767  82.427  1.00  0.00    -0.508 OA
ATOM     26  H   UNL     1      52.544  15.905  81.781  1.00  0.00     0.293 HD
ENDBRANCH  11  25
ENDBRANCH   1   2
BRANCH   1  27
ATOM     27  C   UNL     1      52.654  14.592  91.132  1.00  0.00     0.339 C 
ATOM     28  C   UNL     1      52.473  13.407  92.100  1.00  0.00     0.214 C 
ATOM     29  O   UNL     1      54.022  14.763  90.789  1.00  0.00    -0.332 OA
ATOM     30  C   UNL     1      53.066  12.119  91.503  1.00  0.00     0.180 C 
ATOM     31  C   UNL     1      54.542  13.629  90.109  1.00  0.00     0.179 C 
ATOM     32  C   UNL     1      54.504  12.381  91.025  1.00  0.00     0.177 C 
BRANCH  28  33
ATOM     33  O   UNL     1      51.112  13.216  92.395  1.00  0.00    -0.384 OA
ATOM     34  H   UNL     1      50.992  12.247  92.571  1.00  0.00     0.211 HD
ENDBRANCH  28  33
BRANCH  30  35
ATOM     35  O   UNL     1      52.285  11.662  90.426  1.00  0.00    -0.387 OA
ATOM     36  H   UNL     1      51.380  11.470  90.784  1.00  0.00     0.211 HD
ENDBRANCH  30  35
BRANCH  31  37
ATOM     37  C   UNL     1      55.977  13.962  89.675  1.00  0.00     0.191 C 
BRANCH  37  38
ATOM     38  O   UNL     1      55.968  14.708  88.489  1.00  0.00    -0.394 OA
ATOM     39  H   UNL     1      56.192  15.640  88.748  1.00  0.00     0.210 HD
ENDBRANCH  37  38
ENDBRANCH  31  37
BRANCH  32  40
ATOM     40  O   UNL     1      54.986  11.257  90.333  1.00  0.00    -0.387 OA
ATOM     41  H   UNL     1      55.150  11.545  89.397  1.00  0.00     0.211 HD
ENDBRANCH  32  40
ENDBRANCH   1  27
TORSDOF 12
ENDMDL
MODEL 9
REMARK VINA RESULT:    -4.269      2.111      4.640
REMARK INTER + INTRA:          -8.092
REMARK INTER:                  -7.886
REMARK INTRA:                  -0.206
REMARK UNBOUND:                -1.826
REMARK SMILES O=c1c(O[C@@H]2O[C@@H](CO)[C@H](O)[C@H](O)[C@@H]2O)c(-c2ccc(O)c(O)c2)oc2cc(O)cc(O)c12
REMARK SMILES IDX 4 1 3 2 16 3 25 4 2 5 26 6 1 7 33 8 27 9 31 10 28 11 30 12
REMARK SMILES IDX 17 13 18 14 19 15 20 16 24 17 22 18 21 19 23 21 32 23 29 25
REMARK SMILES IDX 5 27 14 28 6 29 12 30 7 31 10 32 15 33 13 35 8 37 9 38 11 40
REMARK H PARENT 21 20 23 22 32 24 29 26 15 34 13 36 9 39 11 41
REMARK Flexibility Score: inf
ROOT
ATOM      1  O   UNL     1      53.963  11.131  90.190  1.00  0.00    -0.454 OA
ENDROOT
BRANCH   1   2
ATOM      2  C   UNL     1      53.397  12.420  90.255  1.00  0.00     0.214 A 
ATOM      3  C   UNL     1      52.487  12.692  91.295  1.00  0.00     0.180 A 
ATOM      4  O   UNL     1      51.870  13.867  91.355  1.00  0.00    -0.452 OA
ATOM      5  C   UNL     1      53.670  13.445  89.320  1.00  0.00     0.239 A 
ATOM      6  C   UNL     1      52.079  14.846  90.486  1.00  0.00     0.146 A 
ATOM      7  O   UNL     1      54.512  13.262  88.402  1.00  0.00    -0.285 OA
ATOM      8  C   UNL     1      52.998  14.681  89.425  1.00  0.00     0.111 A 
ATOM      9  C   UNL     1      51.380  16.047  90.635  1.00  0.00     0.094 A 
ATOM     10  C   UNL     1      53.200  15.752  88.518  1.00  0.00     0.134 A 
ATOM     11  C   UNL     1      51.583  17.099  89.736  1.00  0.00     0.123 A 
ATOM     12  C   UNL     1      52.489  16.949  88.684  1.00  0.00     0.093 A 
BRANCH   3  13
ATOM     13  C   UNL     1      52.164  11.686  92.334  1.00  0.00     0.025 A 
ATOM     14  C   UNL     1      52.285  11.981  93.701  1.00  0.00     0.016 A 
ATOM     15  C   UNL     1      51.966  11.020  94.660  1.00  0.00     0.051 A 
ATOM     16  C   UNL     1      51.499   9.756  94.280  1.00  0.00     0.157 A 
ATOM     17  C   UNL     1      51.677  10.427  91.948  1.00  0.00     0.062 A 
ATOM     18  C   UNL     1      51.347   9.458  92.905  1.00  0.00     0.158 A 
BRANCH  16  19
ATOM     19  O   UNL     1      51.196   8.841  95.288  1.00  0.00    -0.504 OA
ATOM     20  H   UNL     1      50.842   7.910  95.119  1.00  0.00     0.293 HD
ENDBRANCH  16  19
BRANCH  18  21
ATOM     21  O   UNL     1      50.875   8.226  92.448  1.00  0.00    -0.504 OA
ATOM     22  H   UNL     1      51.451   7.536  91.985  1.00  0.00     0.293 HD
ENDBRANCH  18  21
ENDBRANCH   3  13
BRANCH  10  23
ATOM     23  O   UNL     1      54.096  15.635  87.455  1.00  0.00    -0.507 OA
ATOM     24  H   UNL     1      55.053  15.332  87.593  1.00  0.00     0.293 HD
ENDBRANCH  10  23
BRANCH  11  25
ATOM     25  O   UNL     1      50.888  18.297  89.879  1.00  0.00    -0.508 OA
ATOM     26  H   UNL     1      50.938  19.027  89.177  1.00  0.00     0.293 HD
ENDBRANCH  11  25
ENDBRANCH   1   2
BRANCH   1  27
ATOM     27  C   UNL     1      54.265  10.371  89.016  1.00  0.00     0.339 C 
ATOM     28  C   UNL     1      54.978   9.059  89.396  1.00  0.00     0.214 C 
ATOM     29  O   UNL     1      53.099  10.111  88.248  1.00  0.00    -0.332 OA
ATOM     30  C   UNL     1      54.018   8.112  90.138  1.00  0.00     0.180 C 
ATOM     31  C   UNL     1      52.144   9.353  88.978  1.00  0.00     0.179 C 
ATOM     32  C   UNL     1      52.715   7.959  89.336  1.00  0.00     0.177 C 
BRANCH  28  33
ATOM     33  O   UNL     1      56.102   9.324  90.197  1.00  0.00    -0.384 OA
ATOM     34  H   UNL     1      55.908   8.949  91.095  1.00  0.00     0.211 HD
ENDBRANCH  28  33
BRANCH  30  35
ATOM     35  O   UNL     1      53.728   8.601  91.425  1.00  0.00    -0.387 OA
ATOM     36  H   UNL     1      53.087   9.349  91.313  1.00  0.00     0.211 HD
ENDBRANCH  30  35
BRANCH  31  37
ATOM     37  C   UNL     1      50.881   9.236  88.112  1.00  0.00     0.191 C 
BRANCH  37  38
ATOM     38  O   UNL     1      51.138   9.686  86.810  1.00  0.00    -0.394 OA
ATOM     39  H   UNL     1      51.822  10.400  86.895  1.00  0.00     0.210 HD
ENDBRANCH  37  38
ENDBRANCH  31  37
BRANCH  32  40
ATOM     40  O   UNL     1      51.778   7.230  90.087  1.00  0.00    -0.387 OA
ATOM     41  H   UNL     1      51.159   6.804  89.438  1.00  0.00     0.211 HD
ENDBRANCH  32  40
ENDBRANCH   1  27
TORSDOF 12
ENDMDL
