MODEL 1
REMARK VINA RESULT:    -5.000      0.000      0.000
REMARK INTER + INTRA:         -11.739
REMARK INTER:                  -9.676
REMARK INTRA:                  -2.063
REMARK UNBOUND:                -2.063
REMARK SMILES CCCCCCCCCCCCCCCCCC(=O)[O-]
REMARK SMILES IDX 10 1 11 2 12 3 13 4 14 5 15 6 16 7 17 8 18 9 19 10 20 11
REMARK SMILES IDX 9 12 8 13 7 14 6 15 5 16 4 17 3 18 2 19 1 20
REMARK H PARENT
REMARK Flexibility Score: inf
ROOT
ATOM      1  C   UNL     1      25.910  13.330  35.943  1.00  0.00     0.000 C 
ENDROOT
BRANCH   1   2
ATOM      2  C   UNL     1      25.371  11.915  35.676  1.00  0.00     0.000 C 
BRANCH   2   3
ATOM      3  C   UNL     1      25.394  11.548  34.183  1.00  0.00     0.000 C 
BRANCH   3   4
ATOM      4  C   UNL     1      24.530  12.485  33.325  1.00  0.00     0.000 C 
BRANCH   4   5
ATOM      5  C   UNL     1      23.171  11.842  33.013  1.00  0.00     0.000 C 
BRANCH   5   6
ATOM      6  C   UNL     1      22.026  12.867  32.963  1.00  0.00     0.000 C 
BRANCH   6   7
ATOM      7  C   UNL     1      21.828  13.601  34.297  1.00  0.00     0.006 C 
BRANCH   7   8
ATOM      8  C   UNL     1      21.827  12.615  35.469  1.00  0.00     0.053 C 
BRANCH   8   9
ATOM      9  C   UNL     1      20.437  12.411  35.982  1.00  0.00     0.041 C 
ATOM     10  O   UNL     1      19.701  13.403  36.230  1.00  0.00    -0.550 OA
ATOM     11  O   UNL     1      19.969  11.128  36.232  1.00  0.00    -0.550 OA
ENDBRANCH   8   9
ENDBRANCH   7   8
ENDBRANCH   6   7
ENDBRANCH   5   6
ENDBRANCH   4   5
ENDBRANCH   3   4
ENDBRANCH   2   3
ENDBRANCH   1   2
BRANCH   1  12
ATOM     12  C   UNL     1      27.446  13.412  35.862  1.00  0.00     0.000 C 
BRANCH  12  13
ATOM     13  C   UNL     1      28.000  14.184  34.651  1.00  0.00    -0.000 C 
BRANCH  13  14
ATOM     14  C   UNL     1      28.649  13.266  33.599  1.00  0.00    -0.000 C 
BRANCH  14  15
ATOM     15  C   UNL     1      27.959  13.362  32.229  1.00  0.00    -0.000 C 
BRANCH  15  16
ATOM     16  C   UNL     1      28.874  12.907  31.078  1.00  0.00    -0.000 C 
BRANCH  16  17
ATOM     17  C   UNL     1      28.284  11.727  30.287  1.00  0.00    -0.000 C 
BRANCH  17  18
ATOM     18  C   UNL     1      27.193  10.977  31.065  1.00  0.00    -0.000 C 
BRANCH  18  19
ATOM     19  C   UNL     1      26.112  10.445  30.117  1.00  0.00    -0.003 C 
ATOM     20  C   UNL     1      25.394   9.240  30.718  1.00  0.00     0.004 C 
ENDBRANCH  18  19
ENDBRANCH  17  18
ENDBRANCH  16  17
ENDBRANCH  15  16
ENDBRANCH  14  15
ENDBRANCH  13  14
ENDBRANCH  12  13
ENDBRANCH   1  12
TORSDOF 16
ENDMDL
MODEL 2
REMARK VINA RESULT:    -4.882      1.257      3.727
REMARK INTER + INTRA:         -11.513
REMARK INTER:                  -9.781
REMARK INTRA:                  -1.732
REMARK UNBOUND:                -2.063
REMARK SMILES CCCCCCCCCCCCCCCCCC(=O)[O-]
REMARK SMILES IDX 10 1 11 2 12 3 13 4 14 5 15 6 16 7 17 8 18 9 19 10 20 11
REMARK SMILES IDX 9 12 8 13 7 14 6 15 5 16 4 17 3 18 2 19 1 20
REMARK H PARENT
REMARK Flexibility Score: inf
ROOT
ATOM      1  C   UNL     1      25.433  10.963  32.498  1.00  0.00     0.000 C 
ENDROOT
BRANCH   1   2
ATOM      2  C   UNL     1      24.729  12.200  33.080  1.00  0.00     0.000 C 
BRANCH   2   3
ATOM      3  C   UNL     1      24.707  12.196  34.618  1.00  0.00     0.000 C 
BRANCH   3   4
ATOM      4  C   UNL     1      23.399  12.760  35.196  1.00  0.00     0.000 C 
BRANCH   4   5
ATOM      5  C   UNL     1      22.305  12.811  34.119  1.00  0.00     0.000 C 
BRANCH   5   6
ATOM      6  C   UNL     1      21.189  13.814  34.455  1.00  0.00     0.000 C 
BRANCH   6   7
ATOM      7  C   UNL     1      20.577  13.577  35.844  1.00  0.00     0.006 C 
BRANCH   7   8
ATOM      8  C   UNL     1      19.169  12.985  35.727  1.00  0.00     0.053 C 
BRANCH   8   9
ATOM      9  C   UNL     1      19.168  11.548  36.143  1.00  0.00     0.041 C 
ATOM     10  O   UNL     1      19.726  10.679  35.423  1.00  0.00    -0.550 OA
ATOM     11  O   UNL     1      18.509  11.160  37.303  1.00  0.00    -0.550 OA
ENDBRANCH   8   9
ENDBRANCH   7   8
ENDBRANCH   6   7
ENDBRANCH   5   6
ENDBRANCH   4   5
ENDBRANCH   3   4
ENDBRANCH   2   3
ENDBRANCH   1   2
BRANCH   1  12
ATOM     12  C   UNL     1      25.207  10.801  30.983  1.00  0.00     0.000 C 
BRANCH  12  13
ATOM     13  C   UNL     1      26.379  11.249  30.092  1.00  0.00    -0.000 C 
BRANCH  13  14
ATOM     14  C   UNL     1      27.739  11.178  30.809  1.00  0.00    -0.000 C 
BRANCH  14  15
ATOM     15  C   UNL     1      28.714  12.266  30.330  1.00  0.00    -0.000 C 
BRANCH  15  16
ATOM     16  C   UNL     1      28.992  13.324  31.413  1.00  0.00    -0.000 C 
BRANCH  16  17
ATOM     17  C   UNL     1      28.615  12.839  32.823  1.00  0.00    -0.000 C 
BRANCH  17  18
ATOM     18  C   UNL     1      27.992  13.948  33.685  1.00  0.00    -0.000 C 
BRANCH  18  19
ATOM     19  C   UNL     1      28.001  13.558  35.168  1.00  0.00    -0.003 C 
ATOM     20  C   UNL     1      27.962  14.793  36.064  1.00  0.00     0.004 C 
ENDBRANCH  18  19
ENDBRANCH  17  18
ENDBRANCH  16  17
ENDBRANCH  15  16
ENDBRANCH  14  15
ENDBRANCH  13  14
ENDBRANCH  12  13
ENDBRANCH   1  12
TORSDOF 16
ENDMDL
MODEL 3
REMARK VINA RESULT:    -4.830      1.867      4.461
REMARK INTER + INTRA:         -11.412
REMARK INTER:                  -9.080
REMARK INTRA:                  -2.331
REMARK UNBOUND:                -2.063
REMARK SMILES CCCCCCCCCCCCCCCCCC(=O)[O-]
REMARK SMILES IDX 10 1 11 2 12 3 13 4 14 5 15 6 16 7 17 8 18 9 19 10 20 11
REMARK SMILES IDX 9 12 8 13 7 14 6 15 5 16 4 17 3 18 2 19 1 20
REMARK H PARENT
REMARK Flexibility Score: inf
ROOT
ATOM      1  C   UNL     1      25.383   8.930  30.680  1.00  0.00     0.000 C 
ENDROOT
BRANCH   1   2
ATOM      2  C   UNL     1      24.003   9.237  30.075  1.00  0.00     0.000 C 
BRANCH   2   3
ATOM      3  C   UNL     1      23.178  10.199  30.946  1.00  0.00     0.000 C 
BRANCH   3   4
ATOM      4  C   UNL     1      23.132  11.625  30.377  1.00  0.00     0.000 C 
BRANCH   4   5
ATOM      5  C   UNL     1      22.911  12.653  31.498  1.00  0.00     0.000 C 
BRANCH   5   6
ATOM      6  C   UNL     1      23.205  12.081  32.894  1.00  0.00     0.000 C 
BRANCH   6   7
ATOM      7  C   UNL     1      24.581  12.502  33.430  1.00  0.00     0.006 C 
BRANCH   7   8
ATOM      8  C   UNL     1      24.897  11.789  34.748  1.00  0.00     0.053 C 
BRANCH   8   9
ATOM      9  C   UNL     1      24.376  12.578  35.908  1.00  0.00     0.041 C 
ATOM     10  O   UNL     1      25.154  13.302  36.583  1.00  0.00    -0.550 OA
ATOM     11  O   UNL     1      23.041  12.475  36.274  1.00  0.00    -0.550 OA
ENDBRANCH   8   9
ENDBRANCH   7   8
ENDBRANCH   6   7
ENDBRANCH   5   6
ENDBRANCH   4   5
ENDBRANCH   3   4
ENDBRANCH   2   3
ENDBRANCH   1   2
BRANCH   1  12
ATOM     12  C   UNL     1      26.136  10.196  31.130  1.00  0.00     0.000 C 
BRANCH  12  13
ATOM     13  C   UNL     1      26.821  10.990  30.002  1.00  0.00    -0.000 C 
BRANCH  13  14
ATOM     14  C   UNL     1      27.040  12.471  30.359  1.00  0.00    -0.000 C 
BRANCH  14  15
ATOM     15  C   UNL     1      28.522  12.874  30.316  1.00  0.00    -0.000 C 
BRANCH  15  16
ATOM     16  C   UNL     1      29.034  13.379  31.676  1.00  0.00    -0.000 C 
BRANCH  16  17
ATOM     17  C   UNL     1      27.995  13.212  32.797  1.00  0.00    -0.000 C 
BRANCH  17  18
ATOM     18  C   UNL     1      28.520  12.375  33.974  1.00  0.00    -0.000 C 
BRANCH  18  19
ATOM     19  C   UNL     1      28.280  13.093  35.307  1.00  0.00    -0.003 C 
ATOM     20  C   UNL     1      27.975  14.573  35.089  1.00  0.00     0.004 C 
ENDBRANCH  18  19
ENDBRANCH  17  18
ENDBRANCH  16  17
ENDBRANCH  15  16
ENDBRANCH  14  15
ENDBRANCH  13  14
ENDBRANCH  12  13
ENDBRANCH   1  12
TORSDOF 16
ENDMDL
MODEL 4
REMARK VINA RESULT:    -4.815      1.044      3.605
REMARK INTER + INTRA:         -11.383
REMARK INTER:                  -9.179
REMARK INTRA:                  -2.204
REMARK UNBOUND:                -2.063
REMARK SMILES CCCCCCCCCCCCCCCCCC(=O)[O-]
REMARK SMILES IDX 10 1 11 2 12 3 13 4 14 5 15 6 16 7 17 8 18 9 19 10 20 11
REMARK SMILES IDX 9 12 8 13 7 14 6 15 5 16 4 17 3 18 2 19 1 20
REMARK H PARENT
REMARK Flexibility Score: inf
ROOT
ATOM      1  C   UNL     1      27.190  10.854  31.390  1.00  0.00     0.000 C 
ENDROOT
BRANCH   1   2
ATOM      2  C   UNL     1      25.687  10.536  31.460  1.00  0.00     0.000 C 
BRANCH   2   3
ATOM      3  C   UNL     1      24.827  11.795  31.661  1.00  0.00     0.000 C 
BRANCH   3   4
ATOM      4  C   UNL     1      23.466  11.489  32.306  1.00  0.00     0.000 C 
BRANCH   4   5
ATOM      5  C   UNL     1      22.497  12.666  32.121  1.00  0.00     0.000 C 
BRANCH   5   6
ATOM      6  C   UNL     1      22.016  13.254  33.457  1.00  0.00     0.000 C 
BRANCH   6   7
ATOM      7  C   UNL     1      21.224  12.242  34.299  1.00  0.00     0.006 C 
BRANCH   7   8
ATOM      8  C   UNL     1      21.161  12.681  35.765  1.00  0.00     0.053 C 
BRANCH   8   9
ATOM      9  C   UNL     1      19.762  12.574  36.285  1.00  0.00     0.041 C 
ATOM     10  O   UNL     1      19.315  11.464  36.677  1.00  0.00    -0.550 OA
ATOM     11  O   UNL     1      18.936  13.690  36.290  1.00  0.00    -0.550 OA
ENDBRANCH   8   9
ENDBRANCH   7   8
ENDBRANCH   6   7
ENDBRANCH   5   6
ENDBRANCH   4   5
ENDBRANCH   3   4
ENDBRANCH   2   3
ENDBRANCH   1   2
BRANCH   1  12
ATOM     12  C   UNL     1      27.498  12.113  30.556  1.00  0.00     0.000 C 
BRANCH  12  13
ATOM     13  C   UNL     1      28.594  13.029  31.131  1.00  0.00    -0.000 C 
BRANCH  13  14
ATOM     14  C   UNL     1      28.740  12.904  32.658  1.00  0.00    -0.000 C 
BRANCH  14  15
ATOM     15  C   UNL     1      27.959  13.992  33.414  1.00  0.00    -0.000 C 
BRANCH  15  16
ATOM     16  C   UNL     1      27.739  13.635  34.895  1.00  0.00    -0.000 C 
BRANCH  16  17
ATOM     17  C   UNL     1      27.676  12.118  35.134  1.00  0.00    -0.000 C 
BRANCH  17  18
ATOM     18  C   UNL     1      26.244  11.564  35.059  1.00  0.00    -0.000 C 
BRANCH  18  19
ATOM     19  C   UNL     1      25.214  12.688  35.216  1.00  0.00    -0.003 C 
ATOM     20  C   UNL     1      24.713  12.781  36.655  1.00  0.00     0.004 C 
ENDBRANCH  18  19
ENDBRANCH  17  18
ENDBRANCH  16  17
ENDBRANCH  15  16
ENDBRANCH  14  15
ENDBRANCH  13  14
ENDBRANCH  12  13
ENDBRANCH   1  12
TORSDOF 16
ENDMDL
MODEL 5
REMARK VINA RESULT:    -4.801      1.193      3.984
REMARK INTER + INTRA:         -11.356
REMARK INTER:                  -9.123
REMARK INTRA:                  -2.232
REMARK UNBOUND:                -2.063
REMARK SMILES CCCCCCCCCCCCCCCCCC(=O)[O-]
REMARK SMILES IDX 10 1 11 2 12 3 13 4 14 5 15 6 16 7 17 8 18 9 19 10 20 11
REMARK SMILES IDX 9 12 8 13 7 14 6 15 5 16 4 17 3 18 2 19 1 20
REMARK H PARENT
REMARK Flexibility Score: inf
ROOT
ATOM      1  C   UNL     1      27.825  11.359  29.878  1.00  0.00     0.000 C 
ENDROOT
BRANCH   1   2
ATOM      2  C   UNL     1      26.387  10.848  30.064  1.00  0.00     0.000 C 
BRANCH   2   3
ATOM      3  C   UNL     1      26.128  10.322  31.486  1.00  0.00     0.000 C 
BRANCH   3   4
ATOM      4  C   UNL     1      25.166  11.216  32.284  1.00  0.00     0.000 C 
BRANCH   4   5
ATOM      5  C   UNL     1      24.574  12.315  31.390  1.00  0.00     0.000 C 
BRANCH   5   6
ATOM      6  C   UNL     1      23.126  12.671  31.767  1.00  0.00     0.000 C 
BRANCH   6   7
ATOM      7  C   UNL     1      22.653  11.958  33.042  1.00  0.00     0.006 C 
BRANCH   7   8
ATOM      8  C   UNL     1      22.101  12.962  34.058  1.00  0.00     0.053 C 
BRANCH   8   9
ATOM      9  C   UNL     1      21.031  12.330  34.891  1.00  0.00     0.041 C 
ATOM     10  O   UNL     1      21.237  12.085  36.108  1.00  0.00    -0.550 OA
ATOM     11  O   UNL     1      19.822  11.967  34.311  1.00  0.00    -0.550 OA
ENDBRANCH   8   9
ENDBRANCH   7   8
ENDBRANCH   6   7
ENDBRANCH   5   6
ENDBRANCH   4   5
ENDBRANCH   3   4
ENDBRANCH   2   3
ENDBRANCH   1   2
BRANCH   1  12
ATOM     12  C   UNL     1      27.951  12.881  30.076  1.00  0.00     0.000 C 
BRANCH  12  13
ATOM     13  C   UNL     1      29.051  13.328  31.057  1.00  0.00    -0.000 C 
BRANCH  13  14
ATOM     14  C   UNL     1      28.769  12.901  32.508  1.00  0.00    -0.000 C 
BRANCH  14  15
ATOM     15  C   UNL     1      27.651  13.732  33.159  1.00  0.00    -0.000 C 
BRANCH  15  16
ATOM     16  C   UNL     1      28.039  14.246  34.557  1.00  0.00    -0.000 C 
BRANCH  16  17
ATOM     17  C   UNL     1      27.189  13.619  35.674  1.00  0.00    -0.000 C 
BRANCH  17  18
ATOM     18  C   UNL     1      26.801  12.161  35.378  1.00  0.00    -0.000 C 
BRANCH  18  19
ATOM     19  C   UNL     1      25.310  11.927  35.642  1.00  0.00    -0.003 C 
ATOM     20  C   UNL     1      24.757  12.952  36.630  1.00  0.00     0.004 C 
ENDBRANCH  18  19
ENDBRANCH  17  18
ENDBRANCH  16  17
ENDBRANCH  15  16
ENDBRANCH  14  15
ENDBRANCH  13  14
ENDBRANCH  12  13
ENDBRANCH   1  12
TORSDOF 16
ENDMDL
MODEL 6
REMARK VINA RESULT:    -4.730      2.630      6.637
REMARK INTER + INTRA:         -11.217
REMARK INTER:                  -9.411
REMARK INTRA:                  -1.806
REMARK UNBOUND:                -2.063
REMARK SMILES CCCCCCCCCCCCCCCCCC(=O)[O-]
REMARK SMILES IDX 10 1 11 2 12 3 13 4 14 5 15 6 16 7 17 8 18 9 19 10 20 11
REMARK SMILES IDX 9 12 8 13 7 14 6 15 5 16 4 17 3 18 2 19 1 20
REMARK H PARENT
REMARK Flexibility Score: inf
ROOT
ATOM      1  C   UNL     1      25.847  10.143  31.156  1.00  0.00     0.000 C 
ENDROOT
BRANCH   1   2
ATOM      2  C   UNL     1      26.595  10.932  30.070  1.00  0.00     0.000 C 
BRANCH   2   3
ATOM      3  C   UNL     1      26.073  12.371  29.921  1.00  0.00     0.000 C 
BRANCH   3   4
ATOM      4  C   UNL     1      26.789  13.363  30.851  1.00  0.00     0.000 C 
BRANCH   4   5
ATOM      5  C   UNL     1      28.277  13.007  30.988  1.00  0.00     0.000 C 
BRANCH   5   6
ATOM      6  C   UNL     1      28.742  12.956  32.452  1.00  0.00     0.000 C 
BRANCH   6   7
ATOM      7  C   UNL     1      27.743  13.615  33.415  1.00  0.00     0.006 C 
BRANCH   7   8
ATOM      8  C   UNL     1      27.947  13.108  34.846  1.00  0.00     0.053 C 
BRANCH   8   9
ATOM      9  C   UNL     1      27.353  14.065  35.830  1.00  0.00     0.041 C 
ATOM     10  O   UNL     1      27.970  15.118  36.141  1.00  0.00    -0.550 OA
ATOM     11  O   UNL     1      26.142  13.771  36.442  1.00  0.00    -0.550 OA
ENDBRANCH   8   9
ENDBRANCH   7   8
ENDBRANCH   6   7
ENDBRANCH   5   6
ENDBRANCH   4   5
ENDBRANCH   3   4
ENDBRANCH   2   3
ENDBRANCH   1   2
BRANCH   1  12
ATOM     12  C   UNL     1      24.317  10.279  31.051  1.00  0.00     0.000 C 
BRANCH  12  13
ATOM     13  C   UNL     1      23.644  11.054  32.198  1.00  0.00    -0.000 C 
BRANCH  13  14
ATOM     14  C   UNL     1      24.645  11.532  33.266  1.00  0.00    -0.000 C 
BRANCH  14  15
ATOM     15  C   UNL     1      24.076  12.659  34.143  1.00  0.00    -0.000 C 
BRANCH  15  16
ATOM     16  C   UNL     1      22.570  12.878  33.914  1.00  0.00    -0.000 C 
BRANCH  16  17
ATOM     17  C   UNL     1      21.764  12.850  35.223  1.00  0.00    -0.000 C 
BRANCH  17  18
ATOM     18  C   UNL     1      20.776  14.022  35.338  1.00  0.00    -0.000 C 
BRANCH  18  19
ATOM     19  C   UNL     1      19.427  13.548  35.890  1.00  0.00    -0.003 C 
ATOM     20  C   UNL     1      19.547  12.170  36.534  1.00  0.00     0.004 C 
ENDBRANCH  18  19
ENDBRANCH  17  18
ENDBRANCH  16  17
ENDBRANCH  15  16
ENDBRANCH  14  15
ENDBRANCH  13  14
ENDBRANCH  12  13
ENDBRANCH   1  12
TORSDOF 16
ENDMDL
MODEL 7
REMARK VINA RESULT:    -4.705      1.824      2.752
REMARK INTER + INTRA:         -11.169
REMARK INTER:                  -8.860
REMARK INTRA:                  -2.309
REMARK UNBOUND:                -2.063
REMARK SMILES CCCCCCCCCCCCCCCCCC(=O)[O-]
REMARK SMILES IDX 10 1 11 2 12 3 13 4 14 5 15 6 16 7 17 8 18 9 19 10 20 11
REMARK SMILES IDX 9 12 8 13 7 14 6 15 5 16 4 17 3 18 2 19 1 20
REMARK H PARENT
REMARK Flexibility Score: inf
ROOT
ATOM      1  C   UNL     1      28.011  13.329  35.341  1.00  0.00     0.000 C 
ENDROOT
BRANCH   1   2
ATOM      2  C   UNL     1      26.829  14.126  35.915  1.00  0.00     0.000 C 
BRANCH   2   3
ATOM      3  C   UNL     1      25.586  13.252  36.149  1.00  0.00     0.000 C 
BRANCH   3   4
ATOM      4  C   UNL     1      25.688  11.878  35.469  1.00  0.00     0.000 C 
BRANCH   4   5
ATOM      5  C   UNL     1      24.883  11.855  34.161  1.00  0.00     0.000 C 
BRANCH   5   6
ATOM      6  C   UNL     1      23.539  12.593  34.278  1.00  0.00     0.000 C 
BRANCH   6   7
ATOM      7  C   UNL     1      22.500  12.096  33.262  1.00  0.00     0.006 C 
BRANCH   7   8
ATOM      8  C   UNL     1      22.323  13.104  32.123  1.00  0.00     0.053 C 
BRANCH   8   9
ATOM      9  C   UNL     1      21.076  13.905  32.320  1.00  0.00     0.041 C 
ATOM     10  O   UNL     1      20.080  13.723  31.571  1.00  0.00    -0.550 OA
ATOM     11  O   UNL     1      21.029  14.888  33.300  1.00  0.00    -0.550 OA
ENDBRANCH   8   9
ENDBRANCH   7   8
ENDBRANCH   6   7
ENDBRANCH   5   6
ENDBRANCH   4   5
ENDBRANCH   3   4
ENDBRANCH   2   3
ENDBRANCH   1   2
BRANCH   1  12
ATOM     12  C   UNL     1      28.383  13.753  33.908  1.00  0.00     0.000 C 
BRANCH  12  13
ATOM     13  C   UNL     1      28.330  12.631  32.856  1.00  0.00    -0.000 C 
BRANCH  13  14
ATOM     14  C   UNL     1      28.807  13.090  31.466  1.00  0.00    -0.000 C 
BRANCH  14  15
ATOM     15  C   UNL     1      27.769  12.811  30.366  1.00  0.00    -0.000 C 
BRANCH  15  16
ATOM     16  C   UNL     1      26.323  12.948  30.875  1.00  0.00    -0.000 C 
BRANCH  16  17
ATOM     17  C   UNL     1      25.458  11.724  30.531  1.00  0.00    -0.000 C 
BRANCH  17  18
ATOM     18  C   UNL     1      26.091  10.401  30.990  1.00  0.00    -0.000 C 
BRANCH  18  19
ATOM     19  C   UNL     1      25.169   9.217  30.679  1.00  0.00    -0.003 C 
ATOM     20  C   UNL     1      23.704   9.644  30.673  1.00  0.00     0.004 C 
ENDBRANCH  18  19
ENDBRANCH  17  18
ENDBRANCH  16  17
ENDBRANCH  15  16
ENDBRANCH  14  15
ENDBRANCH  13  14
ENDBRANCH  12  13
ENDBRANCH   1  12
TORSDOF 16
ENDMDL
MODEL 8
REMARK VINA RESULT:    -4.689      1.504      3.889
REMARK INTER + INTRA:         -11.139
REMARK INTER:                  -8.789
REMARK INTRA:                  -2.351
REMARK UNBOUND:                -2.063
REMARK SMILES CCCCCCCCCCCCCCCCCC(=O)[O-]
REMARK SMILES IDX 10 1 11 2 12 3 13 4 14 5 15 6 16 7 17 8 18 9 19 10 20 11
REMARK SMILES IDX 9 12 8 13 7 14 6 15 5 16 4 17 3 18 2 19 1 20
REMARK H PARENT
REMARK Flexibility Score: inf
ROOT
ATOM      1  C   UNL     1      25.906  10.738  31.955  1.00  0.00     0.000 C 
ENDROOT
BRANCH   1   2
ATOM      2  C   UNL     1      25.360   9.649  31.017  1.00  0.00     0.000 C 
BRANCH   2   3
ATOM      3  C   UNL     1      24.102  10.102  30.257  1.00  0.00     0.000 C 
BRANCH   3   4
ATOM      4  C   UNL     1      22.800   9.658  30.942  1.00  0.00     0.000 C 
BRANCH   4   5
ATOM      5  C   UNL     1      21.783  10.808  30.978  1.00  0.00     0.000 C 
BRANCH   5   6
ATOM      6  C   UNL     1      21.294  11.124  32.401  1.00  0.00     0.000 C 
BRANCH   6   7
ATOM      7  C   UNL     1      22.353  11.850  33.244  1.00  0.00     0.006 C 
BRANCH   7   8
ATOM      8  C   UNL     1      22.088  13.358  33.275  1.00  0.00     0.053 C 
BRANCH   8   9
ATOM      9  C   UNL     1      21.296  13.726  34.489  1.00  0.00     0.041 C 
ATOM     10  O   UNL     1      20.725  14.847  34.558  1.00  0.00    -0.550 OA
ATOM     11  O   UNL     1      21.227  12.852  35.566  1.00  0.00    -0.550 OA
ENDBRANCH   8   9
ENDBRANCH   7   8
ENDBRANCH   6   7
ENDBRANCH   5   6
ENDBRANCH   4   5
ENDBRANCH   3   4
ENDBRANCH   2   3
ENDBRANCH   1   2
BRANCH   1  12
ATOM     12  C   UNL     1      25.426  12.152  31.578  1.00  0.00     0.000 C 
BRANCH  12  13
ATOM     13  C   UNL     1      26.542  13.161  31.252  1.00  0.00    -0.000 C 
BRANCH  13  14
ATOM     14  C   UNL     1      27.953  12.572  31.431  1.00  0.00    -0.000 C 
BRANCH  14  15
ATOM     15  C   UNL     1      28.765  13.307  32.510  1.00  0.00    -0.000 C 
BRANCH  15  16
ATOM     16  C   UNL     1      28.399  12.850  33.933  1.00  0.00    -0.000 C 
BRANCH  16  17
ATOM     17  C   UNL     1      28.052  14.028  34.860  1.00  0.00    -0.000 C 
BRANCH  17  18
ATOM     18  C   UNL     1      26.906  13.702  35.830  1.00  0.00    -0.000 C 
BRANCH  18  19
ATOM     19  C   UNL     1      26.005  12.600  35.263  1.00  0.00    -0.003 C 
ATOM     20  C   UNL     1      24.708  12.482  36.059  1.00  0.00     0.004 C 
ENDBRANCH  18  19
ENDBRANCH  17  18
ENDBRANCH  16  17
ENDBRANCH  15  16
ENDBRANCH  14  15
ENDBRANCH  13  14
ENDBRANCH  12  13
ENDBRANCH   1  12
TORSDOF 16
ENDMDL
MODEL 9
REMARK VINA RESULT:    -4.646      2.738      7.114
REMARK INTER + INTRA:         -11.054
REMARK INTER:                  -9.200
REMARK INTRA:                  -1.854
REMARK UNBOUND:                -2.063
REMARK SMILES CCCCCCCCCCCCCCCCCC(=O)[O-]
REMARK SMILES IDX 10 1 11 2 12 3 13 4 14 5 15 6 16 7 17 8 18 9 19 10 20 11
REMARK SMILES IDX 9 12 8 13 7 14 6 15 5 16 4 17 3 18 2 19 1 20
REMARK H PARENT
REMARK Flexibility Score: inf
ROOT
ATOM      1  C   UNL     1      23.168  11.505  32.597  1.00  0.00     0.000 C 
ENDROOT
BRANCH   1   2
ATOM      2  C   UNL     1      24.635  11.538  33.055  1.00  0.00     0.000 C 
BRANCH   2   3
ATOM      3  C   UNL     1      25.563  12.191  32.016  1.00  0.00     0.000 C 
BRANCH   3   4
ATOM      4  C   UNL     1      26.753  11.297  31.635  1.00  0.00     0.000 C 
BRANCH   4   5
ATOM      5  C   UNL     1      28.073  12.076  31.731  1.00  0.00     0.000 C 
BRANCH   5   6
ATOM      6  C   UNL     1      28.009  13.231  32.744  1.00  0.00     0.000 C 
BRANCH   6   7
ATOM      7  C   UNL     1      28.726  12.903  34.063  1.00  0.00     0.006 C 
BRANCH   7   8
ATOM      8  C   UNL     1      27.722  12.499  35.146  1.00  0.00     0.053 C 
BRANCH   8   9
ATOM      9  C   UNL     1      27.146  13.712  35.805  1.00  0.00     0.041 C 
ATOM     10  O   UNL     1      27.844  14.751  35.943  1.00  0.00    -0.550 OA
ATOM     11  O   UNL     1      25.853  13.680  36.312  1.00  0.00    -0.550 OA
ENDBRANCH   8   9
ENDBRANCH   7   8
ENDBRANCH   6   7
ENDBRANCH   5   6
ENDBRANCH   4   5
ENDBRANCH   3   4
ENDBRANCH   2   3
ENDBRANCH   1   2
BRANCH   1  12
ATOM     12  C   UNL     1      22.254  12.408  33.446  1.00  0.00     0.000 C 
BRANCH  12  13
ATOM     13  C   UNL     1      22.738  12.666  34.885  1.00  0.00    -0.000 C 
BRANCH  13  14
ATOM     14  C   UNL     1      21.582  12.902  35.873  1.00  0.00    -0.000 C 
BRANCH  14  15
ATOM     15  C   UNL     1      20.534  11.777  35.832  1.00  0.00    -0.000 C 
BRANCH  15  16
ATOM     16  C   UNL     1      19.142  12.285  35.416  1.00  0.00    -0.000 C 
BRANCH  16  17
ATOM     17  C   UNL     1      19.017  13.814  35.518  1.00  0.00    -0.000 C 
BRANCH  17  18
ATOM     18  C   UNL     1      18.308  14.434  34.304  1.00  0.00    -0.000 C 
BRANCH  18  19
ATOM     19  C   UNL     1      19.285  14.622  33.137  1.00  0.00    -0.003 C 
ATOM     20  C   UNL     1      20.460  15.510  33.538  1.00  0.00     0.004 C 
ENDBRANCH  18  19
ENDBRANCH  17  18
ENDBRANCH  16  17
ENDBRANCH  15  16
ENDBRANCH  14  15
ENDBRANCH  13  14
ENDBRANCH  12  13
ENDBRANCH   1  12
TORSDOF 16
ENDMDL
