MODEL 1
REMARK VINA RESULT:    -4.029      0.000      0.000
REMARK INTER + INTRA:          -9.850
REMARK INTER:                  -7.562
REMARK INTRA:                  -2.288
REMARK UNBOUND:                -2.288
REMARK SMILES CCCCCCCCC=CCCCCCCCC(=O)[O-]
REMARK SMILES IDX 10 1 9 2 11 3 12 4 13 5 14 6 15 7 16 8 17 9 18 10 19 11
REMARK SMILES IDX 20 12 8 13 7 14 6 15 5 16 4 17 3 18 2 19 1 20
REMARK H PARENT
REMARK Flexibility Score: inf
ROOT
ATOM      1  C   UNL     1      40.266  24.194 223.363  1.00  0.00    -0.031 C 
ATOM      2  C   UNL     1      40.875  23.041 223.025  1.00  0.00    -0.031 C 
ENDROOT
BRANCH   1   3
ATOM      3  C   UNL     1      40.194  24.761 224.761  1.00  0.00     0.027 C 
BRANCH   3   4
ATOM      4  C   UNL     1      38.775  25.240 225.094  1.00  0.00     0.004 C 
BRANCH   4   5
ATOM      5  C   UNL     1      38.092  25.906 223.888  1.00  0.00     0.000 C 
BRANCH   5   6
ATOM      6  C   UNL     1      36.710  25.306 223.586  1.00  0.00     0.000 C 
BRANCH   6   7
ATOM      7  C   UNL     1      36.654  23.793 223.841  1.00  0.00     0.000 C 
BRANCH   7   8
ATOM      8  C   UNL     1      36.465  23.020 222.526  1.00  0.00     0.006 C 
BRANCH   8   9
ATOM      9  C   UNL     1      36.069  23.939 221.363  1.00  0.00     0.053 C 
BRANCH   9  10
ATOM     10  C   UNL     1      36.921  23.704 220.153  1.00  0.00     0.041 C 
ATOM     11  O   UNL     1      38.078  23.221 220.277  1.00  0.00    -0.550 OA
ATOM     12  O   UNL     1      36.451  24.047 218.892  1.00  0.00    -0.550 OA
ENDBRANCH   9  10
ENDBRANCH   8   9
ENDBRANCH   7   8
ENDBRANCH   6   7
ENDBRANCH   5   6
ENDBRANCH   4   5
ENDBRANCH   3   4
ENDBRANCH   1   3
BRANCH   2  13
ATOM     13  C   UNL     1      41.536  22.096 223.996  1.00  0.00     0.027 C 
BRANCH  13  14
ATOM     14  C   UNL     1      40.558  21.036 224.528  1.00  0.00     0.004 C 
BRANCH  14  15
ATOM     15  C   UNL     1      40.138  21.315 225.979  1.00  0.00     0.000 C 
BRANCH  15  16
ATOM     16  C   UNL     1      38.641  21.653 226.062  1.00  0.00     0.000 C 
BRANCH  16  17
ATOM     17  C   UNL     1      37.827  20.562 226.775  1.00  0.00    -0.000 C 
BRANCH  17  18
ATOM     18  C   UNL     1      37.614  19.316 225.903  1.00  0.00    -0.000 C 
BRANCH  18  19
ATOM     19  C   UNL     1      38.030  18.044 226.653  1.00  0.00    -0.003 C 
ATOM     20  C   UNL     1      39.482  17.679 226.359  1.00  0.00     0.004 C 
ENDBRANCH  18  19
ENDBRANCH  17  18
ENDBRANCH  16  17
ENDBRANCH  15  16
ENDBRANCH  14  15
ENDBRANCH  13  14
ENDBRANCH   2  13
TORSDOF 15
ENDMDL
MODEL 2
REMARK VINA RESULT:    -3.904      3.052      5.956
REMARK INTER + INTRA:          -9.616
REMARK INTER:                  -7.365
REMARK INTRA:                  -2.251
REMARK UNBOUND:                -2.288
REMARK SMILES CCCCCCCCC=CCCCCCCCC(=O)[O-]
REMARK SMILES IDX 10 1 9 2 11 3 12 4 13 5 14 6 15 7 16 8 17 9 18 10 19 11
REMARK SMILES IDX 20 12 8 13 7 14 6 15 5 16 4 17 3 18 2 19 1 20
REMARK H PARENT
REMARK Flexibility Score: inf
ROOT
ATOM      1  C   UNL     1      39.126  26.616 227.147  1.00  0.00    -0.031 C 
ATOM      2  C   UNL     1      38.493  26.053 226.100  1.00  0.00    -0.031 C 
ENDROOT
BRANCH   1   3
ATOM      3  C   UNL     1      40.152  27.720 227.053  1.00  0.00     0.027 C 
BRANCH   3   4
ATOM      4  C   UNL     1      41.560  27.199 227.367  1.00  0.00     0.004 C 
BRANCH   4   5
ATOM      5  C   UNL     1      42.482  27.250 226.137  1.00  0.00     0.000 C 
BRANCH   5   6
ATOM      6  C   UNL     1      43.408  26.028 226.042  1.00  0.00     0.000 C 
BRANCH   6   7
ATOM      7  C   UNL     1      42.657  24.702 226.228  1.00  0.00     0.000 C 
BRANCH   7   8
ATOM      8  C   UNL     1      41.868  24.334 224.961  1.00  0.00     0.006 C 
BRANCH   8   9
ATOM      9  C   UNL     1      40.750  23.322 225.244  1.00  0.00     0.053 C 
BRANCH   9  10
ATOM     10  C   UNL     1      39.904  23.075 224.034  1.00  0.00     0.041 C 
ATOM     11  O   UNL     1      38.924  22.287 224.096  1.00  0.00    -0.550 OA
ATOM     12  O   UNL     1      40.217  23.688 222.827  1.00  0.00    -0.550 OA
ENDBRANCH   9  10
ENDBRANCH   8   9
ENDBRANCH   7   8
ENDBRANCH   6   7
ENDBRANCH   5   6
ENDBRANCH   4   5
ENDBRANCH   3   4
ENDBRANCH   1   3
BRANCH   2  13
ATOM     13  C   UNL     1      38.749  26.393 224.653  1.00  0.00     0.027 C 
BRANCH  13  14
ATOM     14  C   UNL     1      37.560  26.022 223.752  1.00  0.00     0.004 C 
BRANCH  14  15
ATOM     15  C   UNL     1      36.553  25.111 224.471  1.00  0.00     0.000 C 
BRANCH  15  16
ATOM     16  C   UNL     1      35.939  24.095 223.497  1.00  0.00     0.000 C 
BRANCH  16  17
ATOM     17  C   UNL     1      36.267  24.410 222.029  1.00  0.00    -0.000 C 
BRANCH  17  18
ATOM     18  C   UNL     1      36.937  23.233 221.306  1.00  0.00    -0.000 C 
BRANCH  18  19
ATOM     19  C   UNL     1      37.485  23.668 219.940  1.00  0.00    -0.003 C 
ATOM     20  C   UNL     1      36.352  23.978 218.965  1.00  0.00     0.004 C 
ENDBRANCH  18  19
ENDBRANCH  17  18
ENDBRANCH  16  17
ENDBRANCH  15  16
ENDBRANCH  14  15
ENDBRANCH  13  14
ENDBRANCH   2  13
TORSDOF 15
ENDMDL
MODEL 3
REMARK VINA RESULT:    -3.900      3.116      6.017
REMARK INTER + INTRA:          -9.608
REMARK INTER:                  -6.612
REMARK INTRA:                  -2.995
REMARK UNBOUND:                -2.288
REMARK SMILES CCCCCCCCC=CCCCCCCCC(=O)[O-]
REMARK SMILES IDX 10 1 9 2 11 3 12 4 13 5 14 6 15 7 16 8 17 9 18 10 19 11
REMARK SMILES IDX 20 12 8 13 7 14 6 15 5 16 4 17 3 18 2 19 1 20
REMARK H PARENT
REMARK Flexibility Score: inf
ROOT
ATOM      1  C   UNL     1      41.427  23.328 223.361  1.00  0.00    -0.031 C 
ATOM      2  C   UNL     1      40.378  24.061 222.940  1.00  0.00    -0.031 C 
ENDROOT
BRANCH   1   3
ATOM      3  C   UNL     1      41.597  21.844 223.137  1.00  0.00     0.027 C 
BRANCH   3   4
ATOM      4  C   UNL     1      41.315  21.052 224.421  1.00  0.00     0.004 C 
BRANCH   4   5
ATOM      5  C   UNL     1      41.479  21.919 225.681  1.00  0.00     0.000 C 
BRANCH   5   6
ATOM      6  C   UNL     1      40.519  21.508 226.809  1.00  0.00     0.000 C 
BRANCH   6   7
ATOM      7  C   UNL     1      39.963  20.089 226.623  1.00  0.00     0.000 C 
BRANCH   7   8
ATOM      8  C   UNL     1      38.427  20.097 226.616  1.00  0.00     0.006 C 
BRANCH   8   9
ATOM      9  C   UNL     1      37.840  18.793 226.059  1.00  0.00     0.053 C 
BRANCH   9  10
ATOM     10  C   UNL     1      36.623  18.362 226.817  1.00  0.00     0.041 C 
ATOM     11  O   UNL     1      35.525  18.954 226.643  1.00  0.00    -0.550 OA
ATOM     12  O   UNL     1      36.706  17.328 227.741  1.00  0.00    -0.550 OA
ENDBRANCH   9  10
ENDBRANCH   8   9
ENDBRANCH   7   8
ENDBRANCH   6   7
ENDBRANCH   5   6
ENDBRANCH   4   5
ENDBRANCH   3   4
ENDBRANCH   1   3
BRANCH   2  13
ATOM     13  C   UNL     1      39.170  23.509 222.226  1.00  0.00     0.027 C 
BRANCH  13  14
ATOM     14  C   UNL     1      37.875  23.727 223.024  1.00  0.00     0.004 C 
BRANCH  14  15
ATOM     15  C   UNL     1      37.836  22.879 224.304  1.00  0.00     0.000 C 
BRANCH  15  16
ATOM     16  C   UNL     1      37.833  23.772 225.554  1.00  0.00     0.000 C 
BRANCH  16  17
ATOM     17  C   UNL     1      37.689  25.264 225.216  1.00  0.00    -0.000 C 
BRANCH  17  18
ATOM     18  C   UNL     1      38.871  26.103 225.723  1.00  0.00    -0.000 C 
BRANCH  18  19
ATOM     19  C   UNL     1      39.888  25.225 226.466  1.00  0.00    -0.003 C 
ATOM     20  C   UNL     1      41.317  25.688 226.196  1.00  0.00     0.004 C 
ENDBRANCH  18  19
ENDBRANCH  17  18
ENDBRANCH  16  17
ENDBRANCH  15  16
ENDBRANCH  14  15
ENDBRANCH  13  14
ENDBRANCH   2  13
TORSDOF 15
ENDMDL
MODEL 4
REMARK VINA RESULT:    -3.898      1.388      2.789
REMARK INTER + INTRA:          -9.604
REMARK INTER:                  -7.502
REMARK INTRA:                  -2.102
REMARK UNBOUND:                -2.288
REMARK SMILES CCCCCCCCC=CCCCCCCCC(=O)[O-]
REMARK SMILES IDX 10 1 9 2 11 3 12 4 13 5 14 6 15 7 16 8 17 9 18 10 19 11
REMARK SMILES IDX 20 12 8 13 7 14 6 15 5 16 4 17 3 18 2 19 1 20
REMARK H PARENT
REMARK Flexibility Score: inf
ROOT
ATOM      1  C   UNL     1      40.371  21.694 225.741  1.00  0.00    -0.031 C 
ATOM      2  C   UNL     1      39.763  20.500 225.877  1.00  0.00    -0.031 C 
ENDROOT
BRANCH   1   3
ATOM      3  C   UNL     1      41.392  22.035 224.682  1.00  0.00     0.027 C 
BRANCH   3   4
ATOM      4  C   UNL     1      41.072  23.378 224.013  1.00  0.00     0.004 C 
BRANCH   4   5
ATOM      5  C   UNL     1      39.977  23.244 222.941  1.00  0.00     0.000 C 
BRANCH   5   6
ATOM      6  C   UNL     1      38.660  23.917 223.355  1.00  0.00     0.000 C 
BRANCH   6   7
ATOM      7  C   UNL     1      37.547  22.903 223.655  1.00  0.00     0.000 C 
BRANCH   7   8
ATOM      8  C   UNL     1      36.321  23.152 222.763  1.00  0.00     0.006 C 
BRANCH   8   9
ATOM      9  C   UNL     1      36.536  24.321 221.792  1.00  0.00     0.053 C 
BRANCH   9  10
ATOM     10  C   UNL     1      36.501  23.873 220.364  1.00  0.00     0.041 C 
ATOM     11  O   UNL     1      37.506  23.311 219.852  1.00  0.00    -0.550 OA
ATOM     12  O   UNL     1      35.373  24.104 219.587  1.00  0.00    -0.550 OA
ENDBRANCH   9  10
ENDBRANCH   8   9
ENDBRANCH   7   8
ENDBRANCH   6   7
ENDBRANCH   5   6
ENDBRANCH   4   5
ENDBRANCH   3   4
ENDBRANCH   1   3
BRANCH   2  13
ATOM     13  C   UNL     1      40.044  19.286 225.028  1.00  0.00     0.027 C 
BRANCH  13  14
ATOM     14  C   UNL     1      40.282  18.028 225.879  1.00  0.00     0.004 C 
BRANCH  14  15
ATOM     15  C   UNL     1      40.313  18.343 227.381  1.00  0.00     0.000 C 
BRANCH  15  16
ATOM     16  C   UNL     1      39.387  17.397 228.160  1.00  0.00     0.000 C 
BRANCH  16  17
ATOM     17  C   UNL     1      38.057  18.060 228.551  1.00  0.00    -0.000 C 
BRANCH  17  18
ATOM     18  C   UNL     1      36.920  17.726 227.575  1.00  0.00    -0.000 C 
BRANCH  18  19
ATOM     19  C   UNL     1      36.439  18.985 226.842  1.00  0.00    -0.003 C 
ATOM     20  C   UNL     1      36.299  18.732 225.344  1.00  0.00     0.004 C 
ENDBRANCH  18  19
ENDBRANCH  17  18
ENDBRANCH  16  17
ENDBRANCH  15  16
ENDBRANCH  14  15
ENDBRANCH  13  14
ENDBRANCH   2  13
TORSDOF 15
ENDMDL
MODEL 5
REMARK VINA RESULT:    -3.876      2.963      6.223
REMARK INTER + INTRA:          -9.562
REMARK INTER:                  -7.553
REMARK INTRA:                  -2.009
REMARK UNBOUND:                -2.288
REMARK SMILES CCCCCCCCC=CCCCCCCCC(=O)[O-]
REMARK SMILES IDX 10 1 9 2 11 3 12 4 13 5 14 6 15 7 16 8 17 9 18 10 19 11
REMARK SMILES IDX 20 12 8 13 7 14 6 15 5 16 4 17 3 18 2 19 1 20
REMARK H PARENT
REMARK Flexibility Score: inf
ROOT
ATOM      1  C   UNL     1      41.590  23.330 223.694  1.00  0.00    -0.031 C 
ATOM      2  C   UNL     1      40.372  23.905 223.671  1.00  0.00    -0.031 C 
ENDROOT
BRANCH   1   3
ATOM      3  C   UNL     1      41.877  21.918 224.147  1.00  0.00     0.027 C 
BRANCH   3   4
ATOM      4  C   UNL     1      41.931  20.952 222.957  1.00  0.00     0.004 C 
BRANCH   4   5
ATOM      5  C   UNL     1      41.574  19.512 223.366  1.00  0.00     0.000 C 
BRANCH   5   6
ATOM      6  C   UNL     1      41.338  19.369 224.878  1.00  0.00     0.000 C 
BRANCH   6   7
ATOM      7  C   UNL     1      39.892  18.978 225.215  1.00  0.00     0.000 C 
BRANCH   7   8
ATOM      8  C   UNL     1      39.196  20.087 226.019  1.00  0.00     0.006 C 
BRANCH   8   9
ATOM      9  C   UNL     1      37.689  20.152 225.738  1.00  0.00     0.053 C 
BRANCH   9  10
ATOM     10  C   UNL     1      36.908  19.311 226.701  1.00  0.00     0.041 C 
ATOM     11  O   UNL     1      35.677  19.116 226.517  1.00  0.00    -0.550 OA
ATOM     12  O   UNL     1      37.530  18.769 227.818  1.00  0.00    -0.550 OA
ENDBRANCH   9  10
ENDBRANCH   8   9
ENDBRANCH   7   8
ENDBRANCH   6   7
ENDBRANCH   5   6
ENDBRANCH   4   5
ENDBRANCH   3   4
ENDBRANCH   1   3
BRANCH   2  13
ATOM     13  C   UNL     1      39.100  23.253 224.151  1.00  0.00     0.027 C 
BRANCH  13  14
ATOM     14  C   UNL     1      38.345  24.131 225.162  1.00  0.00     0.004 C 
BRANCH  14  15
ATOM     15  C   UNL     1      36.832  24.147 224.896  1.00  0.00     0.000 C 
BRANCH  15  16
ATOM     16  C   UNL     1      36.495  23.401 223.597  1.00  0.00     0.000 C 
BRANCH  16  17
ATOM     17  C   UNL     1      35.548  24.197 222.686  1.00  0.00    -0.000 C 
BRANCH  17  18
ATOM     18  C   UNL     1      35.805  23.937 221.194  1.00  0.00    -0.000 C 
BRANCH  18  19
ATOM     19  C   UNL     1      37.250  23.482 220.957  1.00  0.00    -0.003 C 
ATOM     20  C   UNL     1      37.509  23.212 219.477  1.00  0.00     0.004 C 
ENDBRANCH  18  19
ENDBRANCH  17  18
ENDBRANCH  16  17
ENDBRANCH  15  16
ENDBRANCH  14  15
ENDBRANCH  13  14
ENDBRANCH   2  13
TORSDOF 15
ENDMDL
MODEL 6
REMARK VINA RESULT:    -3.852      1.795      2.936
REMARK INTER + INTRA:          -9.517
REMARK INTER:                  -6.902
REMARK INTRA:                  -2.616
REMARK UNBOUND:                -2.288
REMARK SMILES CCCCCCCCC=CCCCCCCCC(=O)[O-]
REMARK SMILES IDX 10 1 9 2 11 3 12 4 13 5 14 6 15 7 16 8 17 9 18 10 19 11
REMARK SMILES IDX 20 12 8 13 7 14 6 15 5 16 4 17 3 18 2 19 1 20
REMARK H PARENT
REMARK Flexibility Score: inf
ROOT
ATOM      1  C   UNL     1      38.529  21.855 225.543  1.00  0.00    -0.031 C 
ATOM      2  C   UNL     1      39.417  20.985 225.025  1.00  0.00    -0.031 C 
ENDROOT
BRANCH   1   3
ATOM      3  C   UNL     1      38.305  22.094 227.018  1.00  0.00     0.027 C 
BRANCH   3   4
ATOM      4  C   UNL     1      37.914  23.552 227.292  1.00  0.00     0.004 C 
BRANCH   4   5
ATOM      5  C   UNL     1      38.806  24.543 226.523  1.00  0.00     0.000 C 
BRANCH   5   6
ATOM      6  C   UNL     1      38.000  25.467 225.597  1.00  0.00     0.000 C 
BRANCH   6   7
ATOM      7  C   UNL     1      36.496  25.162 225.622  1.00  0.00     0.000 C 
BRANCH   7   8
ATOM      8  C   UNL     1      35.933  25.052 224.196  1.00  0.00     0.006 C 
BRANCH   8   9
ATOM      9  C   UNL     1      36.300  23.720 223.527  1.00  0.00     0.053 C 
BRANCH   9  10
ATOM     10  C   UNL     1      35.877  23.684 222.091  1.00  0.00     0.041 C 
ATOM     11  O   UNL     1      36.739  23.579 221.179  1.00  0.00    -0.550 OA
ATOM     12  O   UNL     1      34.533  23.798 221.757  1.00  0.00    -0.550 OA
ENDBRANCH   9  10
ENDBRANCH   8   9
ENDBRANCH   7   8
ENDBRANCH   6   7
ENDBRANCH   5   6
ENDBRANCH   4   5
ENDBRANCH   3   4
ENDBRANCH   1   3
BRANCH   2  13
ATOM     13  C   UNL     1      40.294  20.062 225.833  1.00  0.00     0.027 C 
BRANCH  13  14
ATOM     14  C   UNL     1      40.147  18.595 225.396  1.00  0.00     0.004 C 
BRANCH  14  15
ATOM     15  C   UNL     1      39.566  17.716 226.514  1.00  0.00     0.000 C 
BRANCH  15  16
ATOM     16  C   UNL     1      39.443  18.505 227.826  1.00  0.00     0.000 C 
BRANCH  16  17
ATOM     17  C   UNL     1      37.995  18.592 228.330  1.00  0.00    -0.000 C 
BRANCH  17  18
ATOM     18  C   UNL     1      36.988  17.971 227.351  1.00  0.00    -0.000 C 
BRANCH  18  19
ATOM     19  C   UNL     1      36.084  19.049 226.737  1.00  0.00    -0.003 C 
ATOM     20  C   UNL     1      36.115  18.992 225.212  1.00  0.00     0.004 C 
ENDBRANCH  18  19
ENDBRANCH  17  18
ENDBRANCH  16  17
ENDBRANCH  15  16
ENDBRANCH  14  15
ENDBRANCH  13  14
ENDBRANCH   2  13
TORSDOF 15
ENDMDL
MODEL 7
REMARK VINA RESULT:    -3.848      3.545      6.650
REMARK INTER + INTRA:          -9.509
REMARK INTER:                  -7.085
REMARK INTRA:                  -2.425
REMARK UNBOUND:                -2.288
REMARK SMILES CCCCCCCCC=CCCCCCCCC(=O)[O-]
REMARK SMILES IDX 10 1 9 2 11 3 12 4 13 5 14 6 15 7 16 8 17 9 18 10 19 11
REMARK SMILES IDX 20 12 8 13 7 14 6 15 5 16 4 17 3 18 2 19 1 20
REMARK H PARENT
REMARK Flexibility Score: inf
ROOT
ATOM      1  C   UNL     1      38.658  22.249 226.718  1.00  0.00    -0.031 C 
ATOM      2  C   UNL     1      38.532  23.572 226.937  1.00  0.00    -0.031 C 
ENDROOT
BRANCH   1   3
ATOM      3  C   UNL     1      38.595  21.581 225.365  1.00  0.00     0.027 C 
BRANCH   3   4
ATOM      4  C   UNL     1      39.996  21.201 224.867  1.00  0.00     0.004 C 
BRANCH   4   5
ATOM      5  C   UNL     1      40.442  22.070 223.679  1.00  0.00     0.000 C 
BRANCH   5   6
ATOM      6  C   UNL     1      41.751  22.825 223.958  1.00  0.00     0.000 C 
BRANCH   6   7
ATOM      7  C   UNL     1      41.513  24.263 224.442  1.00  0.00     0.000 C 
BRANCH   7   8
ATOM      8  C   UNL     1      41.983  24.439 225.894  1.00  0.00     0.006 C 
BRANCH   8   9
ATOM      9  C   UNL     1      41.683  25.843 226.436  1.00  0.00     0.053 C 
BRANCH   9  10
ATOM     10  C   UNL     1      42.914  26.694 226.489  1.00  0.00     0.041 C 
ATOM     11  O   UNL     1      42.836  27.900 226.842  1.00  0.00    -0.550 OA
ATOM     12  O   UNL     1      44.144  26.165 226.118  1.00  0.00    -0.550 OA
ENDBRANCH   9  10
ENDBRANCH   8   9
ENDBRANCH   7   8
ENDBRANCH   6   7
ENDBRANCH   5   6
ENDBRANCH   4   5
ENDBRANCH   3   4
ENDBRANCH   1   3
BRANCH   2  13
ATOM     13  C   UNL     1      38.249  24.600 225.871  1.00  0.00     0.027 C 
BRANCH  13  14
ATOM     14  C   UNL     1      36.742  24.771 225.617  1.00  0.00     0.004 C 
BRANCH  14  15
ATOM     15  C   UNL     1      36.435  25.063 224.141  1.00  0.00     0.000 C 
BRANCH  15  16
ATOM     16  C   UNL     1      37.515  24.465 223.227  1.00  0.00     0.000 C 
BRANCH  16  17
ATOM     17  C   UNL     1      36.944  23.461 222.214  1.00  0.00    -0.000 C 
BRANCH  17  18
ATOM     18  C   UNL     1      35.728  24.012 221.454  1.00  0.00    -0.000 C 
BRANCH  18  19
ATOM     19  C   UNL     1      36.071  24.262 219.980  1.00  0.00    -0.003 C 
ATOM     20  C   UNL     1      37.260  23.414 219.538  1.00  0.00     0.004 C 
ENDBRANCH  18  19
ENDBRANCH  17  18
ENDBRANCH  16  17
ENDBRANCH  15  16
ENDBRANCH  14  15
ENDBRANCH  13  14
ENDBRANCH   2  13
TORSDOF 15
ENDMDL
MODEL 8
REMARK VINA RESULT:    -3.811      1.367      2.352
REMARK INTER + INTRA:          -9.442
REMARK INTER:                  -7.436
REMARK INTRA:                  -2.005
REMARK UNBOUND:                -2.288
REMARK SMILES CCCCCCCCC=CCCCCCCCC(=O)[O-]
REMARK SMILES IDX 10 1 9 2 11 3 12 4 13 5 14 6 15 7 16 8 17 9 18 10 19 11
REMARK SMILES IDX 20 12 8 13 7 14 6 15 5 16 4 17 3 18 2 19 1 20
REMARK H PARENT
REMARK Flexibility Score: inf
ROOT
ATOM      1  C   UNL     1      42.022  22.098 223.060  1.00  0.00    -0.031 C 
ATOM      2  C   UNL     1      42.406  20.863 222.683  1.00  0.00    -0.031 C 
ENDROOT
BRANCH   1   3
ATOM      3  C   UNL     1      41.048  22.403 224.173  1.00  0.00     0.027 C 
BRANCH   3   4
ATOM      4  C   UNL     1      39.684  22.833 223.618  1.00  0.00     0.004 C 
BRANCH   4   5
ATOM      5  C   UNL     1      39.612  24.350 223.375  1.00  0.00     0.000 C 
BRANCH   5   6
ATOM      6  C   UNL     1      38.543  25.036 224.239  1.00  0.00     0.000 C 
BRANCH   6   7
ATOM      7  C   UNL     1      37.279  24.180 224.406  1.00  0.00     0.000 C 
BRANCH   7   8
ATOM      8  C   UNL     1      36.272  24.462 223.280  1.00  0.00     0.006 C 
BRANCH   8   9
ATOM      9  C   UNL     1      36.203  23.316 222.261  1.00  0.00     0.053 C 
BRANCH   9  10
ATOM     10  C   UNL     1      36.704  23.739 220.914  1.00  0.00     0.041 C 
ATOM     11  O   UNL     1      37.811  23.315 220.488  1.00  0.00    -0.550 OA
ATOM     12  O   UNL     1      35.965  24.628 220.143  1.00  0.00    -0.550 OA
ENDBRANCH   9  10
ENDBRANCH   8   9
ENDBRANCH   7   8
ENDBRANCH   6   7
ENDBRANCH   5   6
ENDBRANCH   4   5
ENDBRANCH   3   4
ENDBRANCH   1   3
BRANCH   2  13
ATOM     13  C   UNL     1      41.882  19.578 223.271  1.00  0.00     0.027 C 
BRANCH  13  14
ATOM     14  C   UNL     1      42.541  19.247 224.620  1.00  0.00     0.004 C 
BRANCH  14  15
ATOM     15  C   UNL     1      41.503  19.020 225.730  1.00  0.00     0.000 C 
BRANCH  15  16
ATOM     16  C   UNL     1      40.155  18.582 225.139  1.00  0.00     0.000 C 
BRANCH  16  17
ATOM     17  C   UNL     1      39.065  18.417 226.209  1.00  0.00    -0.000 C 
BRANCH  17  18
ATOM     18  C   UNL     1      37.776  19.177 225.864  1.00  0.00    -0.000 C 
BRANCH  18  19
ATOM     19  C   UNL     1      37.996  20.694 225.942  1.00  0.00    -0.003 C 
ATOM     20  C   UNL     1      37.868  21.197 227.377  1.00  0.00     0.004 C 
ENDBRANCH  18  19
ENDBRANCH  17  18
ENDBRANCH  16  17
ENDBRANCH  15  16
ENDBRANCH  14  15
ENDBRANCH  13  14
ENDBRANCH   2  13
TORSDOF 15
ENDMDL
MODEL 9
REMARK VINA RESULT:    -3.755      1.584      2.886
REMARK INTER + INTRA:          -9.336
REMARK INTER:                  -6.417
REMARK INTRA:                  -2.919
REMARK UNBOUND:                -2.288
REMARK SMILES CCCCCCCCC=CCCCCCCCC(=O)[O-]
REMARK SMILES IDX 10 1 9 2 11 3 12 4 13 5 14 6 15 7 16 8 17 9 18 10 19 11
REMARK SMILES IDX 20 12 8 13 7 14 6 15 5 16 4 17 3 18 2 19 1 20
REMARK H PARENT
REMARK Flexibility Score: inf
ROOT
ATOM      1  C   UNL     1      39.718  25.059 225.665  1.00  0.00    -0.031 C 
ATOM      2  C   UNL     1      40.199  24.912 224.415  1.00  0.00    -0.031 C 
ENDROOT
BRANCH   1   3
ATOM      3  C   UNL     1      40.291  24.404 226.900  1.00  0.00     0.027 C 
BRANCH   3   4
ATOM      4  C   UNL     1      39.559  23.096 227.227  1.00  0.00     0.004 C 
BRANCH   4   5
ATOM      5  C   UNL     1      38.163  23.040 226.583  1.00  0.00     0.000 C 
BRANCH   5   6
ATOM      6  C   UNL     1      37.882  21.693 225.900  1.00  0.00     0.000 C 
BRANCH   6   7
ATOM      7  C   UNL     1      37.663  21.833 224.386  1.00  0.00     0.000 C 
BRANCH   7   8
ATOM      8  C   UNL     1      36.916  23.135 224.057  1.00  0.00     0.006 C 
BRANCH   8   9
ATOM      9  C   UNL     1      37.321  23.709 222.693  1.00  0.00     0.053 C 
BRANCH   9  10
ATOM     10  C   UNL     1      36.127  24.039 221.852  1.00  0.00     0.041 C 
ATOM     11  O   UNL     1      34.973  24.026 222.357  1.00  0.00    -0.550 OA
ATOM     12  O   UNL     1      36.283  24.330 220.503  1.00  0.00    -0.550 OA
ENDBRANCH   9  10
ENDBRANCH   8   9
ENDBRANCH   7   8
ENDBRANCH   6   7
ENDBRANCH   5   6
ENDBRANCH   4   5
ENDBRANCH   3   4
ENDBRANCH   1   3
BRANCH   2  13
ATOM     13  C   UNL     1      41.354  24.022 224.033  1.00  0.00     0.027 C 
BRANCH  13  14
ATOM     14  C   UNL     1      40.916  22.861 223.127  1.00  0.00     0.004 C 
BRANCH  14  15
ATOM     15  C   UNL     1      41.987  21.764 223.034  1.00  0.00     0.000 C 
BRANCH  15  16
ATOM     16  C   UNL     1      41.561  20.513 223.817  1.00  0.00     0.000 C 
BRANCH  16  17
ATOM     17  C   UNL     1      41.659  20.705 225.338  1.00  0.00    -0.000 C 
BRANCH  17  18
ATOM     18  C   UNL     1      41.084  19.518 226.123  1.00  0.00    -0.000 C 
BRANCH  18  19
ATOM     19  C   UNL     1      40.097  18.717 225.263  1.00  0.00    -0.003 C 
ATOM     20  C   UNL     1      38.937  18.189 226.102  1.00  0.00     0.004 C 
ENDBRANCH  18  19
ENDBRANCH  17  18
ENDBRANCH  16  17
ENDBRANCH  15  16
ENDBRANCH  14  15
ENDBRANCH  13  14
ENDBRANCH   2  13
TORSDOF 15
ENDMDL
