MODEL 1
REMARK VINA RESULT:    28.211      0.000      0.000
REMARK INTER + INTRA:          33.683
REMARK INTER:                  33.984
REMARK INTRA:                  -0.301
REMARK UNBOUND:                -0.301
REMARK SMILES O=c1c(O)c(-c2ccc(O)c(O)c2)oc2cc(O)cc(O)c12
REMARK SMILES IDX 5 1 3 2 2 3 1 4 22 5 20 6 19 7 17 8 16 9 15 10 14 11 6 12
REMARK SMILES IDX 7 13 8 14 9 15 13 16 11 17 10 18 12 20 4 22 21 24 18 26
REMARK H PARENT 10 19 12 21 4 23 21 25 18 27
REMARK Flexibility Score: inf
ROOT
ATOM      1  C   UNL     1      -5.872   7.440  16.619  1.00  0.00     0.180 A 
ATOM      2  C   UNL     1      -5.450   6.498  17.574  1.00  0.00     0.208 A 
ATOM      3  C   UNL     1      -5.704   5.136  17.346  1.00  0.00     0.238 A 
ATOM      4  O   UNL     1      -5.372   4.303  18.230  1.00  0.00    -0.285 OA
ATOM      5  C   UNL     1      -6.363   4.731  16.160  1.00  0.00     0.111 A 
ATOM      6  C   UNL     1      -6.636   3.375  15.809  1.00  0.00     0.134 A 
ATOM      7  C   UNL     1      -7.410   3.100  14.673  1.00  0.00     0.093 A 
ATOM      8  C   UNL     1      -7.863   4.124  13.844  1.00  0.00     0.123 A 
ATOM      9  C   UNL     1      -7.551   5.450  14.147  1.00  0.00     0.094 A 
ATOM     10  C   UNL     1      -6.812   5.759  15.291  1.00  0.00     0.146 A 
ATOM     11  O   UNL     1      -6.546   7.034  15.548  1.00  0.00    -0.452 OA
ENDROOT
BRANCH   1  12
ATOM     12  C   UNL     1      -5.618   8.890  16.776  1.00  0.00     0.025 A 
ATOM     13  C   UNL     1      -4.359   9.447  16.491  1.00  0.00     0.016 A 
ATOM     14  C   UNL     1      -4.150  10.823  16.623  1.00  0.00     0.051 A 
ATOM     15  C   UNL     1      -5.192  11.661  17.027  1.00  0.00     0.157 A 
ATOM     16  C   UNL     1      -6.668   9.739  17.162  1.00  0.00     0.062 A 
ATOM     17  C   UNL     1      -6.459  11.119  17.295  1.00  0.00     0.158 A 
BRANCH  15  18
ATOM     18  O   UNL     1      -4.952  13.030  17.152  1.00  0.00    -0.504 OA
ATOM     19  H   UNL     1      -5.701  13.711  17.135  1.00  0.00     0.293 HD
ENDBRANCH  15  18
BRANCH  17  20
ATOM     20  O   UNL     1      -7.505  11.950  17.693  1.00  0.00    -0.504 OA
ATOM     21  H   UNL     1      -7.365  12.941  17.854  1.00  0.00     0.293 HD
ENDBRANCH  17  20
ENDBRANCH   1  12
BRANCH   2  22
ATOM     22  O   UNL     1      -4.821   6.922  18.748  1.00  0.00    -0.502 OA
ATOM     23  H   UNL     1      -5.127   6.625  19.667  1.00  0.00     0.293 HD
ENDBRANCH   2  22
BRANCH   6  24
ATOM     24  O   UNL     1      -6.154   2.272  16.518  1.00  0.00    -0.507 OA
ATOM     25  H   UNL     1      -6.435   1.317  16.356  1.00  0.00     0.293 HD
ENDBRANCH   6  24
BRANCH   8  26
ATOM     26  O   UNL     1      -8.616   3.812  12.714  1.00  0.00    -0.508 OA
ATOM     27  H   UNL     1      -9.171   2.965  12.666  1.00  0.00     0.293 HD
ENDBRANCH   8  26
TORSDOF 6
ENDMDL
MODEL 2
REMARK VINA RESULT:    28.703      5.123      8.375
REMARK INTER + INTRA:          34.275
REMARK INTER:                  33.946
REMARK INTRA:                   0.329
REMARK UNBOUND:                -0.301
REMARK SMILES O=c1c(O)c(-c2ccc(O)c(O)c2)oc2cc(O)cc(O)c12
REMARK SMILES IDX 5 1 3 2 2 3 1 4 22 5 20 6 19 7 17 8 16 9 15 10 14 11 6 12
REMARK SMILES IDX 7 13 8 14 9 15 13 16 11 17 10 18 12 20 4 22 21 24 18 26
REMARK H PARENT 10 19 12 21 4 23 21 25 18 27
REMARK Flexibility Score: inf
ROOT
ATOM      1  C   UNL     1     -10.413   8.374  19.252  1.00  0.00     0.180 A 
ATOM      2  C   UNL     1      -9.014   8.491  19.335  1.00  0.00     0.208 A 
ATOM      3  C   UNL     1      -8.401   9.672  18.888  1.00  0.00     0.238 A 
ATOM      4  O   UNL     1      -7.145   9.748  18.915  1.00  0.00    -0.285 OA
ATOM      5  C   UNL     1      -9.195  10.728  18.378  1.00  0.00     0.111 A 
ATOM      6  C   UNL     1      -8.682  11.984  17.935  1.00  0.00     0.134 A 
ATOM      7  C   UNL     1      -9.545  12.905  17.328  1.00  0.00     0.093 A 
ATOM      8  C   UNL     1     -10.909  12.644  17.208  1.00  0.00     0.123 A 
ATOM      9  C   UNL     1     -11.430  11.444  17.692  1.00  0.00     0.094 A 
ATOM     10  C   UNL     1     -10.589  10.490  18.270  1.00  0.00     0.146 A 
ATOM     11  O   UNL     1     -11.123   9.356  18.708  1.00  0.00    -0.452 OA
ENDROOT
BRANCH   1  12
ATOM     12  C   UNL     1     -11.134   7.170  19.726  1.00  0.00     0.025 A 
ATOM     13  C   UNL     1     -12.336   6.756  19.126  1.00  0.00     0.016 A 
ATOM     14  C   UNL     1     -12.986   5.602  19.573  1.00  0.00     0.051 A 
ATOM     15  C   UNL     1     -12.443   4.842  20.613  1.00  0.00     0.157 A 
ATOM     16  C   UNL     1     -10.580   6.393  20.755  1.00  0.00     0.062 A 
ATOM     17  C   UNL     1     -11.233   5.235  21.205  1.00  0.00     0.158 A 
BRANCH  15  18
ATOM     18  O   UNL     1     -13.117   3.697  21.039  1.00  0.00    -0.504 OA
ATOM     19  H   UNL     1     -14.116   3.690  21.201  1.00  0.00     0.293 HD
ENDBRANCH  15  18
BRANCH  17  20
ATOM     20  O   UNL     1     -10.681   4.478  22.237  1.00  0.00    -0.504 OA
ATOM     21  H   UNL     1     -11.032   4.537  23.186  1.00  0.00     0.293 HD
ENDBRANCH  17  20
ENDBRANCH   1  12
BRANCH   2  22
ATOM     22  O   UNL     1      -8.249   7.427  19.822  1.00  0.00    -0.502 OA
ATOM     23  H   UNL     1      -7.252   7.356  19.659  1.00  0.00     0.293 HD
ENDBRANCH   2  22
BRANCH   6  24
ATOM     24  O   UNL     1      -7.352  12.383  18.090  1.00  0.00    -0.507 OA
ATOM     25  H   UNL     1      -7.058  13.303  18.382  1.00  0.00     0.293 HD
ENDBRANCH   6  24
BRANCH   8  26
ATOM     26  O   UNL     1     -11.740  13.591  16.614  1.00  0.00    -0.508 OA
ATOM     27  H   UNL     1     -11.703  14.568  16.877  1.00  0.00     0.293 HD
ENDBRANCH   8  26
TORSDOF 6
ENDMDL
MODEL 3
REMARK VINA RESULT:    28.837     10.477     11.328
REMARK INTER + INTRA:          34.437
REMARK INTER:                  34.083
REMARK INTRA:                   0.353
REMARK UNBOUND:                -0.301
REMARK SMILES O=c1c(O)c(-c2ccc(O)c(O)c2)oc2cc(O)cc(O)c12
REMARK SMILES IDX 5 1 3 2 2 3 1 4 22 5 20 6 19 7 17 8 16 9 15 10 14 11 6 12
REMARK SMILES IDX 7 13 8 14 9 15 13 16 11 17 10 18 12 20 4 22 21 24 18 26
REMARK H PARENT 10 19 12 21 4 23 21 25 18 27
REMARK Flexibility Score: inf
ROOT
ATOM      1  C   UNL     1      -5.328  -2.440  12.955  1.00  0.00     0.180 A 
ATOM      2  C   UNL     1      -6.064  -1.909  11.880  1.00  0.00     0.208 A 
ATOM      3  C   UNL     1      -7.464  -1.873  11.965  1.00  0.00     0.238 A 
ATOM      4  O   UNL     1      -8.119  -1.446  10.978  1.00  0.00    -0.285 OA
ATOM      5  C   UNL     1      -8.113  -2.351  13.130  1.00  0.00     0.111 A 
ATOM      6  C   UNL     1      -9.524  -2.325  13.339  1.00  0.00     0.134 A 
ATOM      7  C   UNL     1     -10.064  -2.945  14.474  1.00  0.00     0.093 A 
ATOM      8  C   UNL     1      -9.242  -3.531  15.435  1.00  0.00     0.123 A 
ATOM      9  C   UNL     1      -7.857  -3.510  15.268  1.00  0.00     0.094 A 
ATOM     10  C   UNL     1      -7.290  -2.931  14.130  1.00  0.00     0.146 A 
ATOM     11  O   UNL     1      -5.968  -2.941  14.005  1.00  0.00    -0.452 OA
ENDROOT
BRANCH   1  12
ATOM     12  C   UNL     1      -3.848  -2.490  12.949  1.00  0.00     0.025 A 
ATOM     13  C   UNL     1      -3.149  -3.482  13.659  1.00  0.00     0.016 A 
ATOM     14  C   UNL     1      -1.752  -3.525  13.619  1.00  0.00     0.051 A 
ATOM     15  C   UNL     1      -1.037  -2.591  12.865  1.00  0.00     0.157 A 
ATOM     16  C   UNL     1      -3.127  -1.567  12.176  1.00  0.00     0.062 A 
ATOM     17  C   UNL     1      -1.726  -1.609  12.136  1.00  0.00     0.158 A 
BRANCH  15  18
ATOM     18  O   UNL     1       0.357  -2.659  12.847  1.00  0.00    -0.504 OA
ATOM     19  H   UNL     1       0.936  -1.852  13.042  1.00  0.00     0.293 HD
ENDBRANCH  15  18
BRANCH  17  20
ATOM     20  O   UNL     1      -1.019  -0.678  11.375  1.00  0.00    -0.504 OA
ATOM     21  H   UNL     1      -0.355  -0.966  10.666  1.00  0.00     0.293 HD
ENDBRANCH  17  20
ENDBRANCH   1  12
BRANCH   2  22
ATOM     22  O   UNL     1      -5.405  -1.462  10.731  1.00  0.00    -0.502 OA
ATOM     23  H   UNL     1      -5.865  -1.395   9.832  1.00  0.00     0.293 HD
ENDBRANCH   2  22
BRANCH   6  24
ATOM     24  O   UNL     1     -10.428  -1.686  12.487  1.00  0.00    -0.507 OA
ATOM     25  H   UNL     1     -10.168  -1.095  11.712  1.00  0.00     0.293 HD
ENDBRANCH   6  24
BRANCH   8  26
ATOM     26  O   UNL     1      -9.814  -4.124  16.558  1.00  0.00    -0.508 OA
ATOM     27  H   UNL     1     -10.504  -3.640  17.119  1.00  0.00     0.293 HD
ENDBRANCH   8  26
TORSDOF 6
ENDMDL
MODEL 4
REMARK VINA RESULT:    30.325      1.239      2.862
REMARK INTER + INTRA:          36.228
REMARK INTER:                  36.461
REMARK INTRA:                  -0.233
REMARK UNBOUND:                -0.301
REMARK SMILES O=c1c(O)c(-c2ccc(O)c(O)c2)oc2cc(O)cc(O)c12
REMARK SMILES IDX 5 1 3 2 2 3 1 4 22 5 20 6 19 7 17 8 16 9 15 10 14 11 6 12
REMARK SMILES IDX 7 13 8 14 9 15 13 16 11 17 10 18 12 20 4 22 21 24 18 26
REMARK H PARENT 10 19 12 21 4 23 21 25 18 27
REMARK Flexibility Score: inf
ROOT
ATOM      1  C   UNL     1      -6.146   7.247  15.996  1.00  0.00     0.180 A 
ATOM      2  C   UNL     1      -6.891   6.970  14.837  1.00  0.00     0.208 A 
ATOM      3  C   UNL     1      -7.154   5.634  14.498  1.00  0.00     0.238 A 
ATOM      4  O   UNL     1      -7.776   5.392  13.430  1.00  0.00    -0.285 OA
ATOM      5  C   UNL     1      -6.683   4.590  15.331  1.00  0.00     0.111 A 
ATOM      6  C   UNL     1      -6.925   3.202  15.105  1.00  0.00     0.134 A 
ATOM      7  C   UNL     1      -6.300   2.251  15.921  1.00  0.00     0.093 A 
ATOM      8  C   UNL     1      -5.496   2.637  16.992  1.00  0.00     0.123 A 
ATOM      9  C   UNL     1      -5.300   3.993  17.258  1.00  0.00     0.094 A 
ATOM     10  C   UNL     1      -5.881   4.965  16.440  1.00  0.00     0.146 A 
ATOM     11  O   UNL     1      -5.661   6.244  16.721  1.00  0.00    -0.452 OA
ENDROOT
BRANCH   1  12
ATOM     12  C   UNL     1      -5.849   8.630  16.433  1.00  0.00     0.025 A 
ATOM     13  C   UNL     1      -4.561   9.178  16.297  1.00  0.00     0.016 A 
ATOM     14  C   UNL     1      -4.309  10.495  16.692  1.00  0.00     0.051 A 
ATOM     15  C   UNL     1      -5.337  11.285  17.215  1.00  0.00     0.157 A 
ATOM     16  C   UNL     1      -6.883   9.433  16.939  1.00  0.00     0.062 A 
ATOM     17  C   UNL     1      -6.631  10.755  17.336  1.00  0.00     0.158 A 
BRANCH  15  18
ATOM     18  O   UNL     1      -5.054  12.595  17.603  1.00  0.00    -0.504 OA
ATOM     19  H   UNL     1      -5.720  13.348  17.478  1.00  0.00     0.293 HD
ENDBRANCH  15  18
BRANCH  17  20
ATOM     20  O   UNL     1      -7.663  11.539  17.851  1.00  0.00    -0.504 OA
ATOM     21  H   UNL     1      -7.676  11.831  18.821  1.00  0.00     0.293 HD
ENDBRANCH  17  20
ENDBRANCH   1  12
BRANCH   2  22
ATOM     22  O   UNL     1      -7.328   8.016  14.018  1.00  0.00    -0.502 OA
ATOM     23  H   UNL     1      -8.153   8.564  14.230  1.00  0.00     0.293 HD
ENDBRANCH   2  22
BRANCH   6  24
ATOM     24  O   UNL     1      -7.785   2.710  14.119  1.00  0.00    -0.507 OA
ATOM     25  H   UNL     1      -8.408   1.926  14.239  1.00  0.00     0.293 HD
ENDBRANCH   6  24
BRANCH   8  26
ATOM     26  O   UNL     1      -4.903   1.664  17.793  1.00  0.00    -0.508 OA
ATOM     27  H   UNL     1      -5.348   1.332  18.640  1.00  0.00     0.293 HD
ENDBRANCH   8  26
TORSDOF 6
ENDMDL
MODEL 5
REMARK VINA RESULT:    30.997      1.516      6.961
REMARK INTER + INTRA:          37.038
REMARK INTER:                  37.368
REMARK INTRA:                  -0.330
REMARK UNBOUND:                -0.301
REMARK SMILES O=c1c(O)c(-c2ccc(O)c(O)c2)oc2cc(O)cc(O)c12
REMARK SMILES IDX 5 1 3 2 2 3 1 4 22 5 20 6 19 7 17 8 16 9 15 10 14 11 6 12
REMARK SMILES IDX 7 13 8 14 9 15 13 16 11 17 10 18 12 20 4 22 21 24 18 26
REMARK H PARENT 10 19 12 21 4 23 21 25 18 27
REMARK Flexibility Score: inf
ROOT
ATOM      1  C   UNL     1      -6.052   7.860  16.538  1.00  0.00     0.180 A 
ATOM      2  C   UNL     1      -4.862   8.562  16.276  1.00  0.00     0.208 A 
ATOM      3  C   UNL     1      -4.818   9.943  16.523  1.00  0.00     0.238 A 
ATOM      4  O   UNL     1      -3.767  10.575  16.236  1.00  0.00    -0.285 OA
ATOM      5  C   UNL     1      -5.958  10.603  17.042  1.00  0.00     0.111 A 
ATOM      6  C   UNL     1      -6.012  11.992  17.366  1.00  0.00     0.134 A 
ATOM      7  C   UNL     1      -7.232  12.564  17.750  1.00  0.00     0.093 A 
ATOM      8  C   UNL     1      -8.381  11.787  17.884  1.00  0.00     0.123 A 
ATOM      9  C   UNL     1      -8.325  10.416  17.626  1.00  0.00     0.094 A 
ATOM     10  C   UNL     1      -7.132   9.824  17.207  1.00  0.00     0.146 A 
ATOM     11  O   UNL     1      -7.124   8.519  16.962  1.00  0.00    -0.452 OA
ENDROOT
BRANCH   1  12
ATOM     12  C   UNL     1      -6.168   6.399  16.327  1.00  0.00     0.025 A 
ATOM     13  C   UNL     1      -5.889   5.487  17.360  1.00  0.00     0.016 A 
ATOM     14  C   UNL     1      -6.029   4.113  17.146  1.00  0.00     0.051 A 
ATOM     15  C   UNL     1      -6.461   3.631  15.907  1.00  0.00     0.157 A 
ATOM     16  C   UNL     1      -6.621   5.912  15.091  1.00  0.00     0.062 A 
ATOM     17  C   UNL     1      -6.762   4.533  14.874  1.00  0.00     0.158 A 
BRANCH  15  18
ATOM     18  O   UNL     1      -6.589   2.254  15.723  1.00  0.00    -0.504 OA
ATOM     19  H   UNL     1      -7.493   1.806  15.627  1.00  0.00     0.293 HD
ENDBRANCH  15  18
BRANCH  17  20
ATOM     20  O   UNL     1      -7.199   4.060  13.638  1.00  0.00    -0.504 OA
ATOM     21  H   UNL     1      -7.311   3.069  13.457  1.00  0.00     0.293 HD
ENDBRANCH  17  20
ENDBRANCH   1  12
BRANCH   2  22
ATOM     22  O   UNL     1      -3.755   7.894  15.744  1.00  0.00    -0.502 OA
ATOM     23  H   UNL     1      -3.500   7.959  14.766  1.00  0.00     0.293 HD
ENDBRANCH   2  22
BRANCH   6  24
ATOM     24  O   UNL     1      -4.901  12.840  17.355  1.00  0.00    -0.507 OA
ATOM     25  H   UNL     1      -4.802  13.649  16.761  1.00  0.00     0.293 HD
ENDBRANCH   6  24
BRANCH   8  26
ATOM     26  O   UNL     1      -9.573  12.386  18.283  1.00  0.00    -0.508 OA
ATOM     27  H   UNL     1      -9.580  13.247  18.817  1.00  0.00     0.293 HD
ENDBRANCH   8  26
TORSDOF 6
ENDMDL
