MODEL 1
REMARK VINA RESULT:    -4.382      0.000      0.000
REMARK INTER + INTRA:         -15.925
REMARK INTER:                 -11.556
REMARK INTRA:                  -4.370
REMARK UNBOUND:                -4.370
REMARK SMILES CCCCCCCCCCCCCCCCCCCCCCCCCCCCCC(=O)[O-]
REMARK SMILES IDX 16 1 17 2 18 3 19 4 20 5 21 6 22 7 23 8 24 9 25 10 26 11
REMARK SMILES IDX 27 12 28 13 29 14 30 15 31 16 32 17 15 18 14 19 13 20 12 21
REMARK SMILES IDX 11 22 10 23 9 24 8 25 7 26 6 27 5 28 4 29 3 30 2 31 1 32
REMARK H PARENT
REMARK Flexibility Score: inf
ROOT
ATOM      1  C   UNL     1     -23.907  89.672 -30.000  1.00  0.00     0.000 C 
ENDROOT
BRANCH   1   2
ATOM      2  C   UNL     1     -23.265  89.281 -28.657  1.00  0.00     0.000 C 
BRANCH   2   3
ATOM      3  C   UNL     1     -23.614  87.847 -28.230  1.00  0.00     0.000 C 
BRANCH   3   4
ATOM      4  C   UNL     1     -25.115  87.545 -28.360  1.00  0.00     0.000 C 
BRANCH   4   5
ATOM      5  C   UNL     1     -25.783  87.473 -26.979  1.00  0.00     0.000 C 
BRANCH   5   6
ATOM      6  C   UNL     1     -26.289  88.841 -26.495  1.00  0.00     0.000 C 
BRANCH   6   7
ATOM      7  C   UNL     1     -25.344  89.495 -25.475  1.00  0.00     0.000 C 
BRANCH   7   8
ATOM      8  C   UNL     1     -24.635  88.433 -24.626  1.00  0.00     0.000 C 
BRANCH   8   9
ATOM      9  C   UNL     1     -23.114  88.643 -24.644  1.00  0.00     0.000 C 
BRANCH   9  10
ATOM     10  C   UNL     1     -22.335  87.335 -24.865  1.00  0.00     0.000 C 
BRANCH  10  11
ATOM     11  C   UNL     1     -22.631  86.220 -23.843  1.00  0.00     0.000 C 
BRANCH  11  12
ATOM     12  C   UNL     1     -21.446  85.898 -22.907  1.00  0.00     0.000 C 
BRANCH  12  13
ATOM     13  C   UNL     1     -21.390  84.407 -22.531  1.00  0.00     0.006 C 
BRANCH  13  14
ATOM     14  C   UNL     1     -21.750  83.494 -23.711  1.00  0.00     0.053 C 
BRANCH  14  15
ATOM     15  C   UNL     1     -22.708  82.409 -23.315  1.00  0.00     0.041 C 
ATOM     16  O   UNL     1     -23.935  82.509 -23.587  1.00  0.00    -0.550 OA
ATOM     17  O   UNL     1     -22.239  81.278 -22.657  1.00  0.00    -0.550 OA
ENDBRANCH  14  15
ENDBRANCH  13  14
ENDBRANCH  12  13
ENDBRANCH  11  12
ENDBRANCH  10  11
ENDBRANCH   9  10
ENDBRANCH   8   9
ENDBRANCH   7   8
ENDBRANCH   6   7
ENDBRANCH   5   6
ENDBRANCH   4   5
ENDBRANCH   3   4
ENDBRANCH   2   3
ENDBRANCH   1   2
BRANCH   1  18
ATOM     18  C   UNL     1     -23.141  90.798 -30.713  1.00  0.00     0.000 C 
BRANCH  18  19
ATOM     19  C   UNL     1     -23.512  90.902 -32.201  1.00  0.00     0.000 C 
BRANCH  19  20
ATOM     20  C   UNL     1     -24.952  91.401 -32.383  1.00  0.00     0.000 C 
BRANCH  20  21
ATOM     21  C   UNL     1     -25.015  92.914 -32.682  1.00  0.00     0.000 C 
BRANCH  21  22
ATOM     22  C   UNL     1     -23.635  93.562 -32.902  1.00  0.00     0.000 C 
BRANCH  22  23
ATOM     23  C   UNL     1     -23.243  94.630 -31.865  1.00  0.00     0.000 C 
BRANCH  23  24
ATOM     24  C   UNL     1     -24.223  94.790 -30.686  1.00  0.00    -0.000 C 
BRANCH  24  25
ATOM     25  C   UNL     1     -24.383  96.246 -30.199  1.00  0.00    -0.000 C 
BRANCH  25  26
ATOM     26  C   UNL     1     -24.795  96.324 -28.722  1.00  0.00    -0.000 C 
BRANCH  26  27
ATOM     27  C   UNL     1     -24.836  94.929 -28.080  1.00  0.00    -0.000 C 
BRANCH  27  28
ATOM     28  C   UNL     1     -26.054  94.756 -27.148  1.00  0.00    -0.000 C 
BRANCH  28  29
ATOM     29  C   UNL     1     -26.517  93.295 -26.999  1.00  0.00    -0.000 C 
BRANCH  29  30
ATOM     30  C   UNL     1     -25.783  92.282 -27.898  1.00  0.00    -0.000 C 
BRANCH  30  31
ATOM     31  C   UNL     1     -26.661  91.629 -28.982  1.00  0.00    -0.003 C 
ATOM     32  C   UNL     1     -27.419  92.652 -29.826  1.00  0.00     0.004 C 
ENDBRANCH  30  31
ENDBRANCH  29  30
ENDBRANCH  28  29
ENDBRANCH  27  28
ENDBRANCH  26  27
ENDBRANCH  25  26
ENDBRANCH  24  25
ENDBRANCH  23  24
ENDBRANCH  22  23
ENDBRANCH  21  22
ENDBRANCH  20  21
ENDBRANCH  19  20
ENDBRANCH  18  19
ENDBRANCH   1  18
TORSDOF 28
ENDMDL
MODEL 2
REMARK VINA RESULT:    -4.378      3.333      8.642
REMARK INTER + INTRA:         -15.914
REMARK INTER:                 -10.205
REMARK INTRA:                  -5.708
REMARK UNBOUND:                -4.370
REMARK SMILES CCCCCCCCCCCCCCCCCCCCCCCCCCCCCC(=O)[O-]
REMARK SMILES IDX 16 1 17 2 18 3 19 4 20 5 21 6 22 7 23 8 24 9 25 10 26 11
REMARK SMILES IDX 27 12 28 13 29 14 30 15 31 16 32 17 15 18 14 19 13 20 12 21
REMARK SMILES IDX 11 22 10 23 9 24 8 25 7 26 6 27 5 28 4 29 3 30 2 31 1 32
REMARK H PARENT
REMARK Flexibility Score: inf
ROOT
ATOM      1  C   UNL     1     -23.969  92.736 -28.309  1.00  0.00     0.000 C 
ENDROOT
BRANCH   1   2
ATOM      2  C   UNL     1     -25.389  93.165 -27.898  1.00  0.00     0.000 C 
BRANCH   2   3
ATOM      3  C   UNL     1     -25.859  94.429 -28.634  1.00  0.00     0.000 C 
BRANCH   3   4
ATOM      4  C   UNL     1     -25.106  95.689 -28.179  1.00  0.00     0.000 C 
BRANCH   4   5
ATOM      5  C   UNL     1     -24.421  96.379 -29.367  1.00  0.00     0.000 C 
BRANCH   5   6
ATOM      6  C   UNL     1     -24.599  95.606 -30.683  1.00  0.00     0.000 C 
BRANCH   6   7
ATOM      7  C   UNL     1     -23.397  95.759 -31.628  1.00  0.00     0.000 C 
BRANCH   7   8
ATOM      8  C   UNL     1     -23.204  94.497 -32.477  1.00  0.00     0.000 C 
BRANCH   8   9
ATOM      9  C   UNL     1     -23.250  93.235 -31.604  1.00  0.00     0.000 C 
BRANCH   9  10
ATOM     10  C   UNL     1     -23.532  91.959 -32.414  1.00  0.00     0.000 C 
BRANCH  10  11
ATOM     11  C   UNL     1     -24.964  91.404 -32.280  1.00  0.00     0.000 C 
BRANCH  11  12
ATOM     12  C   UNL     1     -25.941  92.364 -31.567  1.00  0.00     0.000 C 
BRANCH  12  13
ATOM     13  C   UNL     1     -27.411  92.043 -31.890  1.00  0.00     0.006 C 
BRANCH  13  14
ATOM     14  C   UNL     1     -28.015  91.029 -30.909  1.00  0.00     0.053 C 
BRANCH  14  15
ATOM     15  C   UNL     1     -28.340  89.724 -31.573  1.00  0.00     0.041 C 
ATOM     16  O   UNL     1     -28.963  88.825 -30.946  1.00  0.00    -0.550 OA
ATOM     17  O   UNL     1     -27.968  89.508 -32.895  1.00  0.00    -0.550 OA
ENDBRANCH  14  15
ENDBRANCH  13  14
ENDBRANCH  12  13
ENDBRANCH  11  12
ENDBRANCH  10  11
ENDBRANCH   9  10
ENDBRANCH   8   9
ENDBRANCH   7   8
ENDBRANCH   6   7
ENDBRANCH   5   6
ENDBRANCH   4   5
ENDBRANCH   3   4
ENDBRANCH   2   3
ENDBRANCH   1   2
BRANCH   1  18
ATOM     18  C   UNL     1     -23.643  91.296 -27.881  1.00  0.00     0.000 C 
BRANCH  18  19
ATOM     19  C   UNL     1     -22.998  90.483 -29.015  1.00  0.00     0.000 C 
BRANCH  19  20
ATOM     20  C   UNL     1     -23.800  89.209 -29.313  1.00  0.00     0.000 C 
BRANCH  20  21
ATOM     21  C   UNL     1     -25.323  89.440 -29.225  1.00  0.00     0.000 C 
BRANCH  21  22
ATOM     22  C   UNL     1     -26.107  88.227 -28.690  1.00  0.00     0.000 C 
BRANCH  22  23
ATOM     23  C   UNL     1     -27.297  88.569 -27.777  1.00  0.00     0.000 C 
BRANCH  23  24
ATOM     24  C   UNL     1     -27.408  90.053 -27.373  1.00  0.00    -0.000 C 
BRANCH  24  25
ATOM     25  C   UNL     1     -26.840  90.362 -25.971  1.00  0.00    -0.000 C 
BRANCH  25  26
ATOM     26  C   UNL     1     -26.825  89.124 -25.063  1.00  0.00    -0.000 C 
BRANCH  26  27
ATOM     27  C   UNL     1     -25.446  88.922 -24.417  1.00  0.00    -0.000 C 
BRANCH  27  28
ATOM     28  C   UNL     1     -24.393  88.440 -25.438  1.00  0.00    -0.000 C 
BRANCH  28  29
ATOM     29  C   UNL     1     -22.998  89.058 -25.227  1.00  0.00    -0.000 C 
BRANCH  29  30
ATOM     30  C   UNL     1     -22.030  88.213 -24.376  1.00  0.00    -0.000 C 
BRANCH  30  31
ATOM     31  C   UNL     1     -22.365  86.711 -24.323  1.00  0.00    -0.003 C 
ATOM     32  C   UNL     1     -21.691  85.994 -23.155  1.00  0.00     0.004 C 
ENDBRANCH  30  31
ENDBRANCH  29  30
ENDBRANCH  28  29
ENDBRANCH  27  28
ENDBRANCH  26  27
ENDBRANCH  25  26
ENDBRANCH  24  25
ENDBRANCH  23  24
ENDBRANCH  22  23
ENDBRANCH  21  22
ENDBRANCH  20  21
ENDBRANCH  19  20
ENDBRANCH  18  19
ENDBRANCH   1  18
TORSDOF 28
ENDMDL
MODEL 3
REMARK VINA RESULT:    -4.331     11.966     16.386
REMARK INTER + INTRA:         -15.790
REMARK INTER:                  -9.625
REMARK INTRA:                  -6.165
REMARK UNBOUND:                -4.370
REMARK SMILES CCCCCCCCCCCCCCCCCCCCCCCCCCCCCC(=O)[O-]
REMARK SMILES IDX 16 1 17 2 18 3 19 4 20 5 21 6 22 7 23 8 24 9 25 10 26 11
REMARK SMILES IDX 27 12 28 13 29 14 30 15 31 16 32 17 15 18 14 19 13 20 12 21
REMARK SMILES IDX 11 22 10 23 9 24 8 25 7 26 6 27 5 28 4 29 3 30 2 31 1 32
REMARK H PARENT
REMARK Flexibility Score: inf
ROOT
ATOM      1  C   UNL     1     -36.437  81.414 -18.641  1.00  0.00     0.000 C 
ENDROOT
BRANCH   1   2
ATOM      2  C   UNL     1     -37.689  81.766 -19.466  1.00  0.00     0.000 C 
BRANCH   2   3
ATOM      3  C   UNL     1     -38.381  80.523 -20.046  1.00  0.00     0.000 C 
BRANCH   3   4
ATOM      4  C   UNL     1     -37.381  79.502 -20.610  1.00  0.00     0.000 C 
BRANCH   4   5
ATOM      5  C   UNL     1     -37.491  79.410 -22.138  1.00  0.00     0.000 C 
BRANCH   5   6
ATOM      6  C   UNL     1     -38.200  80.627 -22.754  1.00  0.00     0.000 C 
BRANCH   6   7
ATOM      7  C   UNL     1     -37.292  81.424 -23.702  1.00  0.00     0.000 C 
BRANCH   7   8
ATOM      8  C   UNL     1     -37.767  82.877 -23.825  1.00  0.00     0.000 C 
BRANCH   8   9
ATOM      9  C   UNL     1     -37.847  83.546 -22.445  1.00  0.00     0.000 C 
BRANCH   9  10
ATOM     10  C   UNL     1     -38.235  85.032 -22.524  1.00  0.00     0.000 C 
BRANCH  10  11
ATOM     11  C   UNL     1     -37.506  85.838 -23.617  1.00  0.00     0.000 C 
BRANCH  11  12
ATOM     12  C   UNL     1     -36.023  86.125 -23.298  1.00  0.00     0.000 C 
BRANCH  12  13
ATOM     13  C   UNL     1     -35.190  86.364 -24.570  1.00  0.00     0.006 C 
BRANCH  13  14
ATOM     14  C   UNL     1     -33.686  86.457 -24.273  1.00  0.00     0.053 C 
BRANCH  14  15
ATOM     15  C   UNL     1     -32.944  85.237 -24.732  1.00  0.00     0.041 C 
ATOM     16  O   UNL     1     -31.769  85.015 -24.331  1.00  0.00    -0.550 OA
ATOM     17  O   UNL     1     -33.558  84.335 -25.593  1.00  0.00    -0.550 OA
ENDBRANCH  14  15
ENDBRANCH  13  14
ENDBRANCH  12  13
ENDBRANCH  11  12
ENDBRANCH  10  11
ENDBRANCH   9  10
ENDBRANCH   8   9
ENDBRANCH   7   8
ENDBRANCH   6   7
ENDBRANCH   5   6
ENDBRANCH   4   5
ENDBRANCH   3   4
ENDBRANCH   2   3
ENDBRANCH   1   2
BRANCH   1  18
ATOM     18  C   UNL     1     -36.143  82.454 -17.547  1.00  0.00     0.000 C 
BRANCH  18  19
ATOM     19  C   UNL     1     -36.601  83.865 -17.949  1.00  0.00     0.000 C 
BRANCH  19  20
ATOM     20  C   UNL     1     -35.417  84.725 -18.411  1.00  0.00     0.000 C 
BRANCH  20  21
ATOM     21  C   UNL     1     -35.282  84.760 -19.948  1.00  0.00     0.000 C 
BRANCH  21  22
ATOM     22  C   UNL     1     -34.200  83.813 -20.499  1.00  0.00     0.000 C 
BRANCH  22  23
ATOM     23  C   UNL     1     -34.711  82.728 -21.464  1.00  0.00     0.000 C 
BRANCH  23  24
ATOM     24  C   UNL     1     -33.727  82.330 -22.582  1.00  0.00    -0.000 C 
BRANCH  24  25
ATOM     25  C   UNL     1     -33.211  80.879 -22.473  1.00  0.00    -0.000 C 
BRANCH  25  26
ATOM     26  C   UNL     1     -33.865  80.115 -21.314  1.00  0.00    -0.000 C 
BRANCH  26  27
ATOM     27  C   UNL     1     -32.830  79.721 -20.250  1.00  0.00    -0.000 C 
BRANCH  27  28
ATOM     28  C   UNL     1     -32.772  80.740 -19.092  1.00  0.00    -0.000 C 
BRANCH  28  29
ATOM     29  C   UNL     1     -31.497  81.602 -19.089  1.00  0.00    -0.000 C 
BRANCH  29  30
ATOM     30  C   UNL     1     -30.313  81.022 -19.888  1.00  0.00    -0.000 C 
BRANCH  30  31
ATOM     31  C   UNL     1     -29.824  81.910 -21.047  1.00  0.00    -0.003 C 
ATOM     32  C   UNL     1     -30.469  83.295 -21.046  1.00  0.00     0.004 C 
ENDBRANCH  30  31
ENDBRANCH  29  30
ENDBRANCH  28  29
ENDBRANCH  27  28
ENDBRANCH  26  27
ENDBRANCH  25  26
ENDBRANCH  24  25
ENDBRANCH  23  24
ENDBRANCH  22  23
ENDBRANCH  21  22
ENDBRANCH  20  21
ENDBRANCH  19  20
ENDBRANCH  18  19
ENDBRANCH   1  18
TORSDOF 28
ENDMDL
MODEL 4
REMARK VINA RESULT:    -4.320     10.726     15.489
REMARK INTER + INTRA:         -15.760
REMARK INTER:                 -10.280
REMARK INTRA:                  -5.481
REMARK UNBOUND:                -4.370
REMARK SMILES CCCCCCCCCCCCCCCCCCCCCCCCCCCCCC(=O)[O-]
REMARK SMILES IDX 16 1 17 2 18 3 19 4 20 5 21 6 22 7 23 8 24 9 25 10 26 11
REMARK SMILES IDX 27 12 28 13 29 14 30 15 31 16 32 17 15 18 14 19 13 20 12 21
REMARK SMILES IDX 11 22 10 23 9 24 8 25 7 26 6 27 5 28 4 29 3 30 2 31 1 32
REMARK H PARENT
REMARK Flexibility Score: inf
ROOT
ATOM      1  C   UNL     1     -34.969  84.873 -18.802  1.00  0.00     0.000 C 
ENDROOT
BRANCH   1   2
ATOM      2  C   UNL     1     -35.760  84.565 -17.518  1.00  0.00     0.000 C 
BRANCH   2   3
ATOM      3  C   UNL     1     -36.733  83.389 -17.693  1.00  0.00     0.000 C 
BRANCH   3   4
ATOM      4  C   UNL     1     -37.261  83.271 -19.131  1.00  0.00     0.000 C 
BRANCH   4   5
ATOM      5  C   UNL     1     -37.515  81.804 -19.504  1.00  0.00     0.000 C 
BRANCH   5   6
ATOM      6  C   UNL     1     -37.535  81.575 -21.024  1.00  0.00     0.000 C 
BRANCH   6   7
ATOM      7  C   UNL     1     -36.757  82.652 -21.795  1.00  0.00     0.000 C 
BRANCH   7   8
ATOM      8  C   UNL     1     -37.681  83.418 -22.749  1.00  0.00     0.000 C 
BRANCH   8   9
ATOM      9  C   UNL     1     -37.552  84.934 -22.539  1.00  0.00     0.000 C 
BRANCH   9  10
ATOM     10  C   UNL     1     -36.090  85.411 -22.520  1.00  0.00     0.000 C 
BRANCH  10  11
ATOM     11  C   UNL     1     -35.824  86.727 -23.278  1.00  0.00     0.000 C 
BRANCH  11  12
ATOM     12  C   UNL     1     -35.070  86.539 -24.611  1.00  0.00     0.000 C 
BRANCH  12  13
ATOM     13  C   UNL     1     -33.542  86.599 -24.428  1.00  0.00     0.006 C 
BRANCH  13  14
ATOM     14  C   UNL     1     -32.996  88.027 -24.562  1.00  0.00     0.053 C 
BRANCH  14  15
ATOM     15  C   UNL     1     -31.499  88.071 -24.461  1.00  0.00     0.041 C 
ATOM     16  O   UNL     1     -30.941  88.540 -23.433  1.00  0.00    -0.550 OA
ATOM     17  O   UNL     1     -30.721  87.577 -25.501  1.00  0.00    -0.550 OA
ENDBRANCH  14  15
ENDBRANCH  13  14
ENDBRANCH  12  13
ENDBRANCH  11  12
ENDBRANCH  10  11
ENDBRANCH   9  10
ENDBRANCH   8   9
ENDBRANCH   7   8
ENDBRANCH   6   7
ENDBRANCH   5   6
ENDBRANCH   4   5
ENDBRANCH   3   4
ENDBRANCH   2   3
ENDBRANCH   1   2
BRANCH   1  18
ATOM     18  C   UNL     1     -33.603  84.167 -18.835  1.00  0.00     0.000 C 
BRANCH  18  19
ATOM     19  C   UNL     1     -33.572  83.006 -19.841  1.00  0.00     0.000 C 
BRANCH  19  20
ATOM     20  C   UNL     1     -33.817  81.659 -19.146  1.00  0.00     0.000 C 
BRANCH  20  21
ATOM     21  C   UNL     1     -34.037  80.511 -20.154  1.00  0.00     0.000 C 
BRANCH  21  22
ATOM     22  C   UNL     1     -33.519  80.819 -21.571  1.00  0.00     0.000 C 
BRANCH  22  23
ATOM     23  C   UNL     1     -32.744  79.674 -22.247  1.00  0.00     0.000 C 
BRANCH  23  24
ATOM     24  C   UNL     1     -31.952  78.764 -21.287  1.00  0.00    -0.000 C 
BRANCH  24  25
ATOM     25  C   UNL     1     -30.529  79.274 -20.973  1.00  0.00    -0.000 C 
BRANCH  25  26
ATOM     26  C   UNL     1     -30.445  79.955 -19.599  1.00  0.00    -0.000 C 
BRANCH  26  27
ATOM     27  C   UNL     1     -30.193  81.464 -19.738  1.00  0.00    -0.000 C 
BRANCH  27  28
ATOM     28  C   UNL     1     -29.847  81.862 -21.189  1.00  0.00    -0.000 C 
BRANCH  28  29
ATOM     29  C   UNL     1     -30.359  83.260 -21.586  1.00  0.00    -0.000 C 
BRANCH  29  30
ATOM     30  C   UNL     1     -31.086  83.329 -22.942  1.00  0.00    -0.000 C 
BRANCH  30  31
ATOM     31  C   UNL     1     -30.527  84.381 -23.918  1.00  0.00    -0.003 C 
ATOM     32  C   UNL     1     -30.914  84.108 -25.371  1.00  0.00     0.004 C 
ENDBRANCH  30  31
ENDBRANCH  29  30
ENDBRANCH  28  29
ENDBRANCH  27  28
ENDBRANCH  26  27
ENDBRANCH  25  26
ENDBRANCH  24  25
ENDBRANCH  23  24
ENDBRANCH  22  23
ENDBRANCH  21  22
ENDBRANCH  20  21
ENDBRANCH  19  20
ENDBRANCH  18  19
ENDBRANCH   1  18
TORSDOF 28
ENDMDL
MODEL 5
REMARK VINA RESULT:    -4.319      3.109      5.369
REMARK INTER + INTRA:         -15.758
REMARK INTER:                  -9.990
REMARK INTRA:                  -5.768
REMARK UNBOUND:                -4.370
REMARK SMILES CCCCCCCCCCCCCCCCCCCCCCCCCCCCCC(=O)[O-]
REMARK SMILES IDX 16 1 17 2 18 3 19 4 20 5 21 6 22 7 23 8 24 9 25 10 26 11
REMARK SMILES IDX 27 12 28 13 29 14 30 15 31 16 32 17 15 18 14 19 13 20 12 21
REMARK SMILES IDX 11 22 10 23 9 24 8 25 7 26 6 27 5 28 4 29 3 30 2 31 1 32
REMARK H PARENT
REMARK Flexibility Score: inf
ROOT
ATOM      1  C   UNL     1     -25.733  95.242 -27.729  1.00  0.00     0.000 C 
ENDROOT
BRANCH   1   2
ATOM      2  C   UNL     1     -25.039  93.899 -28.021  1.00  0.00     0.000 C 
BRANCH   2   3
ATOM      3  C   UNL     1     -25.884  92.692 -27.587  1.00  0.00     0.000 C 
BRANCH   3   4
ATOM      4  C   UNL     1     -25.150  91.357 -27.792  1.00  0.00     0.000 C 
BRANCH   4   5
ATOM      5  C   UNL     1     -23.727  91.587 -28.319  1.00  0.00     0.000 C 
BRANCH   5   6
ATOM      6  C   UNL     1     -23.131  90.335 -28.980  1.00  0.00     0.000 C 
BRANCH   6   7
ATOM      7  C   UNL     1     -24.041  89.104 -28.846  1.00  0.00     0.000 C 
BRANCH   7   8
ATOM      8  C   UNL     1     -23.331  87.979 -28.084  1.00  0.00     0.000 C 
BRANCH   8   9
ATOM      9  C   UNL     1     -24.151  87.542 -26.862  1.00  0.00     0.000 C 
BRANCH   9  10
ATOM     10  C   UNL     1     -24.031  88.521 -25.682  1.00  0.00     0.000 C 
BRANCH  10  11
ATOM     11  C   UNL     1     -25.348  88.803 -24.933  1.00  0.00     0.000 C 
BRANCH  11  12
ATOM     12  C   UNL     1     -26.606  88.708 -25.824  1.00  0.00     0.000 C 
BRANCH  12  13
ATOM     13  C   UNL     1     -27.747  89.609 -25.318  1.00  0.00     0.006 C 
BRANCH  13  14
ATOM     14  C   UNL     1     -29.012  88.811 -24.974  1.00  0.00     0.053 C 
BRANCH  14  15
ATOM     15  C   UNL     1     -29.084  88.467 -23.515  1.00  0.00     0.041 C 
ATOM     16  O   UNL     1     -28.587  87.390 -23.087  1.00  0.00    -0.550 OA
ATOM     17  O   UNL     1     -29.687  89.347 -22.625  1.00  0.00    -0.550 OA
ENDBRANCH  14  15
ENDBRANCH  13  14
ENDBRANCH  12  13
ENDBRANCH  11  12
ENDBRANCH  10  11
ENDBRANCH   9  10
ENDBRANCH   8   9
ENDBRANCH   7   8
ENDBRANCH   6   7
ENDBRANCH   5   6
ENDBRANCH   4   5
ENDBRANCH   3   4
ENDBRANCH   2   3
ENDBRANCH   1   2
BRANCH   1  18
ATOM     18  C   UNL     1     -25.096  96.412 -28.497  1.00  0.00     0.000 C 
BRANCH  18  19
ATOM     19  C   UNL     1     -24.221  95.932 -29.666  1.00  0.00     0.000 C 
BRANCH  19  20
ATOM     20  C   UNL     1     -24.298  96.900 -30.855  1.00  0.00     0.000 C 
BRANCH  20  21
ATOM     21  C   UNL     1     -23.408  96.453 -32.034  1.00  0.00     0.000 C 
BRANCH  21  22
ATOM     22  C   UNL     1     -23.123  94.939 -32.059  1.00  0.00     0.000 C 
BRANCH  22  23
ATOM     23  C   UNL     1     -23.396  94.245 -33.405  1.00  0.00     0.000 C 
BRANCH  23  24
ATOM     24  C   UNL     1     -24.728  94.629 -34.081  1.00  0.00    -0.000 C 
BRANCH  24  25
ATOM     25  C   UNL     1     -25.928  93.769 -33.629  1.00  0.00    -0.000 C 
BRANCH  25  26
ATOM     26  C   UNL     1     -26.709  94.421 -32.479  1.00  0.00    -0.000 C 
BRANCH  26  27
ATOM     27  C   UNL     1     -26.633  93.572 -31.201  1.00  0.00    -0.000 C 
BRANCH  27  28
ATOM     28  C   UNL     1     -25.729  92.334 -31.381  1.00  0.00    -0.000 C 
BRANCH  28  29
ATOM     29  C   UNL     1     -26.472  90.995 -31.212  1.00  0.00    -0.000 C 
BRANCH  29  30
ATOM     30  C   UNL     1     -27.934  91.114 -30.739  1.00  0.00    -0.000 C 
BRANCH  30  31
ATOM     31  C   UNL     1     -28.242  90.386 -29.417  1.00  0.00    -0.003 C 
ATOM     32  C   UNL     1     -27.677  88.968 -29.374  1.00  0.00     0.004 C 
ENDBRANCH  30  31
ENDBRANCH  29  30
ENDBRANCH  28  29
ENDBRANCH  27  28
ENDBRANCH  26  27
ENDBRANCH  25  26
ENDBRANCH  24  25
ENDBRANCH  23  24
ENDBRANCH  22  23
ENDBRANCH  21  22
ENDBRANCH  20  21
ENDBRANCH  19  20
ENDBRANCH  18  19
ENDBRANCH   1  18
TORSDOF 28
ENDMDL
MODEL 6
REMARK VINA RESULT:    -4.312     12.505     16.904
REMARK INTER + INTRA:         -15.740
REMARK INTER:                  -9.453
REMARK INTRA:                  -6.287
REMARK UNBOUND:                -4.370
REMARK SMILES CCCCCCCCCCCCCCCCCCCCCCCCCCCCCC(=O)[O-]
REMARK SMILES IDX 16 1 17 2 18 3 19 4 20 5 21 6 22 7 23 8 24 9 25 10 26 11
REMARK SMILES IDX 27 12 28 13 29 14 30 15 31 16 32 17 15 18 14 19 13 20 12 21
REMARK SMILES IDX 11 22 10 23 9 24 8 25 7 26 6 27 5 28 4 29 3 30 2 31 1 32
REMARK H PARENT
REMARK Flexibility Score: inf
ROOT
ATOM      1  C   UNL     1     -34.644  84.831 -18.688  1.00  0.00     0.000 C 
ENDROOT
BRANCH   1   2
ATOM      2  C   UNL     1     -35.656  84.787 -17.529  1.00  0.00     0.000 C 
BRANCH   2   3
ATOM      3  C   UNL     1     -36.756  83.737 -17.747  1.00  0.00     0.000 C 
BRANCH   3   4
ATOM      4  C   UNL     1     -36.264  82.306 -17.481  1.00  0.00     0.000 C 
BRANCH   4   5
ATOM      5  C   UNL     1     -36.553  81.393 -18.682  1.00  0.00     0.000 C 
BRANCH   5   6
ATOM      6  C   UNL     1     -37.709  81.910 -19.553  1.00  0.00     0.000 C 
BRANCH   6   7
ATOM      7  C   UNL     1     -37.515  81.592 -21.043  1.00  0.00     0.000 C 
BRANCH   7   8
ATOM      8  C   UNL     1     -38.074  80.205 -21.384  1.00  0.00     0.000 C 
BRANCH   8   9
ATOM      9  C   UNL     1     -37.953  79.920 -22.888  1.00  0.00     0.000 C 
BRANCH   9  10
ATOM     10  C   UNL     1     -38.297  81.141 -23.757  1.00  0.00     0.000 C 
BRANCH  10  11
ATOM     11  C   UNL     1     -37.133  81.681 -24.612  1.00  0.00     0.000 C 
BRANCH  11  12
ATOM     12  C   UNL     1     -36.909  83.202 -24.473  1.00  0.00     0.000 C 
BRANCH  12  13
ATOM     13  C   UNL     1     -38.135  83.918 -23.879  1.00  0.00     0.006 C 
BRANCH  13  14
ATOM     14  C   UNL     1     -37.748  84.941 -22.803  1.00  0.00     0.053 C 
BRANCH  14  15
ATOM     15  C   UNL     1     -37.114  86.168 -23.390  1.00  0.00     0.041 C 
ATOM     16  O   UNL     1     -36.159  86.740 -22.798  1.00  0.00    -0.550 OA
ATOM     17  O   UNL     1     -37.569  86.669 -24.603  1.00  0.00    -0.550 OA
ENDBRANCH  14  15
ENDBRANCH  13  14
ENDBRANCH  12  13
ENDBRANCH  11  12
ENDBRANCH  10  11
ENDBRANCH   9  10
ENDBRANCH   8   9
ENDBRANCH   7   8
ENDBRANCH   6   7
ENDBRANCH   5   6
ENDBRANCH   4   5
ENDBRANCH   3   4
ENDBRANCH   2   3
ENDBRANCH   1   2
BRANCH   1  18
ATOM     18  C   UNL     1     -35.325  84.783 -20.065  1.00  0.00     0.000 C 
BRANCH  18  19
ATOM     19  C   UNL     1     -34.632  83.800 -21.023  1.00  0.00     0.000 C 
BRANCH  19  20
ATOM     20  C   UNL     1     -33.620  82.918 -20.279  1.00  0.00     0.000 C 
BRANCH  20  21
ATOM     21  C   UNL     1     -33.693  81.442 -20.722  1.00  0.00     0.000 C 
BRANCH  21  22
ATOM     22  C   UNL     1     -33.919  81.256 -22.235  1.00  0.00     0.000 C 
BRANCH  22  23
ATOM     23  C   UNL     1     -34.360  79.846 -22.662  1.00  0.00     0.000 C 
BRANCH  23  24
ATOM     24  C   UNL     1     -34.004  78.720 -21.670  1.00  0.00    -0.000 C 
BRANCH  24  25
ATOM     25  C   UNL     1     -32.846  77.815 -22.142  1.00  0.00    -0.000 C 
BRANCH  25  26
ATOM     26  C   UNL     1     -31.503  78.214 -21.515  1.00  0.00    -0.000 C 
BRANCH  26  27
ATOM     27  C   UNL     1     -31.615  78.338 -19.988  1.00  0.00    -0.000 C 
BRANCH  27  28
ATOM     28  C   UNL     1     -30.758  79.498 -19.436  1.00  0.00    -0.000 C 
BRANCH  28  29
ATOM     29  C   UNL     1     -30.192  80.424 -20.529  1.00  0.00    -0.000 C 
BRANCH  29  30
ATOM     30  C   UNL     1     -30.050  81.903 -20.124  1.00  0.00    -0.000 C 
BRANCH  30  31
ATOM     31  C   UNL     1     -30.127  82.901 -21.295  1.00  0.00    -0.003 C 
ATOM     32  C   UNL     1     -30.369  82.218 -22.641  1.00  0.00     0.004 C 
ENDBRANCH  30  31
ENDBRANCH  29  30
ENDBRANCH  28  29
ENDBRANCH  27  28
ENDBRANCH  26  27
ENDBRANCH  25  26
ENDBRANCH  24  25
ENDBRANCH  23  24
ENDBRANCH  22  23
ENDBRANCH  21  22
ENDBRANCH  20  21
ENDBRANCH  19  20
ENDBRANCH  18  19
ENDBRANCH   1  18
TORSDOF 28
ENDMDL
MODEL 7
REMARK VINA RESULT:    -4.305      1.549      3.231
REMARK INTER + INTRA:         -15.721
REMARK INTER:                 -11.148
REMARK INTRA:                  -4.573
REMARK UNBOUND:                -4.370
REMARK SMILES CCCCCCCCCCCCCCCCCCCCCCCCCCCCCC(=O)[O-]
REMARK SMILES IDX 16 1 17 2 18 3 19 4 20 5 21 6 22 7 23 8 24 9 25 10 26 11
REMARK SMILES IDX 27 12 28 13 29 14 30 15 31 16 32 17 15 18 14 19 13 20 12 21
REMARK SMILES IDX 11 22 10 23 9 24 8 25 7 26 6 27 5 28 4 29 3 30 2 31 1 32
REMARK H PARENT
REMARK Flexibility Score: inf
ROOT
ATOM      1  C   UNL     1     -22.916  91.478 -31.699  1.00  0.00     0.000 C 
ENDROOT
BRANCH   1   2
ATOM      2  C   UNL     1     -24.221  90.664 -31.756  1.00  0.00     0.000 C 
BRANCH   2   3
ATOM      3  C   UNL     1     -24.331  89.646 -30.611  1.00  0.00     0.000 C 
BRANCH   3   4
ATOM      4  C   UNL     1     -23.210  89.806 -29.572  1.00  0.00     0.000 C 
BRANCH   4   5
ATOM      5  C   UNL     1     -23.592  89.136 -28.244  1.00  0.00     0.000 C 
BRANCH   5   6
ATOM      6  C   UNL     1     -23.284  90.021 -27.025  1.00  0.00     0.000 C 
BRANCH   6   7
ATOM      7  C   UNL     1     -23.318  89.239 -25.703  1.00  0.00     0.000 C 
BRANCH   7   8
ATOM      8  C   UNL     1     -24.122  87.943 -25.853  1.00  0.00     0.000 C 
BRANCH   8   9
ATOM      9  C   UNL     1     -24.198  87.186 -24.519  1.00  0.00     0.000 C 
BRANCH   9  10
ATOM     10  C   UNL     1     -23.319  85.924 -24.498  1.00  0.00     0.000 C 
BRANCH  10  11
ATOM     11  C   UNL     1     -22.093  85.999 -23.566  1.00  0.00     0.000 C 
BRANCH  11  12
ATOM     12  C   UNL     1     -22.191  85.081 -22.329  1.00  0.00     0.000 C 
BRANCH  12  13
ATOM     13  C   UNL     1     -21.303  83.830 -22.462  1.00  0.00     0.006 C 
BRANCH  13  14
ATOM     14  C   UNL     1     -21.956  82.584 -21.848  1.00  0.00     0.053 C 
BRANCH  14  15
ATOM     15  C   UNL     1     -22.360  82.804 -20.420  1.00  0.00     0.041 C 
ATOM     16  O   UNL     1     -23.545  82.583 -20.050  1.00  0.00    -0.550 OA
ATOM     17  O   UNL     1     -21.420  83.237 -19.493  1.00  0.00    -0.550 OA
ENDBRANCH  14  15
ENDBRANCH  13  14
ENDBRANCH  12  13
ENDBRANCH  11  12
ENDBRANCH  10  11
ENDBRANCH   9  10
ENDBRANCH   8   9
ENDBRANCH   7   8
ENDBRANCH   6   7
ENDBRANCH   5   6
ENDBRANCH   4   5
ENDBRANCH   3   4
ENDBRANCH   2   3
ENDBRANCH   1   2
BRANCH   1  18
ATOM     18  C   UNL     1     -23.150  92.981 -31.924  1.00  0.00     0.000 C 
BRANCH  18  19
ATOM     19  C   UNL     1     -24.597  93.288 -32.341  1.00  0.00     0.000 C 
BRANCH  19  20
ATOM     20  C   UNL     1     -25.024  94.689 -31.884  1.00  0.00     0.000 C 
BRANCH  20  21
ATOM     21  C   UNL     1     -23.889  95.439 -31.156  1.00  0.00     0.000 C 
BRANCH  21  22
ATOM     22  C   UNL     1     -24.369  96.287 -29.963  1.00  0.00     0.000 C 
BRANCH  22  23
ATOM     23  C   UNL     1     -25.154  95.517 -28.887  1.00  0.00     0.000 C 
BRANCH  23  24
ATOM     24  C   UNL     1     -24.354  94.426 -28.146  1.00  0.00    -0.000 C 
BRANCH  24  25
ATOM     25  C   UNL     1     -24.635  92.994 -28.650  1.00  0.00    -0.000 C 
BRANCH  25  26
ATOM     26  C   UNL     1     -25.971  92.446 -28.128  1.00  0.00    -0.000 C 
BRANCH  26  27
ATOM     27  C   UNL     1     -26.949  92.169 -29.280  1.00  0.00    -0.000 C 
BRANCH  27  28
ATOM     28  C   UNL     1     -27.618  90.784 -29.152  1.00  0.00    -0.000 C 
BRANCH  28  29
ATOM     29  C   UNL     1     -26.949  89.868 -28.109  1.00  0.00    -0.000 C 
BRANCH  29  30
ATOM     30  C   UNL     1     -27.810  89.550 -26.871  1.00  0.00    -0.000 C 
BRANCH  30  31
ATOM     31  C   UNL     1     -27.176  89.954 -25.526  1.00  0.00    -0.003 C 
ATOM     32  C   UNL     1     -27.562  89.017 -24.383  1.00  0.00     0.004 C 
ENDBRANCH  30  31
ENDBRANCH  29  30
ENDBRANCH  28  29
ENDBRANCH  27  28
ENDBRANCH  26  27
ENDBRANCH  25  26
ENDBRANCH  24  25
ENDBRANCH  23  24
ENDBRANCH  22  23
ENDBRANCH  21  22
ENDBRANCH  20  21
ENDBRANCH  19  20
ENDBRANCH  18  19
ENDBRANCH   1  18
TORSDOF 28
ENDMDL
MODEL 8
REMARK VINA RESULT:    -4.292      1.564      3.359
REMARK INTER + INTRA:         -15.688
REMARK INTER:                 -11.665
REMARK INTRA:                  -4.023
REMARK UNBOUND:                -4.370
REMARK SMILES CCCCCCCCCCCCCCCCCCCCCCCCCCCCCC(=O)[O-]
REMARK SMILES IDX 16 1 17 2 18 3 19 4 20 5 21 6 22 7 23 8 24 9 25 10 26 11
REMARK SMILES IDX 27 12 28 13 29 14 30 15 31 16 32 17 15 18 14 19 13 20 12 21
REMARK SMILES IDX 11 22 10 23 9 24 8 25 7 26 6 27 5 28 4 29 3 30 2 31 1 32
REMARK H PARENT
REMARK Flexibility Score: inf
ROOT
ATOM      1  C   UNL     1     -24.720  93.120 -28.137  1.00  0.00     0.000 C 
ENDROOT
BRANCH   1   2
ATOM      2  C   UNL     1     -23.843  91.855 -28.146  1.00  0.00     0.000 C 
BRANCH   2   3
ATOM      3  C   UNL     1     -23.274  91.542 -29.538  1.00  0.00     0.000 C 
BRANCH   3   4
ATOM      4  C   UNL     1     -22.780  90.092 -29.659  1.00  0.00     0.000 C 
BRANCH   4   5
ATOM      5  C   UNL     1     -23.887  89.100 -29.272  1.00  0.00     0.000 C 
BRANCH   5   6
ATOM      6  C   UNL     1     -23.443  88.113 -28.181  1.00  0.00     0.000 C 
BRANCH   6   7
ATOM      7  C   UNL     1     -24.626  87.398 -27.511  1.00  0.00     0.000 C 
BRANCH   7   8
ATOM      8  C   UNL     1     -24.415  87.289 -25.997  1.00  0.00     0.000 C 
BRANCH   8   9
ATOM      9  C   UNL     1     -23.315  88.252 -25.526  1.00  0.00     0.000 C 
BRANCH   9  10
ATOM     10  C   UNL     1     -22.186  87.540 -24.761  1.00  0.00     0.000 C 
BRANCH  10  11
ATOM     11  C   UNL     1     -22.651  86.417 -23.811  1.00  0.00     0.000 C 
BRANCH  11  12
ATOM     12  C   UNL     1     -21.550  85.914 -22.853  1.00  0.00     0.000 C 
BRANCH  12  13
ATOM     13  C   UNL     1     -21.288  84.405 -23.009  1.00  0.00     0.006 C 
BRANCH  13  14
ATOM     14  C   UNL     1     -22.205  83.559 -22.115  1.00  0.00     0.053 C 
BRANCH  14  15
ATOM     15  C   UNL     1     -21.920  82.092 -22.241  1.00  0.00     0.041 C 
ATOM     16  O   UNL     1     -22.391  81.274 -21.405  1.00  0.00    -0.550 OA
ATOM     17  O   UNL     1     -21.143  81.625 -23.295  1.00  0.00    -0.550 OA
ENDBRANCH  14  15
ENDBRANCH  13  14
ENDBRANCH  12  13
ENDBRANCH  11  12
ENDBRANCH  10  11
ENDBRANCH   9  10
ENDBRANCH   8   9
ENDBRANCH   7   8
ENDBRANCH   6   7
ENDBRANCH   5   6
ENDBRANCH   4   5
ENDBRANCH   3   4
ENDBRANCH   2   3
ENDBRANCH   1   2
BRANCH   1  18
ATOM     18  C   UNL     1     -24.388  94.074 -29.297  1.00  0.00     0.000 C 
BRANCH  18  19
ATOM     19  C   UNL     1     -25.017  95.463 -29.105  1.00  0.00     0.000 C 
BRANCH  19  20
ATOM     20  C   UNL     1     -24.372  96.501 -30.034  1.00  0.00     0.000 C 
BRANCH  20  21
ATOM     21  C   UNL     1     -23.620  95.845 -31.212  1.00  0.00     0.000 C 
BRANCH  21  22
ATOM     22  C   UNL     1     -23.571  96.717 -32.480  1.00  0.00     0.000 C 
BRANCH  22  23
ATOM     23  C   UNL     1     -24.851  96.701 -33.335  1.00  0.00     0.000 C 
BRANCH  23  24
ATOM     24  C   UNL     1     -25.353  95.300 -33.735  1.00  0.00    -0.000 C 
BRANCH  24  25
ATOM     25  C   UNL     1     -26.805  95.007 -33.297  1.00  0.00    -0.000 C 
BRANCH  25  26
ATOM     26  C   UNL     1     -26.868  94.068 -32.084  1.00  0.00    -0.000 C 
BRANCH  26  27
ATOM     27  C   UNL     1     -26.726  92.598 -32.508  1.00  0.00    -0.000 C 
BRANCH  27  28
ATOM     28  C   UNL     1     -26.344  91.687 -31.322  1.00  0.00    -0.000 C 
BRANCH  28  29
ATOM     29  C   UNL     1     -27.554  91.033 -30.629  1.00  0.00    -0.000 C 
BRANCH  29  30
ATOM     30  C   UNL     1     -27.665  91.302 -29.116  1.00  0.00    -0.000 C 
BRANCH  30  31
ATOM     31  C   UNL     1     -27.117  90.174 -28.221  1.00  0.00    -0.003 C 
ATOM     32  C   UNL     1     -27.133  90.534 -26.737  1.00  0.00     0.004 C 
ENDBRANCH  30  31
ENDBRANCH  29  30
ENDBRANCH  28  29
ENDBRANCH  27  28
ENDBRANCH  26  27
ENDBRANCH  25  26
ENDBRANCH  24  25
ENDBRANCH  23  24
ENDBRANCH  22  23
ENDBRANCH  21  22
ENDBRANCH  20  21
ENDBRANCH  19  20
ENDBRANCH  18  19
ENDBRANCH   1  18
TORSDOF 28
ENDMDL
MODEL 9
REMARK VINA RESULT:    -4.240      4.250      9.530
REMARK INTER + INTRA:         -15.550
REMARK INTER:                 -10.048
REMARK INTRA:                  -5.502
REMARK UNBOUND:                -4.370
REMARK SMILES CCCCCCCCCCCCCCCCCCCCCCCCCCCCCC(=O)[O-]
REMARK SMILES IDX 16 1 17 2 18 3 19 4 20 5 21 6 22 7 23 8 24 9 25 10 26 11
REMARK SMILES IDX 27 12 28 13 29 14 30 15 31 16 32 17 15 18 14 19 13 20 12 21
REMARK SMILES IDX 11 22 10 23 9 24 8 25 7 26 6 27 5 28 4 29 3 30 2 31 1 32
REMARK H PARENT
REMARK Flexibility Score: inf
ROOT
ATOM      1  C   UNL     1     -23.633  92.251 -28.118  1.00  0.00     0.000 C 
ENDROOT
BRANCH   1   2
ATOM      2  C   UNL     1     -24.760  93.300 -28.094  1.00  0.00     0.000 C 
BRANCH   2   3
ATOM      3  C   UNL     1     -25.906  92.956 -29.057  1.00  0.00     0.000 C 
BRANCH   3   4
ATOM      4  C   UNL     1     -26.122  94.040 -30.125  1.00  0.00     0.000 C 
BRANCH   4   5
ATOM      5  C   UNL     1     -24.904  94.971 -30.217  1.00  0.00     0.000 C 
BRANCH   5   6
ATOM      6  C   UNL     1     -24.295  95.009 -31.627  1.00  0.00     0.000 C 
BRANCH   6   7
ATOM      7  C   UNL     1     -23.239  93.915 -31.846  1.00  0.00     0.000 C 
BRANCH   7   8
ATOM      8  C   UNL     1     -22.864  93.805 -33.329  1.00  0.00     0.000 C 
BRANCH   8   9
ATOM      9  C   UNL     1     -22.828  92.337 -33.778  1.00  0.00     0.000 C 
BRANCH   9  10
ATOM     10  C   UNL     1     -23.148  91.356 -32.637  1.00  0.00     0.000 C 
BRANCH  10  11
ATOM     11  C   UNL     1     -24.403  90.488 -32.857  1.00  0.00     0.000 C 
BRANCH  11  12
ATOM     12  C   UNL     1     -25.718  91.171 -32.425  1.00  0.00     0.000 C 
BRANCH  12  13
ATOM     13  C   UNL     1     -26.576  91.596 -33.631  1.00  0.00     0.006 C 
BRANCH  13  14
ATOM     14  C   UNL     1     -26.517  93.108 -33.884  1.00  0.00     0.053 C 
BRANCH  14  15
ATOM     15  C   UNL     1     -27.779  93.802 -33.463  1.00  0.00     0.041 C 
ATOM     16  O   UNL     1     -28.834  93.142 -33.261  1.00  0.00    -0.550 OA
ATOM     17  O   UNL     1     -27.783  95.179 -33.278  1.00  0.00    -0.550 OA
ENDBRANCH  14  15
ENDBRANCH  13  14
ENDBRANCH  12  13
ENDBRANCH  11  12
ENDBRANCH  10  11
ENDBRANCH   9  10
ENDBRANCH   8   9
ENDBRANCH   7   8
ENDBRANCH   6   7
ENDBRANCH   5   6
ENDBRANCH   4   5
ENDBRANCH   3   4
ENDBRANCH   2   3
ENDBRANCH   1   2
BRANCH   1  18
ATOM     18  C   UNL     1     -23.808  91.226 -29.251  1.00  0.00     0.000 C 
BRANCH  18  19
ATOM     19  C   UNL     1     -22.743  90.119 -29.202  1.00  0.00     0.000 C 
BRANCH  19  20
ATOM     20  C   UNL     1     -23.380  88.742 -28.966  1.00  0.00     0.000 C 
BRANCH  20  21
ATOM     21  C   UNL     1     -24.871  88.711 -29.365  1.00  0.00     0.000 C 
BRANCH  21  22
ATOM     22  C   UNL     1     -25.684  87.618 -28.646  1.00  0.00     0.000 C 
BRANCH  22  23
ATOM     23  C   UNL     1     -26.496  88.101 -27.431  1.00  0.00     0.000 C 
BRANCH  23  24
ATOM     24  C   UNL     1     -26.656  89.630 -27.316  1.00  0.00    -0.000 C 
BRANCH  24  25
ATOM     25  C   UNL     1     -25.909  90.248 -26.114  1.00  0.00    -0.000 C 
BRANCH  25  26
ATOM     26  C   UNL     1     -25.094  89.204 -25.336  1.00  0.00    -0.000 C 
BRANCH  26  27
ATOM     27  C   UNL     1     -23.591  89.343 -25.621  1.00  0.00    -0.000 C 
BRANCH  27  28
ATOM     28  C   UNL     1     -22.731  88.648 -24.545  1.00  0.00    -0.000 C 
BRANCH  28  29
ATOM     29  C   UNL     1     -22.956  87.127 -24.459  1.00  0.00    -0.000 C 
BRANCH  29  30
ATOM     30  C   UNL     1     -21.909  86.355 -23.634  1.00  0.00    -0.000 C 
BRANCH  30  31
ATOM     31  C   UNL     1     -22.439  85.079 -22.954  1.00  0.00    -0.003 C 
ATOM     32  C   UNL     1     -21.393  83.968 -22.881  1.00  0.00     0.004 C 
ENDBRANCH  30  31
ENDBRANCH  29  30
ENDBRANCH  28  29
ENDBRANCH  27  28
ENDBRANCH  26  27
ENDBRANCH  25  26
ENDBRANCH  24  25
ENDBRANCH  23  24
ENDBRANCH  22  23
ENDBRANCH  21  22
ENDBRANCH  20  21
ENDBRANCH  19  20
ENDBRANCH  18  19
ENDBRANCH   1  18
TORSDOF 28
ENDMDL
