MODEL 1
REMARK VINA RESULT:    -4.586      0.000      0.000
REMARK INTER + INTRA:         -15.353
REMARK INTER:                 -11.557
REMARK INTRA:                  -3.796
REMARK UNBOUND:                -3.796
REMARK SMILES CCCCCCCCCCCCCCCCCCCCCCCCCCCC(=O)[O-]
REMARK SMILES IDX 15 1 16 2 17 3 18 4 19 5 20 6 21 7 22 8 23 9 24 10 25 11
REMARK SMILES IDX 26 12 27 13 28 14 29 15 30 16 14 17 13 18 12 19 11 20 10 21
REMARK SMILES IDX 9 22 8 23 7 24 6 25 5 26 4 27 3 28 2 29 1 30
REMARK H PARENT
REMARK Flexibility Score: inf
ROOT
ATOM      1  C   UNL     1      71.941 -38.095  11.633  1.00  0.00     0.000 C 
ENDROOT
BRANCH   1   2
ATOM      2  C   UNL     1      70.829 -38.925  10.969  1.00  0.00     0.000 C 
BRANCH   2   3
ATOM      3  C   UNL     1      70.005 -38.111   9.961  1.00  0.00     0.000 C 
BRANCH   3   4
ATOM      4  C   UNL     1      69.389 -38.986   8.859  1.00  0.00     0.000 C 
BRANCH   4   5
ATOM      5  C   UNL     1      67.922 -38.606   8.614  1.00  0.00     0.000 C 
BRANCH   5   6
ATOM      6  C   UNL     1      67.037 -38.788   9.862  1.00  0.00     0.000 C 
BRANCH   6   7
ATOM      7  C   UNL     1      66.778 -40.249  10.274  1.00  0.00     0.000 C 
BRANCH   7   8
ATOM      8  C   UNL     1      65.553 -40.479  11.180  1.00  0.00     0.000 C 
BRANCH   8   9
ATOM      9  C   UNL     1      64.585 -39.280  11.253  1.00  0.00     0.000 C 
BRANCH   9  10
ATOM     10  C   UNL     1      64.385 -38.753  12.686  1.00  0.00     0.000 C 
BRANCH  10  11
ATOM     11  C   UNL     1      64.430 -37.210  12.746  1.00  0.00     0.000 C 
BRANCH  11  12
ATOM     12  C   UNL     1      65.844 -36.631  12.585  1.00  0.00     0.006 C 
BRANCH  12  13
ATOM     13  C   UNL     1      65.891 -35.109  12.771  1.00  0.00     0.053 C 
BRANCH  13  14
ATOM     14  C   UNL     1      64.919 -34.436  11.854  1.00  0.00     0.041 C 
ATOM     15  O   UNL     1      63.930 -33.812  12.324  1.00  0.00    -0.550 OA
ATOM     16  O   UNL     1      65.080 -34.534  10.477  1.00  0.00    -0.550 OA
ENDBRANCH  13  14
ENDBRANCH  12  13
ENDBRANCH  11  12
ENDBRANCH  10  11
ENDBRANCH   9  10
ENDBRANCH   8   9
ENDBRANCH   7   8
ENDBRANCH   6   7
ENDBRANCH   5   6
ENDBRANCH   4   5
ENDBRANCH   3   4
ENDBRANCH   2   3
ENDBRANCH   1   2
BRANCH   1  17
ATOM     17  C   UNL     1      72.674 -37.189  10.622  1.00  0.00     0.000 C 
BRANCH  17  18
ATOM     18  C   UNL     1      74.198 -37.397  10.601  1.00  0.00     0.000 C 
BRANCH  18  19
ATOM     19  C   UNL     1      74.836 -37.002   9.261  1.00  0.00     0.000 C 
BRANCH  19  20
ATOM     20  C   UNL     1      73.774 -36.516   8.266  1.00  0.00     0.000 C 
BRANCH  20  21
ATOM     21  C   UNL     1      74.188 -36.727   6.796  1.00  0.00     0.000 C 
BRANCH  21  22
ATOM     22  C   UNL     1      73.017 -36.868   5.805  1.00  0.00    -0.000 C 
BRANCH  22  23
ATOM     23  C   UNL     1      71.657 -37.200   6.448  1.00  0.00    -0.000 C 
BRANCH  23  24
ATOM     24  C   UNL     1      70.449 -36.894   5.537  1.00  0.00    -0.000 C 
BRANCH  24  25
ATOM     25  C   UNL     1      69.274 -36.270   6.310  1.00  0.00    -0.000 C 
BRANCH  25  26
ATOM     26  C   UNL     1      69.731 -35.320   7.433  1.00  0.00    -0.000 C 
BRANCH  26  27
ATOM     27  C   UNL     1      69.399 -33.834   7.200  1.00  0.00    -0.000 C 
BRANCH  27  28
ATOM     28  C   UNL     1      70.386 -33.085   6.284  1.00  0.00    -0.000 C 
BRANCH  28  29
ATOM     29  C   UNL     1      71.863 -33.456   6.528  1.00  0.00    -0.003 C 
ATOM     30  C   UNL     1      72.733 -33.243   5.291  1.00  0.00     0.004 C 
ENDBRANCH  28  29
ENDBRANCH  27  28
ENDBRANCH  26  27
ENDBRANCH  25  26
ENDBRANCH  24  25
ENDBRANCH  23  24
ENDBRANCH  22  23
ENDBRANCH  21  22
ENDBRANCH  20  21
ENDBRANCH  19  20
ENDBRANCH  18  19
ENDBRANCH  17  18
ENDBRANCH   1  17
TORSDOF 26
ENDMDL
MODEL 2
REMARK VINA RESULT:    -4.541      1.098      3.395
REMARK INTER + INTRA:         -15.239
REMARK INTER:                 -11.201
REMARK INTRA:                  -4.038
REMARK UNBOUND:                -3.796
REMARK SMILES CCCCCCCCCCCCCCCCCCCCCCCCCCCC(=O)[O-]
REMARK SMILES IDX 15 1 16 2 17 3 18 4 19 5 20 6 21 7 22 8 23 9 24 10 25 11
REMARK SMILES IDX 26 12 27 13 28 14 29 15 30 16 14 17 13 18 12 19 11 20 10 21
REMARK SMILES IDX 9 22 8 23 7 24 6 25 5 26 4 27 3 28 2 29 1 30
REMARK H PARENT
REMARK Flexibility Score: inf
ROOT
ATOM      1  C   UNL     1      74.859 -37.104   9.561  1.00  0.00     0.000 C 
ENDROOT
BRANCH   1   2
ATOM      2  C   UNL     1      74.324 -37.502  10.948  1.00  0.00     0.000 C 
BRANCH   2   3
ATOM      3  C   UNL     1      72.856 -37.101  11.153  1.00  0.00     0.000 C 
BRANCH   3   4
ATOM      4  C   UNL     1      71.981 -38.276  11.613  1.00  0.00     0.000 C 
BRANCH   4   5
ATOM      5  C   UNL     1      70.933 -38.628  10.548  1.00  0.00     0.000 C 
BRANCH   5   6
ATOM      6  C   UNL     1      69.647 -37.789  10.671  1.00  0.00     0.000 C 
BRANCH   6   7
ATOM      7  C   UNL     1      68.441 -38.317   9.871  1.00  0.00     0.000 C 
BRANCH   7   8
ATOM      8  C   UNL     1      67.233 -37.364   9.780  1.00  0.00     0.000 C 
BRANCH   8   9
ATOM      9  C   UNL     1      65.954 -38.016   9.212  1.00  0.00     0.000 C 
BRANCH   9  10
ATOM     10  C   UNL     1      64.747 -37.903  10.162  1.00  0.00     0.000 C 
BRANCH  10  11
ATOM     11  C   UNL     1      65.033 -38.540  11.539  1.00  0.00     0.000 C 
BRANCH  11  12
ATOM     12  C   UNL     1      64.581 -37.670  12.723  1.00  0.00     0.006 C 
BRANCH  12  13
ATOM     13  C   UNL     1      65.426 -36.400  12.887  1.00  0.00     0.053 C 
BRANCH  13  14
ATOM     14  C   UNL     1      64.744 -35.228  12.255  1.00  0.00     0.041 C 
ATOM     15  O   UNL     1      65.420 -34.345  11.660  1.00  0.00    -0.550 OA
ATOM     16  O   UNL     1      63.366 -35.085  12.358  1.00  0.00    -0.550 OA
ENDBRANCH  13  14
ENDBRANCH  12  13
ENDBRANCH  11  12
ENDBRANCH  10  11
ENDBRANCH   9  10
ENDBRANCH   8   9
ENDBRANCH   7   8
ENDBRANCH   6   7
ENDBRANCH   5   6
ENDBRANCH   4   5
ENDBRANCH   3   4
ENDBRANCH   2   3
ENDBRANCH   1   2
BRANCH   1  17
ATOM     17  C   UNL     1      73.732 -36.644   8.612  1.00  0.00     0.000 C 
BRANCH  17  18
ATOM     18  C   UNL     1      74.207 -36.389   7.171  1.00  0.00     0.000 C 
BRANCH  18  19
ATOM     19  C   UNL     1      73.171 -36.807   6.118  1.00  0.00     0.000 C 
BRANCH  19  20
ATOM     20  C   UNL     1      73.011 -35.726   5.041  1.00  0.00     0.000 C 
BRANCH  20  21
ATOM     21  C   UNL     1      73.369 -34.316   5.550  1.00  0.00     0.000 C 
BRANCH  21  22
ATOM     22  C   UNL     1      72.208 -33.303   5.526  1.00  0.00    -0.000 C 
BRANCH  22  23
ATOM     23  C   UNL     1      71.400 -33.208   6.833  1.00  0.00    -0.000 C 
BRANCH  23  24
ATOM     24  C   UNL     1      69.871 -33.183   6.618  1.00  0.00    -0.000 C 
BRANCH  24  25
ATOM     25  C   UNL     1      69.142 -34.246   7.457  1.00  0.00    -0.000 C 
BRANCH  25  26
ATOM     26  C   UNL     1      69.839 -35.620   7.422  1.00  0.00    -0.000 C 
BRANCH  26  27
ATOM     27  C   UNL     1      69.556 -36.458   6.161  1.00  0.00    -0.000 C 
BRANCH  27  28
ATOM     28  C   UNL     1      68.253 -37.278   6.206  1.00  0.00    -0.000 C 
BRANCH  28  29
ATOM     29  C   UNL     1      68.480 -38.804   6.178  1.00  0.00    -0.003 C 
ATOM     30  C   UNL     1      69.905 -39.191   6.571  1.00  0.00     0.004 C 
ENDBRANCH  28  29
ENDBRANCH  27  28
ENDBRANCH  26  27
ENDBRANCH  25  26
ENDBRANCH  24  25
ENDBRANCH  23  24
ENDBRANCH  22  23
ENDBRANCH  21  22
ENDBRANCH  20  21
ENDBRANCH  19  20
ENDBRANCH  18  19
ENDBRANCH  17  18
ENDBRANCH   1  17
TORSDOF 26
ENDMDL
MODEL 3
REMARK VINA RESULT:    -4.409      1.564      3.419
REMARK INTER + INTRA:         -14.906
REMARK INTER:                 -10.486
REMARK INTRA:                  -4.421
REMARK UNBOUND:                -3.796
REMARK SMILES CCCCCCCCCCCCCCCCCCCCCCCCCCCC(=O)[O-]
REMARK SMILES IDX 15 1 16 2 17 3 18 4 19 5 20 6 21 7 22 8 23 9 24 10 25 11
REMARK SMILES IDX 26 12 27 13 28 14 29 15 30 16 14 17 13 18 12 19 11 20 10 21
REMARK SMILES IDX 9 22 8 23 7 24 6 25 5 26 4 27 3 28 2 29 1 30
REMARK H PARENT
REMARK Flexibility Score: inf
ROOT
ATOM      1  C   UNL     1      72.879 -36.817  10.129  1.00  0.00     0.000 C 
ENDROOT
BRANCH   1   2
ATOM      2  C   UNL     1      71.953 -37.738  10.944  1.00  0.00     0.000 C 
BRANCH   2   3
ATOM      3  C   UNL     1      70.525 -37.789  10.382  1.00  0.00     0.000 C 
BRANCH   3   4
ATOM      4  C   UNL     1      70.027 -39.226  10.168  1.00  0.00     0.000 C 
BRANCH   4   5
ATOM      5  C   UNL     1      70.571 -40.162  11.255  1.00  0.00     0.000 C 
BRANCH   5   6
ATOM      6  C   UNL     1      69.887 -41.543  11.258  1.00  0.00     0.000 C 
BRANCH   6   7
ATOM      7  C   UNL     1      68.800 -41.738  10.185  1.00  0.00     0.000 C 
BRANCH   7   8
ATOM      8  C   UNL     1      67.345 -41.648  10.685  1.00  0.00     0.000 C 
BRANCH   8   9
ATOM      9  C   UNL     1      66.443 -40.719   9.846  1.00  0.00     0.000 C 
BRANCH   9  10
ATOM     10  C   UNL     1      66.367 -39.286  10.405  1.00  0.00     0.000 C 
BRANCH  10  11
ATOM     11  C   UNL     1      64.923 -38.740  10.403  1.00  0.00     0.000 C 
BRANCH  11  12
ATOM     12  C   UNL     1      64.725 -37.528  11.327  1.00  0.00     0.006 C 
BRANCH  12  13
ATOM     13  C   UNL     1      65.789 -36.441  11.122  1.00  0.00     0.053 C 
BRANCH  13  14
ATOM     14  C   UNL     1      65.784 -35.476  12.266  1.00  0.00     0.041 C 
ATOM     15  O   UNL     1      65.145 -34.393  12.181  1.00  0.00    -0.550 OA
ATOM     16  O   UNL     1      66.520 -35.752  13.412  1.00  0.00    -0.550 OA
ENDBRANCH  13  14
ENDBRANCH  12  13
ENDBRANCH  11  12
ENDBRANCH  10  11
ENDBRANCH   9  10
ENDBRANCH   8   9
ENDBRANCH   7   8
ENDBRANCH   6   7
ENDBRANCH   5   6
ENDBRANCH   4   5
ENDBRANCH   3   4
ENDBRANCH   2   3
ENDBRANCH   1   2
BRANCH   1  17
ATOM     17  C   UNL     1      72.233 -36.372   8.800  1.00  0.00     0.000 C 
BRANCH  17  18
ATOM     18  C   UNL     1      73.256 -35.991   7.716  1.00  0.00     0.000 C 
BRANCH  18  19
ATOM     19  C   UNL     1      72.996 -36.694   6.376  1.00  0.00     0.000 C 
BRANCH  19  20
ATOM     20  C   UNL     1      72.857 -35.676   5.237  1.00  0.00     0.000 C 
BRANCH  20  21
ATOM     21  C   UNL     1      73.236 -34.244   5.663  1.00  0.00     0.000 C 
BRANCH  21  22
ATOM     22  C   UNL     1      72.092 -33.216   5.578  1.00  0.00    -0.000 C 
BRANCH  22  23
ATOM     23  C   UNL     1      71.347 -32.960   6.901  1.00  0.00    -0.000 C 
BRANCH  23  24
ATOM     24  C   UNL     1      69.824 -33.196   6.812  1.00  0.00    -0.000 C 
BRANCH  24  25
ATOM     25  C   UNL     1      69.400 -34.540   7.430  1.00  0.00    -0.000 C 
BRANCH  25  26
ATOM     26  C   UNL     1      69.374 -35.689   6.405  1.00  0.00    -0.000 C 
BRANCH  26  27
ATOM     27  C   UNL     1      69.150 -37.089   7.007  1.00  0.00    -0.000 C 
BRANCH  27  28
ATOM     28  C   UNL     1      67.874 -37.233   7.858  1.00  0.00    -0.000 C 
BRANCH  28  29
ATOM     29  C   UNL     1      66.598 -37.476   7.026  1.00  0.00    -0.003 C 
ATOM     30  C   UNL     1      65.549 -36.384   7.228  1.00  0.00     0.004 C 
ENDBRANCH  28  29
ENDBRANCH  27  28
ENDBRANCH  26  27
ENDBRANCH  25  26
ENDBRANCH  24  25
ENDBRANCH  23  24
ENDBRANCH  22  23
ENDBRANCH  21  22
ENDBRANCH  20  21
ENDBRANCH  19  20
ENDBRANCH  18  19
ENDBRANCH  17  18
ENDBRANCH   1  17
TORSDOF 26
ENDMDL
MODEL 4
REMARK VINA RESULT:    -4.409      1.884      8.371
REMARK INTER + INTRA:         -14.906
REMARK INTER:                 -12.067
REMARK INTRA:                  -2.839
REMARK UNBOUND:                -3.796
REMARK SMILES CCCCCCCCCCCCCCCCCCCCCCCCCCCC(=O)[O-]
REMARK SMILES IDX 15 1 16 2 17 3 18 4 19 5 20 6 21 7 22 8 23 9 24 10 25 11
REMARK SMILES IDX 26 12 27 13 28 14 29 15 30 16 14 17 13 18 12 19 11 20 10 21
REMARK SMILES IDX 9 22 8 23 7 24 6 25 5 26 4 27 3 28 2 29 1 30
REMARK H PARENT
REMARK Flexibility Score: inf
ROOT
ATOM      1  C   UNL     1      70.561 -39.487  10.876  1.00  0.00     0.000 C 
ENDROOT
BRANCH   1   2
ATOM      2  C   UNL     1      71.053 -38.260  11.663  1.00  0.00     0.000 C 
BRANCH   2   3
ATOM      3  C   UNL     1      72.580 -38.097  11.610  1.00  0.00     0.000 C 
BRANCH   3   4
ATOM      4  C   UNL     1      73.035 -37.167  10.476  1.00  0.00     0.000 C 
BRANCH   4   5
ATOM      5  C   UNL     1      74.550 -37.272  10.256  1.00  0.00     0.000 C 
BRANCH   5   6
ATOM      6  C   UNL     1      74.985 -36.834   8.844  1.00  0.00     0.000 C 
BRANCH   6   7
ATOM      7  C   UNL     1      73.847 -36.344   7.930  1.00  0.00     0.000 C 
BRANCH   7   8
ATOM      8  C   UNL     1      73.932 -36.796   6.459  1.00  0.00     0.000 C 
BRANCH   8   9
ATOM      9  C   UNL     1      73.212 -35.859   5.467  1.00  0.00     0.000 C 
BRANCH   9  10
ATOM     10  C   UNL     1      73.757 -34.418   5.494  1.00  0.00     0.000 C 
BRANCH  10  11
ATOM     11  C   UNL     1      72.624 -33.373   5.587  1.00  0.00     0.000 C 
BRANCH  11  12
ATOM     12  C   UNL     1      71.818 -33.458   6.893  1.00  0.00     0.006 C 
BRANCH  12  13
ATOM     13  C   UNL     1      70.317 -33.219   6.685  1.00  0.00     0.053 C 
BRANCH  13  14
ATOM     14  C   UNL     1      69.545 -34.478   6.921  1.00  0.00     0.041 C 
ATOM     15  O   UNL     1      69.924 -35.562   6.400  1.00  0.00    -0.550 OA
ATOM     16  O   UNL     1      68.381 -34.450   7.679  1.00  0.00    -0.550 OA
ENDBRANCH  13  14
ENDBRANCH  12  13
ENDBRANCH  11  12
ENDBRANCH  10  11
ENDBRANCH   9  10
ENDBRANCH   8   9
ENDBRANCH   7   8
ENDBRANCH   6   7
ENDBRANCH   5   6
ENDBRANCH   4   5
ENDBRANCH   3   4
ENDBRANCH   2   3
ENDBRANCH   1   2
BRANCH   1  17
ATOM     17  C   UNL     1      69.610 -39.097   9.725  1.00  0.00     0.000 C 
BRANCH  17  18
ATOM     18  C   UNL     1      68.902 -37.749   9.942  1.00  0.00     0.000 C 
BRANCH  18  19
ATOM     19  C   UNL     1      67.401 -37.804   9.622  1.00  0.00     0.000 C 
BRANCH  19  20
ATOM     20  C   UNL     1      66.791 -39.138  10.069  1.00  0.00     0.000 C 
BRANCH  20  21
ATOM     21  C   UNL     1      65.294 -39.025  10.418  1.00  0.00     0.000 C 
BRANCH  21  22
ATOM     22  C   UNL     1      64.993 -38.710  11.896  1.00  0.00    -0.000 C 
BRANCH  22  23
ATOM     23  C   UNL     1      64.652 -37.237  12.190  1.00  0.00    -0.000 C 
BRANCH  23  24
ATOM     24  C   UNL     1      65.880 -36.377  12.561  1.00  0.00    -0.000 C 
BRANCH  24  25
ATOM     25  C   UNL     1      65.620 -34.872  12.379  1.00  0.00    -0.000 C 
BRANCH  25  26
ATOM     26  C   UNL     1      64.815 -34.552  11.106  1.00  0.00    -0.000 C 
BRANCH  26  27
ATOM     27  C   UNL     1      63.539 -33.722  11.337  1.00  0.00    -0.000 C 
BRANCH  27  28
ATOM     28  C   UNL     1      62.297 -34.540  11.742  1.00  0.00    -0.000 C 
BRANCH  28  29
ATOM     29  C   UNL     1      61.758 -34.195  13.145  1.00  0.00    -0.003 C 
ATOM     30  C   UNL     1      62.443 -35.000  14.249  1.00  0.00     0.004 C 
ENDBRANCH  28  29
ENDBRANCH  27  28
ENDBRANCH  26  27
ENDBRANCH  25  26
ENDBRANCH  24  25
ENDBRANCH  23  24
ENDBRANCH  22  23
ENDBRANCH  21  22
ENDBRANCH  20  21
ENDBRANCH  19  20
ENDBRANCH  18  19
ENDBRANCH  17  18
ENDBRANCH   1  17
TORSDOF 26
ENDMDL
MODEL 5
REMARK VINA RESULT:    -4.369      3.089      7.927
REMARK INTER + INTRA:         -14.807
REMARK INTER:                 -10.848
REMARK INTRA:                  -3.959
REMARK UNBOUND:                -3.796
REMARK SMILES CCCCCCCCCCCCCCCCCCCCCCCCCCCC(=O)[O-]
REMARK SMILES IDX 15 1 16 2 17 3 18 4 19 5 20 6 21 7 22 8 23 9 24 10 25 11
REMARK SMILES IDX 26 12 27 13 28 14 29 15 30 16 14 17 13 18 12 19 11 20 10 21
REMARK SMILES IDX 9 22 8 23 7 24 6 25 5 26 4 27 3 28 2 29 1 30
REMARK H PARENT
REMARK Flexibility Score: inf
ROOT
ATOM      1  C   UNL     1      71.004 -39.384  11.390  1.00  0.00     0.000 C 
ENDROOT
BRANCH   1   2
ATOM      2  C   UNL     1      70.691 -37.908  11.089  1.00  0.00     0.000 C 
BRANCH   2   3
ATOM      3  C   UNL     1      69.537 -37.739  10.091  1.00  0.00     0.000 C 
BRANCH   3   4
ATOM      4  C   UNL     1      69.989 -37.107   8.766  1.00  0.00     0.000 C 
BRANCH   4   5
ATOM      5  C   UNL     1      69.017 -37.460   7.631  1.00  0.00     0.000 C 
BRANCH   5   6
ATOM      6  C   UNL     1      68.632 -36.242   6.770  1.00  0.00     0.000 C 
BRANCH   6   7
ATOM      7  C   UNL     1      68.455 -34.922   7.542  1.00  0.00     0.000 C 
BRANCH   7   8
ATOM      8  C   UNL     1      69.431 -33.791   7.162  1.00  0.00     0.000 C 
BRANCH   8   9
ATOM      9  C   UNL     1      70.529 -34.211   6.162  1.00  0.00     0.000 C 
BRANCH   9  10
ATOM     10  C   UNL     1      71.954 -33.988   6.702  1.00  0.00     0.000 C 
BRANCH  10  11
ATOM     11  C   UNL     1      72.775 -35.296   6.724  1.00  0.00     0.000 C 
BRANCH  11  12
ATOM     12  C   UNL     1      73.145 -35.762   8.141  1.00  0.00     0.006 C 
BRANCH  12  13
ATOM     13  C   UNL     1      74.295 -36.778   8.154  1.00  0.00     0.053 C 
BRANCH  13  14
ATOM     14  C   UNL     1      74.867 -36.909   9.531  1.00  0.00     0.041 C 
ATOM     15  O   UNL     1      76.006 -36.434   9.793  1.00  0.00    -0.550 OA
ATOM     16  O   UNL     1      74.164 -37.592  10.515  1.00  0.00    -0.550 OA
ENDBRANCH  13  14
ENDBRANCH  12  13
ENDBRANCH  11  12
ENDBRANCH  10  11
ENDBRANCH   9  10
ENDBRANCH   8   9
ENDBRANCH   7   8
ENDBRANCH   6   7
ENDBRANCH   5   6
ENDBRANCH   4   5
ENDBRANCH   3   4
ENDBRANCH   2   3
ENDBRANCH   1   2
BRANCH   1  17
ATOM     17  C   UNL     1      70.260 -40.343  10.437  1.00  0.00     0.000 C 
BRANCH  17  18
ATOM     18  C   UNL     1      69.445 -41.425  11.166  1.00  0.00     0.000 C 
BRANCH  18  19
ATOM     19  C   UNL     1      68.153 -41.800  10.426  1.00  0.00     0.000 C 
BRANCH  19  20
ATOM     20  C   UNL     1      67.287 -40.561  10.166  1.00  0.00     0.000 C 
BRANCH  20  21
ATOM     21  C   UNL     1      67.009 -40.328   8.668  1.00  0.00     0.000 C 
BRANCH  21  22
ATOM     22  C   UNL     1      65.765 -39.470   8.364  1.00  0.00    -0.000 C 
BRANCH  22  23
ATOM     23  C   UNL     1      65.377 -38.473   9.472  1.00  0.00    -0.000 C 
BRANCH  23  24
ATOM     24  C   UNL     1      65.526 -36.994   9.056  1.00  0.00    -0.000 C 
BRANCH  24  25
ATOM     25  C   UNL     1      65.718 -36.061  10.264  1.00  0.00    -0.000 C 
BRANCH  25  26
ATOM     26  C   UNL     1      66.437 -36.745  11.442  1.00  0.00    -0.000 C 
BRANCH  26  27
ATOM     27  C   UNL     1      66.106 -36.163  12.829  1.00  0.00    -0.000 C 
BRANCH  27  28
ATOM     28  C   UNL     1      64.655 -36.387  13.297  1.00  0.00    -0.000 C 
BRANCH  28  29
ATOM     29  C   UNL     1      63.835 -35.086  13.418  1.00  0.00    -0.003 C 
ATOM     30  C   UNL     1      63.521 -34.724  14.868  1.00  0.00     0.004 C 
ENDBRANCH  28  29
ENDBRANCH  27  28
ENDBRANCH  26  27
ENDBRANCH  25  26
ENDBRANCH  24  25
ENDBRANCH  23  24
ENDBRANCH  22  23
ENDBRANCH  21  22
ENDBRANCH  20  21
ENDBRANCH  19  20
ENDBRANCH  18  19
ENDBRANCH  17  18
ENDBRANCH   1  17
TORSDOF 26
ENDMDL
MODEL 6
REMARK VINA RESULT:    -4.360      1.662      4.706
REMARK INTER + INTRA:         -14.783
REMARK INTER:                 -10.951
REMARK INTRA:                  -3.832
REMARK UNBOUND:                -3.796
REMARK SMILES CCCCCCCCCCCCCCCCCCCCCCCCCCCC(=O)[O-]
REMARK SMILES IDX 15 1 16 2 17 3 18 4 19 5 20 6 21 7 22 8 23 9 24 10 25 11
REMARK SMILES IDX 26 12 27 13 28 14 29 15 30 16 14 17 13 18 12 19 11 20 10 21
REMARK SMILES IDX 9 22 8 23 7 24 6 25 5 26 4 27 3 28 2 29 1 30
REMARK H PARENT
REMARK Flexibility Score: inf
ROOT
ATOM      1  C   UNL     1      69.121 -34.143   7.497  1.00  0.00     0.000 C 
ENDROOT
BRANCH   1   2
ATOM      2  C   UNL     1      68.714 -35.620   7.642  1.00  0.00     0.000 C 
BRANCH   2   3
ATOM      3  C   UNL     1      69.224 -36.491   6.485  1.00  0.00     0.000 C 
BRANCH   3   4
ATOM      4  C   UNL     1      69.335 -37.974   6.866  1.00  0.00     0.000 C 
BRANCH   4   5
ATOM      5  C   UNL     1      68.168 -38.779   6.277  1.00  0.00     0.000 C 
BRANCH   5   6
ATOM      6  C   UNL     1      67.299 -39.456   7.355  1.00  0.00     0.000 C 
BRANCH   6   7
ATOM      7  C   UNL     1      66.335 -38.517   8.104  1.00  0.00     0.000 C 
BRANCH   7   8
ATOM      8  C   UNL     1      66.313 -38.670   9.638  1.00  0.00     0.000 C 
BRANCH   8   9
ATOM      9  C   UNL     1      67.039 -37.540  10.397  1.00  0.00     0.000 C 
BRANCH   9  10
ATOM     10  C   UNL     1      66.128 -36.336  10.701  1.00  0.00     0.000 C 
BRANCH  10  11
ATOM     11  C   UNL     1      65.448 -36.459  12.082  1.00  0.00     0.000 C 
BRANCH  11  12
ATOM     12  C   UNL     1      66.006 -35.481  13.129  1.00  0.00     0.006 C 
BRANCH  12  13
ATOM     13  C   UNL     1      65.294 -35.588  14.484  1.00  0.00     0.053 C 
BRANCH  13  14
ATOM     14  C   UNL     1      63.850 -35.218  14.351  1.00  0.00     0.041 C 
ATOM     15  O   UNL     1      63.048 -35.991  13.760  1.00  0.00    -0.550 OA
ATOM     16  O   UNL     1      63.396 -33.999  14.840  1.00  0.00    -0.550 OA
ENDBRANCH  13  14
ENDBRANCH  12  13
ENDBRANCH  11  12
ENDBRANCH  10  11
ENDBRANCH   9  10
ENDBRANCH   8   9
ENDBRANCH   7   8
ENDBRANCH   6   7
ENDBRANCH   5   6
ENDBRANCH   4   5
ENDBRANCH   3   4
ENDBRANCH   2   3
ENDBRANCH   1   2
BRANCH   1  17
ATOM     17  C   UNL     1      69.979 -33.896   6.239  1.00  0.00     0.000 C 
BRANCH  17  18
ATOM     18  C   UNL     1      71.186 -32.976   6.489  1.00  0.00     0.000 C 
BRANCH  18  19
ATOM     19  C   UNL     1      72.404 -33.340   5.627  1.00  0.00     0.000 C 
BRANCH  19  20
ATOM     20  C   UNL     1      72.330 -34.798   5.156  1.00  0.00     0.000 C 
BRANCH  20  21
ATOM     21  C   UNL     1      73.374 -35.703   5.840  1.00  0.00     0.000 C 
BRANCH  21  22
ATOM     22  C   UNL     1      72.825 -36.579   6.982  1.00  0.00    -0.000 C 
BRANCH  22  23
ATOM     23  C   UNL     1      72.635 -35.852   8.327  1.00  0.00    -0.000 C 
BRANCH  23  24
ATOM     24  C   UNL     1      71.927 -36.707   9.400  1.00  0.00    -0.000 C 
BRANCH  24  25
ATOM     25  C   UNL     1      72.859 -37.073  10.568  1.00  0.00    -0.000 C 
BRANCH  25  26
ATOM     26  C   UNL     1      72.135 -37.832  11.697  1.00  0.00    -0.000 C 
BRANCH  26  27
ATOM     27  C   UNL     1      70.751 -38.390  11.318  1.00  0.00    -0.000 C 
BRANCH  27  28
ATOM     28  C   UNL     1      70.715 -39.905  11.043  1.00  0.00    -0.000 C 
BRANCH  28  29
ATOM     29  C   UNL     1      69.494 -40.356  10.213  1.00  0.00    -0.003 C 
ATOM     30  C   UNL     1      69.875 -41.312   9.084  1.00  0.00     0.004 C 
ENDBRANCH  28  29
ENDBRANCH  27  28
ENDBRANCH  26  27
ENDBRANCH  25  26
ENDBRANCH  24  25
ENDBRANCH  23  24
ENDBRANCH  22  23
ENDBRANCH  21  22
ENDBRANCH  20  21
ENDBRANCH  19  20
ENDBRANCH  18  19
ENDBRANCH  17  18
ENDBRANCH   1  17
TORSDOF 26
ENDMDL
MODEL 7
REMARK VINA RESULT:    -4.313      1.515      4.805
REMARK INTER + INTRA:         -14.665
REMARK INTER:                 -10.384
REMARK INTRA:                  -4.282
REMARK UNBOUND:                -3.796
REMARK SMILES CCCCCCCCCCCCCCCCCCCCCCCCCCCC(=O)[O-]
REMARK SMILES IDX 15 1 16 2 17 3 18 4 19 5 20 6 21 7 22 8 23 9 24 10 25 11
REMARK SMILES IDX 26 12 27 13 28 14 29 15 30 16 14 17 13 18 12 19 11 20 10 21
REMARK SMILES IDX 9 22 8 23 7 24 6 25 5 26 4 27 3 28 2 29 1 30
REMARK H PARENT
REMARK Flexibility Score: inf
ROOT
ATOM      1  C   UNL     1      69.806 -35.228   7.496  1.00  0.00     0.000 C 
ENDROOT
BRANCH   1   2
ATOM      2  C   UNL     1      69.644 -36.202   6.316  1.00  0.00     0.000 C 
BRANCH   2   3
ATOM      3  C   UNL     1      70.186 -37.605   6.628  1.00  0.00     0.000 C 
BRANCH   3   4
ATOM      4  C   UNL     1      69.298 -38.721   6.057  1.00  0.00     0.000 C 
BRANCH   4   5
ATOM      5  C   UNL     1      68.149 -38.135   5.225  1.00  0.00     0.000 C 
BRANCH   5   6
ATOM      6  C   UNL     1      66.827 -38.908   5.397  1.00  0.00     0.000 C 
BRANCH   6   7
ATOM      7  C   UNL     1      65.888 -38.365   6.489  1.00  0.00     0.000 C 
BRANCH   7   8
ATOM      8  C   UNL     1      66.046 -36.868   6.821  1.00  0.00     0.000 C 
BRANCH   8   9
ATOM      9  C   UNL     1      66.590 -36.588   8.237  1.00  0.00     0.000 C 
BRANCH   9  10
ATOM     10  C   UNL     1      67.108 -37.854   8.945  1.00  0.00     0.000 C 
BRANCH  10  11
ATOM     11  C   UNL     1      66.537 -37.993  10.373  1.00  0.00     0.000 C 
BRANCH  11  12
ATOM     12  C   UNL     1      65.404 -37.000  10.679  1.00  0.00     0.006 C 
BRANCH  12  13
ATOM     13  C   UNL     1      65.736 -36.056  11.842  1.00  0.00     0.053 C 
BRANCH  13  14
ATOM     14  C   UNL     1      64.887 -34.825  11.779  1.00  0.00     0.041 C 
ATOM     15  O   UNL     1      64.341 -34.376  12.823  1.00  0.00    -0.550 OA
ATOM     16  O   UNL     1      64.661 -34.197  10.561  1.00  0.00    -0.550 OA
ENDBRANCH  13  14
ENDBRANCH  12  13
ENDBRANCH  11  12
ENDBRANCH  10  11
ENDBRANCH   9  10
ENDBRANCH   8   9
ENDBRANCH   7   8
ENDBRANCH   6   7
ENDBRANCH   5   6
ENDBRANCH   4   5
ENDBRANCH   3   4
ENDBRANCH   2   3
ENDBRANCH   1   2
BRANCH   1  17
ATOM     17  C   UNL     1      69.512 -33.769   7.091  1.00  0.00     0.000 C 
BRANCH  17  18
ATOM     18  C   UNL     1      70.768 -32.978   6.685  1.00  0.00     0.000 C 
BRANCH  18  19
ATOM     19  C   UNL     1      72.068 -33.627   7.180  1.00  0.00     0.000 C 
BRANCH  19  20
ATOM     20  C   UNL     1      72.944 -34.077   6.003  1.00  0.00     0.000 C 
BRANCH  20  21
ATOM     21  C   UNL     1      73.407 -35.542   6.125  1.00  0.00     0.000 C 
BRANCH  21  22
ATOM     22  C   UNL     1      73.508 -36.073   7.568  1.00  0.00    -0.000 C 
BRANCH  22  23
ATOM     23  C   UNL     1      74.758 -36.924   7.862  1.00  0.00    -0.000 C 
BRANCH  23  24
ATOM     24  C   UNL     1      75.376 -36.660   9.252  1.00  0.00    -0.000 C 
BRANCH  24  25
ATOM     25  C   UNL     1      74.950 -37.709  10.293  1.00  0.00    -0.000 C 
BRANCH  25  26
ATOM     26  C   UNL     1      74.220 -37.093  11.501  1.00  0.00    -0.000 C 
BRANCH  26  27
ATOM     27  C   UNL     1      72.689 -37.008  11.358  1.00  0.00    -0.000 C 
BRANCH  27  28
ATOM     28  C   UNL     1      71.967 -38.367  11.282  1.00  0.00    -0.000 C 
BRANCH  28  29
ATOM     29  C   UNL     1      70.743 -38.367  10.343  1.00  0.00    -0.003 C 
ATOM     30  C   UNL     1      70.031 -39.718  10.309  1.00  0.00     0.004 C 
ENDBRANCH  28  29
ENDBRANCH  27  28
ENDBRANCH  26  27
ENDBRANCH  25  26
ENDBRANCH  24  25
ENDBRANCH  23  24
ENDBRANCH  22  23
ENDBRANCH  21  22
ENDBRANCH  20  21
ENDBRANCH  19  20
ENDBRANCH  18  19
ENDBRANCH  17  18
ENDBRANCH   1  17
TORSDOF 26
ENDMDL
MODEL 8
REMARK VINA RESULT:    -4.287      1.612      5.398
REMARK INTER + INTRA:         -14.600
REMARK INTER:                 -10.205
REMARK INTRA:                  -4.395
REMARK UNBOUND:                -3.796
REMARK SMILES CCCCCCCCCCCCCCCCCCCCCCCCCCCC(=O)[O-]
REMARK SMILES IDX 15 1 16 2 17 3 18 4 19 5 20 6 21 7 22 8 23 9 24 10 25 11
REMARK SMILES IDX 26 12 27 13 28 14 29 15 30 16 14 17 13 18 12 19 11 20 10 21
REMARK SMILES IDX 9 22 8 23 7 24 6 25 5 26 4 27 3 28 2 29 1 30
REMARK H PARENT
REMARK Flexibility Score: inf
ROOT
ATOM      1  C   UNL     1      72.282 -33.426   6.288  1.00  0.00     0.000 C 
ENDROOT
BRANCH   1   2
ATOM      2  C   UNL     1      70.824 -33.790   5.957  1.00  0.00     0.000 C 
BRANCH   2   3
ATOM      3  C   UNL     1      69.852 -33.426   7.089  1.00  0.00     0.000 C 
BRANCH   3   4
ATOM      4  C   UNL     1      68.886 -34.571   7.428  1.00  0.00     0.000 C 
BRANCH   4   5
ATOM      5  C   UNL     1      69.633 -35.909   7.521  1.00  0.00     0.000 C 
BRANCH   5   6
ATOM      6  C   UNL     1      68.908 -37.054   6.789  1.00  0.00     0.000 C 
BRANCH   6   7
ATOM      7  C   UNL     1      67.404 -36.830   6.548  1.00  0.00     0.000 C 
BRANCH   7   8
ATOM      8  C   UNL     1      66.471 -37.938   7.078  1.00  0.00     0.000 C 
BRANCH   8   9
ATOM      9  C   UNL     1      65.654 -37.535   8.323  1.00  0.00     0.000 C 
BRANCH   9  10
ATOM     10  C   UNL     1      65.929 -36.091   8.784  1.00  0.00     0.000 C 
BRANCH  10  11
ATOM     11  C   UNL     1      65.142 -35.732  10.062  1.00  0.00     0.000 C 
BRANCH  11  12
ATOM     12  C   UNL     1      64.668 -36.960  10.856  1.00  0.00     0.006 C 
BRANCH  12  13
ATOM     13  C   UNL     1      65.541 -37.250  12.084  1.00  0.00     0.053 C 
BRANCH  13  14
ATOM     14  C   UNL     1      65.295 -36.236  13.156  1.00  0.00     0.041 C 
ATOM     15  O   UNL     1      66.188 -35.397  13.453  1.00  0.00    -0.550 OA
ATOM     16  O   UNL     1      64.097 -36.244  13.860  1.00  0.00    -0.550 OA
ENDBRANCH  13  14
ENDBRANCH  12  13
ENDBRANCH  11  12
ENDBRANCH  10  11
ENDBRANCH   9  10
ENDBRANCH   8   9
ENDBRANCH   7   8
ENDBRANCH   6   7
ENDBRANCH   5   6
ENDBRANCH   4   5
ENDBRANCH   3   4
ENDBRANCH   2   3
ENDBRANCH   1   2
BRANCH   1  17
ATOM     17  C   UNL     1      73.283 -34.453   5.719  1.00  0.00     0.000 C 
BRANCH  17  18
ATOM     18  C   UNL     1      73.022 -35.893   6.194  1.00  0.00     0.000 C 
BRANCH  18  19
ATOM     19  C   UNL     1      73.801 -36.253   7.467  1.00  0.00     0.000 C 
BRANCH  19  20
ATOM     20  C   UNL     1      72.874 -36.295   8.688  1.00  0.00     0.000 C 
BRANCH  20  21
ATOM     21  C   UNL     1      73.529 -36.959   9.915  1.00  0.00     0.000 C 
BRANCH  21  22
ATOM     22  C   UNL     1      72.622 -37.068  11.156  1.00  0.00    -0.000 C 
BRANCH  22  23
ATOM     23  C   UNL     1      72.277 -38.506  11.586  1.00  0.00    -0.000 C 
BRANCH  23  24
ATOM     24  C   UNL     1      70.800 -38.888  11.347  1.00  0.00    -0.000 C 
BRANCH  24  25
ATOM     25  C   UNL     1      69.991 -37.740  10.720  1.00  0.00    -0.000 C 
BRANCH  25  26
ATOM     26  C   UNL     1      68.603 -38.186  10.224  1.00  0.00    -0.000 C 
BRANCH  26  27
ATOM     27  C   UNL     1      68.524 -39.648   9.748  1.00  0.00    -0.000 C 
BRANCH  27  28
ATOM     28  C   UNL     1      67.211 -40.375  10.099  1.00  0.00    -0.000 C 
BRANCH  28  29
ATOM     29  C   UNL     1      67.421 -41.694  10.871  1.00  0.00    -0.003 C 
ATOM     30  C   UNL     1      68.898 -42.012  11.098  1.00  0.00     0.004 C 
ENDBRANCH  28  29
ENDBRANCH  27  28
ENDBRANCH  26  27
ENDBRANCH  25  26
ENDBRANCH  24  25
ENDBRANCH  23  24
ENDBRANCH  22  23
ENDBRANCH  21  22
ENDBRANCH  20  21
ENDBRANCH  19  20
ENDBRANCH  18  19
ENDBRANCH  17  18
ENDBRANCH   1  17
TORSDOF 26
ENDMDL
MODEL 9
REMARK VINA RESULT:    -4.284      1.408      3.475
REMARK INTER + INTRA:         -14.593
REMARK INTER:                 -10.628
REMARK INTRA:                  -3.964
REMARK UNBOUND:                -3.796
REMARK SMILES CCCCCCCCCCCCCCCCCCCCCCCCCCCC(=O)[O-]
REMARK SMILES IDX 15 1 16 2 17 3 18 4 19 5 20 6 21 7 22 8 23 9 24 10 25 11
REMARK SMILES IDX 26 12 27 13 28 14 29 15 30 16 14 17 13 18 12 19 11 20 10 21
REMARK SMILES IDX 9 22 8 23 7 24 6 25 5 26 4 27 3 28 2 29 1 30
REMARK H PARENT
REMARK Flexibility Score: inf
ROOT
ATOM      1  C   UNL     1      69.881 -40.403   9.473  1.00  0.00     0.000 C 
ENDROOT
BRANCH   1   2
ATOM      2  C   UNL     1      68.518 -39.901   8.965  1.00  0.00     0.000 C 
BRANCH   2   3
ATOM      3  C   UNL     1      68.631 -39.104   7.657  1.00  0.00     0.000 C 
BRANCH   3   4
ATOM      4  C   UNL     1      69.898 -38.238   7.601  1.00  0.00     0.000 C 
BRANCH   4   5
ATOM      5  C   UNL     1      69.578 -36.777   7.949  1.00  0.00     0.000 C 
BRANCH   5   6
ATOM      6  C   UNL     1      68.458 -36.183   7.073  1.00  0.00     0.000 C 
BRANCH   6   7
ATOM      7  C   UNL     1      67.238 -35.646   7.845  1.00  0.00     0.000 C 
BRANCH   7   8
ATOM      8  C   UNL     1      65.924 -36.426   7.640  1.00  0.00     0.000 C 
BRANCH   8   9
ATOM      9  C   UNL     1      65.242 -36.872   8.950  1.00  0.00     0.000 C 
BRANCH   9  10
ATOM     10  C   UNL     1      66.242 -37.371  10.010  1.00  0.00     0.000 C 
BRANCH  10  11
ATOM     11  C   UNL     1      65.560 -38.253  11.078  1.00  0.00     0.000 C 
BRANCH  11  12
ATOM     12  C   UNL     1      65.043 -37.460  12.290  1.00  0.00     0.006 C 
BRANCH  12  13
ATOM     13  C   UNL     1      65.800 -36.143  12.507  1.00  0.00     0.053 C 
BRANCH  13  14
ATOM     14  C   UNL     1      64.875 -34.975  12.366  1.00  0.00     0.041 C 
ATOM     15  O   UNL     1      64.062 -34.694  13.288  1.00  0.00    -0.550 OA
ATOM     16  O   UNL     1      64.879 -34.221  11.199  1.00  0.00    -0.550 OA
ENDBRANCH  13  14
ENDBRANCH  12  13
ENDBRANCH  11  12
ENDBRANCH  10  11
ENDBRANCH   9  10
ENDBRANCH   8   9
ENDBRANCH   7   8
ENDBRANCH   6   7
ENDBRANCH   5   6
ENDBRANCH   4   5
ENDBRANCH   3   4
ENDBRANCH   2   3
ENDBRANCH   1   2
BRANCH   1  17
ATOM     17  C   UNL     1      70.023 -40.253  11.003  1.00  0.00     0.000 C 
BRANCH  17  18
ATOM     18  C   UNL     1      71.200 -39.357  11.426  1.00  0.00     0.000 C 
BRANCH  18  19
ATOM     19  C   UNL     1      70.951 -37.869  11.139  1.00  0.00     0.000 C 
BRANCH  19  20
ATOM     20  C   UNL     1      72.200 -37.205  10.544  1.00  0.00     0.000 C 
BRANCH  20  21
ATOM     21  C   UNL     1      73.504 -37.659  11.229  1.00  0.00     0.000 C 
BRANCH  21  22
ATOM     22  C   UNL     1      74.774 -37.514  10.369  1.00  0.00    -0.000 C 
BRANCH  22  23
ATOM     23  C   UNL     1      74.641 -36.558   9.169  1.00  0.00    -0.000 C 
BRANCH  23  24
ATOM     24  C   UNL     1      75.208 -37.132   7.852  1.00  0.00    -0.000 C 
BRANCH  24  25
ATOM     25  C   UNL     1      74.322 -36.805   6.638  1.00  0.00    -0.000 C 
BRANCH  25  26
ATOM     26  C   UNL     1      73.054 -36.016   7.017  1.00  0.00    -0.000 C 
BRANCH  26  27
ATOM     27  C   UNL     1      72.383 -35.269   5.849  1.00  0.00    -0.000 C 
BRANCH  27  28
ATOM     28  C   UNL     1      72.696 -33.763   5.776  1.00  0.00    -0.000 C 
BRANCH  28  29
ATOM     29  C   UNL     1      71.442 -32.866   5.817  1.00  0.00    -0.003 C 
ATOM     30  C   UNL     1      70.554 -33.155   7.026  1.00  0.00     0.004 C 
ENDBRANCH  28  29
ENDBRANCH  27  28
ENDBRANCH  26  27
ENDBRANCH  25  26
ENDBRANCH  24  25
ENDBRANCH  23  24
ENDBRANCH  22  23
ENDBRANCH  21  22
ENDBRANCH  20  21
ENDBRANCH  19  20
ENDBRANCH  18  19
ENDBRANCH  17  18
ENDBRANCH   1  17
TORSDOF 26
ENDMDL
