MODEL 1
REMARK VINA RESULT:    -4.498      0.000      0.000
REMARK INTER + INTRA:         -10.099
REMARK INTER:                  -8.706
REMARK INTRA:                  -1.393
REMARK UNBOUND:                -1.393
REMARK SMILES CCCCCCCCCCCCCCCCCC(=O)[O-]
REMARK SMILES IDX 10 1 11 2 12 3 13 4 14 5 15 6 16 7 17 8 18 9 19 10 20 11
REMARK SMILES IDX 9 12 8 13 7 14 6 15 5 16 4 17 3 18 2 19 1 20
REMARK H PARENT
REMARK Flexibility Score: inf
ROOT
ATOM      1  C   UNL     1      -1.033   2.251   8.830  1.00  0.00     0.000 C 
ENDROOT
BRANCH   1   2
ATOM      2  C   UNL     1      -2.340   1.591   9.313  1.00  0.00     0.000 C 
BRANCH   2   3
ATOM      3  C   UNL     1      -2.428   0.069   9.081  1.00  0.00     0.000 C 
BRANCH   3   4
ATOM      4  C   UNL     1      -1.992  -0.410   7.685  1.00  0.00     0.000 C 
BRANCH   4   5
ATOM      5  C   UNL     1      -1.006  -1.589   7.738  1.00  0.00     0.000 C 
BRANCH   5   6
ATOM      6  C   UNL     1       0.339  -1.277   7.058  1.00  0.00     0.000 C 
BRANCH   6   7
ATOM      7  C   UNL     1       0.537   0.190   6.626  1.00  0.00     0.006 C 
BRANCH   7   8
ATOM      8  C   UNL     1       0.682   0.398   5.110  1.00  0.00     0.053 C 
BRANCH   8   9
ATOM      9  C   UNL     1      -0.030   1.629   4.642  1.00  0.00     0.041 C 
ATOM     10  O   UNL     1       0.465   2.339   3.728  1.00  0.00    -0.550 OA
ATOM     11  O   UNL     1      -1.257   1.975   5.194  1.00  0.00    -0.550 OA
ENDBRANCH   8   9
ENDBRANCH   7   8
ENDBRANCH   6   7
ENDBRANCH   5   6
ENDBRANCH   4   5
ENDBRANCH   3   4
ENDBRANCH   2   3
ENDBRANCH   1   2
BRANCH   1  12
ATOM     12  C   UNL     1      -0.440   3.296   9.796  1.00  0.00     0.000 C 
BRANCH  12  13
ATOM     13  C   UNL     1       0.973   3.796   9.430  1.00  0.00    -0.000 C 
BRANCH  13  14
ATOM     14  C   UNL     1       1.401   3.524   7.977  1.00  0.00    -0.000 C 
BRANCH  14  15
ATOM     15  C   UNL     1       2.566   4.421   7.522  1.00  0.00    -0.000 C 
BRANCH  15  16
ATOM     16  C   UNL     1       2.852   5.559   8.513  1.00  0.00    -0.000 C 
BRANCH  16  17
ATOM     17  C   UNL     1       2.624   6.949   7.894  1.00  0.00    -0.000 C 
BRANCH  17  18
ATOM     18  C   UNL     1       3.933   7.624   7.443  1.00  0.00    -0.000 C 
BRANCH  18  19
ATOM     19  C   UNL     1       5.146   7.344   8.347  1.00  0.00    -0.003 C 
ATOM     20  C   UNL     1       6.465   7.295   7.579  1.00  0.00     0.004 C 
ENDBRANCH  18  19
ENDBRANCH  17  18
ENDBRANCH  16  17
ENDBRANCH  15  16
ENDBRANCH  14  15
ENDBRANCH  13  14
ENDBRANCH  12  13
ENDBRANCH   1  12
TORSDOF 16
ENDMDL
MODEL 2
REMARK VINA RESULT:    -4.475     16.384     18.034
REMARK INTER + INTRA:         -10.053
REMARK INTER:                  -8.975
REMARK INTRA:                  -1.079
REMARK UNBOUND:                -1.393
REMARK SMILES CCCCCCCCCCCCCCCCCC(=O)[O-]
REMARK SMILES IDX 10 1 11 2 12 3 13 4 14 5 15 6 16 7 17 8 18 9 19 10 20 11
REMARK SMILES IDX 9 12 8 13 7 14 6 15 5 16 4 17 3 18 2 19 1 20
REMARK H PARENT
REMARK Flexibility Score: inf
ROOT
ATOM      1  C   UNL     1      -6.757  -4.396  -9.330  1.00  0.00     0.000 C 
ENDROOT
BRANCH   1   2
ATOM      2  C   UNL     1      -6.523  -4.929  -7.903  1.00  0.00     0.000 C 
BRANCH   2   3
ATOM      3  C   UNL     1      -5.652  -6.199  -7.814  1.00  0.00     0.000 C 
BRANCH   3   4
ATOM      4  C   UNL     1      -6.231  -7.334  -6.950  1.00  0.00     0.000 C 
BRANCH   4   5
ATOM      5  C   UNL     1      -7.621  -7.003  -6.381  1.00  0.00     0.000 C 
BRANCH   5   6
ATOM      6  C   UNL     1      -7.976  -7.841  -5.139  1.00  0.00     0.000 C 
BRANCH   6   7
ATOM      7  C   UNL     1      -7.461  -7.283  -3.797  1.00  0.00     0.006 C 
BRANCH   7   8
ATOM      8  C   UNL     1      -6.559  -8.246  -3.008  1.00  0.00     0.053 C 
BRANCH   8   9
ATOM      9  C   UNL     1      -7.262  -8.823  -1.817  1.00  0.00     0.041 C 
ATOM     10  O   UNL     1      -8.517  -8.923  -1.809  1.00  0.00    -0.550 OA
ATOM     11  O   UNL     1      -6.529  -9.279  -0.729  1.00  0.00    -0.550 OA
ENDBRANCH   8   9
ENDBRANCH   7   8
ENDBRANCH   6   7
ENDBRANCH   5   6
ENDBRANCH   4   5
ENDBRANCH   3   4
ENDBRANCH   2   3
ENDBRANCH   1   2
BRANCH   1  12
ATOM     12  C   UNL     1      -6.408  -2.908  -9.531  1.00  0.00     0.000 C 
BRANCH  12  13
ATOM     13  C   UNL     1      -6.679  -2.003  -8.312  1.00  0.00    -0.000 C 
BRANCH  13  14
ATOM     14  C   UNL     1      -5.584  -0.960  -8.023  1.00  0.00    -0.000 C 
BRANCH  14  15
ATOM     15  C   UNL     1      -4.256  -1.278  -8.732  1.00  0.00    -0.000 C 
BRANCH  15  16
ATOM     16  C   UNL     1      -3.935  -0.277  -9.852  1.00  0.00    -0.000 C 
BRANCH  16  17
ATOM     17  C   UNL     1      -4.914   0.909  -9.882  1.00  0.00    -0.000 C 
BRANCH  17  18
ATOM     18  C   UNL     1      -4.213   2.258 -10.125  1.00  0.00    -0.000 C 
BRANCH  18  19
ATOM     19  C   UNL     1      -2.724   2.288  -9.735  1.00  0.00    -0.003 C 
ATOM     20  C   UNL     1      -2.262   3.659  -9.245  1.00  0.00     0.004 C 
ENDBRANCH  18  19
ENDBRANCH  17  18
ENDBRANCH  16  17
ENDBRANCH  15  16
ENDBRANCH  14  15
ENDBRANCH  13  14
ENDBRANCH  12  13
ENDBRANCH   1  12
TORSDOF 16
ENDMDL
MODEL 3
REMARK VINA RESULT:    -4.461      1.187      1.841
REMARK INTER + INTRA:         -10.027
REMARK INTER:                  -8.492
REMARK INTRA:                  -1.534
REMARK UNBOUND:                -1.393
REMARK SMILES CCCCCCCCCCCCCCCCCC(=O)[O-]
REMARK SMILES IDX 10 1 11 2 12 3 13 4 14 5 15 6 16 7 17 8 18 9 19 10 20 11
REMARK SMILES IDX 9 12 8 13 7 14 6 15 5 16 4 17 3 18 2 19 1 20
REMARK H PARENT
REMARK Flexibility Score: inf
ROOT
ATOM      1  C   UNL     1      -1.066   2.267   8.864  1.00  0.00     0.000 C 
ENDROOT
BRANCH   1   2
ATOM      2  C   UNL     1      -2.361   1.599   9.369  1.00  0.00     0.000 C 
BRANCH   2   3
ATOM      3  C   UNL     1      -2.447   0.078   9.133  1.00  0.00     0.000 C 
BRANCH   3   4
ATOM      4  C   UNL     1      -2.030  -0.394   7.728  1.00  0.00     0.000 C 
BRANCH   4   5
ATOM      5  C   UNL     1      -1.065  -1.592   7.762  1.00  0.00     0.000 C 
BRANCH   5   6
ATOM      6  C   UNL     1       0.272  -1.305   7.055  1.00  0.00     0.000 C 
BRANCH   6   7
ATOM      7  C   UNL     1       0.500   0.164   6.645  1.00  0.00     0.006 C 
BRANCH   7   8
ATOM      8  C   UNL     1       0.703   0.383   5.137  1.00  0.00     0.053 C 
BRANCH   8   9
ATOM      9  C   UNL     1      -0.007   1.608   4.648  1.00  0.00     0.041 C 
ATOM     10  O   UNL     1       0.500   2.313   3.737  1.00  0.00    -0.550 OA
ATOM     11  O   UNL     1      -1.245   1.953   5.176  1.00  0.00    -0.550 OA
ENDBRANCH   8   9
ENDBRANCH   7   8
ENDBRANCH   6   7
ENDBRANCH   5   6
ENDBRANCH   4   5
ENDBRANCH   3   4
ENDBRANCH   2   3
ENDBRANCH   1   2
BRANCH   1  12
ATOM     12  C   UNL     1      -0.445   3.291   9.834  1.00  0.00     0.000 C 
BRANCH  12  13
ATOM     13  C   UNL     1       0.958   3.796   9.441  1.00  0.00    -0.000 C 
BRANCH  13  14
ATOM     14  C   UNL     1       1.348   3.550   7.972  1.00  0.00    -0.000 C 
BRANCH  14  15
ATOM     15  C   UNL     1       2.570   4.376   7.534  1.00  0.00    -0.000 C 
BRANCH  15  16
ATOM     16  C   UNL     1       2.856   5.549   8.482  1.00  0.00    -0.000 C 
BRANCH  16  17
ATOM     17  C   UNL     1       2.381   6.897   7.911  1.00  0.00    -0.000 C 
BRANCH  17  18
ATOM     18  C   UNL     1       1.411   7.636   8.852  1.00  0.00    -0.000 C 
BRANCH  18  19
ATOM     19  C   UNL     1       0.494   8.658   8.156  1.00  0.00    -0.003 C 
ATOM     20  C   UNL     1       0.720   8.733   6.647  1.00  0.00     0.004 C 
ENDBRANCH  18  19
ENDBRANCH  17  18
ENDBRANCH  16  17
ENDBRANCH  15  16
ENDBRANCH  14  15
ENDBRANCH  13  14
ENDBRANCH  12  13
ENDBRANCH   1  12
TORSDOF 16
ENDMDL
MODEL 4
REMARK VINA RESULT:    -4.364      2.647      6.839
REMARK INTER + INTRA:          -9.840
REMARK INTER:                  -8.009
REMARK INTRA:                  -1.831
REMARK UNBOUND:                -1.393
REMARK SMILES CCCCCCCCCCCCCCCCCC(=O)[O-]
REMARK SMILES IDX 10 1 11 2 12 3 13 4 14 5 15 6 16 7 17 8 18 9 19 10 20 11
REMARK SMILES IDX 9 12 8 13 7 14 6 15 5 16 4 17 3 18 2 19 1 20
REMARK H PARENT
REMARK Flexibility Score: inf
ROOT
ATOM      1  C   UNL     1      -2.029   2.052   9.316  1.00  0.00     0.000 C 
ENDROOT
BRANCH   1   2
ATOM      2  C   UNL     1      -0.524   2.346   9.469  1.00  0.00     0.000 C 
BRANCH   2   3
ATOM      3  C   UNL     1      -0.183   3.754   9.999  1.00  0.00     0.000 C 
BRANCH   3   4
ATOM      4  C   UNL     1       1.237   4.252   9.674  1.00  0.00     0.000 C 
BRANCH   4   5
ATOM      5  C   UNL     1       1.627   4.030   8.203  1.00  0.00     0.000 C 
BRANCH   5   6
ATOM      6  C   UNL     1       2.822   4.895   7.763  1.00  0.00     0.000 C 
BRANCH   6   7
ATOM      7  C   UNL     1       2.994   6.223   8.528  1.00  0.00     0.006 C 
BRANCH   7   8
ATOM      8  C   UNL     1       3.197   7.456   7.632  1.00  0.00     0.053 C 
BRANCH   8   9
ATOM      9  C   UNL     1       4.586   7.522   7.077  1.00  0.00     0.041 C 
ATOM     10  O   UNL     1       4.768   7.606   5.834  1.00  0.00    -0.550 OA
ATOM     11  O   UNL     1       5.679   7.522   7.933  1.00  0.00    -0.550 OA
ENDBRANCH   8   9
ENDBRANCH   7   8
ENDBRANCH   6   7
ENDBRANCH   5   6
ENDBRANCH   4   5
ENDBRANCH   3   4
ENDBRANCH   2   3
ENDBRANCH   1   2
BRANCH   1  12
ATOM     12  C   UNL     1      -2.375   0.576   9.037  1.00  0.00     0.000 C 
BRANCH  12  13
ATOM     13  C   UNL     1      -1.182  -0.399   9.104  1.00  0.00    -0.000 C 
BRANCH  13  14
ATOM     14  C   UNL     1      -1.070  -1.370   7.915  1.00  0.00    -0.000 C 
BRANCH  14  15
ATOM     15  C   UNL     1       0.242  -1.200   7.130  1.00  0.00    -0.000 C 
BRANCH  15  16
ATOM     16  C   UNL     1       0.570   0.273   6.846  1.00  0.00    -0.000 C 
BRANCH  16  17
ATOM     17  C   UNL     1       0.776   0.553   5.347  1.00  0.00    -0.000 C 
BRANCH  17  18
ATOM     18  C   UNL     1      -0.483   1.123   4.668  1.00  0.00    -0.000 C 
BRANCH  18  19
ATOM     19  C   UNL     1      -1.649   1.428   5.625  1.00  0.00    -0.003 C 
ATOM     20  C   UNL     1      -2.895   0.595   5.333  1.00  0.00     0.004 C 
ENDBRANCH  18  19
ENDBRANCH  17  18
ENDBRANCH  16  17
ENDBRANCH  15  16
ENDBRANCH  14  15
ENDBRANCH  13  14
ENDBRANCH  12  13
ENDBRANCH   1  12
TORSDOF 16
ENDMDL
MODEL 5
REMARK VINA RESULT:    -4.318      2.912      7.746
REMARK INTER + INTRA:          -9.750
REMARK INTER:                  -8.365
REMARK INTRA:                  -1.385
REMARK UNBOUND:                -1.393
REMARK SMILES CCCCCCCCCCCCCCCCCC(=O)[O-]
REMARK SMILES IDX 10 1 11 2 12 3 13 4 14 5 15 6 16 7 17 8 18 9 19 10 20 11
REMARK SMILES IDX 9 12 8 13 7 14 6 15 5 16 4 17 3 18 2 19 1 20
REMARK H PARENT
REMARK Flexibility Score: inf
ROOT
ATOM      1  C   UNL     1       1.007   2.935   7.989  1.00  0.00     0.000 C 
ENDROOT
BRANCH   1   2
ATOM      2  C   UNL     1       2.018   3.896   7.332  1.00  0.00     0.000 C 
BRANCH   2   3
ATOM      3  C   UNL     1       2.417   5.113   8.191  1.00  0.00     0.000 C 
BRANCH   3   4
ATOM      4  C   UNL     1       3.908   5.191   8.568  1.00  0.00     0.000 C 
BRANCH   4   5
ATOM      5  C   UNL     1       4.344   6.602   8.995  1.00  0.00     0.000 C 
BRANCH   5   6
ATOM      6  C   UNL     1       5.705   7.014   8.406  1.00  0.00     0.000 C 
BRANCH   6   7
ATOM      7  C   UNL     1       5.686   8.276   7.519  1.00  0.00     0.006 C 
BRANCH   7   8
ATOM      8  C   UNL     1       6.938   8.464   6.647  1.00  0.00     0.053 C 
BRANCH   8   9
ATOM      9  C   UNL     1       6.682   8.105   5.215  1.00  0.00     0.041 C 
ATOM     10  O   UNL     1       5.519   7.809   4.834  1.00  0.00    -0.550 OA
ATOM     11  O   UNL     1       7.723   8.127   4.295  1.00  0.00    -0.550 OA
ENDBRANCH   8   9
ENDBRANCH   7   8
ENDBRANCH   6   7
ENDBRANCH   5   6
ENDBRANCH   4   5
ENDBRANCH   3   4
ENDBRANCH   2   3
ENDBRANCH   1   2
BRANCH   1  12
ATOM     12  C   UNL     1       0.377   3.454   9.296  1.00  0.00     0.000 C 
BRANCH  12  13
ATOM     13  C   UNL     1      -0.861   2.671   9.780  1.00  0.00    -0.000 C 
BRANCH  13  14
ATOM     14  C   UNL     1      -1.746   2.098   8.658  1.00  0.00    -0.000 C 
BRANCH  14  15
ATOM     15  C   UNL     1      -1.685   0.563   8.578  1.00  0.00    -0.000 C 
BRANCH  15  16
ATOM     16  C   UNL     1      -1.936   0.039   7.156  1.00  0.00    -0.000 C 
BRANCH  16  17
ATOM     17  C   UNL     1      -2.276   1.165   6.165  1.00  0.00    -0.000 C 
BRANCH  17  18
ATOM     18  C   UNL     1      -1.150   1.427   5.148  1.00  0.00    -0.000 C 
BRANCH  18  19
ATOM     19  C   UNL     1       0.103   0.552   5.336  1.00  0.00    -0.003 C 
ATOM     20  C   UNL     1       1.348   1.143   4.678  1.00  0.00     0.004 C 
ENDBRANCH  18  19
ENDBRANCH  17  18
ENDBRANCH  16  17
ENDBRANCH  15  16
ENDBRANCH  14  15
ENDBRANCH  13  14
ENDBRANCH  12  13
ENDBRANCH   1  12
TORSDOF 16
ENDMDL
MODEL 6
REMARK VINA RESULT:    -4.295      3.209      8.279
REMARK INTER + INTRA:          -9.706
REMARK INTER:                  -8.649
REMARK INTRA:                  -1.057
REMARK UNBOUND:                -1.393
REMARK SMILES CCCCCCCCCCCCCCCCCC(=O)[O-]
REMARK SMILES IDX 10 1 11 2 12 3 13 4 14 5 15 6 16 7 17 8 18 9 19 10 20 11
REMARK SMILES IDX 9 12 8 13 7 14 6 15 5 16 4 17 3 18 2 19 1 20
REMARK H PARENT
REMARK Flexibility Score: inf
ROOT
ATOM      1  C   UNL     1       2.079   4.075   7.561  1.00  0.00     0.000 C 
ENDROOT
BRANCH   1   2
ATOM      2  C   UNL     1       1.889   4.710   8.953  1.00  0.00     0.000 C 
BRANCH   2   3
ATOM      3  C   UNL     1       2.495   6.119   9.117  1.00  0.00     0.000 C 
BRANCH   3   4
ATOM      4  C   UNL     1       4.032   6.170   9.178  1.00  0.00     0.000 C 
BRANCH   4   5
ATOM      5  C   UNL     1       4.664   6.722   7.890  1.00  0.00     0.000 C 
BRANCH   5   6
ATOM      6  C   UNL     1       6.158   7.057   8.050  1.00  0.00     0.000 C 
BRANCH   6   7
ATOM      7  C   UNL     1       6.792   7.828   6.875  1.00  0.00     0.006 C 
BRANCH   7   8
ATOM      8  C   UNL     1       5.816   8.182   5.741  1.00  0.00     0.053 C 
BRANCH   8   9
ATOM      9  C   UNL     1       6.520   8.365   4.432  1.00  0.00     0.041 C 
ATOM     10  O   UNL     1       5.894   8.807   3.432  1.00  0.00    -0.550 OA
ATOM     11  O   UNL     1       7.875   8.079   4.324  1.00  0.00    -0.550 OA
ENDBRANCH   8   9
ENDBRANCH   7   8
ENDBRANCH   6   7
ENDBRANCH   5   6
ENDBRANCH   4   5
ENDBRANCH   3   4
ENDBRANCH   2   3
ENDBRANCH   1   2
BRANCH   1  12
ATOM     12  C   UNL     1       1.221   2.821   7.299  1.00  0.00     0.000 C 
BRANCH  12  13
ATOM     13  C   UNL     1       1.312   2.254   5.868  1.00  0.00    -0.000 C 
BRANCH  13  14
ATOM     14  C   UNL     1       0.434   1.018   5.603  1.00  0.00    -0.000 C 
BRANCH  14  15
ATOM     15  C   UNL     1      -0.888   1.367   4.897  1.00  0.00    -0.000 C 
BRANCH  15  16
ATOM     16  C   UNL     1      -2.117   0.866   5.671  1.00  0.00    -0.000 C 
BRANCH  16  17
ATOM     17  C   UNL     1      -1.958   1.024   7.194  1.00  0.00    -0.000 C 
BRANCH  17  18
ATOM     18  C   UNL     1      -2.210  -0.288   7.960  1.00  0.00    -0.000 C 
BRANCH  18  19
ATOM     19  C   UNL     1      -1.292  -1.456   7.555  1.00  0.00    -0.003 C 
ATOM     20  C   UNL     1       0.066  -1.418   8.254  1.00  0.00     0.004 C 
ENDBRANCH  18  19
ENDBRANCH  17  18
ENDBRANCH  16  17
ENDBRANCH  15  16
ENDBRANCH  14  15
ENDBRANCH  13  14
ENDBRANCH  12  13
ENDBRANCH   1  12
TORSDOF 16
ENDMDL
MODEL 7
REMARK VINA RESULT:    -4.295      0.975      1.321
REMARK INTER + INTRA:          -9.706
REMARK INTER:                  -8.105
REMARK INTRA:                  -1.600
REMARK UNBOUND:                -1.393
REMARK SMILES CCCCCCCCCCCCCCCCCC(=O)[O-]
REMARK SMILES IDX 10 1 11 2 12 3 13 4 14 5 15 6 16 7 17 8 18 9 19 10 20 11
REMARK SMILES IDX 9 12 8 13 7 14 6 15 5 16 4 17 3 18 2 19 1 20
REMARK H PARENT
REMARK Flexibility Score: inf
ROOT
ATOM      1  C   UNL     1      -1.073   2.463   9.238  1.00  0.00     0.000 C 
ENDROOT
BRANCH   1   2
ATOM      2  C   UNL     1      -2.171   1.648   9.951  1.00  0.00     0.000 C 
BRANCH   2   3
ATOM      3  C   UNL     1      -2.351   0.205   9.438  1.00  0.00     0.000 C 
BRANCH   3   4
ATOM      4  C   UNL     1      -1.086  -0.447   8.851  1.00  0.00     0.000 C 
BRANCH   4   5
ATOM      5  C   UNL     1      -1.221  -0.775   7.355  1.00  0.00     0.000 C 
BRANCH   5   6
ATOM      6  C   UNL     1      -2.433  -0.090   6.698  1.00  0.00     0.000 C 
BRANCH   6   7
ATOM      7  C   UNL     1      -2.096   0.923   5.584  1.00  0.00     0.006 C 
BRANCH   7   8
ATOM      8  C   UNL     1      -0.780   1.690   5.794  1.00  0.00     0.053 C 
BRANCH   8   9
ATOM      9  C   UNL     1       0.202   1.428   4.694  1.00  0.00     0.041 C 
ATOM     10  O   UNL     1       0.388   2.288   3.793  1.00  0.00    -0.550 OA
ATOM     11  O   UNL     1       0.936   0.249   4.682  1.00  0.00    -0.550 OA
ENDBRANCH   8   9
ENDBRANCH   7   8
ENDBRANCH   6   7
ENDBRANCH   5   6
ENDBRANCH   4   5
ENDBRANCH   3   4
ENDBRANCH   2   3
ENDBRANCH   1   2
BRANCH   1  12
ATOM     12  C   UNL     1      -0.386   3.528  10.115  1.00  0.00     0.000 C 
BRANCH  12  13
ATOM     13  C   UNL     1       0.999   3.990   9.618  1.00  0.00    -0.000 C 
BRANCH  13  14
ATOM     14  C   UNL     1       1.379   3.498   8.209  1.00  0.00    -0.000 C 
BRANCH  14  15
ATOM     15  C   UNL     1       2.466   4.365   7.549  1.00  0.00    -0.000 C 
BRANCH  15  16
ATOM     16  C   UNL     1       2.958   5.491   8.470  1.00  0.00    -0.000 C 
BRANCH  16  17
ATOM     17  C   UNL     1       2.627   6.890   7.919  1.00  0.00    -0.000 C 
BRANCH  17  18
ATOM     18  C   UNL     1       3.859   7.809   7.844  1.00  0.00    -0.000 C 
BRANCH  18  19
ATOM     19  C   UNL     1       5.045   7.370   8.722  1.00  0.00    -0.003 C 
ATOM     20  C   UNL     1       6.322   7.125   7.921  1.00  0.00     0.004 C 
ENDBRANCH  18  19
ENDBRANCH  17  18
ENDBRANCH  16  17
ENDBRANCH  15  16
ENDBRANCH  14  15
ENDBRANCH  13  14
ENDBRANCH  12  13
ENDBRANCH   1  12
TORSDOF 16
ENDMDL
MODEL 8
REMARK VINA RESULT:    -4.258      2.289      3.599
REMARK INTER + INTRA:          -9.635
REMARK INTER:                  -8.275
REMARK INTRA:                  -1.360
REMARK UNBOUND:                -1.393
REMARK SMILES CCCCCCCCCCCCCCCCCC(=O)[O-]
REMARK SMILES IDX 10 1 11 2 12 3 13 4 14 5 15 6 16 7 17 8 18 9 19 10 20 11
REMARK SMILES IDX 9 12 8 13 7 14 6 15 5 16 4 17 3 18 2 19 1 20
REMARK H PARENT
REMARK Flexibility Score: inf
ROOT
ATOM      1  C   UNL     1      -0.765   0.670   5.631  1.00  0.00     0.000 C 
ENDROOT
BRANCH   1   2
ATOM      2  C   UNL     1      -2.128   0.758   6.346  1.00  0.00     0.000 C 
BRANCH   2   3
ATOM      3  C   UNL     1      -2.201   1.791   7.489  1.00  0.00     0.000 C 
BRANCH   3   4
ATOM      4  C   UNL     1      -1.594   1.334   8.828  1.00  0.00     0.000 C 
BRANCH   4   5
ATOM      5  C   UNL     1      -2.633   0.709   9.773  1.00  0.00     0.000 C 
BRANCH   5   6
ATOM      6  C   UNL     1      -2.643  -0.830   9.722  1.00  0.00     0.000 C 
BRANCH   6   7
ATOM      7  C   UNL     1      -1.310  -1.511  10.096  1.00  0.00     0.006 C 
BRANCH   7   8
ATOM      8  C   UNL     1      -0.615  -2.238   8.934  1.00  0.00     0.053 C 
BRANCH   8   9
ATOM      9  C   UNL     1       0.798  -1.779   8.751  1.00  0.00     0.041 C 
ATOM     10  O   UNL     1       1.050  -0.773   8.037  1.00  0.00    -0.550 OA
ATOM     11  O   UNL     1       1.835  -2.443   9.395  1.00  0.00    -0.550 OA
ENDBRANCH   8   9
ENDBRANCH   7   8
ENDBRANCH   6   7
ENDBRANCH   5   6
ENDBRANCH   4   5
ENDBRANCH   3   4
ENDBRANCH   2   3
ENDBRANCH   1   2
BRANCH   1  12
ATOM     12  C   UNL     1      -0.067   2.024   5.397  1.00  0.00     0.000 C 
BRANCH  12  13
ATOM     13  C   UNL     1       1.292   2.190   6.106  1.00  0.00    -0.000 C 
BRANCH  13  14
ATOM     14  C   UNL     1       1.246   2.999   7.416  1.00  0.00    -0.000 C 
BRANCH  14  15
ATOM     15  C   UNL     1       2.242   4.171   7.427  1.00  0.00    -0.000 C 
BRANCH  15  16
ATOM     16  C   UNL     1       2.338   4.846   8.803  1.00  0.00    -0.000 C 
BRANCH  16  17
ATOM     17  C   UNL     1       3.435   5.924   8.855  1.00  0.00    -0.000 C 
BRANCH  17  18
ATOM     18  C   UNL     1       4.708   5.448   9.578  1.00  0.00    -0.000 C 
BRANCH  18  19
ATOM     19  C   UNL     1       5.898   6.420   9.493  1.00  0.00    -0.003 C 
ATOM     20  C   UNL     1       6.117   6.976   8.088  1.00  0.00     0.004 C 
ENDBRANCH  18  19
ENDBRANCH  17  18
ENDBRANCH  16  17
ENDBRANCH  15  16
ENDBRANCH  14  15
ENDBRANCH  13  14
ENDBRANCH  12  13
ENDBRANCH   1  12
TORSDOF 16
ENDMDL
MODEL 9
REMARK VINA RESULT:    -4.166      1.419      3.301
REMARK INTER + INTRA:          -9.456
REMARK INTER:                  -7.960
REMARK INTRA:                  -1.496
REMARK UNBOUND:                -1.393
REMARK SMILES CCCCCCCCCCCCCCCCCC(=O)[O-]
REMARK SMILES IDX 10 1 11 2 12 3 13 4 14 5 15 6 16 7 17 8 18 9 19 10 20 11
REMARK SMILES IDX 9 12 8 13 7 14 6 15 5 16 4 17 3 18 2 19 1 20
REMARK H PARENT
REMARK Flexibility Score: inf
ROOT
ATOM      1  C   UNL     1       2.390   4.390   7.531  1.00  0.00     0.000 C 
ENDROOT
BRANCH   1   2
ATOM      2  C   UNL     1       1.379   3.721   8.484  1.00  0.00     0.000 C 
BRANCH   2   3
ATOM      3  C   UNL     1       0.644   2.497   7.903  1.00  0.00     0.000 C 
BRANCH   3   4
ATOM      4  C   UNL     1      -0.801   2.303   8.396  1.00  0.00     0.000 C 
BRANCH   4   5
ATOM      5  C   UNL     1      -1.148   0.829   8.669  1.00  0.00     0.000 C 
BRANCH   5   6
ATOM      6  C   UNL     1      -1.810   0.136   7.465  1.00  0.00     0.000 C 
BRANCH   6   7
ATOM      7  C   UNL     1      -2.353   1.082   6.375  1.00  0.00     0.006 C 
BRANCH   7   8
ATOM      8  C   UNL     1      -1.882   0.753   4.949  1.00  0.00     0.053 C 
BRANCH   8   9
ATOM      9  C   UNL     1      -0.458   1.158   4.722  1.00  0.00     0.041 C 
ATOM     10  O   UNL     1      -0.180   2.343   4.399  1.00  0.00    -0.550 OA
ATOM     11  O   UNL     1       0.565   0.235   4.898  1.00  0.00    -0.550 OA
ENDBRANCH   8   9
ENDBRANCH   7   8
ENDBRANCH   6   7
ENDBRANCH   5   6
ENDBRANCH   4   5
ENDBRANCH   3   4
ENDBRANCH   2   3
ENDBRANCH   1   2
BRANCH   1  12
ATOM     12  C   UNL     1       2.699   5.867   7.847  1.00  0.00     0.000 C 
BRANCH  12  13
ATOM     13  C   UNL     1       3.343   6.119   9.225  1.00  0.00    -0.000 C 
BRANCH  13  14
ATOM     14  C   UNL     1       4.605   5.286   9.513  1.00  0.00    -0.000 C 
BRANCH  14  15
ATOM     15  C   UNL     1       5.857   6.155   9.723  1.00  0.00    -0.000 C 
BRANCH  15  16
ATOM     16  C   UNL     1       5.550   7.658   9.641  1.00  0.00    -0.000 C 
BRANCH  16  17
ATOM     17  C   UNL     1       6.459   8.392   8.640  1.00  0.00    -0.000 C 
BRANCH  17  18
ATOM     18  C   UNL     1       6.943   7.483   7.494  1.00  0.00    -0.000 C 
BRANCH  18  19
ATOM     19  C   UNL     1       6.494   7.925   6.090  1.00  0.00    -0.003 C 
ATOM     20  C   UNL     1       4.977   8.046   5.958  1.00  0.00     0.004 C 
ENDBRANCH  18  19
ENDBRANCH  17  18
ENDBRANCH  16  17
ENDBRANCH  15  16
ENDBRANCH  14  15
ENDBRANCH  13  14
ENDBRANCH  12  13
ENDBRANCH   1  12
TORSDOF 16
ENDMDL
