MODEL 1
REMARK VINA RESULT:    -5.727      0.000      0.000
REMARK INTER + INTRA:          -6.940
REMARK INTER:                  -7.066
REMARK INTRA:                   0.125
REMARK UNBOUND:                 0.125
REMARK SMILES Oc1cc(O)c2cc(O)c(-c3cc(O)c(O)c(O)c3)[o+]c2c1
REMARK SMILES IDX 10 1 20 2 21 3 22 4 2 5 3 6 4 7 6 8 7 9 8 10 11 11 12 12
REMARK SMILES IDX 13 13 19 14 15 15 17 16 14 17 16 19 18 21 9 23 1 25 5 27
REMARK H PARENT 14 18 16 20 18 22 9 24 1 26 5 28
REMARK Flexibility Score: inf
ROOT
ATOM      1  C   UNL     1      44.984  16.487  -3.378  1.00  0.00     0.402 A 
ATOM      2  O   UNL     1      45.504  15.441  -2.739  1.00  0.00    -0.202 OA
ATOM      3  C   UNL     1      46.628  14.841  -3.114  1.00  0.00     0.368 A 
ATOM      4  C   UNL     1      47.096  13.751  -2.376  1.00  0.00     0.162 A 
ATOM      5  C   UNL     1      48.275  13.103  -2.746  1.00  0.00     0.128 A 
ATOM      6  C   UNL     1      48.994  13.547  -3.860  1.00  0.00     0.093 A 
ATOM      7  C   UNL     1      48.546  14.638  -4.617  1.00  0.00     0.136 A 
ATOM      8  C   UNL     1      47.346  15.298  -4.245  1.00  0.00     0.125 A 
ATOM      9  C   UNL     1      46.815  16.389  -4.952  1.00  0.00     0.078 A 
ATOM     10  C   UNL     1      45.624  16.985  -4.528  1.00  0.00     0.223 A 
ENDROOT
BRANCH   1  11
ATOM     11  C   UNL     1      43.730  17.075  -2.855  1.00  0.00     0.091 A 
ATOM     12  C   UNL     1      42.804  16.252  -2.195  1.00  0.00     0.068 A 
ATOM     13  C   UNL     1      41.620  16.784  -1.674  1.00  0.00     0.162 A 
ATOM     14  C   UNL     1      43.471  18.452  -2.955  1.00  0.00     0.068 A 
ATOM     15  C   UNL     1      41.355  18.158  -1.795  1.00  0.00     0.200 A 
ATOM     16  C   UNL     1      42.288  18.994  -2.434  1.00  0.00     0.162 A 
BRANCH  13  17
ATOM     17  O   UNL     1      40.720  15.930  -1.039  1.00  0.00    -0.504 OA
ATOM     18  H   UNL     1      39.731  16.141  -0.973  1.00  0.00     0.293 HD
ENDBRANCH  13  17
BRANCH  15  19
ATOM     19  O   UNL     1      40.171  18.681  -1.275  1.00  0.00    -0.502 OA
ATOM     20  H   UNL     1      39.596  19.335  -1.793  1.00  0.00     0.293 HD
ENDBRANCH  15  19
BRANCH  16  21
ATOM     21  O   UNL     1      42.038  20.361  -2.544  1.00  0.00    -0.504 OA
ATOM     22  H   UNL     1      41.729  20.777  -3.415  1.00  0.00     0.293 HD
ENDBRANCH  16  21
ENDBRANCH   1  11
BRANCH  10  23
ATOM     23  O   UNL     1      45.070  18.037  -5.257  1.00  0.00    -0.500 OA
ATOM     24  H   UNL     1      45.140  18.080  -6.268  1.00  0.00     0.294 HD
ENDBRANCH  10  23
BRANCH   5  25
ATOM     25  O   UNL     1      48.725  12.018  -1.996  1.00  0.00    -0.507 OA
ATOM     26  H   UNL     1      48.285  11.760  -1.120  1.00  0.00     0.293 HD
ENDBRANCH   5  25
BRANCH   7  27
ATOM     27  O   UNL     1      49.323  15.023  -5.714  1.00  0.00    -0.507 OA
ATOM     28  H   UNL     1      50.308  15.230  -5.670  1.00  0.00     0.293 HD
ENDBRANCH   7  27
TORSDOF 7
ENDMDL
MODEL 2
REMARK VINA RESULT:    -5.625      1.512      2.311
REMARK INTER + INTRA:          -6.814
REMARK INTER:                  -6.454
REMARK INTRA:                  -0.360
REMARK UNBOUND:                 0.125
REMARK SMILES Oc1cc(O)c2cc(O)c(-c3cc(O)c(O)c(O)c3)[o+]c2c1
REMARK SMILES IDX 10 1 20 2 21 3 22 4 2 5 3 6 4 7 6 8 7 9 8 10 11 11 12 12
REMARK SMILES IDX 13 13 19 14 15 15 17 16 14 17 16 19 18 21 9 23 1 25 5 27
REMARK H PARENT 14 18 16 20 18 22 9 24 1 26 5 28
REMARK Flexibility Score: inf
ROOT
ATOM      1  C   UNL     1      44.881  16.395  -3.825  1.00  0.00     0.402 A 
ATOM      2  O   UNL     1      45.787  15.486  -3.472  1.00  0.00    -0.202 OA
ATOM      3  C   UNL     1      47.041  15.497  -3.909  1.00  0.00     0.368 A 
ATOM      4  C   UNL     1      47.921  14.501  -3.478  1.00  0.00     0.162 A 
ATOM      5  C   UNL     1      49.244  14.489  -3.919  1.00  0.00     0.128 A 
ATOM      6  C   UNL     1      49.695  15.481  -4.795  1.00  0.00     0.093 A 
ATOM      7  C   UNL     1      48.834  16.491  -5.243  1.00  0.00     0.136 A 
ATOM      8  C   UNL     1      47.486  16.505  -4.799  1.00  0.00     0.125 A 
ATOM      9  C   UNL     1      46.549  17.469  -5.204  1.00  0.00     0.078 A 
ATOM     10  C   UNL     1      45.236  17.414  -4.728  1.00  0.00     0.223 A 
ENDROOT
BRANCH   1  11
ATOM     11  C   UNL     1      43.517  16.280  -3.261  1.00  0.00     0.091 A 
ATOM     12  C   UNL     1      43.148  17.092  -2.177  1.00  0.00     0.068 A 
ATOM     13  C   UNL     1      41.860  17.019  -1.636  1.00  0.00     0.162 A 
ATOM     14  C   UNL     1      42.564  15.416  -3.823  1.00  0.00     0.068 A 
ATOM     15  C   UNL     1      40.916  16.137  -2.189  1.00  0.00     0.200 A 
ATOM     16  C   UNL     1      41.270  15.336  -3.289  1.00  0.00     0.162 A 
BRANCH  13  17
ATOM     17  O   UNL     1      41.537  17.832  -0.551  1.00  0.00    -0.504 OA
ATOM     18  H   UNL     1      42.242  18.340  -0.029  1.00  0.00     0.293 HD
ENDBRANCH  13  17
BRANCH  15  19
ATOM     19  O   UNL     1      39.634  16.067  -1.642  1.00  0.00    -0.502 OA
ATOM     20  H   UNL     1      39.472  15.815  -0.675  1.00  0.00     0.293 HD
ENDBRANCH  15  19
BRANCH  16  21
ATOM     21  O   UNL     1      40.334  14.470  -3.852  1.00  0.00    -0.504 OA
ATOM     22  H   UNL     1      39.344  14.554  -3.651  1.00  0.00     0.293 HD
ENDBRANCH  16  21
ENDBRANCH   1  11
BRANCH  10  23
ATOM     23  O   UNL     1      44.293  18.342  -5.168  1.00  0.00    -0.500 OA
ATOM     24  H   UNL     1      43.787  18.936  -4.520  1.00  0.00     0.294 HD
ENDBRANCH  10  23
BRANCH   5  25
ATOM     25  O   UNL     1      50.106  13.486  -3.477  1.00  0.00    -0.507 OA
ATOM     26  H   UNL     1      50.443  13.461  -2.521  1.00  0.00     0.293 HD
ENDBRANCH   5  25
BRANCH   7  27
ATOM     27  O   UNL     1      49.361  17.447  -6.116  1.00  0.00    -0.507 OA
ATOM     28  H   UNL     1      49.535  18.410  -5.869  1.00  0.00     0.293 HD
ENDBRANCH   7  27
TORSDOF 7
ENDMDL
MODEL 3
REMARK VINA RESULT:    -5.619      0.325      1.822
REMARK INTER + INTRA:          -6.808
REMARK INTER:                  -7.076
REMARK INTRA:                   0.268
REMARK UNBOUND:                 0.125
REMARK SMILES Oc1cc(O)c2cc(O)c(-c3cc(O)c(O)c(O)c3)[o+]c2c1
REMARK SMILES IDX 10 1 20 2 21 3 22 4 2 5 3 6 4 7 6 8 7 9 8 10 11 11 12 12
REMARK SMILES IDX 13 13 19 14 15 15 17 16 14 17 16 19 18 21 9 23 1 25 5 27
REMARK H PARENT 14 18 16 20 18 22 9 24 1 26 5 28
REMARK Flexibility Score: inf
ROOT
ATOM      1  C   UNL     1      45.046  16.604  -3.494  1.00  0.00     0.402 A 
ATOM      2  O   UNL     1      45.630  15.551  -2.927  1.00  0.00    -0.202 OA
ATOM      3  C   UNL     1      46.769  15.024  -3.363  1.00  0.00     0.368 A 
ATOM      4  C   UNL     1      47.308  13.920  -2.698  1.00  0.00     0.162 A 
ATOM      5  C   UNL     1      48.504  13.349  -3.133  1.00  0.00     0.128 A 
ATOM      6  C   UNL     1      49.170  13.886  -4.239  1.00  0.00     0.093 A 
ATOM      7  C   UNL     1      48.652  14.993  -4.924  1.00  0.00     0.136 A 
ATOM      8  C   UNL     1      47.434  15.575  -4.486  1.00  0.00     0.125 A 
ATOM      9  C   UNL     1      46.833  16.676  -5.117  1.00  0.00     0.078 A 
ATOM     10  C   UNL     1      45.629  17.192  -4.632  1.00  0.00     0.223 A 
ENDROOT
BRANCH   1  11
ATOM     11  C   UNL     1      43.781  17.103  -2.907  1.00  0.00     0.091 A 
ATOM     12  C   UNL     1      43.429  18.452  -3.073  1.00  0.00     0.068 A 
ATOM     13  C   UNL     1      42.231  18.947  -2.547  1.00  0.00     0.162 A 
ATOM     14  C   UNL     1      42.897  16.244  -2.235  1.00  0.00     0.068 A 
ATOM     15  C   UNL     1      41.360  18.088  -1.856  1.00  0.00     0.200 A 
ATOM     16  C   UNL     1      41.694  16.730  -1.705  1.00  0.00     0.162 A 
BRANCH  13  17
ATOM     17  O   UNL     1      41.924  20.296  -2.721  1.00  0.00    -0.504 OA
ATOM     18  H   UNL     1      42.343  20.853  -3.457  1.00  0.00     0.293 HD
ENDBRANCH  13  17
BRANCH  15  19
ATOM     19  O   UNL     1      40.169  18.590  -1.332  1.00  0.00    -0.502 OA
ATOM     20  H   UNL     1      39.308  18.056  -1.340  1.00  0.00     0.293 HD
ENDBRANCH  15  19
BRANCH  16  21
ATOM     21  O   UNL     1      40.827  15.870  -1.034  1.00  0.00    -0.504 OA
ATOM     22  H   UNL     1      40.961  14.865  -1.045  1.00  0.00     0.293 HD
ENDBRANCH  16  21
ENDBRANCH   1  11
BRANCH  10  23
ATOM     23  O   UNL     1      45.007  18.254  -5.287  1.00  0.00    -0.500 OA
ATOM     24  H   UNL     1      44.128  18.640  -4.961  1.00  0.00     0.294 HD
ENDBRANCH  10  23
BRANCH   5  25
ATOM     25  O   UNL     1      49.024  12.248  -2.456  1.00  0.00    -0.507 OA
ATOM     26  H   UNL     1      48.829  11.300  -2.758  1.00  0.00     0.293 HD
ENDBRANCH   5  25
BRANCH   7  27
ATOM     27  O   UNL     1      49.378  15.472  -6.018  1.00  0.00    -0.507 OA
ATOM     28  H   UNL     1      50.151  14.986  -6.445  1.00  0.00     0.293 HD
ENDBRANCH   7  27
TORSDOF 7
ENDMDL
MODEL 4
REMARK VINA RESULT:    -5.612      1.402      7.125
REMARK INTER + INTRA:          -6.799
REMARK INTER:                  -7.169
REMARK INTRA:                   0.370
REMARK UNBOUND:                 0.125
REMARK SMILES Oc1cc(O)c2cc(O)c(-c3cc(O)c(O)c(O)c3)[o+]c2c1
REMARK SMILES IDX 10 1 20 2 21 3 22 4 2 5 3 6 4 7 6 8 7 9 8 10 11 11 12 12
REMARK SMILES IDX 13 13 19 14 15 15 17 16 14 17 16 19 18 21 9 23 1 25 5 27
REMARK H PARENT 14 18 16 20 18 22 9 24 1 26 5 28
REMARK Flexibility Score: inf
ROOT
ATOM      1  C   UNL     1      46.134  16.445  -4.200  1.00  0.00     0.402 A 
ATOM      2  O   UNL     1      45.254  16.102  -3.261  1.00  0.00    -0.202 OA
ATOM      3  C   UNL     1      44.046  16.644  -3.160  1.00  0.00     0.368 A 
ATOM      4  C   UNL     1      43.190  16.216  -2.143  1.00  0.00     0.162 A 
ATOM      5  C   UNL     1      41.915  16.766  -2.014  1.00  0.00     0.128 A 
ATOM      6  C   UNL     1      41.487  17.750  -2.911  1.00  0.00     0.093 A 
ATOM      7  C   UNL     1      42.326  18.197  -3.941  1.00  0.00     0.136 A 
ATOM      8  C   UNL     1      43.625  17.642  -4.073  1.00  0.00     0.125 A 
ATOM      9  C   UNL     1      44.537  18.038  -5.064  1.00  0.00     0.078 A 
ATOM     10  C   UNL     1      45.802  17.449  -5.128  1.00  0.00     0.223 A 
ENDROOT
BRANCH   1  11
ATOM     11  C   UNL     1      47.446  15.759  -4.214  1.00  0.00     0.091 A 
ATOM     12  C   UNL     1      48.534  16.364  -4.863  1.00  0.00     0.068 A 
ATOM     13  C   UNL     1      49.790  15.749  -4.875  1.00  0.00     0.162 A 
ATOM     14  C   UNL     1      47.642  14.542  -3.542  1.00  0.00     0.068 A 
ATOM     15  C   UNL     1      49.976  14.520  -4.220  1.00  0.00     0.200 A 
ATOM     16  C   UNL     1      48.898  13.918  -3.547  1.00  0.00     0.162 A 
BRANCH  13  17
ATOM     17  O   UNL     1      50.841  16.375  -5.544  1.00  0.00    -0.504 OA
ATOM     18  H   UNL     1      51.635  15.859  -5.904  1.00  0.00     0.293 HD
ENDBRANCH  13  17
BRANCH  15  19
ATOM     19  O   UNL     1      51.231  13.911  -4.239  1.00  0.00    -0.502 OA
ATOM     20  H   UNL     1      51.467  13.141  -3.626  1.00  0.00     0.293 HD
ENDBRANCH  15  19
BRANCH  16  21
ATOM     21  O   UNL     1      49.080  12.707  -2.882  1.00  0.00    -0.504 OA
ATOM     22  H   UNL     1      48.540  11.883  -3.121  1.00  0.00     0.293 HD
ENDBRANCH  16  21
ENDBRANCH   1  11
BRANCH  10  23
ATOM     23  O   UNL     1      46.726  17.876  -6.082  1.00  0.00    -0.500 OA
ATOM     24  H   UNL     1      47.603  18.310  -5.817  1.00  0.00     0.294 HD
ENDBRANCH  10  23
BRANCH   5  25
ATOM     25  O   UNL     1      41.077  16.325  -0.992  1.00  0.00    -0.507 OA
ATOM     26  H   UNL     1      40.162  15.935  -1.188  1.00  0.00     0.293 HD
ENDBRANCH   5  25
BRANCH   7  27
ATOM     27  O   UNL     1      41.824  19.182  -4.797  1.00  0.00    -0.507 OA
ATOM     28  H   UNL     1      42.301  19.519  -5.620  1.00  0.00     0.293 HD
ENDBRANCH   7  27
TORSDOF 7
ENDMDL
MODEL 5
REMARK VINA RESULT:    -5.343      1.564      3.271
REMARK INTER + INTRA:          -6.467
REMARK INTER:                  -6.431
REMARK INTRA:                  -0.036
REMARK UNBOUND:                 0.125
REMARK SMILES Oc1cc(O)c2cc(O)c(-c3cc(O)c(O)c(O)c3)[o+]c2c1
REMARK SMILES IDX 10 1 20 2 21 3 22 4 2 5 3 6 4 7 6 8 7 9 8 10 11 11 12 12
REMARK SMILES IDX 13 13 19 14 15 15 17 16 14 17 16 19 18 21 9 23 1 25 5 27
REMARK H PARENT 14 18 16 20 18 22 9 24 1 26 5 28
REMARK Flexibility Score: inf
ROOT
ATOM      1  C   UNL     1      45.974  15.942  -3.686  1.00  0.00     0.402 A 
ATOM      2  O   UNL     1      47.173  16.373  -4.071  1.00  0.00    -0.202 OA
ATOM      3  C   UNL     1      48.253  15.600  -4.096  1.00  0.00     0.368 A 
ATOM      4  C   UNL     1      49.468  16.143  -4.520  1.00  0.00     0.162 A 
ATOM      5  C   UNL     1      50.618  15.355  -4.559  1.00  0.00     0.128 A 
ATOM      6  C   UNL     1      50.555  14.011  -4.174  1.00  0.00     0.093 A 
ATOM      7  C   UNL     1      49.349  13.442  -3.745  1.00  0.00     0.136 A 
ATOM      8  C   UNL     1      48.178  14.242  -3.702  1.00  0.00     0.125 A 
ATOM      9  C   UNL     1      46.930  13.761  -3.273  1.00  0.00     0.078 A 
ATOM     10  C   UNL     1      45.821  14.612  -3.252  1.00  0.00     0.223 A 
ENDROOT
BRANCH   1  11
ATOM     11  C   UNL     1      44.844  16.898  -3.711  1.00  0.00     0.091 A 
ATOM     12  C   UNL     1      44.579  17.622  -4.885  1.00  0.00     0.068 A 
ATOM     13  C   UNL     1      43.506  18.518  -4.944  1.00  0.00     0.162 A 
ATOM     14  C   UNL     1      43.995  17.058  -2.603  1.00  0.00     0.068 A 
ATOM     15  C   UNL     1      42.673  18.690  -3.826  1.00  0.00     0.200 A 
ATOM     16  C   UNL     1      42.918  17.952  -2.654  1.00  0.00     0.162 A 
BRANCH  13  17
ATOM     17  O   UNL     1      43.285  19.228  -6.123  1.00  0.00    -0.504 OA
ATOM     18  H   UNL     1      44.001  19.807  -6.546  1.00  0.00     0.293 HD
ENDBRANCH  13  17
BRANCH  15  19
ATOM     19  O   UNL     1      41.607  19.588  -3.892  1.00  0.00    -0.502 OA
ATOM     20  H   UNL     1      41.401  20.122  -4.728  1.00  0.00     0.293 HD
ENDBRANCH  15  19
BRANCH  16  21
ATOM     21  O   UNL     1      42.085  18.107  -1.546  1.00  0.00    -0.504 OA
ATOM     22  H   UNL     1      41.959  19.007  -1.098  1.00  0.00     0.293 HD
ENDBRANCH  16  21
ENDBRANCH   1  11
BRANCH  10  23
ATOM     23  O   UNL     1      44.593  14.149  -2.781  1.00  0.00    -0.500 OA
ATOM     24  H   UNL     1      44.054  14.669  -2.098  1.00  0.00     0.294 HD
ENDBRANCH  10  23
BRANCH   5  25
ATOM     25  O   UNL     1      51.821  15.915  -4.985  1.00  0.00    -0.507 OA
ATOM     26  H   UNL     1      52.523  16.229  -4.324  1.00  0.00     0.293 HD
ENDBRANCH   5  25
BRANCH   7  27
ATOM     27  O   UNL     1      49.367  12.093  -3.380  1.00  0.00    -0.507 OA
ATOM     28  H   UNL     1      50.179  11.609  -3.029  1.00  0.00     0.293 HD
ENDBRANCH   7  27
TORSDOF 7
ENDMDL
MODEL 6
REMARK VINA RESULT:    -5.342      1.592      3.004
REMARK INTER + INTRA:          -6.466
REMARK INTER:                  -6.477
REMARK INTRA:                   0.011
REMARK UNBOUND:                 0.125
REMARK SMILES Oc1cc(O)c2cc(O)c(-c3cc(O)c(O)c(O)c3)[o+]c2c1
REMARK SMILES IDX 10 1 20 2 21 3 22 4 2 5 3 6 4 7 6 8 7 9 8 10 11 11 12 12
REMARK SMILES IDX 13 13 19 14 15 15 17 16 14 17 16 19 18 21 9 23 1 25 5 27
REMARK H PARENT 14 18 16 20 18 22 9 24 1 26 5 28
REMARK Flexibility Score: inf
ROOT
ATOM      1  C   UNL     1      46.007  16.063  -3.801  1.00  0.00     0.402 A 
ATOM      2  O   UNL     1      47.224  16.462  -4.162  1.00  0.00    -0.202 OA
ATOM      3  C   UNL     1      48.287  15.664  -4.157  1.00  0.00     0.368 A 
ATOM      4  C   UNL     1      49.523  16.175  -4.558  1.00  0.00     0.162 A 
ATOM      5  C   UNL     1      50.655  15.360  -4.565  1.00  0.00     0.128 A 
ATOM      6  C   UNL     1      50.551  14.021  -4.171  1.00  0.00     0.093 A 
ATOM      7  C   UNL     1      49.323  13.485  -3.765  1.00  0.00     0.136 A 
ATOM      8  C   UNL     1      48.170  14.312  -3.754  1.00  0.00     0.125 A 
ATOM      9  C   UNL     1      46.902  13.864  -3.349  1.00  0.00     0.078 A 
ATOM     10  C   UNL     1      45.813  14.740  -3.360  1.00  0.00     0.223 A 
ENDROOT
BRANCH   1  11
ATOM     11  C   UNL     1      44.901  17.045  -3.859  1.00  0.00     0.091 A 
ATOM     12  C   UNL     1      44.050  17.193  -2.753  1.00  0.00     0.068 A 
ATOM     13  C   UNL     1      43.009  18.127  -2.773  1.00  0.00     0.162 A 
ATOM     14  C   UNL     1      44.718  17.874  -4.978  1.00  0.00     0.068 A 
ATOM     15  C   UNL     1      42.816  18.939  -3.903  1.00  0.00     0.200 A 
ATOM     16  C   UNL     1      43.678  18.814  -5.007  1.00  0.00     0.162 A 
BRANCH  13  17
ATOM     17  O   UNL     1      42.177  18.233  -1.659  1.00  0.00    -0.504 OA
ATOM     18  H   UNL     1      41.305  17.723  -1.587  1.00  0.00     0.293 HD
ENDBRANCH  13  17
BRANCH  15  19
ATOM     19  O   UNL     1      41.774  19.866  -3.916  1.00  0.00    -0.502 OA
ATOM     20  H   UNL     1      40.996  19.814  -3.270  1.00  0.00     0.293 HD
ENDBRANCH  15  19
BRANCH  16  21
ATOM     21  O   UNL     1      43.502  19.627  -6.125  1.00  0.00    -0.504 OA
ATOM     22  H   UNL     1      44.104  19.553  -6.936  1.00  0.00     0.293 HD
ENDBRANCH  16  21
ENDBRANCH   1  11
BRANCH  10  23
ATOM     23  O   UNL     1      44.564  14.310  -2.913  1.00  0.00    -0.500 OA
ATOM     24  H   UNL     1      43.714  14.814  -3.140  1.00  0.00     0.294 HD
ENDBRANCH  10  23
BRANCH   5  25
ATOM     25  O   UNL     1      51.880  15.888  -4.969  1.00  0.00    -0.507 OA
ATOM     26  H   UNL     1      52.161  15.889  -5.943  1.00  0.00     0.293 HD
ENDBRANCH   5  25
BRANCH   7  27
ATOM     27  O   UNL     1      49.301  12.138  -3.388  1.00  0.00    -0.507 OA
ATOM     28  H   UNL     1      48.514  11.679  -2.957  1.00  0.00     0.293 HD
ENDBRANCH   7  27
TORSDOF 7
ENDMDL
MODEL 7
REMARK VINA RESULT:    -5.187      1.870      7.409
REMARK INTER + INTRA:          -6.274
REMARK INTER:                  -5.922
REMARK INTRA:                  -0.352
REMARK UNBOUND:                 0.125
REMARK SMILES Oc1cc(O)c2cc(O)c(-c3cc(O)c(O)c(O)c3)[o+]c2c1
REMARK SMILES IDX 10 1 20 2 21 3 22 4 2 5 3 6 4 7 6 8 7 9 8 10 11 11 12 12
REMARK SMILES IDX 13 13 19 14 15 15 17 16 14 17 16 19 18 21 9 23 1 25 5 27
REMARK H PARENT 14 18 16 20 18 22 9 24 1 26 5 28
REMARK Flexibility Score: inf
ROOT
ATOM      1  C   UNL     1      43.760  16.843  -3.418  1.00  0.00     0.402 A 
ATOM      2  O   UNL     1      43.600  17.881  -2.601  1.00  0.00    -0.202 OA
ATOM      3  C   UNL     1      42.440  18.509  -2.436  1.00  0.00     0.368 A 
ATOM      4  C   UNL     1      42.369  19.587  -1.552  1.00  0.00     0.162 A 
ATOM      5  C   UNL     1      41.164  20.263  -1.357  1.00  0.00     0.128 A 
ATOM      6  C   UNL     1      40.019  19.857  -2.050  1.00  0.00     0.093 A 
ATOM      7  C   UNL     1      40.063  18.778  -2.942  1.00  0.00     0.136 A 
ATOM      8  C   UNL     1      41.287  18.090  -3.145  1.00  0.00     0.125 A 
ATOM      9  C   UNL     1      41.429  17.008  -4.028  1.00  0.00     0.078 A 
ATOM     10  C   UNL     1      42.670  16.383  -4.179  1.00  0.00     0.223 A 
ENDROOT
BRANCH   1  11
ATOM     11  C   UNL     1      45.102  16.223  -3.507  1.00  0.00     0.091 A 
ATOM     12  C   UNL     1      46.124  16.886  -4.203  1.00  0.00     0.068 A 
ATOM     13  C   UNL     1      47.407  16.333  -4.287  1.00  0.00     0.162 A 
ATOM     14  C   UNL     1      45.390  15.009  -2.861  1.00  0.00     0.068 A 
ATOM     15  C   UNL     1      47.685  15.108  -3.657  1.00  0.00     0.200 A 
ATOM     16  C   UNL     1      46.672  14.448  -2.938  1.00  0.00     0.162 A 
BRANCH  13  17
ATOM     17  O   UNL     1      48.391  17.016  -5.000  1.00  0.00    -0.504 OA
ATOM     18  H   UNL     1      48.486  18.024  -4.956  1.00  0.00     0.293 HD
ENDBRANCH  13  17
BRANCH  15  19
ATOM     19  O   UNL     1      48.965  14.561  -3.747  1.00  0.00    -0.502 OA
ATOM     20  H   UNL     1      49.348  14.225  -4.622  1.00  0.00     0.293 HD
ENDBRANCH  15  19
BRANCH  16  21
ATOM     21  O   UNL     1      46.946  13.240  -2.298  1.00  0.00    -0.504 OA
ATOM     22  H   UNL     1      47.841  12.776  -2.400  1.00  0.00     0.293 HD
ENDBRANCH  16  21
ENDBRANCH   1  11
BRANCH  10  23
ATOM     23  O   UNL     1      42.822  15.341  -5.092  1.00  0.00    -0.500 OA
ATOM     24  H   UNL     1      43.534  15.364  -5.813  1.00  0.00     0.294 HD
ENDBRANCH  10  23
BRANCH   5  25
ATOM     25  O   UNL     1      41.115  21.337  -0.470  1.00  0.00    -0.507 OA
ATOM     26  H   UNL     1      40.429  21.376   0.275  1.00  0.00     0.293 HD
ENDBRANCH   5  25
BRANCH   7  27
ATOM     27  O   UNL     1      38.875  18.432  -3.594  1.00  0.00    -0.507 OA
ATOM     28  H   UNL     1      38.180  17.806  -3.218  1.00  0.00     0.293 HD
ENDBRANCH   7  27
TORSDOF 7
ENDMDL
MODEL 8
REMARK VINA RESULT:    -5.149      2.094      8.007
REMARK INTER + INTRA:          -6.228
REMARK INTER:                  -6.093
REMARK INTRA:                  -0.135
REMARK UNBOUND:                 0.125
REMARK SMILES Oc1cc(O)c2cc(O)c(-c3cc(O)c(O)c(O)c3)[o+]c2c1
REMARK SMILES IDX 10 1 20 2 21 3 22 4 2 5 3 6 4 7 6 8 7 9 8 10 11 11 12 12
REMARK SMILES IDX 13 13 19 14 15 15 17 16 14 17 16 19 18 21 9 23 1 25 5 27
REMARK H PARENT 14 18 16 20 18 22 9 24 1 26 5 28
REMARK Flexibility Score: inf
ROOT
ATOM      1  C   UNL     1      47.629  15.318  -4.107  1.00  0.00     0.402 A 
ATOM      2  O   UNL     1      47.096  16.312  -4.814  1.00  0.00    -0.202 OA
ATOM      3  C   UNL     1      45.923  16.865  -4.527  1.00  0.00     0.368 A 
ATOM      4  C   UNL     1      45.448  17.908  -5.326  1.00  0.00     0.162 A 
ATOM      5  C   UNL     1      44.221  18.509  -5.047  1.00  0.00     0.128 A 
ATOM      6  C   UNL     1      43.461  18.068  -3.959  1.00  0.00     0.093 A 
ATOM      7  C   UNL     1      43.914  17.024  -3.141  1.00  0.00     0.136 A 
ATOM      8  C   UNL     1      45.161  16.409  -3.424  1.00  0.00     0.125 A 
ATOM      9  C   UNL     1      45.687  15.348  -2.669  1.00  0.00     0.078 A 
ATOM     10  C   UNL     1      46.921  14.788  -3.012  1.00  0.00     0.223 A 
ENDROOT
BRANCH   1  11
ATOM     11  C   UNL     1      48.949  14.792  -4.522  1.00  0.00     0.091 A 
ATOM     12  C   UNL     1      50.058  15.652  -4.543  1.00  0.00     0.068 A 
ATOM     13  C   UNL     1      51.322  15.179  -4.912  1.00  0.00     0.162 A 
ATOM     14  C   UNL     1      49.129  13.436  -4.842  1.00  0.00     0.068 A 
ATOM     15  C   UNL     1      51.493  13.826  -5.252  1.00  0.00     0.200 A 
ATOM     16  C   UNL     1      50.391  12.953  -5.212  1.00  0.00     0.162 A 
BRANCH  13  17
ATOM     17  O   UNL     1      52.395  16.068  -4.934  1.00  0.00    -0.504 OA
ATOM     18  H   UNL     1      52.545  16.713  -5.701  1.00  0.00     0.293 HD
ENDBRANCH  13  17
BRANCH  15  19
ATOM     19  O   UNL     1      52.755  13.362  -5.622  1.00  0.00    -0.502 OA
ATOM     20  H   UNL     1      52.899  12.781  -6.439  1.00  0.00     0.293 HD
ENDBRANCH  15  19
BRANCH  16  21
ATOM     21  O   UNL     1      50.557  11.606  -5.533  1.00  0.00    -0.504 OA
ATOM     22  H   UNL     1      51.468  11.222  -5.755  1.00  0.00     0.293 HD
ENDBRANCH  16  21
ENDBRANCH   1  11
BRANCH  10  23
ATOM     23  O   UNL     1      47.421  13.704  -2.292  1.00  0.00    -0.500 OA
ATOM     24  H   UNL     1      47.445  12.769  -2.685  1.00  0.00     0.294 HD
ENDBRANCH  10  23
BRANCH   5  25
ATOM     25  O   UNL     1      43.766  19.549  -5.856  1.00  0.00    -0.507 OA
ATOM     26  H   UNL     1      44.171  19.726  -6.768  1.00  0.00     0.293 HD
ENDBRANCH   5  25
BRANCH   7  27
ATOM     27  O   UNL     1      43.098  16.643  -2.072  1.00  0.00    -0.507 OA
ATOM     28  H   UNL     1      42.141  16.939  -1.952  1.00  0.00     0.293 HD
ENDBRANCH   7  27
TORSDOF 7
ENDMDL
