MODEL 1
REMARK VINA RESULT:    -7.198      0.000      0.000
REMARK INTER + INTRA:          -8.655
REMARK INTER:                  -8.671
REMARK INTRA:                   0.016
REMARK UNBOUND:                 0.016
REMARK SMILES O=c1c(O)c(-c2ccc(O)c(O)c2)oc2cc(O)cc(O)c12
REMARK SMILES IDX 5 1 3 2 2 3 1 4 22 5 20 6 19 7 17 8 16 9 15 10 14 11 6 12
REMARK SMILES IDX 7 13 8 14 9 15 13 16 11 17 10 18 12 20 4 22 21 24 18 26
REMARK H PARENT 10 19 12 21 4 23 21 25 18 27
REMARK Flexibility Score: inf
ROOT
ATOM      1  C   UNL     1     159.442 154.526 156.017  1.00  0.00     0.180 A 
ATOM      2  C   UNL     1     159.673 153.169 155.721  1.00  0.00     0.208 A 
ATOM      3  C   UNL     1     160.942 152.781 155.265  1.00  0.00     0.238 A 
ATOM      4  O   UNL     1     161.158 151.570 154.986  1.00  0.00    -0.285 OA
ATOM      5  C   UNL     1     161.961 153.746 155.132  1.00  0.00     0.111 A 
ATOM      6  C   UNL     1     163.268 153.437 154.684  1.00  0.00     0.134 A 
ATOM      7  C   UNL     1     164.229 154.455 154.587  1.00  0.00     0.093 A 
ATOM      8  C   UNL     1     163.911 155.771 154.930  1.00  0.00     0.123 A 
ATOM      9  C   UNL     1     162.621 156.082 155.374  1.00  0.00     0.094 A 
ATOM     10  C   UNL     1     161.649 155.083 155.475  1.00  0.00     0.146 A 
ATOM     11  O   UNL     1     160.431 155.407 155.895  1.00  0.00    -0.452 OA
ENDROOT
BRANCH   1  12
ATOM     12  C   UNL     1     158.126 155.016 156.485  1.00  0.00     0.025 A 
ATOM     13  C   UNL     1     156.934 154.640 155.841  1.00  0.00     0.016 A 
ATOM     14  C   UNL     1     155.704 155.134 156.286  1.00  0.00     0.051 A 
ATOM     15  C   UNL     1     155.649 156.022 157.369  1.00  0.00     0.157 A 
ATOM     16  C   UNL     1     158.066 155.922 157.557  1.00  0.00     0.062 A 
ATOM     17  C   UNL     1     156.837 156.419 158.004  1.00  0.00     0.158 A 
BRANCH  15  18
ATOM     18  O   UNL     1     154.421 156.512 157.812  1.00  0.00    -0.504 OA
ATOM     19  H   UNL     1     153.960 156.129 158.629  1.00  0.00     0.293 HD
ENDBRANCH  15  18
BRANCH  17  20
ATOM     20  O   UNL     1     156.817 157.307 159.081  1.00  0.00    -0.504 OA
ATOM     21  H   UNL     1     156.428 158.239 159.002  1.00  0.00     0.293 HD
ENDBRANCH  17  20
ENDBRANCH   1  12
BRANCH   2  22
ATOM     22  O   UNL     1     158.662 152.223 155.909  1.00  0.00    -0.502 OA
ATOM     23  H   UNL     1     158.586 151.390 155.338  1.00  0.00     0.293 HD
ENDBRANCH   2  22
BRANCH   6  24
ATOM     24  O   UNL     1     163.617 152.133 154.334  1.00  0.00    -0.507 OA
ATOM     25  H   UNL     1     164.550 151.770 154.491  1.00  0.00     0.293 HD
ENDBRANCH   6  24
BRANCH   8  26
ATOM     26  O   UNL     1     164.884 156.762 154.826  1.00  0.00    -0.508 OA
ATOM     27  H   UNL     1     164.669 157.737 155.000  1.00  0.00     0.293 HD
ENDBRANCH   8  26
TORSDOF 6
ENDMDL
MODEL 2
REMARK VINA RESULT:    -6.278      1.229      2.878
REMARK INTER + INTRA:          -7.547
REMARK INTER:                  -7.749
REMARK INTRA:                   0.201
REMARK UNBOUND:                 0.016
REMARK SMILES O=c1c(O)c(-c2ccc(O)c(O)c2)oc2cc(O)cc(O)c12
REMARK SMILES IDX 5 1 3 2 2 3 1 4 22 5 20 6 19 7 17 8 16 9 15 10 14 11 6 12
REMARK SMILES IDX 7 13 8 14 9 15 13 16 11 17 10 18 12 20 4 22 21 24 18 26
REMARK H PARENT 10 19 12 21 4 23 21 25 18 27
REMARK Flexibility Score: inf
ROOT
ATOM      1  C   UNL     1     159.672 154.865 156.021  1.00  0.00     0.180 A 
ATOM      2  C   UNL     1     160.715 155.810 155.972  1.00  0.00     0.208 A 
ATOM      3  C   UNL     1     161.979 155.400 155.517  1.00  0.00     0.238 A 
ATOM      4  O   UNL     1     162.925 156.234 155.480  1.00  0.00    -0.285 OA
ATOM      5  C   UNL     1     162.172 154.067 155.101  1.00  0.00     0.111 A 
ATOM      6  C   UNL     1     163.412 153.576 154.626  1.00  0.00     0.134 A 
ATOM      7  C   UNL     1     163.521 152.236 154.223  1.00  0.00     0.093 A 
ATOM      8  C   UNL     1     162.418 151.382 154.284  1.00  0.00     0.123 A 
ATOM      9  C   UNL     1     161.190 151.861 154.753  1.00  0.00     0.094 A 
ATOM     10  C   UNL     1     161.062 153.192 155.161  1.00  0.00     0.146 A 
ATOM     11  O   UNL     1     159.886 153.620 155.607  1.00  0.00    -0.452 OA
ENDROOT
BRANCH   1  12
ATOM     12  C   UNL     1     158.317 155.216 156.505  1.00  0.00     0.025 A 
ATOM     13  C   UNL     1     157.163 154.721 155.872  1.00  0.00     0.016 A 
ATOM     14  C   UNL     1     155.894 155.085 156.332  1.00  0.00     0.051 A 
ATOM     15  C   UNL     1     155.759 155.958 157.420  1.00  0.00     0.157 A 
ATOM     16  C   UNL     1     158.176 156.108 157.581  1.00  0.00     0.062 A 
ATOM     17  C   UNL     1     156.907 156.474 158.044  1.00  0.00     0.158 A 
BRANCH  15  18
ATOM     18  O   UNL     1     154.493 156.318 157.877  1.00  0.00    -0.504 OA
ATOM     19  H   UNL     1     153.654 156.072 157.364  1.00  0.00     0.293 HD
ENDBRANCH  15  18
BRANCH  17  20
ATOM     20  O   UNL     1     156.808 157.351 159.124  1.00  0.00    -0.504 OA
ATOM     21  H   UNL     1     157.084 157.084 160.061  1.00  0.00     0.293 HD
ENDBRANCH  17  20
ENDBRANCH   1  12
BRANCH   2  22
ATOM     22  O   UNL     1     160.486 157.137 156.342  1.00  0.00    -0.502 OA
ATOM     23  H   UNL     1     160.627 157.911 155.704  1.00  0.00     0.293 HD
ENDBRANCH   2  22
BRANCH   6  24
ATOM     24  O   UNL     1     164.532 154.404 154.553  1.00  0.00    -0.507 OA
ATOM     25  H   UNL     1     164.623 155.115 153.837  1.00  0.00     0.293 HD
ENDBRANCH   6  24
BRANCH   8  26
ATOM     26  O   UNL     1     162.553 150.056 153.876  1.00  0.00    -0.508 OA
ATOM     27  H   UNL     1     162.383 149.776 152.917  1.00  0.00     0.293 HD
ENDBRANCH   8  26
TORSDOF 6
ENDMDL
MODEL 3
REMARK VINA RESULT:    -5.964      3.078      5.178
REMARK INTER + INTRA:          -7.169
REMARK INTER:                  -7.063
REMARK INTRA:                  -0.106
REMARK UNBOUND:                 0.016
REMARK SMILES O=c1c(O)c(-c2ccc(O)c(O)c2)oc2cc(O)cc(O)c12
REMARK SMILES IDX 5 1 3 2 2 3 1 4 22 5 20 6 19 7 17 8 16 9 15 10 14 11 6 12
REMARK SMILES IDX 7 13 8 14 9 15 13 16 11 17 10 18 12 20 4 22 21 24 18 26
REMARK H PARENT 10 19 12 21 4 23 21 25 18 27
REMARK Flexibility Score: inf
ROOT
ATOM      1  C   UNL     1     156.151 156.774 155.580  1.00  0.00     0.180 A 
ATOM      2  C   UNL     1     156.901 157.247 156.674  1.00  0.00     0.208 A 
ATOM      3  C   UNL     1     158.084 156.578 157.024  1.00  0.00     0.238 A 
ATOM      4  O   UNL     1     158.759 156.986 158.009  1.00  0.00    -0.285 OA
ATOM      5  C   UNL     1     158.508 155.467 156.267  1.00  0.00     0.111 A 
ATOM      6  C   UNL     1     159.689 154.741 156.551  1.00  0.00     0.134 A 
ATOM      7  C   UNL     1     160.046 153.650 155.744  1.00  0.00     0.093 A 
ATOM      8  C   UNL     1     159.248 153.273 154.661  1.00  0.00     0.123 A 
ATOM      9  C   UNL     1     158.079 153.986 154.376  1.00  0.00     0.094 A 
ATOM     10  C   UNL     1     157.705 155.075 155.170  1.00  0.00     0.146 A 
ATOM     11  O   UNL     1     156.588 155.732 154.880  1.00  0.00    -0.452 OA
ENDROOT
BRANCH   1  12
ATOM     12  C   UNL     1     154.883 157.414 155.161  1.00  0.00     0.025 A 
ATOM     13  C   UNL     1     153.676 156.694 155.126  1.00  0.00     0.016 A 
ATOM     14  C   UNL     1     152.496 157.313 154.703  1.00  0.00     0.051 A 
ATOM     15  C   UNL     1     152.507 158.653 154.295  1.00  0.00     0.157 A 
ATOM     16  C   UNL     1     154.893 158.751 154.730  1.00  0.00     0.062 A 
ATOM     17  C   UNL     1     153.713 159.373 154.306  1.00  0.00     0.158 A 
BRANCH  15  18
ATOM     18  O   UNL     1     151.329 159.268 153.875  1.00  0.00    -0.504 OA
ATOM     19  H   UNL     1     150.595 158.746 153.410  1.00  0.00     0.293 HD
ENDBRANCH  15  18
BRANCH  17  20
ATOM     20  O   UNL     1     153.760 160.707 153.899  1.00  0.00    -0.504 OA
ATOM     21  H   UNL     1     153.754 161.472 154.562  1.00  0.00     0.293 HD
ENDBRANCH  17  20
ENDBRANCH   1  12
BRANCH   2  22
ATOM     22  O   UNL     1     156.487 158.381 157.377  1.00  0.00    -0.502 OA
ATOM     23  H   UNL     1     157.136 158.981 157.871  1.00  0.00     0.293 HD
ENDBRANCH   2  22
BRANCH   6  24
ATOM     24  O   UNL     1     160.507 155.092 157.625  1.00  0.00    -0.507 OA
ATOM     25  H   UNL     1     161.209 154.459 157.990  1.00  0.00     0.293 HD
ENDBRANCH   6  24
BRANCH   8  26
ATOM     26  O   UNL     1     159.626 152.187 153.875  1.00  0.00    -0.508 OA
ATOM     27  H   UNL     1     159.167 151.984 152.995  1.00  0.00     0.293 HD
ENDBRANCH   8  26
TORSDOF 6
ENDMDL
MODEL 4
REMARK VINA RESULT:    -5.345      1.439      6.813
REMARK INTER + INTRA:          -6.423
REMARK INTER:                  -6.261
REMARK INTRA:                  -0.161
REMARK UNBOUND:                 0.016
REMARK SMILES O=c1c(O)c(-c2ccc(O)c(O)c2)oc2cc(O)cc(O)c12
REMARK SMILES IDX 5 1 3 2 2 3 1 4 22 5 20 6 19 7 17 8 16 9 15 10 14 11 6 12
REMARK SMILES IDX 7 13 8 14 9 15 13 16 11 17 10 18 12 20 4 22 21 24 18 26
REMARK H PARENT 10 19 12 21 4 23 21 25 18 27
REMARK Flexibility Score: inf
ROOT
ATOM      1  C   UNL     1     159.144 154.793 155.882  1.00  0.00     0.180 A 
ATOM      2  C   UNL     1     158.077 154.396 155.053  1.00  0.00     0.208 A 
ATOM      3  C   UNL     1     156.769 154.750 155.416  1.00  0.00     0.238 A 
ATOM      4  O   UNL     1     155.804 154.389 154.688  1.00  0.00    -0.285 OA
ATOM      5  C   UNL     1     156.549 155.509 156.584  1.00  0.00     0.111 A 
ATOM      6  C   UNL     1     155.263 155.910 157.017  1.00  0.00     0.134 A 
ATOM      7  C   UNL     1     155.130 156.673 158.187  1.00  0.00     0.093 A 
ATOM      8  C   UNL     1     156.254 157.043 158.929  1.00  0.00     0.123 A 
ATOM      9  C   UNL     1     157.528 156.649 158.506  1.00  0.00     0.094 A 
ATOM     10  C   UNL     1     157.681 155.886 157.344  1.00  0.00     0.146 A 
ATOM     11  O   UNL     1     158.902 155.522 156.968  1.00  0.00    -0.452 OA
ENDROOT
BRANCH   1  12
ATOM     12  C   UNL     1     160.550 154.443 155.577  1.00  0.00     0.025 A 
ATOM     13  C   UNL     1     160.974 153.104 155.518  1.00  0.00     0.016 A 
ATOM     14  C   UNL     1     162.312 152.798 155.252  1.00  0.00     0.051 A 
ATOM     15  C   UNL     1     163.247 153.823 155.056  1.00  0.00     0.157 A 
ATOM     16  C   UNL     1     161.495 155.467 155.401  1.00  0.00     0.062 A 
ATOM     17  C   UNL     1     162.835 155.164 155.134  1.00  0.00     0.158 A 
BRANCH  15  18
ATOM     18  O   UNL     1     164.580 153.515 154.789  1.00  0.00    -0.504 OA
ATOM     19  H   UNL     1     165.276 153.491 155.525  1.00  0.00     0.293 HD
ENDBRANCH  15  18
BRANCH  17  20
ATOM     20  O   UNL     1     163.742 156.208 154.951  1.00  0.00    -0.504 OA
ATOM     21  H   UNL     1     164.544 156.123 154.338  1.00  0.00     0.293 HD
ENDBRANCH  17  20
ENDBRANCH   1  12
BRANCH   2  22
ATOM     22  O   UNL     1     158.324 153.687 153.875  1.00  0.00    -0.502 OA
ATOM     23  H   UNL     1     159.217 153.251 153.680  1.00  0.00     0.293 HD
ENDBRANCH   2  22
BRANCH   6  24
ATOM     24  O   UNL     1     154.121 155.558 156.298  1.00  0.00    -0.507 OA
ATOM     25  H   UNL     1     154.005 155.811 155.323  1.00  0.00     0.293 HD
ENDBRANCH   6  24
BRANCH   8  26
ATOM     26  O   UNL     1     156.093 157.801 160.087  1.00  0.00    -0.508 OA
ATOM     27  H   UNL     1     155.511 158.630 160.101  1.00  0.00     0.293 HD
ENDBRANCH   8  26
TORSDOF 6
ENDMDL
MODEL 5
REMARK VINA RESULT:    -5.242      1.682      7.074
REMARK INTER + INTRA:          -6.299
REMARK INTER:                  -6.220
REMARK INTRA:                  -0.079
REMARK UNBOUND:                 0.016
REMARK SMILES O=c1c(O)c(-c2ccc(O)c(O)c2)oc2cc(O)cc(O)c12
REMARK SMILES IDX 5 1 3 2 2 3 1 4 22 5 20 6 19 7 17 8 16 9 15 10 14 11 6 12
REMARK SMILES IDX 7 13 8 14 9 15 13 16 11 17 10 18 12 20 4 22 21 24 18 26
REMARK H PARENT 10 19 12 21 4 23 21 25 18 27
REMARK Flexibility Score: inf
ROOT
ATOM      1  C   UNL     1     159.319 154.716 155.625  1.00  0.00     0.180 A 
ATOM      2  C   UNL     1     159.407 155.458 156.819  1.00  0.00     0.208 A 
ATOM      3  C   UNL     1     158.321 156.263 157.198  1.00  0.00     0.238 A 
ATOM      4  O   UNL     1     158.393 156.941 158.259  1.00  0.00    -0.285 OA
ATOM      5  C   UNL     1     157.164 156.297 156.394  1.00  0.00     0.111 A 
ATOM      6  C   UNL     1     156.025 157.077 156.708  1.00  0.00     0.134 A 
ATOM      7  C   UNL     1     154.908 157.050 155.859  1.00  0.00     0.093 A 
ATOM      8  C   UNL     1     154.906 156.259 154.709  1.00  0.00     0.123 A 
ATOM      9  C   UNL     1     156.028 155.486 154.393  1.00  0.00     0.094 A 
ATOM     10  C   UNL     1     157.153 155.501 155.225  1.00  0.00     0.146 A 
ATOM     11  O   UNL     1     158.206 154.761 154.899  1.00  0.00    -0.452 OA
ENDROOT
BRANCH   1  12
ATOM     12  C   UNL     1     160.429 153.859 155.149  1.00  0.00     0.025 A 
ATOM     13  C   UNL     1     160.258 152.476 154.965  1.00  0.00     0.016 A 
ATOM     14  C   UNL     1     161.327 151.683 154.537  1.00  0.00     0.051 A 
ATOM     15  C   UNL     1     162.583 152.256 154.302  1.00  0.00     0.157 A 
ATOM     16  C   UNL     1     161.696 154.425 154.932  1.00  0.00     0.062 A 
ATOM     17  C   UNL     1     162.768 153.634 154.505  1.00  0.00     0.158 A 
BRANCH  15  18
ATOM     18  O   UNL     1     163.647 151.463 153.875  1.00  0.00    -0.504 OA
ATOM     19  H   UNL     1     163.634 150.455 153.981  1.00  0.00     0.293 HD
ENDBRANCH  15  18
BRANCH  17  20
ATOM     20  O   UNL     1     164.008 154.234 154.287  1.00  0.00    -0.504 OA
ATOM     21  H   UNL     1     164.241 155.143 154.669  1.00  0.00     0.293 HD
ENDBRANCH  17  20
ENDBRANCH   1  12
BRANCH   2  22
ATOM     22  O   UNL     1     160.545 155.369 157.625  1.00  0.00    -0.502 OA
ATOM     23  H   UNL     1     161.296 156.047 157.581  1.00  0.00     0.293 HD
ENDBRANCH   2  22
BRANCH   6  24
ATOM     24  O   UNL     1     155.996 157.877 157.850  1.00  0.00    -0.507 OA
ATOM     25  H   UNL     1     155.169 157.945 158.432  1.00  0.00     0.293 HD
ENDBRANCH   6  24
BRANCH   8  26
ATOM     26  O   UNL     1     153.783 156.249 153.884  1.00  0.00    -0.508 OA
ATOM     27  H   UNL     1     153.035 156.923 153.998  1.00  0.00     0.293 HD
ENDBRANCH   8  26
TORSDOF 6
ENDMDL
MODEL 6
REMARK VINA RESULT:    -5.100      1.411      2.018
REMARK INTER + INTRA:          -6.128
REMARK INTER:                  -5.998
REMARK INTRA:                  -0.130
REMARK UNBOUND:                 0.016
REMARK SMILES O=c1c(O)c(-c2ccc(O)c(O)c2)oc2cc(O)cc(O)c12
REMARK SMILES IDX 5 1 3 2 2 3 1 4 22 5 20 6 19 7 17 8 16 9 15 10 14 11 6 12
REMARK SMILES IDX 7 13 8 14 9 15 13 16 11 17 10 18 12 20 4 22 21 24 18 26
REMARK H PARENT 10 19 12 21 4 23 21 25 18 27
REMARK Flexibility Score: inf
ROOT
ATOM      1  C   UNL     1     158.647 155.026 155.554  1.00  0.00     0.180 A 
ATOM      2  C   UNL     1     158.825 153.629 155.532  1.00  0.00     0.208 A 
ATOM      3  C   UNL     1     160.120 153.114 155.367  1.00  0.00     0.238 A 
ATOM      4  O   UNL     1     160.291 151.865 155.334  1.00  0.00    -0.285 OA
ATOM      5  C   UNL     1     161.213 153.997 155.249  1.00  0.00     0.111 A 
ATOM      6  C   UNL     1     162.549 153.558 155.085  1.00  0.00     0.134 A 
ATOM      7  C   UNL     1     163.583 154.502 154.984  1.00  0.00     0.093 A 
ATOM      8  C   UNL     1     163.308 155.870 155.044  1.00  0.00     0.123 A 
ATOM      9  C   UNL     1     161.990 156.309 155.206  1.00  0.00     0.094 A 
ATOM     10  C   UNL     1     160.945 155.385 155.307  1.00  0.00     0.146 A 
ATOM     11  O   UNL     1     159.702 155.829 155.455  1.00  0.00    -0.452 OA
ENDROOT
BRANCH   1  12
ATOM     12  C   UNL     1     157.311 155.646 155.706  1.00  0.00     0.025 A 
ATOM     13  C   UNL     1     156.988 156.424 156.832  1.00  0.00     0.016 A 
ATOM     14  C   UNL     1     155.713 156.979 156.965  1.00  0.00     0.051 A 
ATOM     15  C   UNL     1     154.737 156.754 155.985  1.00  0.00     0.157 A 
ATOM     16  C   UNL     1     156.323 155.406 154.737  1.00  0.00     0.062 A 
ATOM     17  C   UNL     1     155.045 155.961 154.867  1.00  0.00     0.158 A 
BRANCH  15  18
ATOM     18  O   UNL     1     153.466 157.310 156.120  1.00  0.00    -0.504 OA
ATOM     19  H   UNL     1     153.336 158.297 156.311  1.00  0.00     0.293 HD
ENDBRANCH  15  18
BRANCH  17  20
ATOM     20  O   UNL     1     154.094 155.712 153.877  1.00  0.00    -0.504 OA
ATOM     21  H   UNL     1     153.185 156.158 153.879  1.00  0.00     0.293 HD
ENDBRANCH  17  20
ENDBRANCH   1  12
BRANCH   2  22
ATOM     22  O   UNL     1     157.733 152.775 155.701  1.00  0.00    -0.502 OA
ATOM     23  H   UNL     1     156.956 152.752 155.052  1.00  0.00     0.293 HD
ENDBRANCH   2  22
BRANCH   6  24
ATOM     24  O   UNL     1     162.856 152.199 155.021  1.00  0.00    -0.507 OA
ATOM     25  H   UNL     1     162.140 151.498 154.869  1.00  0.00     0.293 HD
ENDBRANCH   6  24
BRANCH   8  26
ATOM     26  O   UNL     1     164.354 156.785 154.942  1.00  0.00    -0.508 OA
ATOM     27  H   UNL     1     164.999 156.768 154.161  1.00  0.00     0.293 HD
ENDBRANCH   8  26
TORSDOF 6
ENDMDL
