MODEL 1
REMARK VINA RESULT:     0.886      0.000      0.000
REMARK INTER + INTRA:           2.149
REMARK INTER:                   1.611
REMARK INTRA:                   0.538
REMARK UNBOUND:                 0.538
REMARK SMILES CCCCCCCCCCCCCCCC(=O)[O-]
REMARK SMILES IDX 9 1 10 2 11 3 12 4 13 5 14 6 15 7 16 8 17 9 18 10 8 11 7 12
REMARK SMILES IDX 6 13 5 14 4 15 3 16 2 17 1 18
REMARK H PARENT
REMARK Flexibility Score: inf
ROOT
ATOM      1  C   UNL     1     -16.525 -12.324  10.498  1.00  0.00     0.000 C 
ENDROOT
BRANCH   1   2
ATOM      2  C   UNL     1     -15.430 -13.174   9.830  1.00  0.00     0.000 C 
BRANCH   2   3
ATOM      3  C   UNL     1     -15.848 -14.644   9.637  1.00  0.00     0.000 C 
BRANCH   3   4
ATOM      4  C   UNL     1     -16.928 -14.882   8.567  1.00  0.00     0.000 C 
BRANCH   4   5
ATOM      5  C   UNL     1     -17.165 -16.374   8.275  1.00  0.00     0.000 C 
BRANCH   5   6
ATOM      6  C   UNL     1     -18.547 -16.857   8.764  1.00  0.00     0.006 C 
BRANCH   6   7
ATOM      7  C   UNL     1     -19.106 -16.033   9.934  1.00  0.00     0.053 C 
BRANCH   7   8
ATOM      8  C   UNL     1     -18.452 -16.380  11.236  1.00  0.00     0.041 C 
ATOM      9  O   UNL     1     -19.111 -16.956  12.141  1.00  0.00    -0.550 OA
ATOM     10  O   UNL     1     -17.109 -16.090  11.438  1.00  0.00    -0.550 OA
ENDBRANCH   7   8
ENDBRANCH   6   7
ENDBRANCH   5   6
ENDBRANCH   4   5
ENDBRANCH   3   4
ENDBRANCH   2   3
ENDBRANCH   1   2
BRANCH   1  11
ATOM     11  C   UNL     1     -17.780 -12.187   9.620  1.00  0.00     0.000 C 
BRANCH  11  12
ATOM     12  C   UNL     1     -19.061 -12.656  10.336  1.00  0.00    -0.000 C 
BRANCH  12  13
ATOM     13  C   UNL     1     -19.122 -12.193  11.799  1.00  0.00    -0.000 C 
BRANCH  13  14
ATOM     14  C   UNL     1     -19.099 -13.366  12.794  1.00  0.00    -0.000 C 
BRANCH  14  15
ATOM     15  C   UNL     1     -19.120 -12.887  14.262  1.00  0.00    -0.000 C 
BRANCH  15  16
ATOM     16  C   UNL     1     -18.675 -11.424  14.441  1.00  0.00    -0.000 C 
BRANCH  16  17
ATOM     17  C   UNL     1     -18.770 -10.897  15.883  1.00  0.00    -0.003 C 
ATOM     18  C   UNL     1     -19.037 -12.004  16.902  1.00  0.00     0.004 C 
ENDBRANCH  16  17
ENDBRANCH  15  16
ENDBRANCH  14  15
ENDBRANCH  13  14
ENDBRANCH  12  13
ENDBRANCH  11  12
ENDBRANCH   1  11
TORSDOF 14
ENDMDL
MODEL 2
REMARK VINA RESULT:     1.420      1.587      2.412
REMARK INTER + INTRA:           3.120
REMARK INTER:                   2.110
REMARK INTRA:                   1.009
REMARK UNBOUND:                 0.538
REMARK SMILES CCCCCCCCCCCCCCCC(=O)[O-]
REMARK SMILES IDX 9 1 10 2 11 3 12 4 13 5 14 6 15 7 16 8 17 9 18 10 8 11 7 12
REMARK SMILES IDX 6 13 5 14 4 15 3 16 2 17 1 18
REMARK H PARENT
REMARK Flexibility Score: inf
ROOT
ATOM      1  C   UNL     1     -17.677 -12.139  11.213  1.00  0.00     0.000 C 
ENDROOT
BRANCH   1   2
ATOM      2  C   UNL     1     -16.789 -12.289   9.966  1.00  0.00     0.000 C 
BRANCH   2   3
ATOM      3  C   UNL     1     -17.040 -13.607   9.209  1.00  0.00     0.000 C 
BRANCH   3   4
ATOM      4  C   UNL     1     -18.407 -13.712   8.511  1.00  0.00     0.000 C 
BRANCH   4   5
ATOM      5  C   UNL     1     -18.715 -15.131   8.002  1.00  0.00     0.000 C 
BRANCH   5   6
ATOM      6  C   UNL     1     -18.323 -16.220   9.023  1.00  0.00     0.006 C 
BRANCH   6   7
ATOM      7  C   UNL     1     -17.162 -17.110   8.555  1.00  0.00     0.053 C 
BRANCH   7   8
ATOM      8  C   UNL     1     -15.829 -16.574   8.977  1.00  0.00     0.041 C 
ATOM      9  O   UNL     1     -14.912 -16.419   8.129  1.00  0.00    -0.550 OA
ATOM     10  O   UNL     1     -15.610 -16.222  10.302  1.00  0.00    -0.550 OA
ENDBRANCH   7   8
ENDBRANCH   6   7
ENDBRANCH   5   6
ENDBRANCH   4   5
ENDBRANCH   3   4
ENDBRANCH   2   3
ENDBRANCH   1   2
BRANCH   1  11
ATOM     11  C   UNL     1     -18.880 -13.096  11.198  1.00  0.00     0.000 C 
BRANCH  11  12
ATOM     12  C   UNL     1     -18.526 -14.502  11.720  1.00  0.00    -0.000 C 
BRANCH  12  13
ATOM     13  C   UNL     1     -18.834 -14.671  13.215  1.00  0.00    -0.000 C 
BRANCH  13  14
ATOM     14  C   UNL     1     -19.124 -13.332  13.915  1.00  0.00    -0.000 C 
BRANCH  14  15
ATOM     15  C   UNL     1     -19.125 -13.466  15.454  1.00  0.00    -0.000 C 
BRANCH  15  16
ATOM     16  C   UNL     1     -18.762 -12.161  16.187  1.00  0.00    -0.000 C 
BRANCH  16  17
ATOM     17  C   UNL     1     -18.668 -10.922  15.281  1.00  0.00    -0.003 C 
ATOM     18  C   UNL     1     -17.625  -9.913  15.762  1.00  0.00     0.004 C 
ENDBRANCH  16  17
ENDBRANCH  15  16
ENDBRANCH  14  15
ENDBRANCH  13  14
ENDBRANCH  12  13
ENDBRANCH  11  12
ENDBRANCH   1  11
TORSDOF 14
ENDMDL
MODEL 3
REMARK VINA RESULT:     2.136      1.665      3.274
REMARK INTER + INTRA:           4.423
REMARK INTER:                   4.633
REMARK INTRA:                  -0.210
REMARK UNBOUND:                 0.538
REMARK SMILES CCCCCCCCCCCCCCCC(=O)[O-]
REMARK SMILES IDX 9 1 10 2 11 3 12 4 13 5 14 6 15 7 16 8 17 9 18 10 8 11 7 12
REMARK SMILES IDX 6 13 5 14 4 15 3 16 2 17 1 18
REMARK H PARENT
REMARK Flexibility Score: inf
ROOT
ATOM      1  C   UNL     1     -18.696 -13.247  12.013  1.00  0.00     0.000 C 
ENDROOT
BRANCH   1   2
ATOM      2  C   UNL     1     -19.033 -13.809  10.622  1.00  0.00     0.000 C 
BRANCH   2   3
ATOM      3  C   UNL     1     -18.530 -12.912   9.476  1.00  0.00     0.000 C 
BRANCH   3   4
ATOM      4  C   UNL     1     -17.264 -13.414   8.759  1.00  0.00     0.000 C 
BRANCH   4   5
ATOM      5  C   UNL     1     -17.452 -14.794   8.104  1.00  0.00     0.000 C 
BRANCH   5   6
ATOM      6  C   UNL     1     -16.123 -15.569   7.975  1.00  0.00     0.006 C 
BRANCH   6   7
ATOM      7  C   UNL     1     -15.737 -16.340   9.246  1.00  0.00     0.053 C 
BRANCH   7   8
ATOM      8  C   UNL     1     -15.771 -15.474  10.467  1.00  0.00     0.041 C 
ATOM      9  O   UNL     1     -15.169 -14.368  10.477  1.00  0.00    -0.550 OA
ATOM     10  O   UNL     1     -16.490 -15.876  11.585  1.00  0.00    -0.550 OA
ENDBRANCH   7   8
ENDBRANCH   6   7
ENDBRANCH   5   6
ENDBRANCH   4   5
ENDBRANCH   3   4
ENDBRANCH   2   3
ENDBRANCH   1   2
BRANCH   1  11
ATOM     11  C   UNL     1     -19.067 -14.217  13.146  1.00  0.00     0.000 C 
BRANCH  11  12
ATOM     12  C   UNL     1     -19.124 -13.529  14.523  1.00  0.00    -0.000 C 
BRANCH  12  13
ATOM     13  C   UNL     1     -18.713 -14.467  15.669  1.00  0.00    -0.000 C 
BRANCH  13  14
ATOM     14  C   UNL     1     -18.453 -13.716  16.985  1.00  0.00    -0.000 C 
BRANCH  14  15
ATOM     15  C   UNL     1     -19.031 -12.284  16.965  1.00  0.00    -0.000 C 
BRANCH  15  16
ATOM     16  C   UNL     1     -17.965 -11.185  17.125  1.00  0.00    -0.000 C 
BRANCH  16  17
ATOM     17  C   UNL     1     -18.180  -9.949  16.235  1.00  0.00    -0.003 C 
ATOM     18  C   UNL     1     -17.557 -10.100  14.848  1.00  0.00     0.004 C 
ENDBRANCH  16  17
ENDBRANCH  15  16
ENDBRANCH  14  15
ENDBRANCH  13  14
ENDBRANCH  12  13
ENDBRANCH  11  12
ENDBRANCH   1  11
TORSDOF 14
ENDMDL
