MODEL 1
REMARK VINA RESULT:    -3.882      0.000      0.000
REMARK INTER + INTRA:          -8.154
REMARK INTER:                  -7.060
REMARK INTRA:                  -1.094
REMARK UNBOUND:                -1.094
REMARK SMILES CCCCCCCCCCCCCCCC(=O)[O-]
REMARK SMILES IDX 9 1 10 2 11 3 12 4 13 5 14 6 15 7 16 8 17 9 18 10 8 11 7 12
REMARK SMILES IDX 6 13 5 14 4 15 3 16 2 17 1 18
REMARK H PARENT
REMARK Flexibility Score: inf
ROOT
ATOM      1  C   UNL     1      47.696  46.729  42.335  1.00  0.00     0.000 C 
ENDROOT
BRANCH   1   2
ATOM      2  C   UNL     1      47.046  45.777  41.320  1.00  0.00     0.000 C 
BRANCH   2   3
ATOM      3  C   UNL     1      45.648  46.269  40.925  1.00  0.00     0.000 C 
BRANCH   3   4
ATOM      4  C   UNL     1      44.585  45.202  41.217  1.00  0.00     0.000 C 
BRANCH   4   5
ATOM      5  C   UNL     1      43.251  45.850  41.616  1.00  0.00     0.000 C 
BRANCH   5   6
ATOM      6  C   UNL     1      43.034  47.224  40.956  1.00  0.00     0.006 C 
BRANCH   6   7
ATOM      7  C   UNL     1      42.619  48.336  41.933  1.00  0.00     0.053 C 
BRANCH   7   8
ATOM      8  C   UNL     1      43.716  49.331  42.154  1.00  0.00     0.041 C 
ATOM      9  O   UNL     1      43.813  49.934  43.255  1.00  0.00    -0.550 OA
ATOM     10  O   UNL     1      44.613  49.615  41.132  1.00  0.00    -0.550 OA
ENDBRANCH   7   8
ENDBRANCH   6   7
ENDBRANCH   5   6
ENDBRANCH   4   5
ENDBRANCH   3   4
ENDBRANCH   2   3
ENDBRANCH   1   2
BRANCH   1  11
ATOM     11  C   UNL     1      48.760  46.036  43.201  1.00  0.00     0.000 C 
BRANCH  11  12
ATOM     12  C   UNL     1      49.637  47.036  43.973  1.00  0.00    -0.000 C 
BRANCH  12  13
ATOM     13  C   UNL     1      50.121  46.488  45.328  1.00  0.00    -0.000 C 
BRANCH  13  14
ATOM     14  C   UNL     1      51.649  46.389  45.486  1.00  0.00    -0.000 C 
BRANCH  14  15
ATOM     15  C   UNL     1      52.271  45.276  44.629  1.00  0.00    -0.000 C 
BRANCH  15  16
ATOM     16  C   UNL     1      53.224  45.861  43.576  1.00  0.00    -0.000 C 
BRANCH  16  17
ATOM     17  C   UNL     1      52.601  45.897  42.172  1.00  0.00    -0.003 C 
ATOM     18  C   UNL     1      52.557  47.306  41.581  1.00  0.00     0.004 C 
ENDBRANCH  16  17
ENDBRANCH  15  16
ENDBRANCH  14  15
ENDBRANCH  13  14
ENDBRANCH  12  13
ENDBRANCH  11  12
ENDBRANCH   1  11
TORSDOF 14
ENDMDL
MODEL 2
REMARK VINA RESULT:    -3.673      2.941      7.753
REMARK INTER + INTRA:          -7.773
REMARK INTER:                  -6.465
REMARK INTRA:                  -1.308
REMARK UNBOUND:                -1.094
REMARK SMILES CCCCCCCCCCCCCCCC(=O)[O-]
REMARK SMILES IDX 9 1 10 2 11 3 12 4 13 5 14 6 15 7 16 8 17 9 18 10 8 11 7 12
REMARK SMILES IDX 6 13 5 14 4 15 3 16 2 17 1 18
REMARK H PARENT
REMARK Flexibility Score: inf
ROOT
ATOM      1  C   UNL     1      49.033  47.483  42.511  1.00  0.00     0.000 C 
ENDROOT
BRANCH   1   2
ATOM      2  C   UNL     1      49.888  47.776  41.269  1.00  0.00     0.000 C 
BRANCH   2   3
ATOM      3  C   UNL     1      50.822  46.600  40.957  1.00  0.00     0.000 C 
BRANCH   3   4
ATOM      4  C   UNL     1      51.860  46.409  42.070  1.00  0.00     0.000 C 
BRANCH   4   5
ATOM      5  C   UNL     1      51.806  44.982  42.633  1.00  0.00     0.000 C 
BRANCH   5   6
ATOM      6  C   UNL     1      52.109  44.924  44.143  1.00  0.00     0.006 C 
BRANCH   6   7
ATOM      7  C   UNL     1      52.219  46.301  44.818  1.00  0.00     0.053 C 
BRANCH   7   8
ATOM      8  C   UNL     1      51.094  46.550  45.775  1.00  0.00     0.041 C 
ATOM      9  O   UNL     1      49.980  45.986  45.603  1.00  0.00    -0.550 OA
ATOM     10  O   UNL     1      51.264  47.429  46.837  1.00  0.00    -0.550 OA
ENDBRANCH   7   8
ENDBRANCH   6   7
ENDBRANCH   5   6
ENDBRANCH   4   5
ENDBRANCH   3   4
ENDBRANCH   2   3
ENDBRANCH   1   2
BRANCH   1  11
ATOM     11  C   UNL     1      48.186  46.209  42.361  1.00  0.00     0.000 C 
BRANCH  11  12
ATOM     12  C   UNL     1      46.970  46.412  41.441  1.00  0.00    -0.000 C 
BRANCH  12  13
ATOM     13  C   UNL     1      46.134  45.132  41.260  1.00  0.00    -0.000 C 
BRANCH  13  14
ATOM     14  C   UNL     1      44.618  45.355  41.118  1.00  0.00    -0.000 C 
BRANCH  14  15
ATOM     15  C   UNL     1      44.242  46.833  40.936  1.00  0.00    -0.000 C 
BRANCH  15  16
ATOM     16  C   UNL     1      42.891  47.141  41.598  1.00  0.00    -0.000 C 
BRANCH  16  17
ATOM     17  C   UNL     1      42.757  48.615  42.009  1.00  0.00    -0.003 C 
ATOM     18  C   UNL     1      44.091  49.360  41.982  1.00  0.00     0.004 C 
ENDBRANCH  16  17
ENDBRANCH  15  16
ENDBRANCH  14  15
ENDBRANCH  13  14
ENDBRANCH  12  13
ENDBRANCH  11  12
ENDBRANCH   1  11
TORSDOF 14
ENDMDL
MODEL 3
REMARK VINA RESULT:    -3.561      1.329      3.078
REMARK INTER + INTRA:          -7.569
REMARK INTER:                  -6.301
REMARK INTRA:                  -1.268
REMARK UNBOUND:                -1.094
REMARK SMILES CCCCCCCCCCCCCCCC(=O)[O-]
REMARK SMILES IDX 9 1 10 2 11 3 12 4 13 5 14 6 15 7 16 8 17 9 18 10 8 11 7 12
REMARK SMILES IDX 6 13 5 14 4 15 3 16 2 17 1 18
REMARK H PARENT
REMARK Flexibility Score: inf
ROOT
ATOM      1  C   UNL     1      49.686  47.848  42.003  1.00  0.00     0.000 C 
ENDROOT
BRANCH   1   2
ATOM      2  C   UNL     1      48.439  47.126  42.533  1.00  0.00     0.000 C 
BRANCH   2   3
ATOM      3  C   UNL     1      48.430  45.655  42.097  1.00  0.00     0.000 C 
BRANCH   3   4
ATOM      4  C   UNL     1      47.112  45.292  41.402  1.00  0.00     0.000 C 
BRANCH   4   5
ATOM      5  C   UNL     1      46.068  46.402  41.591  1.00  0.00     0.000 C 
BRANCH   5   6
ATOM      6  C   UNL     1      44.736  46.095  40.880  1.00  0.00     0.006 C 
BRANCH   6   7
ATOM      7  C   UNL     1      43.486  46.411  41.718  1.00  0.00     0.053 C 
BRANCH   7   8
ATOM      8  C   UNL     1      42.956  47.785  41.443  1.00  0.00     0.041 C 
ATOM      9  O   UNL     1      43.713  48.787  41.540  1.00  0.00    -0.550 OA
ATOM     10  O   UNL     1      41.619  47.961  41.113  1.00  0.00    -0.550 OA
ENDBRANCH   7   8
ENDBRANCH   6   7
ENDBRANCH   5   6
ENDBRANCH   4   5
ENDBRANCH   3   4
ENDBRANCH   2   3
ENDBRANCH   1   2
BRANCH   1  11
ATOM     11  C   UNL     1      50.631  46.913  41.231  1.00  0.00     0.000 C 
BRANCH  11  12
ATOM     12  C   UNL     1      52.088  47.404  41.243  1.00  0.00    -0.000 C 
BRANCH  12  13
ATOM     13  C   UNL     1      53.108  46.255  41.339  1.00  0.00    -0.000 C 
BRANCH  13  14
ATOM     14  C   UNL     1      52.892  45.284  42.513  1.00  0.00    -0.000 C 
BRANCH  14  15
ATOM     15  C   UNL     1      53.020  45.963  43.886  1.00  0.00    -0.000 C 
BRANCH  15  16
ATOM     16  C   UNL     1      51.686  45.918  44.646  1.00  0.00    -0.000 C 
BRANCH  16  17
ATOM     17  C   UNL     1      51.742  46.677  45.981  1.00  0.00    -0.003 C 
ATOM     18  C   UNL     1      50.368  47.156  46.447  1.00  0.00     0.004 C 
ENDBRANCH  16  17
ENDBRANCH  15  16
ENDBRANCH  14  15
ENDBRANCH  13  14
ENDBRANCH  12  13
ENDBRANCH  11  12
ENDBRANCH   1  11
TORSDOF 14
ENDMDL
MODEL 4
REMARK VINA RESULT:    -3.423      1.219      2.467
REMARK INTER + INTRA:          -7.319
REMARK INTER:                  -5.941
REMARK INTRA:                  -1.378
REMARK UNBOUND:                -1.094
REMARK SMILES CCCCCCCCCCCCCCCC(=O)[O-]
REMARK SMILES IDX 9 1 10 2 11 3 12 4 13 5 14 6 15 7 16 8 17 9 18 10 8 11 7 12
REMARK SMILES IDX 6 13 5 14 4 15 3 16 2 17 1 18
REMARK H PARENT
REMARK Flexibility Score: inf
ROOT
ATOM      1  C   UNL     1      49.278  46.480  43.685  1.00  0.00     0.000 C 
ENDROOT
BRANCH   1   2
ATOM      2  C   UNL     1      48.736  45.120  43.223  1.00  0.00     0.000 C 
BRANCH   2   3
ATOM      3  C   UNL     1      48.286  45.178  41.757  1.00  0.00     0.000 C 
BRANCH   3   4
ATOM      4  C   UNL     1      46.931  45.883  41.624  1.00  0.00     0.000 C 
BRANCH   4   5
ATOM      5  C   UNL     1      47.111  47.340  41.172  1.00  0.00     0.000 C 
BRANCH   5   6
ATOM      6  C   UNL     1      45.772  48.042  40.875  1.00  0.00     0.006 C 
BRANCH   6   7
ATOM      7  C   UNL     1      44.574  47.473  41.653  1.00  0.00     0.053 C 
BRANCH   7   8
ATOM      8  C   UNL     1      43.532  48.514  41.921  1.00  0.00     0.041 C 
ATOM      9  O   UNL     1      42.355  48.355  41.503  1.00  0.00    -0.550 OA
ATOM     10  O   UNL     1      43.868  49.676  42.605  1.00  0.00    -0.550 OA
ENDBRANCH   7   8
ENDBRANCH   6   7
ENDBRANCH   5   6
ENDBRANCH   4   5
ENDBRANCH   3   4
ENDBRANCH   2   3
ENDBRANCH   1   2
BRANCH   1  11
ATOM     11  C   UNL     1      49.846  46.438  45.113  1.00  0.00     0.000 C 
BRANCH  11  12
ATOM     12  C   UNL     1      51.066  45.509  45.237  1.00  0.00    -0.000 C 
BRANCH  12  13
ATOM     13  C   UNL     1      52.331  46.087  44.577  1.00  0.00    -0.000 C 
BRANCH  13  14
ATOM     14  C   UNL     1      53.012  45.165  43.550  1.00  0.00    -0.000 C 
BRANCH  14  15
ATOM     15  C   UNL     1      52.474  45.353  42.123  1.00  0.00    -0.000 C 
BRANCH  15  16
ATOM     16  C   UNL     1      53.362  46.318  41.324  1.00  0.00    -0.000 C 
BRANCH  16  17
ATOM     17  C   UNL     1      52.713  47.697  41.132  1.00  0.00    -0.003 C 
ATOM     18  C   UNL     1      51.191  47.622  41.011  1.00  0.00     0.004 C 
ENDBRANCH  16  17
ENDBRANCH  15  16
ENDBRANCH  14  15
ENDBRANCH  13  14
ENDBRANCH  12  13
ENDBRANCH  11  12
ENDBRANCH   1  11
TORSDOF 14
ENDMDL
MODEL 5
REMARK VINA RESULT:    -2.909      2.662      7.858
REMARK INTER + INTRA:          -6.384
REMARK INTER:                  -5.841
REMARK INTRA:                  -0.543
REMARK UNBOUND:                -1.094
REMARK SMILES CCCCCCCCCCCCCCCC(=O)[O-]
REMARK SMILES IDX 9 1 10 2 11 3 12 4 13 5 14 6 15 7 16 8 17 9 18 10 8 11 7 12
REMARK SMILES IDX 6 13 5 14 4 15 3 16 2 17 1 18
REMARK H PARENT
REMARK Flexibility Score: inf
ROOT
ATOM      1  C   UNL     1      50.237  45.749  41.660  1.00  0.00     0.000 C 
ENDROOT
BRANCH   1   2
ATOM      2  C   UNL     1      51.400  46.726  41.433  1.00  0.00     0.000 C 
BRANCH   2   3
ATOM      3  C   UNL     1      52.743  45.983  41.408  1.00  0.00     0.000 C 
BRANCH   3   4
ATOM      4  C   UNL     1      53.453  46.081  42.763  1.00  0.00     0.000 C 
BRANCH   4   5
ATOM      5  C   UNL     1      52.712  45.264  43.832  1.00  0.00     0.000 C 
BRANCH   5   6
ATOM      6  C   UNL     1      52.480  46.056  45.133  1.00  0.00     0.006 C 
BRANCH   6   7
ATOM      7  C   UNL     1      51.268  45.582  45.953  1.00  0.00     0.053 C 
BRANCH   7   8
ATOM      8  C   UNL     1      50.134  46.558  45.895  1.00  0.00     0.041 C 
ATOM      9  O   UNL     1      49.895  47.311  46.876  1.00  0.00    -0.550 OA
ATOM     10  O   UNL     1      49.319  46.612  44.771  1.00  0.00    -0.550 OA
ENDBRANCH   7   8
ENDBRANCH   6   7
ENDBRANCH   5   6
ENDBRANCH   4   5
ENDBRANCH   3   4
ENDBRANCH   2   3
ENDBRANCH   1   2
BRANCH   1  11
ATOM     11  C   UNL     1      48.910  46.260  41.078  1.00  0.00     0.000 C 
BRANCH  11  12
ATOM     12  C   UNL     1      48.487  47.615  41.672  1.00  0.00    -0.000 C 
BRANCH  12  13
ATOM     13  C   UNL     1      47.307  48.258  40.920  1.00  0.00    -0.000 C 
BRANCH  13  14
ATOM     14  C   UNL     1      45.912  47.786  41.366  1.00  0.00    -0.000 C 
BRANCH  14  15
ATOM     15  C   UNL     1      44.787  48.735  40.927  1.00  0.00    -0.000 C 
BRANCH  15  16
ATOM     16  C   UNL     1      43.757  48.923  42.050  1.00  0.00    -0.000 C 
BRANCH  16  17
ATOM     17  C   UNL     1      42.425  48.216  41.755  1.00  0.00    -0.003 C 
ATOM     18  C   UNL     1      42.583  46.706  41.581  1.00  0.00     0.004 C 
ENDBRANCH  16  17
ENDBRANCH  15  16
ENDBRANCH  14  15
ENDBRANCH  13  14
ENDBRANCH  12  13
ENDBRANCH  11  12
ENDBRANCH   1  11
TORSDOF 14
ENDMDL
MODEL 6
REMARK VINA RESULT:    -2.871     20.948     22.591
REMARK INTER + INTRA:          -6.315
REMARK INTER:                  -5.538
REMARK INTRA:                  -0.777
REMARK UNBOUND:                -1.094
REMARK SMILES CCCCCCCCCCCCCCCC(=O)[O-]
REMARK SMILES IDX 9 1 10 2 11 3 12 4 13 5 14 6 15 7 16 8 17 9 18 10 8 11 7 12
REMARK SMILES IDX 6 13 5 14 4 15 3 16 2 17 1 18
REMARK H PARENT
REMARK Flexibility Score: inf
ROOT
ATOM      1  C   UNL     1      44.420  63.190  56.780  1.00  0.00     0.000 C 
ENDROOT
BRANCH   1   2
ATOM      2  C   UNL     1      44.478  63.220  55.246  1.00  0.00     0.000 C 
BRANCH   2   3
ATOM      3  C   UNL     1      45.120  64.521  54.747  1.00  0.00     0.000 C 
BRANCH   3   4
ATOM      4  C   UNL     1      44.316  65.124  53.588  1.00  0.00     0.000 C 
BRANCH   4   5
ATOM      5  C   UNL     1      42.812  65.104  53.893  1.00  0.00     0.000 C 
BRANCH   5   6
ATOM      6  C   UNL     1      41.972  64.552  52.725  1.00  0.00     0.006 C 
BRANCH   6   7
ATOM      7  C   UNL     1      40.529  65.081  52.679  1.00  0.00     0.053 C 
BRANCH   7   8
ATOM      8  C   UNL     1      39.865  64.790  51.369  1.00  0.00     0.041 C 
ATOM      9  O   UNL     1      40.520  64.268  50.428  1.00  0.00    -0.550 OA
ATOM     10  O   UNL     1      38.531  65.124  51.176  1.00  0.00    -0.550 OA
ENDBRANCH   7   8
ENDBRANCH   6   7
ENDBRANCH   5   6
ENDBRANCH   4   5
ENDBRANCH   3   4
ENDBRANCH   2   3
ENDBRANCH   1   2
BRANCH   1  11
ATOM     11  C   UNL     1      45.548  64.005  57.432  1.00  0.00     0.000 C 
BRANCH  11  12
ATOM     12  C   UNL     1      45.467  64.004  58.968  1.00  0.00    -0.000 C 
BRANCH  12  13
ATOM     13  C   UNL     1      46.304  65.122  59.615  1.00  0.00    -0.000 C 
BRANCH  13  14
ATOM     14  C   UNL     1      46.997  64.741  60.935  1.00  0.00    -0.000 C 
BRANCH  14  15
ATOM     15  C   UNL     1      48.523  64.911  60.884  1.00  0.00    -0.000 C 
BRANCH  15  16
ATOM     16  C   UNL     1      49.219  63.563  60.645  1.00  0.00    -0.000 C 
BRANCH  16  17
ATOM     17  C   UNL     1      50.283  63.635  59.541  1.00  0.00    -0.003 C 
ATOM     18  C   UNL     1      50.924  65.018  59.426  1.00  0.00     0.004 C 
ENDBRANCH  16  17
ENDBRANCH  15  16
ENDBRANCH  14  15
ENDBRANCH  13  14
ENDBRANCH  12  13
ENDBRANCH  11  12
ENDBRANCH   1  11
TORSDOF 14
ENDMDL
MODEL 7
REMARK VINA RESULT:    -2.794     22.613     23.757
REMARK INTER + INTRA:          -6.174
REMARK INTER:                  -5.592
REMARK INTRA:                  -0.582
REMARK UNBOUND:                -1.094
REMARK SMILES CCCCCCCCCCCCCCCC(=O)[O-]
REMARK SMILES IDX 9 1 10 2 11 3 12 4 13 5 14 6 15 7 16 8 17 9 18 10 8 11 7 12
REMARK SMILES IDX 6 13 5 14 4 15 3 16 2 17 1 18
REMARK H PARENT
REMARK Flexibility Score: inf
ROOT
ATOM      1  C   UNL     1      44.134  64.465  56.267  1.00  0.00     0.000 C 
ENDROOT
BRANCH   1   2
ATOM      2  C   UNL     1      42.739  63.832  56.163  1.00  0.00     0.000 C 
BRANCH   2   3
ATOM      3  C   UNL     1      41.643  64.901  56.266  1.00  0.00     0.000 C 
BRANCH   3   4
ATOM      4  C   UNL     1      41.132  65.031  57.706  1.00  0.00     0.000 C 
BRANCH   4   5
ATOM      5  C   UNL     1      39.658  64.612  57.806  1.00  0.00     0.000 C 
BRANCH   5   6
ATOM      6  C   UNL     1      39.408  63.571  58.914  1.00  0.00     0.006 C 
BRANCH   6   7
ATOM      7  C   UNL     1      38.617  62.336  58.453  1.00  0.00     0.053 C 
BRANCH   7   8
ATOM      8  C   UNL     1      37.545  61.958  59.428  1.00  0.00     0.041 C 
ATOM      9  O   UNL     1      36.579  62.738  59.642  1.00  0.00    -0.550 OA
ATOM     10  O   UNL     1      37.629  60.760  60.125  1.00  0.00    -0.550 OA
ENDBRANCH   7   8
ENDBRANCH   6   7
ENDBRANCH   5   6
ENDBRANCH   4   5
ENDBRANCH   3   4
ENDBRANCH   2   3
ENDBRANCH   1   2
BRANCH   1  11
ATOM     11  C   UNL     1      45.137  63.572  57.016  1.00  0.00     0.000 C 
BRANCH  11  12
ATOM     12  C   UNL     1      45.939  64.344  58.077  1.00  0.00    -0.000 C 
BRANCH  12  13
ATOM     13  C   UNL     1      45.889  63.681  59.466  1.00  0.00    -0.000 C 
BRANCH  13  14
ATOM     14  C   UNL     1      46.974  64.148  60.453  1.00  0.00    -0.000 C 
BRANCH  14  15
ATOM     15  C   UNL     1      48.284  64.551  59.760  1.00  0.00    -0.000 C 
BRANCH  15  16
ATOM     16  C   UNL     1      49.446  63.657  60.218  1.00  0.00    -0.000 C 
BRANCH  16  17
ATOM     17  C   UNL     1      50.805  64.368  60.140  1.00  0.00    -0.003 C 
ATOM     18  C   UNL     1      51.722  63.776  59.070  1.00  0.00     0.004 C 
ENDBRANCH  16  17
ENDBRANCH  15  16
ENDBRANCH  14  15
ENDBRANCH  13  14
ENDBRANCH  12  13
ENDBRANCH  11  12
ENDBRANCH   1  11
TORSDOF 14
ENDMDL
MODEL 8
REMARK VINA RESULT:    -2.754      1.943      2.652
REMARK INTER + INTRA:          -6.102
REMARK INTER:                  -5.443
REMARK INTRA:                  -0.659
REMARK UNBOUND:                -1.094
REMARK SMILES CCCCCCCCCCCCCCCC(=O)[O-]
REMARK SMILES IDX 9 1 10 2 11 3 12 4 13 5 14 6 15 7 16 8 17 9 18 10 8 11 7 12
REMARK SMILES IDX 6 13 5 14 4 15 3 16 2 17 1 18
REMARK H PARENT
REMARK Flexibility Score: inf
ROOT
ATOM      1  C   UNL     1      47.273  46.660  42.213  1.00  0.00     0.000 C 
ENDROOT
BRANCH   1   2
ATOM      2  C   UNL     1      47.363  47.727  41.112  1.00  0.00     0.000 C 
BRANCH   2   3
ATOM      3  C   UNL     1      45.999  48.387  40.875  1.00  0.00     0.000 C 
BRANCH   3   4
ATOM      4  C   UNL     1      45.263  48.626  42.200  1.00  0.00     0.000 C 
BRANCH   4   5
ATOM      5  C   UNL     1      43.887  49.261  41.957  1.00  0.00     0.000 C 
BRANCH   5   6
ATOM      6  C   UNL     1      42.742  48.230  41.975  1.00  0.00     0.006 C 
BRANCH   6   7
ATOM      7  C   UNL     1      42.865  47.132  40.906  1.00  0.00     0.053 C 
BRANCH   7   8
ATOM      8  C   UNL     1      43.087  45.780  41.511  1.00  0.00     0.041 C 
ATOM      9  O   UNL     1      44.233  45.445  41.911  1.00  0.00    -0.550 OA
ATOM     10  O   UNL     1      42.035  44.877  41.602  1.00  0.00    -0.550 OA
ENDBRANCH   7   8
ENDBRANCH   6   7
ENDBRANCH   5   6
ENDBRANCH   4   5
ENDBRANCH   3   4
ENDBRANCH   2   3
ENDBRANCH   1   2
BRANCH   1  11
ATOM     11  C   UNL     1      48.377  45.596  42.101  1.00  0.00     0.000 C 
BRANCH  11  12
ATOM     12  C   UNL     1      48.870  45.109  43.474  1.00  0.00    -0.000 C 
BRANCH  12  13
ATOM     13  C   UNL     1      49.900  46.059  44.112  1.00  0.00    -0.000 C 
BRANCH  13  14
ATOM     14  C   UNL     1      50.751  45.441  45.237  1.00  0.00    -0.000 C 
BRANCH  14  15
ATOM     15  C   UNL     1      52.132  46.098  45.376  1.00  0.00    -0.000 C 
BRANCH  15  16
ATOM     16  C   UNL     1      52.753  46.369  43.998  1.00  0.00    -0.000 C 
BRANCH  16  17
ATOM     17  C   UNL     1      53.625  45.206  43.504  1.00  0.00    -0.003 C 
ATOM     18  C   UNL     1      54.701  45.652  42.514  1.00  0.00     0.004 C 
ENDBRANCH  16  17
ENDBRANCH  15  16
ENDBRANCH  14  15
ENDBRANCH  13  14
ENDBRANCH  12  13
ENDBRANCH  11  12
ENDBRANCH   1  11
TORSDOF 14
ENDMDL
MODEL 9
REMARK VINA RESULT:    -2.729     22.346     24.736
REMARK INTER + INTRA:          -6.056
REMARK INTER:                  -5.030
REMARK INTRA:                  -1.025
REMARK UNBOUND:                -1.094
REMARK SMILES CCCCCCCCCCCCCCCC(=O)[O-]
REMARK SMILES IDX 9 1 10 2 11 3 12 4 13 5 14 6 15 7 16 8 17 9 18 10 8 11 7 12
REMARK SMILES IDX 6 13 5 14 4 15 3 16 2 17 1 18
REMARK H PARENT
REMARK Flexibility Score: inf
ROOT
ATOM      1  C   UNL     1      43.114  63.380  55.874  1.00  0.00     0.000 C 
ENDROOT
BRANCH   1   2
ATOM      2  C   UNL     1      44.602  63.409  56.253  1.00  0.00     0.000 C 
BRANCH   2   3
ATOM      3  C   UNL     1      45.133  64.848  56.277  1.00  0.00     0.000 C 
BRANCH   3   4
ATOM      4  C   UNL     1      45.928  65.122  57.560  1.00  0.00     0.000 C 
BRANCH   4   5
ATOM      5  C   UNL     1      45.881  63.912  58.504  1.00  0.00     0.000 C 
BRANCH   5   6
ATOM      6  C   UNL     1      46.890  64.019  59.663  1.00  0.00     0.006 C 
BRANCH   6   7
ATOM      7  C   UNL     1      48.180  64.777  59.309  1.00  0.00     0.053 C 
BRANCH   7   8
ATOM      8  C   UNL     1      49.392  64.138  59.913  1.00  0.00     0.041 C 
ATOM      9  O   UNL     1      49.266  63.189  60.733  1.00  0.00    -0.550 OA
ATOM     10  O   UNL     1      50.659  64.611  59.597  1.00  0.00    -0.550 OA
ENDBRANCH   7   8
ENDBRANCH   6   7
ENDBRANCH   5   6
ENDBRANCH   4   5
ENDBRANCH   3   4
ENDBRANCH   2   3
ENDBRANCH   1   2
BRANCH   1  11
ATOM     11  C   UNL     1      42.589  64.752  55.423  1.00  0.00     0.000 C 
BRANCH  11  12
ATOM     12  C   UNL     1      41.236  65.108  56.062  1.00  0.00    -0.000 C 
BRANCH  12  13
ATOM     13  C   UNL     1      41.286  65.124  57.601  1.00  0.00    -0.000 C 
BRANCH  13  14
ATOM     14  C   UNL     1      39.939  64.874  58.302  1.00  0.00    -0.000 C 
BRANCH  14  15
ATOM     15  C   UNL     1      39.461  63.419  58.185  1.00  0.00    -0.000 C 
BRANCH  15  16
ATOM     16  C   UNL     1      37.986  63.291  58.593  1.00  0.00    -0.000 C 
BRANCH  16  17
ATOM     17  C   UNL     1      37.668  61.934  59.239  1.00  0.00    -0.003 C 
ATOM     18  C   UNL     1      38.870  60.991  59.257  1.00  0.00     0.004 C 
ENDBRANCH  16  17
ENDBRANCH  15  16
ENDBRANCH  14  15
ENDBRANCH  13  14
ENDBRANCH  12  13
ENDBRANCH  11  12
ENDBRANCH   1  11
TORSDOF 14
ENDMDL
