MODEL 1
REMARK VINA RESULT:    -3.064      0.000      0.000
REMARK INTER + INTRA:          -7.418
REMARK INTER:                  -6.646
REMARK INTRA:                  -0.772
REMARK UNBOUND:                -0.772
REMARK SMILES CCCCCCCCCCCCCCCCCCCCCC(=O)[O-]
REMARK SMILES IDX 12 1 11 2 10 3 9 4 8 5 7 6 6 7 5 8 4 9 3 10 2 11 1 12 13 13
REMARK SMILES IDX 14 14 15 15 16 16 17 17 18 18 19 19 20 20 21 21 22 22 23 23
REMARK SMILES IDX 24 24
REMARK H PARENT
REMARK Flexibility Score: inf
ROOT
ATOM      1  C   UNL     1    -117.591 -98.379  41.417  1.00  0.00     0.000 C 
ENDROOT
BRANCH   1   2
ATOM      2  C   UNL     1    -116.266 -99.040  41.007  1.00  0.00     0.000 C 
BRANCH   2   3
ATOM      3  C   UNL     1    -116.440-100.061  39.872  1.00  0.00     0.000 C 
BRANCH   3   4
ATOM      4  C   UNL     1    -117.315 -99.530  38.724  1.00  0.00    -0.000 C 
BRANCH   4   5
ATOM      5  C   UNL     1    -116.854-100.040  37.342  1.00  0.00    -0.000 C 
BRANCH   5   6
ATOM      6  C   UNL     1    -116.808 -98.948  36.256  1.00  0.00    -0.000 C 
BRANCH   6   7
ATOM      7  C   UNL     1    -115.416 -98.693  35.649  1.00  0.00    -0.000 C 
BRANCH   7   8
ATOM      8  C   UNL     1    -115.395 -98.485  34.120  1.00  0.00    -0.000 C 
BRANCH   8   9
ATOM      9  C   UNL     1    -116.146 -99.554  33.306  1.00  0.00    -0.000 C 
BRANCH   9  10
ATOM     10  C   UNL     1    -117.391 -99.002  32.597  1.00  0.00    -0.000 C 
BRANCH  10  11
ATOM     11  C   UNL     1    -117.263 -97.493  32.360  1.00  0.00    -0.003 C 
ATOM     12  C   UNL     1    -117.983 -97.072  31.081  1.00  0.00     0.004 C 
ENDBRANCH  10  11
ENDBRANCH   9  10
ENDBRANCH   8   9
ENDBRANCH   7   8
ENDBRANCH   6   7
ENDBRANCH   5   6
ENDBRANCH   4   5
ENDBRANCH   3   4
ENDBRANCH   2   3
ENDBRANCH   1   2
BRANCH   1  13
ATOM     13  C   UNL     1    -118.579 -99.423  41.960  1.00  0.00     0.000 C 
BRANCH  13  14
ATOM     14  C   UNL     1    -119.125 -99.060  43.352  1.00  0.00     0.000 C 
BRANCH  14  15
ATOM     15  C   UNL     1    -118.719-100.022  44.487  1.00  0.00     0.000 C 
BRANCH  15  16
ATOM     16  C   UNL     1    -117.629 -99.496  45.440  1.00  0.00     0.000 C 
BRANCH  16  17
ATOM     17  C   UNL     1    -118.150 -98.420  46.407  1.00  0.00     0.000 C 
BRANCH  17  18
ATOM     18  C   UNL     1    -117.834 -98.735  47.882  1.00  0.00     0.000 C 
BRANCH  18  19
ATOM     19  C   UNL     1    -117.605 -97.506  48.781  1.00  0.00     0.000 C 
BRANCH  19  20
ATOM     20  C   UNL     1    -118.896 -96.720  49.065  1.00  0.00     0.006 C 
BRANCH  20  21
ATOM     21  C   UNL     1    -118.720 -95.213  48.836  1.00  0.00     0.053 C 
BRANCH  21  22
ATOM     22  C   UNL     1    -118.474 -94.896  47.394  1.00  0.00     0.041 C 
ATOM     23  O   UNL     1    -117.658 -93.992  47.073  1.00  0.00    -0.550 OA
ATOM     24  O   UNL     1    -119.119 -95.624  46.402  1.00  0.00    -0.550 OA
ENDBRANCH  21  22
ENDBRANCH  20  21
ENDBRANCH  19  20
ENDBRANCH  18  19
ENDBRANCH  17  18
ENDBRANCH  16  17
ENDBRANCH  15  16
ENDBRANCH  14  15
ENDBRANCH  13  14
ENDBRANCH   1  13
TORSDOF 20
ENDMDL
MODEL 2
REMARK VINA RESULT:    -2.415      4.080     11.948
REMARK INTER + INTRA:          -6.010
REMARK INTER:                  -4.864
REMARK INTRA:                  -1.146
REMARK UNBOUND:                -0.772
REMARK SMILES CCCCCCCCCCCCCCCCCCCCCC(=O)[O-]
REMARK SMILES IDX 12 1 11 2 10 3 9 4 8 5 7 6 6 7 5 8 4 9 3 10 2 11 1 12 13 13
REMARK SMILES IDX 14 14 15 15 16 16 17 17 18 18 19 19 20 20 21 21 22 22 23 23
REMARK SMILES IDX 24 24
REMARK H PARENT
REMARK Flexibility Score: inf
ROOT
ATOM      1  C   UNL     1    -118.144 -98.550  43.069  1.00  0.00     0.000 C 
ENDROOT
BRANCH   1   2
ATOM      2  C   UNL     1    -119.125 -99.630  43.553  1.00  0.00     0.000 C 
BRANCH   2   3
ATOM      3  C   UNL     1    -119.062 -99.848  45.072  1.00  0.00     0.000 C 
BRANCH   3   4
ATOM      4  C   UNL     1    -118.130 -98.849  45.779  1.00  0.00    -0.000 C 
BRANCH   4   5
ATOM      5  C   UNL     1    -117.111 -99.544  46.707  1.00  0.00    -0.000 C 
BRANCH   5   6
ATOM      6  C   UNL     1    -117.474 -99.468  48.203  1.00  0.00    -0.000 C 
BRANCH   6   7
ATOM      7  C   UNL     1    -118.932 -99.068  48.497  1.00  0.00    -0.000 C 
BRANCH   7   8
ATOM      8  C   UNL     1    -119.114 -97.668  49.123  1.00  0.00    -0.000 C 
BRANCH   8   9
ATOM      9  C   UNL     1    -118.093 -96.611  48.666  1.00  0.00    -0.000 C 
BRANCH   9  10
ATOM     10  C   UNL     1    -118.485 -95.930  47.346  1.00  0.00    -0.000 C 
BRANCH  10  11
ATOM     11  C   UNL     1    -118.671 -94.422  47.543  1.00  0.00    -0.003 C 
ATOM     12  C   UNL     1    -118.619 -94.048  49.022  1.00  0.00     0.004 C 
ENDBRANCH  10  11
ENDBRANCH   9  10
ENDBRANCH   8   9
ENDBRANCH   7   8
ENDBRANCH   6   7
ENDBRANCH   5   6
ENDBRANCH   4   5
ENDBRANCH   3   4
ENDBRANCH   2   3
ENDBRANCH   1   2
BRANCH   1  13
ATOM     13  C   UNL     1    -118.505 -98.077  41.653  1.00  0.00     0.000 C 
BRANCH  13  14
ATOM     14  C   UNL     1    -118.339 -99.182  40.594  1.00  0.00     0.000 C 
BRANCH  14  15
ATOM     15  C   UNL     1    -117.140 -99.002  39.640  1.00  0.00     0.000 C 
BRANCH  15  16
ATOM     16  C   UNL     1    -116.964-100.111  38.586  1.00  0.00     0.000 C 
BRANCH  16  17
ATOM     17  C   UNL     1    -117.096 -99.591  37.145  1.00  0.00     0.000 C 
BRANCH  17  18
ATOM     18  C   UNL     1    -115.911 -98.705  36.716  1.00  0.00     0.000 C 
BRANCH  18  19
ATOM     19  C   UNL     1    -115.159 -99.178  35.458  1.00  0.00     0.000 C 
BRANCH  19  20
ATOM     20  C   UNL     1    -115.788 -98.663  34.152  1.00  0.00     0.006 C 
BRANCH  20  21
ATOM     21  C   UNL     1    -116.613 -99.744  33.441  1.00  0.00     0.053 C 
BRANCH  21  22
ATOM     22  C   UNL     1    -118.013 -99.286  33.171  1.00  0.00     0.041 C 
ATOM     23  O   UNL     1    -118.713 -99.865  32.299  1.00  0.00    -0.550 OA
ATOM     24  O   UNL     1    -118.556 -98.240  33.906  1.00  0.00    -0.550 OA
ENDBRANCH  21  22
ENDBRANCH  20  21
ENDBRANCH  19  20
ENDBRANCH  18  19
ENDBRANCH  17  18
ENDBRANCH  16  17
ENDBRANCH  15  16
ENDBRANCH  14  15
ENDBRANCH  13  14
ENDBRANCH   1  13
TORSDOF 20
ENDMDL
MODEL 3
REMARK VINA RESULT:    -2.210      1.994      5.169
REMARK INTER + INTRA:          -5.566
REMARK INTER:                  -4.881
REMARK INTRA:                  -0.685
REMARK UNBOUND:                -0.772
REMARK SMILES CCCCCCCCCCCCCCCCCCCCCC(=O)[O-]
REMARK SMILES IDX 12 1 11 2 10 3 9 4 8 5 7 6 6 7 5 8 4 9 3 10 2 11 1 12 13 13
REMARK SMILES IDX 14 14 15 15 16 16 17 17 18 18 19 19 20 20 21 21 22 22 23 23
REMARK SMILES IDX 24 24
REMARK H PARENT
REMARK Flexibility Score: inf
ROOT
ATOM      1  C   UNL     1    -115.960 -99.806  35.427  1.00  0.00     0.000 C 
ENDROOT
BRANCH   1   2
ATOM      2  C   UNL     1    -115.767 -98.291  35.260  1.00  0.00     0.000 C 
BRANCH   2   3
ATOM      3  C   UNL     1    -116.839 -97.652  34.363  1.00  0.00     0.000 C 
BRANCH   3   4
ATOM      4  C   UNL     1    -116.474 -97.708  32.869  1.00  0.00    -0.000 C 
BRANCH   4   5
ATOM      5  C   UNL     1    -116.294 -99.153  32.357  1.00  0.00    -0.000 C 
BRANCH   5   6
ATOM      6  C   UNL     1    -117.456-100.096  32.725  1.00  0.00    -0.000 C 
BRANCH   6   7
ATOM      7  C   UNL     1    -118.747 -99.883  31.915  1.00  0.00    -0.000 C 
BRANCH   7   8
ATOM      8  C   UNL     1    -118.543 -99.663  30.401  1.00  0.00    -0.000 C 
BRANCH   8   9
ATOM      9  C   UNL     1    -119.124 -98.348  29.849  1.00  0.00    -0.000 C 
BRANCH   9  10
ATOM     10  C   UNL     1    -118.985 -97.174  30.829  1.00  0.00    -0.000 C 
BRANCH  10  11
ATOM     11  C   UNL     1    -118.951 -95.837  30.080  1.00  0.00    -0.003 C 
ATOM     12  C   UNL     1    -118.988 -94.660  31.051  1.00  0.00     0.004 C 
ENDBRANCH  10  11
ENDBRANCH   9  10
ENDBRANCH   8   9
ENDBRANCH   7   8
ENDBRANCH   6   7
ENDBRANCH   5   6
ENDBRANCH   4   5
ENDBRANCH   3   4
ENDBRANCH   2   3
ENDBRANCH   1   2
BRANCH   1  13
ATOM     13  C   UNL     1    -116.668-100.125  36.752  1.00  0.00     0.000 C 
BRANCH  13  14
ATOM     14  C   UNL     1    -116.265 -99.170  37.889  1.00  0.00     0.000 C 
BRANCH  14  15
ATOM     15  C   UNL     1    -117.399 -98.797  38.867  1.00  0.00     0.000 C 
BRANCH  15  16
ATOM     16  C   UNL     1    -117.571 -99.744  40.069  1.00  0.00     0.000 C 
BRANCH  16  17
ATOM     17  C   UNL     1    -119.010 -99.764  40.612  1.00  0.00     0.000 C 
BRANCH  17  18
ATOM     18  C   UNL     1    -119.124 -99.174  42.030  1.00  0.00     0.000 C 
BRANCH  18  19
ATOM     19  C   UNL     1    -117.874 -98.430  42.536  1.00  0.00     0.000 C 
BRANCH  19  20
ATOM     20  C   UNL     1    -118.003 -97.962  43.995  1.00  0.00     0.006 C 
BRANCH  20  21
ATOM     21  C   UNL     1    -118.390 -99.107  44.940  1.00  0.00     0.053 C 
BRANCH  21  22
ATOM     22  C   UNL     1    -118.105 -98.768  46.370  1.00  0.00     0.041 C 
ATOM     23  O   UNL     1    -117.751 -97.602  46.687  1.00  0.00    -0.550 OA
ATOM     24  O   UNL     1    -118.263 -99.731  47.358  1.00  0.00    -0.550 OA
ENDBRANCH  21  22
ENDBRANCH  20  21
ENDBRANCH  19  20
ENDBRANCH  18  19
ENDBRANCH  17  18
ENDBRANCH  16  17
ENDBRANCH  15  16
ENDBRANCH  14  15
ENDBRANCH  13  14
ENDBRANCH   1  13
TORSDOF 20
ENDMDL
MODEL 4
REMARK VINA RESULT:    -2.165      3.966     11.696
REMARK INTER + INTRA:          -5.468
REMARK INTER:                  -4.356
REMARK INTRA:                  -1.112
REMARK UNBOUND:                -0.772
REMARK SMILES CCCCCCCCCCCCCCCCCCCCCC(=O)[O-]
REMARK SMILES IDX 12 1 11 2 10 3 9 4 8 5 7 6 6 7 5 8 4 9 3 10 2 11 1 12 13 13
REMARK SMILES IDX 14 14 15 15 16 16 17 17 18 18 19 19 20 20 21 21 22 22 23 23
REMARK SMILES IDX 24 24
REMARK H PARENT
REMARK Flexibility Score: inf
ROOT
ATOM      1  C   UNL     1    -117.069 -99.899  36.390  1.00  0.00     0.000 C 
ENDROOT
BRANCH   1   2
ATOM      2  C   UNL     1    -116.572 -99.299  37.714  1.00  0.00     0.000 C 
BRANCH   2   3
ATOM      3  C   UNL     1    -117.226 -99.950  38.942  1.00  0.00     0.000 C 
BRANCH   3   4
ATOM      4  C   UNL     1    -117.939 -98.930  39.847  1.00  0.00    -0.000 C 
BRANCH   4   5
ATOM      5  C   UNL     1    -118.932 -99.597  40.823  1.00  0.00    -0.000 C 
BRANCH   5   6
ATOM      6  C   UNL     1    -119.030 -98.895  42.191  1.00  0.00    -0.000 C 
BRANCH   6   7
ATOM      7  C   UNL     1    -117.679 -98.593  42.865  1.00  0.00    -0.000 C 
BRANCH   7   8
ATOM      8  C   UNL     1    -117.383 -99.413  44.139  1.00  0.00    -0.000 C 
BRANCH   8   9
ATOM      9  C   UNL     1    -118.460 -99.323  45.236  1.00  0.00    -0.000 C 
BRANCH   9  10
ATOM     10  C   UNL     1    -117.881 -98.987  46.618  1.00  0.00    -0.000 C 
BRANCH  10  11
ATOM     11  C   UNL     1    -118.203 -97.541  47.010  1.00  0.00    -0.003 C 
ATOM     12  C   UNL     1    -118.600 -96.714  45.790  1.00  0.00     0.004 C 
ENDBRANCH  10  11
ENDBRANCH   9  10
ENDBRANCH   8   9
ENDBRANCH   7   8
ENDBRANCH   6   7
ENDBRANCH   5   6
ENDBRANCH   4   5
ENDBRANCH   3   4
ENDBRANCH   2   3
ENDBRANCH   1   2
BRANCH   1  13
ATOM     13  C   UNL     1    -118.598 -99.802  36.284  1.00  0.00     0.000 C 
BRANCH  13  14
ATOM     14  C   UNL     1    -119.121-100.123  34.873  1.00  0.00     0.000 C 
BRANCH  14  15
ATOM     15  C   UNL     1    -118.076-100.007  33.744  1.00  0.00     0.000 C 
BRANCH  15  16
ATOM     16  C   UNL     1    -118.634-100.124  32.314  1.00  0.00     0.000 C 
BRANCH  16  17
ATOM     17  C   UNL     1    -118.029 -99.089  31.351  1.00  0.00     0.000 C 
BRANCH  17  18
ATOM     18  C   UNL     1    -118.788 -97.749  31.355  1.00  0.00     0.000 C 
BRANCH  18  19
ATOM     19  C   UNL     1    -118.004 -96.551  31.924  1.00  0.00     0.000 C 
BRANCH  19  20
ATOM     20  C   UNL     1    -116.581 -96.923  32.373  1.00  0.00     0.006 C 
BRANCH  20  21
ATOM     21  C   UNL     1    -116.461 -97.019  33.900  1.00  0.00     0.053 C 
BRANCH  21  22
ATOM     22  C   UNL     1    -115.364 -97.950  34.313  1.00  0.00     0.041 C 
ATOM     23  O   UNL     1    -115.058 -98.932  33.588  1.00  0.00    -0.550 OA
ATOM     24  O   UNL     1    -114.656 -97.713  35.485  1.00  0.00    -0.550 OA
ENDBRANCH  21  22
ENDBRANCH  20  21
ENDBRANCH  19  20
ENDBRANCH  18  19
ENDBRANCH  17  18
ENDBRANCH  16  17
ENDBRANCH  15  16
ENDBRANCH  14  15
ENDBRANCH  13  14
ENDBRANCH   1  13
TORSDOF 20
ENDMDL
