MODEL 1
REMARK VINA RESULT:    -1.137      0.000      0.000
REMARK INTER + INTRA:          -5.585
REMARK INTER:                  -2.201
REMARK INTRA:                  -3.383
REMARK UNBOUND:                -3.383
REMARK SMILES CCCCCCCCCCCCCCCCCC(=O)[O-]
REMARK SMILES IDX 10 1 11 2 12 3 13 4 14 5 15 6 16 7 17 8 18 9 19 10 20 11
REMARK SMILES IDX 9 12 8 13 7 14 6 15 5 16 4 17 3 18 2 19 1 20
REMARK H PARENT
REMARK Flexibility Score: inf
ROOT
ATOM      1  C   UNL     1     140.912  53.318  -9.397  1.00  0.00     0.000 C 
ENDROOT
BRANCH   1   2
ATOM      2  C   UNL     1     142.385  53.614  -9.071  1.00  0.00     0.000 C 
BRANCH   2   3
ATOM      3  C   UNL     1     142.887  54.907  -9.732  1.00  0.00     0.000 C 
BRANCH   3   4
ATOM      4  C   UNL     1     143.469  55.906  -8.720  1.00  0.00     0.000 C 
BRANCH   4   5
ATOM      5  C   UNL     1     142.538  57.115  -8.543  1.00  0.00     0.000 C 
BRANCH   5   6
ATOM      6  C   UNL     1     141.791  57.107  -7.197  1.00  0.00     0.000 C 
BRANCH   6   7
ATOM      7  C   UNL     1     142.462  56.278  -6.088  1.00  0.00     0.006 C 
BRANCH   7   8
ATOM      8  C   UNL     1     141.497  55.298  -5.406  1.00  0.00     0.053 C 
BRANCH   8   9
ATOM      9  C   UNL     1     142.050  53.909  -5.443  1.00  0.00     0.041 C 
ATOM     10  O   UNL     1     141.284  52.926  -5.619  1.00  0.00    -0.550 OA
ATOM     11  O   UNL     1     143.420  53.703  -5.332  1.00  0.00    -0.550 OA
ENDBRANCH   8   9
ENDBRANCH   7   8
ENDBRANCH   6   7
ENDBRANCH   5   6
ENDBRANCH   4   5
ENDBRANCH   3   4
ENDBRANCH   2   3
ENDBRANCH   1   2
BRANCH   1  12
ATOM     12  C   UNL     1     139.936  54.226  -8.625  1.00  0.00     0.000 C 
BRANCH  12  13
ATOM     13  C   UNL     1     138.883  54.949  -9.490  1.00  0.00    -0.000 C 
BRANCH  13  14
ATOM     14  C   UNL     1     139.030  56.479  -9.568  1.00  0.00    -0.000 C 
BRANCH  14  15
ATOM     15  C   UNL     1     139.134  56.995 -11.013  1.00  0.00    -0.000 C 
BRANCH  15  16
ATOM     16  C   UNL     1     140.531  56.780 -11.625  1.00  0.00    -0.000 C 
BRANCH  16  17
ATOM     17  C   UNL     1     140.546  56.059 -12.988  1.00  0.00    -0.000 C 
BRANCH  17  18
ATOM     18  C   UNL     1     140.536  54.519 -12.916  1.00  0.00    -0.000 C 
BRANCH  18  19
ATOM     19  C   UNL     1     139.154  53.871 -13.115  1.00  0.00    -0.003 C 
ATOM     20  C   UNL     1     139.036  52.502 -12.448  1.00  0.00     0.004 C 
ENDBRANCH  18  19
ENDBRANCH  17  18
ENDBRANCH  16  17
ENDBRANCH  15  16
ENDBRANCH  14  15
ENDBRANCH  13  14
ENDBRANCH  12  13
ENDBRANCH   1  12
TORSDOF 16
ENDMDL
MODEL 2
REMARK VINA RESULT:    -1.114     14.855     16.456
REMARK INTER + INTRA:          -5.539
REMARK INTER:                  -2.568
REMARK INTRA:                  -2.971
REMARK UNBOUND:                -3.383
REMARK SMILES CCCCCCCCCCCCCCCCCC(=O)[O-]
REMARK SMILES IDX 10 1 11 2 12 3 13 4 14 5 15 6 16 7 17 8 18 9 19 10 20 11
REMARK SMILES IDX 9 12 8 13 7 14 6 15 5 16 4 17 3 18 2 19 1 20
REMARK H PARENT
REMARK Flexibility Score: inf
ROOT
ATOM      1  C   UNL     1     144.720  37.626 -10.230  1.00  0.00     0.000 C 
ENDROOT
BRANCH   1   2
ATOM      2  C   UNL     1     146.009  36.908  -9.796  1.00  0.00     0.000 C 
BRANCH   2   3
ATOM      3  C   UNL     1     147.258  37.470 -10.493  1.00  0.00     0.000 C 
BRANCH   3   4
ATOM      4  C   UNL     1     148.125  38.331  -9.560  1.00  0.00     0.000 C 
BRANCH   4   5
ATOM      5  C   UNL     1     147.798  39.822  -9.728  1.00  0.00     0.000 C 
BRANCH   5   6
ATOM      6  C   UNL     1     147.341  40.490  -8.418  1.00  0.00     0.000 C 
BRANCH   6   7
ATOM      7  C   UNL     1     147.081  39.519  -7.252  1.00  0.00     0.006 C 
BRANCH   7   8
ATOM      8  C   UNL     1     146.086  40.072  -6.223  1.00  0.00     0.053 C 
BRANCH   8   9
ATOM      9  C   UNL     1     146.764  40.295  -4.908  1.00  0.00     0.041 C 
ATOM     10  O   UNL     1     146.582  39.491  -3.957  1.00  0.00    -0.550 OA
ATOM     11  O   UNL     1     147.636  41.364  -4.748  1.00  0.00    -0.550 OA
ENDBRANCH   8   9
ENDBRANCH   7   8
ENDBRANCH   6   7
ENDBRANCH   5   6
ENDBRANCH   4   5
ENDBRANCH   3   4
ENDBRANCH   2   3
ENDBRANCH   1   2
BRANCH   1  12
ATOM     12  C   UNL     1     144.104  38.478  -9.104  1.00  0.00     0.000 C 
BRANCH  12  13
ATOM     13  C   UNL     1     143.739  39.924  -9.496  1.00  0.00    -0.000 C 
BRANCH  13  14
ATOM     14  C   UNL     1     144.349  40.423 -10.819  1.00  0.00    -0.000 C 
BRANCH  14  15
ATOM     15  C   UNL     1     143.296  40.626 -11.921  1.00  0.00    -0.000 C 
BRANCH  15  16
ATOM     16  C   UNL     1     141.857  40.655 -11.374  1.00  0.00    -0.000 C 
BRANCH  16  17
ATOM     17  C   UNL     1     140.936  39.530 -11.890  1.00  0.00    -0.000 C 
BRANCH  17  18
ATOM     18  C   UNL     1     141.662  38.329 -12.529  1.00  0.00    -0.000 C 
BRANCH  18  19
ATOM     19  C   UNL     1     141.451  36.987 -11.806  1.00  0.00    -0.003 C 
ATOM     20  C   UNL     1     140.834  37.150 -10.418  1.00  0.00     0.004 C 
ENDBRANCH  18  19
ENDBRANCH  17  18
ENDBRANCH  16  17
ENDBRANCH  15  16
ENDBRANCH  14  15
ENDBRANCH  13  14
ENDBRANCH  12  13
ENDBRANCH   1  12
TORSDOF 16
ENDMDL
MODEL 3
REMARK VINA RESULT:    -1.072     15.062     17.510
REMARK INTER + INTRA:          -5.458
REMARK INTER:                  -2.146
REMARK INTRA:                  -3.313
REMARK UNBOUND:                -3.383
REMARK SMILES CCCCCCCCCCCCCCCCCC(=O)[O-]
REMARK SMILES IDX 10 1 11 2 12 3 13 4 14 5 15 6 16 7 17 8 18 9 19 10 20 11
REMARK SMILES IDX 9 12 8 13 7 14 6 15 5 16 4 17 3 18 2 19 1 20
REMARK H PARENT
REMARK Flexibility Score: inf
ROOT
ATOM      1  C   UNL     1     144.513  40.638  -8.190  1.00  0.00     0.000 C 
ENDROOT
BRANCH   1   2
ATOM      2  C   UNL     1     143.730  39.429  -8.729  1.00  0.00     0.000 C 
BRANCH   2   3
ATOM      3  C   UNL     1     144.273  38.929 -10.077  1.00  0.00     0.000 C 
BRANCH   3   4
ATOM      4  C   UNL     1     144.466  37.404 -10.112  1.00  0.00     0.000 C 
BRANCH   4   5
ATOM      5  C   UNL     1     145.049  36.956 -11.460  1.00  0.00     0.000 C 
BRANCH   5   6
ATOM      6  C   UNL     1     144.964  38.045 -12.545  1.00  0.00     0.000 C 
BRANCH   6   7
ATOM      7  C   UNL     1     143.878  37.816 -13.611  1.00  0.00     0.006 C 
BRANCH   7   8
ATOM      8  C   UNL     1     142.767  38.874 -13.572  1.00  0.00     0.053 C 
BRANCH   8   9
ATOM      9  C   UNL     1     141.685  38.460 -12.626  1.00  0.00     0.041 C 
ATOM     10  O   UNL     1     140.851  39.306 -12.208  1.00  0.00    -0.550 OA
ATOM     11  O   UNL     1     141.566  37.130 -12.244  1.00  0.00    -0.550 OA
ENDBRANCH   8   9
ENDBRANCH   7   8
ENDBRANCH   6   7
ENDBRANCH   5   6
ENDBRANCH   4   5
ENDBRANCH   3   4
ENDBRANCH   2   3
ENDBRANCH   1   2
BRANCH   1  12
ATOM     12  C   UNL     1     145.518  40.254  -7.087  1.00  0.00     0.000 C 
BRANCH  12  13
ATOM     13  C   UNL     1     145.626  38.744  -6.792  1.00  0.00    -0.000 C 
BRANCH  13  14
ATOM     14  C   UNL     1     146.952  38.082  -7.210  1.00  0.00    -0.000 C 
BRANCH  14  15
ATOM     15  C   UNL     1     147.746  38.927  -8.220  1.00  0.00    -0.000 C 
BRANCH  15  16
ATOM     16  C   UNL     1     148.019  38.181  -9.539  1.00  0.00    -0.000 C 
BRANCH  16  17
ATOM     17  C   UNL     1     148.057  39.068 -10.800  1.00  0.00    -0.000 C 
BRANCH  17  18
ATOM     18  C   UNL     1     147.590  40.523 -10.592  1.00  0.00    -0.000 C 
BRANCH  18  19
ATOM     19  C   UNL     1     146.892  41.157 -11.809  1.00  0.00    -0.003 C 
ATOM     20  C   UNL     1     145.696  42.026 -11.422  1.00  0.00     0.004 C 
ENDBRANCH  18  19
ENDBRANCH  17  18
ENDBRANCH  16  17
ENDBRANCH  15  16
ENDBRANCH  14  15
ENDBRANCH  13  14
ENDBRANCH  12  13
ENDBRANCH   1  12
TORSDOF 16
ENDMDL
MODEL 4
REMARK VINA RESULT:    -0.973     14.672     16.700
REMARK INTER + INTRA:          -5.267
REMARK INTER:                  -2.244
REMARK INTRA:                  -3.023
REMARK UNBOUND:                -3.383
REMARK SMILES CCCCCCCCCCCCCCCCCC(=O)[O-]
REMARK SMILES IDX 10 1 11 2 12 3 13 4 14 5 15 6 16 7 17 8 18 9 19 10 20 11
REMARK SMILES IDX 9 12 8 13 7 14 6 15 5 16 4 17 3 18 2 19 1 20
REMARK H PARENT
REMARK Flexibility Score: inf
ROOT
ATOM      1  C   UNL     1     142.979  36.875 -10.615  1.00  0.00     0.000 C 
ENDROOT
BRANCH   1   2
ATOM      2  C   UNL     1     143.761  37.756  -9.627  1.00  0.00     0.000 C 
BRANCH   2   3
ATOM      3  C   UNL     1     144.533  38.885 -10.328  1.00  0.00     0.000 C 
BRANCH   3   4
ATOM      4  C   UNL     1     145.761  38.377 -11.100  1.00  0.00     0.000 C 
BRANCH   4   5
ATOM      5  C   UNL     1     146.602  37.430 -10.232  1.00  0.00     0.000 C 
BRANCH   5   6
ATOM      6  C   UNL     1     147.901  38.078  -9.719  1.00  0.00     0.000 C 
BRANCH   6   7
ATOM      7  C   UNL     1     147.752  38.895  -8.423  1.00  0.00     0.006 C 
BRANCH   7   8
ATOM      8  C   UNL     1     146.992  38.140  -7.324  1.00  0.00     0.053 C 
BRANCH   8   9
ATOM      9  C   UNL     1     145.854  38.966  -6.814  1.00  0.00     0.041 C 
ATOM     10  O   UNL     1     144.990  38.454  -6.056  1.00  0.00    -0.550 OA
ATOM     11  O   UNL     1     145.775  40.315  -7.136  1.00  0.00    -0.550 OA
ENDBRANCH   8   9
ENDBRANCH   7   8
ENDBRANCH   6   7
ENDBRANCH   5   6
ENDBRANCH   4   5
ENDBRANCH   3   4
ENDBRANCH   2   3
ENDBRANCH   1   2
BRANCH   1  12
ATOM     12  C   UNL     1     141.605  37.467 -10.983  1.00  0.00     0.000 C 
BRANCH  12  13
ATOM     13  C   UNL     1     141.420  37.825 -12.472  1.00  0.00    -0.000 C 
BRANCH  13  14
ATOM     14  C   UNL     1     142.617  37.497 -13.384  1.00  0.00    -0.000 C 
BRANCH  14  15
ATOM     15  C   UNL     1     143.332  38.756 -13.903  1.00  0.00    -0.000 C 
BRANCH  15  16
ATOM     16  C   UNL     1     142.525  40.044 -13.659  1.00  0.00    -0.000 C 
BRANCH  16  17
ATOM     17  C   UNL     1     143.343  41.241 -13.132  1.00  0.00    -0.000 C 
BRANCH  17  18
ATOM     18  C   UNL     1     142.918  41.766 -11.746  1.00  0.00    -0.000 C 
BRANCH  18  19
ATOM     19  C   UNL     1     141.532  41.293 -11.272  1.00  0.00    -0.003 C 
ATOM     20  C   UNL     1     141.487  40.988  -9.776  1.00  0.00     0.004 C 
ENDBRANCH  18  19
ENDBRANCH  17  18
ENDBRANCH  16  17
ENDBRANCH  15  16
ENDBRANCH  14  15
ENDBRANCH  13  14
ENDBRANCH  12  13
ENDBRANCH   1  12
TORSDOF 16
ENDMDL
MODEL 5
REMARK VINA RESULT:    -0.972      9.269     11.209
REMARK INTER + INTRA:          -5.265
REMARK INTER:                  -2.222
REMARK INTRA:                  -3.043
REMARK UNBOUND:                -3.383
REMARK SMILES CCCCCCCCCCCCCCCCCC(=O)[O-]
REMARK SMILES IDX 10 1 11 2 12 3 13 4 14 5 15 6 16 7 17 8 18 9 19 10 20 11
REMARK SMILES IDX 9 12 8 13 7 14 6 15 5 16 4 17 3 18 2 19 1 20
REMARK H PARENT
REMARK Flexibility Score: inf
ROOT
ATOM      1  C   UNL     1     131.944  53.328  -8.205  1.00  0.00     0.000 C 
ENDROOT
BRANCH   1   2
ATOM      2  C   UNL     1     130.742  52.954  -9.088  1.00  0.00     0.000 C 
BRANCH   2   3
ATOM      3  C   UNL     1     129.440  52.815  -8.283  1.00  0.00     0.000 C 
BRANCH   3   4
ATOM      4  C   UNL     1     128.343  53.784  -8.753  1.00  0.00     0.000 C 
BRANCH   4   5
ATOM      5  C   UNL     1     128.956  55.049  -9.372  1.00  0.00     0.000 C 
BRANCH   5   6
ATOM      6  C   UNL     1     128.592  56.332  -8.604  1.00  0.00     0.000 C 
BRANCH   6   7
ATOM      7  C   UNL     1     129.730  56.922  -7.751  1.00  0.00     0.006 C 
BRANCH   7   8
ATOM      8  C   UNL     1     130.049  56.077  -6.511  1.00  0.00     0.053 C 
BRANCH   8   9
ATOM      9  C   UNL     1     128.878  56.053  -5.580  1.00  0.00     0.041 C 
ATOM     10  O   UNL     1     128.433  57.125  -5.093  1.00  0.00    -0.550 OA
ATOM     11  O   UNL     1     128.245  54.850  -5.290  1.00  0.00    -0.550 OA
ENDBRANCH   8   9
ENDBRANCH   7   8
ENDBRANCH   6   7
ENDBRANCH   5   6
ENDBRANCH   4   5
ENDBRANCH   3   4
ENDBRANCH   2   3
ENDBRANCH   1   2
BRANCH   1  12
ATOM     12  C   UNL     1     133.031  54.103  -8.973  1.00  0.00     0.000 C 
BRANCH  12  13
ATOM     13  C   UNL     1     133.058  55.625  -8.720  1.00  0.00    -0.000 C 
BRANCH  13  14
ATOM     14  C   UNL     1     133.182  56.501  -9.980  1.00  0.00    -0.000 C 
BRANCH  14  15
ATOM     15  C   UNL     1     131.855  56.635 -10.745  1.00  0.00    -0.000 C 
BRANCH  15  16
ATOM     16  C   UNL     1     131.913  56.017 -12.154  1.00  0.00    -0.000 C 
BRANCH  16  17
ATOM     17  C   UNL     1     131.447  54.550 -12.247  1.00  0.00    -0.000 C 
BRANCH  17  18
ATOM     18  C   UNL     1     129.988  54.354 -12.707  1.00  0.00    -0.000 C 
BRANCH  18  19
ATOM     19  C   UNL     1     129.464  52.911 -12.595  1.00  0.00    -0.003 C 
ATOM     20  C   UNL     1     130.192  51.940 -13.523  1.00  0.00     0.004 C 
ENDBRANCH  18  19
ENDBRANCH  17  18
ENDBRANCH  16  17
ENDBRANCH  15  16
ENDBRANCH  14  15
ENDBRANCH  13  14
ENDBRANCH  12  13
ENDBRANCH   1  12
TORSDOF 16
ENDMDL
MODEL 6
REMARK VINA RESULT:    -0.944     14.788     16.818
REMARK INTER + INTRA:          -5.210
REMARK INTER:                  -2.263
REMARK INTRA:                  -2.947
REMARK UNBOUND:                -3.383
REMARK SMILES CCCCCCCCCCCCCCCCCC(=O)[O-]
REMARK SMILES IDX 10 1 11 2 12 3 13 4 14 5 15 6 16 7 17 8 18 9 19 10 20 11
REMARK SMILES IDX 9 12 8 13 7 14 6 15 5 16 4 17 3 18 2 19 1 20
REMARK H PARENT
REMARK Flexibility Score: inf
ROOT
ATOM      1  C   UNL     1     144.331  40.220  -9.938  1.00  0.00     0.000 C 
ENDROOT
BRANCH   1   2
ATOM      2  C   UNL     1     143.046  39.706  -9.268  1.00  0.00     0.000 C 
BRANCH   2   3
ATOM      3  C   UNL     1     143.274  38.412  -8.471  1.00  0.00     0.000 C 
BRANCH   3   4
ATOM      4  C   UNL     1     144.433  37.568  -9.024  1.00  0.00     0.000 C 
BRANCH   4   5
ATOM      5  C   UNL     1     145.501  37.328  -7.947  1.00  0.00     0.000 C 
BRANCH   5   6
ATOM      6  C   UNL     1     146.857  37.972  -8.289  1.00  0.00     0.000 C 
BRANCH   6   7
ATOM      7  C   UNL     1     147.087  39.365  -7.675  1.00  0.00     0.006 C 
BRANCH   7   8
ATOM      8  C   UNL     1     147.787  40.335  -8.635  1.00  0.00     0.053 C 
BRANCH   8   9
ATOM      9  C   UNL     1     147.557  41.750  -8.208  1.00  0.00     0.041 C 
ATOM     10  O   UNL     1     146.835  42.512  -8.902  1.00  0.00    -0.550 OA
ATOM     11  O   UNL     1     148.100  42.213  -7.016  1.00  0.00    -0.550 OA
ENDBRANCH   8   9
ENDBRANCH   7   8
ENDBRANCH   6   7
ENDBRANCH   5   6
ENDBRANCH   4   5
ENDBRANCH   3   4
ENDBRANCH   2   3
ENDBRANCH   1   2
BRANCH   1  12
ATOM     12  C   UNL     1     144.118  40.617 -11.411  1.00  0.00     0.000 C 
BRANCH  12  13
ATOM     13  C   UNL     1     145.143  40.033 -12.405  1.00  0.00    -0.000 C 
BRANCH  13  14
ATOM     14  C   UNL     1     145.946  38.824 -11.892  1.00  0.00    -0.000 C 
BRANCH  14  15
ATOM     15  C   UNL     1     145.734  37.563 -12.745  1.00  0.00    -0.000 C 
BRANCH  15  16
ATOM     16  C   UNL     1     144.624  37.734 -13.799  1.00  0.00    -0.000 C 
BRANCH  16  17
ATOM     17  C   UNL     1     143.364  36.875 -13.570  1.00  0.00    -0.000 C 
BRANCH  17  18
ATOM     18  C   UNL     1     142.734  36.994 -12.168  1.00  0.00    -0.000 C 
BRANCH  18  19
ATOM     19  C   UNL     1     141.469  37.868 -12.099  1.00  0.00    -0.003 C 
ATOM     20  C   UNL     1     141.343  38.824 -13.284  1.00  0.00     0.004 C 
ENDBRANCH  18  19
ENDBRANCH  17  18
ENDBRANCH  16  17
ENDBRANCH  15  16
ENDBRANCH  14  15
ENDBRANCH  13  14
ENDBRANCH  12  13
ENDBRANCH   1  12
TORSDOF 16
ENDMDL
MODEL 7
REMARK VINA RESULT:    -0.924      9.202     11.397
REMARK INTER + INTRA:          -5.171
REMARK INTER:                  -1.943
REMARK INTRA:                  -3.228
REMARK UNBOUND:                -3.383
REMARK SMILES CCCCCCCCCCCCCCCCCC(=O)[O-]
REMARK SMILES IDX 10 1 11 2 12 3 13 4 14 5 15 6 16 7 17 8 18 9 19 10 20 11
REMARK SMILES IDX 9 12 8 13 7 14 6 15 5 16 4 17 3 18 2 19 1 20
REMARK H PARENT
REMARK Flexibility Score: inf
ROOT
ATOM      1  C   UNL     1     131.993  55.500 -10.957  1.00  0.00     0.000 C 
ENDROOT
BRANCH   1   2
ATOM      2  C   UNL     1     130.571  56.059 -10.788  1.00  0.00     0.000 C 
BRANCH   2   3
ATOM      3  C   UNL     1     129.507  54.952 -10.717  1.00  0.00     0.000 C 
BRANCH   3   4
ATOM      4  C   UNL     1     128.589  55.085  -9.491  1.00  0.00     0.000 C 
BRANCH   4   5
ATOM      5  C   UNL     1     128.964  56.319  -8.657  1.00  0.00     0.000 C 
BRANCH   5   6
ATOM      6  C   UNL     1     128.444  56.247  -7.210  1.00  0.00     0.000 C 
BRANCH   6   7
ATOM      7  C   UNL     1     127.885  54.876  -6.789  1.00  0.00     0.006 C 
BRANCH   7   8
ATOM      8  C   UNL     1     128.270  54.488  -5.355  1.00  0.00     0.053 C 
BRANCH   8   9
ATOM      9  C   UNL     1     128.584  53.027  -5.276  1.00  0.00     0.041 C 
ATOM     10  O   UNL     1     127.876  52.193  -5.898  1.00  0.00    -0.550 OA
ATOM     11  O   UNL     1     129.689  52.592  -4.555  1.00  0.00    -0.550 OA
ENDBRANCH   8   9
ENDBRANCH   7   8
ENDBRANCH   6   7
ENDBRANCH   5   6
ENDBRANCH   4   5
ENDBRANCH   3   4
ENDBRANCH   2   3
ENDBRANCH   1   2
BRANCH   1  12
ATOM     12  C   UNL     1     132.994  56.106  -9.955  1.00  0.00     0.000 C 
BRANCH  12  13
ATOM     13  C   UNL     1     133.292  55.239  -8.715  1.00  0.00    -0.000 C 
BRANCH  13  14
ATOM     14  C   UNL     1     132.607  55.692  -7.413  1.00  0.00    -0.000 C 
BRANCH  14  15
ATOM     15  C   UNL     1     131.795  54.570  -6.745  1.00  0.00    -0.000 C 
BRANCH  15  16
ATOM     16  C   UNL     1     131.272  53.530  -7.754  1.00  0.00    -0.000 C 
BRANCH  16  17
ATOM     17  C   UNL     1     131.764  52.086  -7.522  1.00  0.00    -0.000 C 
BRANCH  17  18
ATOM     18  C   UNL     1     132.192  51.327  -8.794  1.00  0.00    -0.000 C 
BRANCH  18  19
ATOM     19  C   UNL     1     131.638  51.905 -10.109  1.00  0.00    -0.003 C 
ATOM     20  C   UNL     1     132.660  51.886 -11.244  1.00  0.00     0.004 C 
ENDBRANCH  18  19
ENDBRANCH  17  18
ENDBRANCH  16  17
ENDBRANCH  15  16
ENDBRANCH  14  15
ENDBRANCH  13  14
ENDBRANCH  12  13
ENDBRANCH   1  12
TORSDOF 16
ENDMDL
MODEL 8
REMARK VINA RESULT:    -0.913      1.728      3.129
REMARK INTER + INTRA:          -5.151
REMARK INTER:                  -2.110
REMARK INTRA:                  -3.041
REMARK UNBOUND:                -3.383
REMARK SMILES CCCCCCCCCCCCCCCCCC(=O)[O-]
REMARK SMILES IDX 10 1 11 2 12 3 13 4 14 5 15 6 16 7 17 8 18 9 19 10 20 11
REMARK SMILES IDX 9 12 8 13 7 14 6 15 5 16 4 17 3 18 2 19 1 20
REMARK H PARENT
REMARK Flexibility Score: inf
ROOT
ATOM      1  C   UNL     1     141.269  52.271 -10.437  1.00  0.00     0.000 C 
ENDROOT
BRANCH   1   2
ATOM      2  C   UNL     1     141.130  53.588  -9.656  1.00  0.00     0.000 C 
BRANCH   2   3
ATOM      3  C   UNL     1     142.389  54.465  -9.752  1.00  0.00     0.000 C 
BRANCH   3   4
ATOM      4  C   UNL     1     142.433  55.563  -8.677  1.00  0.00     0.000 C 
BRANCH   4   5
ATOM      5  C   UNL     1     142.372  54.955  -7.268  1.00  0.00     0.000 C 
BRANCH   5   6
ATOM      6  C   UNL     1     141.219  55.519  -6.419  1.00  0.00     0.000 C 
BRANCH   6   7
ATOM      7  C   UNL     1     140.532  54.496  -5.496  1.00  0.00     0.006 C 
BRANCH   7   8
ATOM      8  C   UNL     1     140.573  53.067  -6.052  1.00  0.00     0.053 C 
BRANCH   8   9
ATOM      9  C   UNL     1     139.186  52.564  -6.304  1.00  0.00     0.041 C 
ATOM     10  O   UNL     1     138.272  52.782  -5.467  1.00  0.00    -0.550 OA
ATOM     11  O   UNL     1     138.893  51.898  -7.487  1.00  0.00    -0.550 OA
ENDBRANCH   8   9
ENDBRANCH   7   8
ENDBRANCH   6   7
ENDBRANCH   5   6
ENDBRANCH   4   5
ENDBRANCH   3   4
ENDBRANCH   2   3
ENDBRANCH   1   2
BRANCH   1  12
ATOM     12  C   UNL     1     140.131  52.057 -11.453  1.00  0.00     0.000 C 
BRANCH  12  13
ATOM     13  C   UNL     1     139.215  53.277 -11.683  1.00  0.00    -0.000 C 
BRANCH  13  14
ATOM     14  C   UNL     1     139.384  53.983 -13.040  1.00  0.00    -0.000 C 
BRANCH  14  15
ATOM     15  C   UNL     1     140.452  55.089 -13.007  1.00  0.00    -0.000 C 
BRANCH  15  16
ATOM     16  C   UNL     1     139.869  56.471 -12.658  1.00  0.00    -0.000 C 
BRANCH  16  17
ATOM     17  C   UNL     1     140.029  56.898 -11.185  1.00  0.00    -0.000 C 
BRANCH  17  18
ATOM     18  C   UNL     1     138.713  57.026 -10.392  1.00  0.00    -0.000 C 
BRANCH  18  19
ATOM     19  C   UNL     1     138.801  56.590  -8.919  1.00  0.00    -0.003 C 
ATOM     20  C   UNL     1     138.052  55.288  -8.638  1.00  0.00     0.004 C 
ENDBRANCH  18  19
ENDBRANCH  17  18
ENDBRANCH  16  17
ENDBRANCH  15  16
ENDBRANCH  14  15
ENDBRANCH  13  14
ENDBRANCH  12  13
ENDBRANCH   1  12
TORSDOF 16
ENDMDL
MODEL 9
REMARK VINA RESULT:    -0.866      9.079     11.168
REMARK INTER + INTRA:          -5.059
REMARK INTER:                  -1.875
REMARK INTRA:                  -3.184
REMARK UNBOUND:                -3.383
REMARK SMILES CCCCCCCCCCCCCCCCCC(=O)[O-]
REMARK SMILES IDX 10 1 11 2 12 3 13 4 14 5 15 6 16 7 17 8 18 9 19 10 20 11
REMARK SMILES IDX 9 12 8 13 7 14 6 15 5 16 4 17 3 18 2 19 1 20
REMARK H PARENT
REMARK Flexibility Score: inf
ROOT
ATOM      1  C   UNL     1     132.540  52.839  -8.255  1.00  0.00     0.000 C 
ENDROOT
BRANCH   1   2
ATOM      2  C   UNL     1     131.327  53.494  -7.575  1.00  0.00     0.000 C 
BRANCH   2   3
ATOM      3  C   UNL     1     130.753  52.634  -6.438  1.00  0.00     0.000 C 
BRANCH   3   4
ATOM      4  C   UNL     1     129.342  53.071  -6.014  1.00  0.00     0.000 C 
BRANCH   4   5
ATOM      5  C   UNL     1     128.471  53.380  -7.241  1.00  0.00     0.000 C 
BRANCH   5   6
ATOM      6  C   UNL     1     127.875  54.799  -7.214  1.00  0.00     0.000 C 
BRANCH   6   7
ATOM      7  C   UNL     1     128.335  55.674  -6.034  1.00  0.00     0.006 C 
BRANCH   7   8
ATOM      8  C   UNL     1     129.351  56.747  -6.444  1.00  0.00     0.053 C 
BRANCH   8   9
ATOM      9  C   UNL     1     130.606  56.613  -5.641  1.00  0.00     0.041 C 
ATOM     10  O   UNL     1     130.571  56.099  -4.492  1.00  0.00    -0.550 OA
ATOM     11  O   UNL     1     131.823  57.009  -6.181  1.00  0.00    -0.550 OA
ENDBRANCH   8   9
ENDBRANCH   7   8
ENDBRANCH   6   7
ENDBRANCH   5   6
ENDBRANCH   4   5
ENDBRANCH   3   4
ENDBRANCH   2   3
ENDBRANCH   1   2
BRANCH   1  12
ATOM     12  C   UNL     1     132.429  52.828  -9.791  1.00  0.00     0.000 C 
BRANCH  12  13
ATOM     13  C   UNL     1     131.035  52.475 -10.349  1.00  0.00    -0.000 C 
BRANCH  13  14
ATOM     14  C   UNL     1     130.414  53.524 -11.289  1.00  0.00    -0.000 C 
BRANCH  14  15
ATOM     15  C   UNL     1     129.157  54.183 -10.698  1.00  0.00    -0.000 C 
BRANCH  15  16
ATOM     16  C   UNL     1     129.351  55.683 -10.406  1.00  0.00    -0.000 C 
BRANCH  16  17
ATOM     17  C   UNL     1     130.716  56.262 -10.830  1.00  0.00    -0.000 C 
BRANCH  17  18
ATOM     18  C   UNL     1     131.692  56.555  -9.672  1.00  0.00    -0.000 C 
BRANCH  18  19
ATOM     19  C   UNL     1     133.182  56.483 -10.050  1.00  0.00    -0.003 C 
ATOM     20  C   UNL     1     134.085  56.184  -8.854  1.00  0.00     0.004 C 
ENDBRANCH  18  19
ENDBRANCH  17  18
ENDBRANCH  16  17
ENDBRANCH  15  16
ENDBRANCH  14  15
ENDBRANCH  13  14
ENDBRANCH  12  13
ENDBRANCH   1  12
TORSDOF 16
ENDMDL
