MODEL 1
REMARK VINA RESULT:    -5.998      0.000      0.000
REMARK INTER + INTRA:         -18.699
REMARK INTER:                 -15.115
REMARK INTRA:                  -3.584
REMARK UNBOUND:                -3.584
REMARK SMILES CCCCCCCCCCCCCCCCCCCCCCCCCCCC(=O)[O-]
REMARK SMILES IDX 15 1 16 2 17 3 18 4 19 5 20 6 21 7 22 8 23 9 24 10 25 11
REMARK SMILES IDX 26 12 27 13 28 14 29 15 30 16 14 17 13 18 12 19 11 20 10 21
REMARK SMILES IDX 9 22 8 23 7 24 6 25 5 26 4 27 3 28 2 29 1 30
REMARK H PARENT
REMARK Flexibility Score: inf
ROOT
ATOM      1  C   UNL     1      10.137  17.022  34.716  1.00  0.00     0.000 C 
ENDROOT
BRANCH   1   2
ATOM      2  C   UNL     1      11.032  17.439  35.897  1.00  0.00     0.000 C 
BRANCH   2   3
ATOM      3  C   UNL     1      12.406  17.957  35.439  1.00  0.00     0.000 C 
BRANCH   3   4
ATOM      4  C   UNL     1      13.469  16.845  35.394  1.00  0.00     0.000 C 
BRANCH   4   5
ATOM      5  C   UNL     1      13.365  15.872  36.578  1.00  0.00     0.000 C 
BRANCH   5   6
ATOM      6  C   UNL     1      14.091  16.392  37.833  1.00  0.00     0.000 C 
BRANCH   6   7
ATOM      7  C   UNL     1      15.448  15.705  38.056  1.00  0.00     0.000 C 
BRANCH   7   8
ATOM      8  C   UNL     1      16.577  16.368  37.245  1.00  0.00     0.000 C 
BRANCH   8   9
ATOM      9  C   UNL     1      16.499  17.902  37.268  1.00  0.00     0.000 C 
BRANCH   9  10
ATOM     10  C   UNL     1      16.816  18.532  35.901  1.00  0.00     0.000 C 
BRANCH  10  11
ATOM     11  C   UNL     1      17.031  17.465  34.807  1.00  0.00     0.000 C 
BRANCH  11  12
ATOM     12  C   UNL     1      18.159  17.814  33.820  1.00  0.00     0.006 C 
BRANCH  12  13
ATOM     13  C   UNL     1      19.445  18.269  34.521  1.00  0.00     0.053 C 
BRANCH  13  14
ATOM     14  C   UNL     1      20.442  17.155  34.566  1.00  0.00     0.041 C 
ATOM     15  O   UNL     1      20.106  15.991  34.221  1.00  0.00    -0.550 OA
ATOM     16  O   UNL     1      21.751  17.409  34.955  1.00  0.00    -0.550 OA
ENDBRANCH  13  14
ENDBRANCH  12  13
ENDBRANCH  11  12
ENDBRANCH  10  11
ENDBRANCH   9  10
ENDBRANCH   8   9
ENDBRANCH   7   8
ENDBRANCH   6   7
ENDBRANCH   5   6
ENDBRANCH   4   5
ENDBRANCH   3   4
ENDBRANCH   2   3
ENDBRANCH   1   2
BRANCH   1  17
ATOM     17  C   UNL     1       8.732  17.639  34.787  1.00  0.00     0.000 C 
BRANCH  17  18
ATOM     18  C   UNL     1       8.413  18.526  33.570  1.00  0.00     0.000 C 
BRANCH  18  19
ATOM     19  C   UNL     1       9.198  18.116  32.307  1.00  0.00     0.000 C 
BRANCH  19  20
ATOM     20  C   UNL     1       8.972  19.042  31.097  1.00  0.00     0.000 C 
BRANCH  20  21
ATOM     21  C   UNL     1       8.181  20.329  31.392  1.00  0.00     0.000 C 
BRANCH  21  22
ATOM     22  C   UNL     1       8.456  21.501  30.432  1.00  0.00    -0.000 C 
BRANCH  22  23
ATOM     23  C   UNL     1       8.137  22.870  31.051  1.00  0.00    -0.000 C 
BRANCH  23  24
ATOM     24  C   UNL     1       8.593  22.932  32.514  1.00  0.00    -0.000 C 
BRANCH  24  25
ATOM     25  C   UNL     1       9.607  24.061  32.726  1.00  0.00    -0.000 C 
BRANCH  25  26
ATOM     26  C   UNL     1      11.012  23.629  32.280  1.00  0.00    -0.000 C 
BRANCH  26  27
ATOM     27  C   UNL     1      11.412  22.244  32.820  1.00  0.00    -0.000 C 
BRANCH  27  28
ATOM     28  C   UNL     1      11.569  22.165  34.349  1.00  0.00    -0.000 C 
BRANCH  28  29
ATOM     29  C   UNL     1      10.780  21.004  34.972  1.00  0.00    -0.003 C 
ATOM     30  C   UNL     1       9.505  21.505  35.645  1.00  0.00     0.004 C 
ENDBRANCH  28  29
ENDBRANCH  27  28
ENDBRANCH  26  27
ENDBRANCH  25  26
ENDBRANCH  24  25
ENDBRANCH  23  24
ENDBRANCH  22  23
ENDBRANCH  21  22
ENDBRANCH  20  21
ENDBRANCH  19  20
ENDBRANCH  18  19
ENDBRANCH  17  18
ENDBRANCH   1  17
TORSDOF 26
ENDMDL
MODEL 2
REMARK VINA RESULT:    -5.986      3.582      9.085
REMARK INTER + INTRA:         -18.669
REMARK INTER:                 -14.660
REMARK INTRA:                  -4.010
REMARK UNBOUND:                -3.584
REMARK SMILES CCCCCCCCCCCCCCCCCCCCCCCCCCCC(=O)[O-]
REMARK SMILES IDX 15 1 16 2 17 3 18 4 19 5 20 6 21 7 22 8 23 9 24 10 25 11
REMARK SMILES IDX 26 12 27 13 28 14 29 15 30 16 14 17 13 18 12 19 11 20 10 21
REMARK SMILES IDX 9 22 8 23 7 24 6 25 5 26 4 27 3 28 2 29 1 30
REMARK H PARENT
REMARK Flexibility Score: inf
ROOT
ATOM      1  C   UNL     1      11.401  17.890  36.704  1.00  0.00     0.000 C 
ENDROOT
BRANCH   1   2
ATOM      2  C   UNL     1      10.021  17.212  36.771  1.00  0.00     0.000 C 
BRANCH   2   3
ATOM      3  C   UNL     1       9.432  16.939  35.377  1.00  0.00     0.000 C 
BRANCH   3   4
ATOM      4  C   UNL     1       8.220  17.834  35.064  1.00  0.00     0.000 C 
BRANCH   4   5
ATOM      5  C   UNL     1       8.212  18.340  33.613  1.00  0.00     0.000 C 
BRANCH   5   6
ATOM      6  C   UNL     1       9.537  18.055  32.883  1.00  0.00     0.000 C 
BRANCH   6   7
ATOM      7  C   UNL     1      10.180  19.327  32.309  1.00  0.00     0.000 C 
BRANCH   7   8
ATOM      8  C   UNL     1      10.722  20.255  33.412  1.00  0.00     0.000 C 
BRANCH   8   9
ATOM      9  C   UNL     1      10.016  21.619  33.438  1.00  0.00     0.000 C 
BRANCH   9  10
ATOM     10  C   UNL     1       9.175  21.827  34.709  1.00  0.00     0.000 C 
BRANCH  10  11
ATOM     11  C   UNL     1       9.738  21.039  35.911  1.00  0.00     0.000 C 
BRANCH  11  12
ATOM     12  C   UNL     1       9.084  21.412  37.253  1.00  0.00     0.006 C 
BRANCH  12  13
ATOM     13  C   UNL     1       8.545  20.194  38.013  1.00  0.00     0.053 C 
BRANCH  13  14
ATOM     14  C   UNL     1       9.344  19.955  39.255  1.00  0.00     0.041 C 
ATOM     15  O   UNL     1      10.197  20.802  39.632  1.00  0.00    -0.550 OA
ATOM     16  O   UNL     1       9.122  18.814  40.015  1.00  0.00    -0.550 OA
ENDBRANCH  13  14
ENDBRANCH  12  13
ENDBRANCH  11  12
ENDBRANCH  10  11
ENDBRANCH   9  10
ENDBRANCH   8   9
ENDBRANCH   7   8
ENDBRANCH   6   7
ENDBRANCH   5   6
ENDBRANCH   4   5
ENDBRANCH   3   4
ENDBRANCH   2   3
ENDBRANCH   1   2
BRANCH   1  17
ATOM     17  C   UNL     1      12.147  17.596  35.394  1.00  0.00     0.000 C 
BRANCH  17  18
ATOM     18  C   UNL     1      13.234  16.519  35.561  1.00  0.00     0.000 C 
BRANCH  18  19
ATOM     19  C   UNL     1      13.218  15.862  36.957  1.00  0.00     0.000 C 
BRANCH  19  20
ATOM     20  C   UNL     1      14.431  14.957  37.240  1.00  0.00     0.000 C 
BRANCH  20  21
ATOM     21  C   UNL     1      15.526  15.580  38.125  1.00  0.00     0.000 C 
BRANCH  21  22
ATOM     22  C   UNL     1      16.552  16.452  37.379  1.00  0.00    -0.000 C 
BRANCH  22  23
ATOM     23  C   UNL     1      16.193  17.946  37.394  1.00  0.00    -0.000 C 
BRANCH  23  24
ATOM     24  C   UNL     1      16.455  18.588  36.026  1.00  0.00    -0.000 C 
BRANCH  24  25
ATOM     25  C   UNL     1      16.587  17.520  34.934  1.00  0.00    -0.000 C 
BRANCH  25  26
ATOM     26  C   UNL     1      18.025  17.455  34.399  1.00  0.00    -0.000 C 
BRANCH  26  27
ATOM     27  C   UNL     1      18.900  18.623  34.892  1.00  0.00    -0.000 C 
BRANCH  27  28
ATOM     28  C   UNL     1      20.114  18.944  34.001  1.00  0.00    -0.000 C 
BRANCH  28  29
ATOM     29  C   UNL     1      20.028  18.293  32.614  1.00  0.00    -0.003 C 
ATOM     30  C   UNL     1      21.331  18.472  31.840  1.00  0.00     0.004 C 
ENDBRANCH  28  29
ENDBRANCH  27  28
ENDBRANCH  26  27
ENDBRANCH  25  26
ENDBRANCH  24  25
ENDBRANCH  23  24
ENDBRANCH  22  23
ENDBRANCH  21  22
ENDBRANCH  20  21
ENDBRANCH  19  20
ENDBRANCH  18  19
ENDBRANCH  17  18
ENDBRANCH   1  17
TORSDOF 26
ENDMDL
MODEL 3
REMARK VINA RESULT:    -5.970      2.670      4.229
REMARK INTER + INTRA:         -18.629
REMARK INTER:                 -14.718
REMARK INTRA:                  -3.911
REMARK UNBOUND:                -3.584
REMARK SMILES CCCCCCCCCCCCCCCCCCCCCCCCCCCC(=O)[O-]
REMARK SMILES IDX 15 1 16 2 17 3 18 4 19 5 20 6 21 7 22 8 23 9 24 10 25 11
REMARK SMILES IDX 26 12 27 13 28 14 29 15 30 16 14 17 13 18 12 19 11 20 10 21
REMARK SMILES IDX 9 22 8 23 7 24 6 25 5 26 4 27 3 28 2 29 1 30
REMARK H PARENT
REMARK Flexibility Score: inf
ROOT
ATOM      1  C   UNL     1       9.627  21.581  36.223  1.00  0.00     0.000 C 
ENDROOT
BRANCH   1   2
ATOM      2  C   UNL     1       9.362  20.705  37.461  1.00  0.00     0.000 C 
BRANCH   2   3
ATOM      3  C   UNL     1       8.056  19.903  37.345  1.00  0.00     0.000 C 
BRANCH   3   4
ATOM      4  C   UNL     1       8.304  18.389  37.213  1.00  0.00     0.000 C 
BRANCH   4   5
ATOM      5  C   UNL     1       9.649  17.951  37.813  1.00  0.00     0.000 C 
BRANCH   5   6
ATOM      6  C   UNL     1      10.424  16.999  36.884  1.00  0.00     0.000 C 
BRANCH   6   7
ATOM      7  C   UNL     1      11.947  17.118  37.056  1.00  0.00     0.000 C 
BRANCH   7   8
ATOM      8  C   UNL     1      12.708  16.790  35.757  1.00  0.00     0.000 C 
BRANCH   8   9
ATOM      9  C   UNL     1      13.939  17.685  35.552  1.00  0.00     0.000 C 
BRANCH   9  10
ATOM     10  C   UNL     1      14.687  17.974  36.866  1.00  0.00     0.000 C 
BRANCH  10  11
ATOM     11  C   UNL     1      16.131  17.433  36.842  1.00  0.00     0.000 C 
BRANCH  11  12
ATOM     12  C   UNL     1      16.219  15.904  36.995  1.00  0.00     0.006 C 
BRANCH  12  13
ATOM     13  C   UNL     1      15.709  15.411  38.355  1.00  0.00     0.053 C 
BRANCH  13  14
ATOM     14  C   UNL     1      14.732  14.293  38.176  1.00  0.00     0.041 C 
ATOM     15  O   UNL     1      14.171  14.115  37.062  1.00  0.00    -0.550 OA
ATOM     16  O   UNL     1      14.467  13.426  39.228  1.00  0.00    -0.550 OA
ENDBRANCH  13  14
ENDBRANCH  12  13
ENDBRANCH  11  12
ENDBRANCH  10  11
ENDBRANCH   9  10
ENDBRANCH   8   9
ENDBRANCH   7   8
ENDBRANCH   6   7
ENDBRANCH   5   6
ENDBRANCH   4   5
ENDBRANCH   3   4
ENDBRANCH   2   3
ENDBRANCH   1   2
BRANCH   1  17
ATOM     17  C   UNL     1       9.356  20.843  34.903  1.00  0.00     0.000 C 
BRANCH  17  18
ATOM     18  C   UNL     1      10.647  20.346  34.226  1.00  0.00     0.000 C 
BRANCH  18  19
ATOM     19  C   UNL     1      10.549  18.881  33.753  1.00  0.00     0.000 C 
BRANCH  19  20
ATOM     20  C   UNL     1       9.154  18.478  33.241  1.00  0.00     0.000 C 
BRANCH  20  21
ATOM     21  C   UNL     1       9.106  17.972  31.787  1.00  0.00     0.000 C 
BRANCH  21  22
ATOM     22  C   UNL     1       8.955  19.069  30.718  1.00  0.00    -0.000 C 
BRANCH  22  23
ATOM     23  C   UNL     1       8.165  20.289  31.218  1.00  0.00    -0.000 C 
BRANCH  23  24
ATOM     24  C   UNL     1       8.166  21.410  30.171  1.00  0.00    -0.000 C 
BRANCH  24  25
ATOM     25  C   UNL     1       8.166  22.788  30.842  1.00  0.00    -0.000 C 
BRANCH  25  26
ATOM     26  C   UNL     1       9.117  22.813  32.047  1.00  0.00    -0.000 C 
BRANCH  26  27
ATOM     27  C   UNL     1      10.320  23.752  31.842  1.00  0.00    -0.000 C 
BRANCH  27  28
ATOM     28  C   UNL     1      10.400  24.929  32.832  1.00  0.00    -0.000 C 
BRANCH  28  29
ATOM     29  C   UNL     1      10.902  24.509  34.221  1.00  0.00    -0.003 C 
ATOM     30  C   UNL     1       9.979  25.029  35.319  1.00  0.00     0.004 C 
ENDBRANCH  28  29
ENDBRANCH  27  28
ENDBRANCH  26  27
ENDBRANCH  25  26
ENDBRANCH  24  25
ENDBRANCH  23  24
ENDBRANCH  22  23
ENDBRANCH  21  22
ENDBRANCH  20  21
ENDBRANCH  19  20
ENDBRANCH  18  19
ENDBRANCH  17  18
ENDBRANCH   1  17
TORSDOF 26
ENDMDL
MODEL 4
REMARK VINA RESULT:    -5.966      1.458      3.112
REMARK INTER + INTRA:         -18.620
REMARK INTER:                 -14.372
REMARK INTRA:                  -4.247
REMARK UNBOUND:                -3.584
REMARK SMILES CCCCCCCCCCCCCCCCCCCCCCCCCCCC(=O)[O-]
REMARK SMILES IDX 15 1 16 2 17 3 18 4 19 5 20 6 21 7 22 8 23 9 24 10 25 11
REMARK SMILES IDX 26 12 27 13 28 14 29 15 30 16 14 17 13 18 12 19 11 20 10 21
REMARK SMILES IDX 9 22 8 23 7 24 6 25 5 26 4 27 3 28 2 29 1 30
REMARK H PARENT
REMARK Flexibility Score: inf
ROOT
ATOM      1  C   UNL     1      11.649  18.454  38.531  1.00  0.00     0.000 C 
ENDROOT
BRANCH   1   2
ATOM      2  C   UNL     1      11.891  18.166  37.039  1.00  0.00     0.000 C 
BRANCH   2   3
ATOM      3  C   UNL     1      12.020  16.662  36.744  1.00  0.00     0.000 C 
BRANCH   3   4
ATOM      4  C   UNL     1      13.250  16.335  35.878  1.00  0.00     0.000 C 
BRANCH   4   5
ATOM      5  C   UNL     1      14.168  15.284  36.520  1.00  0.00     0.000 C 
BRANCH   5   6
ATOM      6  C   UNL     1      14.334  15.494  38.036  1.00  0.00     0.000 C 
BRANCH   6   7
ATOM      7  C   UNL     1      15.662  16.180  38.394  1.00  0.00     0.000 C 
BRANCH   7   8
ATOM      8  C   UNL     1      15.522  17.712  38.480  1.00  0.00     0.000 C 
BRANCH   8   9
ATOM      9  C   UNL     1      16.051  18.425  37.227  1.00  0.00     0.000 C 
BRANCH   9  10
ATOM     10  C   UNL     1      17.211  17.666  36.560  1.00  0.00     0.000 C 
BRANCH  10  11
ATOM     11  C   UNL     1      16.981  17.470  35.046  1.00  0.00     0.000 C 
BRANCH  11  12
ATOM     12  C   UNL     1      18.255  17.647  34.202  1.00  0.00     0.006 C 
BRANCH  12  13
ATOM     13  C   UNL     1      19.527  17.740  35.053  1.00  0.00     0.053 C 
BRANCH  13  14
ATOM     14  C   UNL     1      20.700  17.189  34.307  1.00  0.00     0.041 C 
ATOM     15  O   UNL     1      21.815  17.064  34.882  1.00  0.00    -0.550 OA
ATOM     16  O   UNL     1      20.556  16.782  32.987  1.00  0.00    -0.550 OA
ENDBRANCH  13  14
ENDBRANCH  12  13
ENDBRANCH  11  12
ENDBRANCH  10  11
ENDBRANCH   9  10
ENDBRANCH   8   9
ENDBRANCH   7   8
ENDBRANCH   6   7
ENDBRANCH   5   6
ENDBRANCH   4   5
ENDBRANCH   3   4
ENDBRANCH   2   3
ENDBRANCH   1   2
BRANCH   1  17
ATOM     17  C   UNL     1      10.157  18.475  38.900  1.00  0.00     0.000 C 
BRANCH  17  18
ATOM     18  C   UNL     1       9.325  19.354  37.950  1.00  0.00     0.000 C 
BRANCH  18  19
ATOM     19  C   UNL     1       8.266  18.552  37.165  1.00  0.00     0.000 C 
BRANCH  19  20
ATOM     20  C   UNL     1       7.876  19.181  35.814  1.00  0.00     0.000 C 
BRANCH  20  21
ATOM     21  C   UNL     1       8.016  18.255  34.591  1.00  0.00     0.000 C 
BRANCH  21  22
ATOM     22  C   UNL     1       9.430  17.693  34.356  1.00  0.00    -0.000 C 
BRANCH  22  23
ATOM     23  C   UNL     1      10.008  18.078  32.985  1.00  0.00    -0.000 C 
BRANCH  23  24
ATOM     24  C   UNL     1       8.903  18.148  31.923  1.00  0.00    -0.000 C 
BRANCH  24  25
ATOM     25  C   UNL     1       9.027  19.425  31.084  1.00  0.00    -0.000 C 
BRANCH  25  26
ATOM     26  C   UNL     1       8.236  20.578  31.718  1.00  0.00    -0.000 C 
BRANCH  26  27
ATOM     27  C   UNL     1       9.057  21.876  31.835  1.00  0.00    -0.000 C 
BRANCH  27  28
ATOM     28  C   UNL     1      10.355  21.750  32.653  1.00  0.00    -0.000 C 
BRANCH  28  29
ATOM     29  C   UNL     1      10.152  22.044  34.146  1.00  0.00    -0.003 C 
ATOM     30  C   UNL     1      10.948  21.070  35.010  1.00  0.00     0.004 C 
ENDBRANCH  28  29
ENDBRANCH  27  28
ENDBRANCH  26  27
ENDBRANCH  25  26
ENDBRANCH  24  25
ENDBRANCH  23  24
ENDBRANCH  22  23
ENDBRANCH  21  22
ENDBRANCH  20  21
ENDBRANCH  19  20
ENDBRANCH  18  19
ENDBRANCH  17  18
ENDBRANCH   1  17
TORSDOF 26
ENDMDL
MODEL 5
REMARK VINA RESULT:    -5.950      3.541      8.911
REMARK INTER + INTRA:         -18.579
REMARK INTER:                 -14.600
REMARK INTRA:                  -3.979
REMARK UNBOUND:                -3.584
REMARK SMILES CCCCCCCCCCCCCCCCCCCCCCCCCCCC(=O)[O-]
REMARK SMILES IDX 15 1 16 2 17 3 18 4 19 5 20 6 21 7 22 8 23 9 24 10 25 11
REMARK SMILES IDX 26 12 27 13 28 14 29 15 30 16 14 17 13 18 12 19 11 20 10 21
REMARK SMILES IDX 9 22 8 23 7 24 6 25 5 26 4 27 3 28 2 29 1 30
REMARK H PARENT
REMARK Flexibility Score: inf
ROOT
ATOM      1  C   UNL     1       8.233  18.271  34.008  1.00  0.00     0.000 C 
ENDROOT
BRANCH   1   2
ATOM      2  C   UNL     1       9.535  17.980  33.239  1.00  0.00     0.000 C 
BRANCH   2   3
ATOM      3  C   UNL     1       9.857  19.064  32.198  1.00  0.00     0.000 C 
BRANCH   3   4
ATOM      4  C   UNL     1       8.814  19.124  31.067  1.00  0.00     0.000 C 
BRANCH   4   5
ATOM      5  C   UNL     1       8.289  20.546  30.815  1.00  0.00     0.000 C 
BRANCH   5   6
ATOM      6  C   UNL     1       8.243  21.393  32.100  1.00  0.00     0.000 C 
BRANCH   6   7
ATOM      7  C   UNL     1       9.226  22.574  32.063  1.00  0.00     0.000 C 
BRANCH   7   8
ATOM      8  C   UNL     1       9.631  23.039  33.475  1.00  0.00     0.000 C 
BRANCH   8   9
ATOM      9  C   UNL     1       9.281  22.009  34.559  1.00  0.00     0.000 C 
BRANCH   9  10
ATOM     10  C   UNL     1      10.516  21.252  35.079  1.00  0.00     0.000 C 
BRANCH  10  11
ATOM     11  C   UNL     1      10.215  20.475  36.377  1.00  0.00     0.000 C 
BRANCH  11  12
ATOM     12  C   UNL     1       8.931  20.936  37.088  1.00  0.00     0.006 C 
BRANCH  12  13
ATOM     13  C   UNL     1       8.365  19.877  38.043  1.00  0.00     0.053 C 
BRANCH  13  14
ATOM     14  C   UNL     1       9.148  19.848  39.318  1.00  0.00     0.041 C 
ATOM     15  O   UNL     1       9.120  18.826  40.055  1.00  0.00    -0.550 OA
ATOM     16  O   UNL     1       9.935  20.936  39.675  1.00  0.00    -0.550 OA
ENDBRANCH  13  14
ENDBRANCH  12  13
ENDBRANCH  11  12
ENDBRANCH  10  11
ENDBRANCH   9  10
ENDBRANCH   8   9
ENDBRANCH   7   8
ENDBRANCH   6   7
ENDBRANCH   5   6
ENDBRANCH   4   5
ENDBRANCH   3   4
ENDBRANCH   2   3
ENDBRANCH   1   2
BRANCH   1  17
ATOM     17  C   UNL     1       8.139  17.499  35.333  1.00  0.00     0.000 C 
BRANCH  17  18
ATOM     18  C   UNL     1       9.365  16.604  35.586  1.00  0.00     0.000 C 
BRANCH  18  19
ATOM     19  C   UNL     1      10.041  16.882  36.944  1.00  0.00     0.000 C 
BRANCH  19  20
ATOM     20  C   UNL     1      11.580  16.888  36.891  1.00  0.00     0.000 C 
BRANCH  20  21
ATOM     21  C   UNL     1      12.192  17.405  35.576  1.00  0.00     0.000 C 
BRANCH  21  22
ATOM     22  C   UNL     1      13.728  17.344  35.500  1.00  0.00    -0.000 C 
BRANCH  22  23
ATOM     23  C   UNL     1      14.322  16.179  36.307  1.00  0.00    -0.000 C 
BRANCH  23  24
ATOM     24  C   UNL     1      15.228  16.695  37.432  1.00  0.00    -0.000 C 
BRANCH  24  25
ATOM     25  C   UNL     1      16.527  17.279  36.867  1.00  0.00    -0.000 C 
BRANCH  25  26
ATOM     26  C   UNL     1      17.369  16.190  36.187  1.00  0.00    -0.000 C 
BRANCH  26  27
ATOM     27  C   UNL     1      17.664  16.498  34.707  1.00  0.00    -0.000 C 
BRANCH  27  28
ATOM     28  C   UNL     1      17.968  17.976  34.399  1.00  0.00    -0.000 C 
BRANCH  28  29
ATOM     29  C   UNL     1      19.082  18.153  33.358  1.00  0.00    -0.003 C 
ATOM     30  C   UNL     1      20.072  16.993  33.410  1.00  0.00     0.004 C 
ENDBRANCH  28  29
ENDBRANCH  27  28
ENDBRANCH  26  27
ENDBRANCH  25  26
ENDBRANCH  24  25
ENDBRANCH  23  24
ENDBRANCH  22  23
ENDBRANCH  21  22
ENDBRANCH  20  21
ENDBRANCH  19  20
ENDBRANCH  18  19
ENDBRANCH  17  18
ENDBRANCH   1  17
TORSDOF 26
ENDMDL
MODEL 6
REMARK VINA RESULT:    -5.938      1.632      3.973
REMARK INTER + INTRA:         -18.547
REMARK INTER:                 -15.170
REMARK INTRA:                  -3.377
REMARK UNBOUND:                -3.584
REMARK SMILES CCCCCCCCCCCCCCCCCCCCCCCCCCCC(=O)[O-]
REMARK SMILES IDX 15 1 16 2 17 3 18 4 19 5 20 6 21 7 22 8 23 9 24 10 25 11
REMARK SMILES IDX 26 12 27 13 28 14 29 15 30 16 14 17 13 18 12 19 11 20 10 21
REMARK SMILES IDX 9 22 8 23 7 24 6 25 5 26 4 27 3 28 2 29 1 30
REMARK H PARENT
REMARK Flexibility Score: inf
ROOT
ATOM      1  C   UNL     1      13.021  17.706  35.763  1.00  0.00     0.000 C 
ENDROOT
BRANCH   1   2
ATOM      2  C   UNL     1      13.604  16.319  35.437  1.00  0.00     0.000 C 
BRANCH   2   3
ATOM      3  C   UNL     1      13.888  15.489  36.700  1.00  0.00     0.000 C 
BRANCH   3   4
ATOM      4  C   UNL     1      14.340  16.358  37.887  1.00  0.00     0.000 C 
BRANCH   4   5
ATOM      5  C   UNL     1      15.866  16.525  37.956  1.00  0.00     0.000 C 
BRANCH   5   6
ATOM      6  C   UNL     1      16.317  17.959  37.622  1.00  0.00     0.000 C 
BRANCH   6   7
ATOM      7  C   UNL     1      16.825  18.095  36.178  1.00  0.00     0.000 C 
BRANCH   7   8
ATOM      8  C   UNL     1      17.768  16.944  35.780  1.00  0.00     0.000 C 
BRANCH   8   9
ATOM      9  C   UNL     1      18.894  17.400  34.841  1.00  0.00     0.000 C 
BRANCH   9  10
ATOM     10  C   UNL     1      18.374  17.827  33.457  1.00  0.00     0.000 C 
BRANCH  10  11
ATOM     11  C   UNL     1      19.521  18.031  32.445  1.00  0.00     0.000 C 
BRANCH  11  12
ATOM     12  C   UNL     1      20.614  16.951  32.526  1.00  0.00     0.006 C 
BRANCH  12  13
ATOM     13  C   UNL     1      22.024  17.539  32.660  1.00  0.00     0.053 C 
BRANCH  13  14
ATOM     14  C   UNL     1      22.598  17.227  34.005  1.00  0.00     0.041 C 
ATOM     15  O   UNL     1      22.241  16.187  34.620  1.00  0.00    -0.550 OA
ATOM     16  O   UNL     1      23.553  18.066  34.565  1.00  0.00    -0.550 OA
ENDBRANCH  13  14
ENDBRANCH  12  13
ENDBRANCH  11  12
ENDBRANCH  10  11
ENDBRANCH   9  10
ENDBRANCH   8   9
ENDBRANCH   7   8
ENDBRANCH   6   7
ENDBRANCH   5   6
ENDBRANCH   4   5
ENDBRANCH   3   4
ENDBRANCH   2   3
ENDBRANCH   1   2
BRANCH   1  17
ATOM     17  C   UNL     1      11.518  17.661  36.079  1.00  0.00     0.000 C 
BRANCH  17  18
ATOM     18  C   UNL     1      10.662  17.353  34.837  1.00  0.00     0.000 C 
BRANCH  18  19
ATOM     19  C   UNL     1       9.156  17.248  35.158  1.00  0.00     0.000 C 
BRANCH  19  20
ATOM     20  C   UNL     1       8.819  17.420  36.651  1.00  0.00     0.000 C 
BRANCH  20  21
ATOM     21  C   UNL     1       7.875  18.591  36.982  1.00  0.00     0.000 C 
BRANCH  21  22
ATOM     22  C   UNL     1       8.346  19.507  38.125  1.00  0.00    -0.000 C 
BRANCH  22  23
ATOM     23  C   UNL     1       9.563  20.364  37.744  1.00  0.00    -0.000 C 
BRANCH  23  24
ATOM     24  C   UNL     1       9.210  21.354  36.627  1.00  0.00    -0.000 C 
BRANCH  24  25
ATOM     25  C   UNL     1      10.128  21.164  35.414  1.00  0.00    -0.000 C 
BRANCH  25  26
ATOM     26  C   UNL     1       9.309  20.991  34.127  1.00  0.00    -0.000 C 
BRANCH  26  27
ATOM     27  C   UNL     1      10.135  20.409  32.965  1.00  0.00    -0.000 C 
BRANCH  27  28
ATOM     28  C   UNL     1       9.307  19.905  31.769  1.00  0.00    -0.000 C 
BRANCH  28  29
ATOM     29  C   UNL     1       9.133  18.380  31.761  1.00  0.00    -0.003 C 
ATOM     30  C   UNL     1       9.704  17.769  30.484  1.00  0.00     0.004 C 
ENDBRANCH  28  29
ENDBRANCH  27  28
ENDBRANCH  26  27
ENDBRANCH  25  26
ENDBRANCH  24  25
ENDBRANCH  23  24
ENDBRANCH  22  23
ENDBRANCH  21  22
ENDBRANCH  20  21
ENDBRANCH  19  20
ENDBRANCH  18  19
ENDBRANCH  17  18
ENDBRANCH   1  17
TORSDOF 26
ENDMDL
MODEL 7
REMARK VINA RESULT:    -5.919      2.094      3.445
REMARK INTER + INTRA:         -18.501
REMARK INTER:                 -14.407
REMARK INTRA:                  -4.094
REMARK UNBOUND:                -3.584
REMARK SMILES CCCCCCCCCCCCCCCCCCCCCCCCCCCC(=O)[O-]
REMARK SMILES IDX 15 1 16 2 17 3 18 4 19 5 20 6 21 7 22 8 23 9 24 10 25 11
REMARK SMILES IDX 26 12 27 13 28 14 29 15 30 16 14 17 13 18 12 19 11 20 10 21
REMARK SMILES IDX 9 22 8 23 7 24 6 25 5 26 4 27 3 28 2 29 1 30
REMARK H PARENT
REMARK Flexibility Score: inf
ROOT
ATOM      1  C   UNL     1      11.504  17.637  36.401  1.00  0.00     0.000 C 
ENDROOT
BRANCH   1   2
ATOM      2  C   UNL     1      12.664  17.700  35.392  1.00  0.00     0.000 C 
BRANCH   2   3
ATOM      3  C   UNL     1      13.571  16.461  35.461  1.00  0.00     0.000 C 
BRANCH   3   4
ATOM      4  C   UNL     1      13.517  15.766  36.833  1.00  0.00     0.000 C 
BRANCH   4   5
ATOM      5  C   UNL     1      14.818  15.926  37.635  1.00  0.00     0.000 C 
BRANCH   5   6
ATOM      6  C   UNL     1      14.877  17.262  38.399  1.00  0.00     0.000 C 
BRANCH   6   7
ATOM      7  C   UNL     1      16.017  18.170  37.911  1.00  0.00     0.000 C 
BRANCH   7   8
ATOM      8  C   UNL     1      16.917  17.470  36.877  1.00  0.00     0.000 C 
BRANCH   8   9
ATOM      9  C   UNL     1      16.931  18.191  35.520  1.00  0.00     0.000 C 
BRANCH   9  10
ATOM     10  C   UNL     1      17.527  17.327  34.396  1.00  0.00     0.000 C 
BRANCH  10  11
ATOM     11  C   UNL     1      19.043  17.103  34.578  1.00  0.00     0.000 C 
BRANCH  11  12
ATOM     12  C   UNL     1      19.857  18.408  34.624  1.00  0.00     0.006 C 
BRANCH  12  13
ATOM     13  C   UNL     1      20.005  19.066  33.246  1.00  0.00     0.053 C 
BRANCH  13  14
ATOM     14  C   UNL     1      20.670  18.131  32.287  1.00  0.00     0.041 C 
ATOM     15  O   UNL     1      20.040  17.698  31.285  1.00  0.00    -0.550 OA
ATOM     16  O   UNL     1      21.997  17.766  32.479  1.00  0.00    -0.550 OA
ENDBRANCH  13  14
ENDBRANCH  12  13
ENDBRANCH  11  12
ENDBRANCH  10  11
ENDBRANCH   9  10
ENDBRANCH   8   9
ENDBRANCH   7   8
ENDBRANCH   6   7
ENDBRANCH   5   6
ENDBRANCH   4   5
ENDBRANCH   3   4
ENDBRANCH   2   3
ENDBRANCH   1   2
BRANCH   1  17
ATOM     17  C   UNL     1      10.239  16.990  35.817  1.00  0.00     0.000 C 
BRANCH  17  18
ATOM     18  C   UNL     1      10.149  17.144  34.288  1.00  0.00     0.000 C 
BRANCH  18  19
ATOM     19  C   UNL     1       9.016  18.095  33.847  1.00  0.00     0.000 C 
BRANCH  19  20
ATOM     20  C   UNL     1       9.425  19.093  32.747  1.00  0.00     0.000 C 
BRANCH  20  21
ATOM     21  C   UNL     1      10.774  19.801  32.969  1.00  0.00     0.000 C 
BRANCH  21  22
ATOM     22  C   UNL     1      10.681  21.310  33.256  1.00  0.00    -0.000 C 
BRANCH  22  23
ATOM     23  C   UNL     1       9.835  21.633  34.498  1.00  0.00    -0.000 C 
BRANCH  23  24
ATOM     24  C   UNL     1      10.438  20.995  35.755  1.00  0.00    -0.000 C 
BRANCH  24  25
ATOM     25  C   UNL     1       9.465  21.082  36.936  1.00  0.00    -0.000 C 
BRANCH  25  26
ATOM     26  C   UNL     1       8.519  19.874  36.959  1.00  0.00    -0.000 C 
BRANCH  26  27
ATOM     27  C   UNL     1       8.210  19.380  38.384  1.00  0.00    -0.000 C 
BRANCH  27  28
ATOM     28  C   UNL     1       9.418  18.808  39.148  1.00  0.00    -0.000 C 
BRANCH  28  29
ATOM     29  C   UNL     1       9.898  19.725  40.282  1.00  0.00    -0.003 C 
ATOM     30  C   UNL     1      11.414  19.899  40.243  1.00  0.00     0.004 C 
ENDBRANCH  28  29
ENDBRANCH  27  28
ENDBRANCH  26  27
ENDBRANCH  25  26
ENDBRANCH  24  25
ENDBRANCH  23  24
ENDBRANCH  22  23
ENDBRANCH  21  22
ENDBRANCH  20  21
ENDBRANCH  19  20
ENDBRANCH  18  19
ENDBRANCH  17  18
ENDBRANCH   1  17
TORSDOF 26
ENDMDL
MODEL 8
REMARK VINA RESULT:    -5.860      1.353      3.043
REMARK INTER + INTRA:         -18.350
REMARK INTER:                 -14.832
REMARK INTRA:                  -3.518
REMARK UNBOUND:                -3.584
REMARK SMILES CCCCCCCCCCCCCCCCCCCCCCCCCCCC(=O)[O-]
REMARK SMILES IDX 15 1 16 2 17 3 18 4 19 5 20 6 21 7 22 8 23 9 24 10 25 11
REMARK SMILES IDX 26 12 27 13 28 14 29 15 30 16 14 17 13 18 12 19 11 20 10 21
REMARK SMILES IDX 9 22 8 23 7 24 6 25 5 26 4 27 3 28 2 29 1 30
REMARK H PARENT
REMARK Flexibility Score: inf
ROOT
ATOM      1  C   UNL     1      10.277  17.795  34.439  1.00  0.00     0.000 C 
ENDROOT
BRANCH   1   2
ATOM      2  C   UNL     1      11.463  18.366  35.237  1.00  0.00     0.000 C 
BRANCH   2   3
ATOM      3  C   UNL     1      11.337  18.102  36.746  1.00  0.00     0.000 C 
BRANCH   3   4
ATOM      4  C   UNL     1      12.472  17.212  37.286  1.00  0.00     0.000 C 
BRANCH   4   5
ATOM      5  C   UNL     1      13.026  16.245  36.228  1.00  0.00     0.000 C 
BRANCH   5   6
ATOM      6  C   UNL     1      14.018  15.229  36.823  1.00  0.00     0.000 C 
BRANCH   6   7
ATOM      7  C   UNL     1      14.424  15.575  38.264  1.00  0.00     0.000 C 
BRANCH   7   8
ATOM      8  C   UNL     1      15.841  16.172  38.343  1.00  0.00     0.000 C 
BRANCH   8   9
ATOM      9  C   UNL     1      15.874  17.667  37.991  1.00  0.00     0.000 C 
BRANCH   9  10
ATOM     10  C   UNL     1      16.832  17.981  36.829  1.00  0.00     0.000 C 
BRANCH  10  11
ATOM     11  C   UNL     1      17.548  16.716  36.310  1.00  0.00     0.000 C 
BRANCH  11  12
ATOM     12  C   UNL     1      17.425  16.520  34.789  1.00  0.00     0.006 C 
BRANCH  12  13
ATOM     13  C   UNL     1      17.789  17.780  33.994  1.00  0.00     0.053 C 
BRANCH  13  14
ATOM     14  C   UNL     1      19.254  17.804  33.690  1.00  0.00     0.041 C 
ATOM     15  O   UNL     1      20.087  18.034  34.607  1.00  0.00    -0.550 OA
ATOM     16  O   UNL     1      19.701  17.538  32.402  1.00  0.00    -0.550 OA
ENDBRANCH  13  14
ENDBRANCH  12  13
ENDBRANCH  11  12
ENDBRANCH  10  11
ENDBRANCH   9  10
ENDBRANCH   8   9
ENDBRANCH   7   8
ENDBRANCH   6   7
ENDBRANCH   5   6
ENDBRANCH   4   5
ENDBRANCH   3   4
ENDBRANCH   2   3
ENDBRANCH   1   2
BRANCH   1  17
ATOM     17  C   UNL     1       9.299  16.995  35.313  1.00  0.00     0.000 C 
BRANCH  17  18
ATOM     18  C   UNL     1       7.897  17.629  35.365  1.00  0.00     0.000 C 
BRANCH  18  19
ATOM     19  C   UNL     1       7.939  19.165  35.507  1.00  0.00     0.000 C 
BRANCH  19  20
ATOM     20  C   UNL     1       8.108  19.658  36.956  1.00  0.00     0.000 C 
BRANCH  20  21
ATOM     21  C   UNL     1       8.901  20.968  37.117  1.00  0.00     0.000 C 
BRANCH  21  22
ATOM     22  C   UNL     1       9.500  21.534  35.817  1.00  0.00    -0.000 C 
BRANCH  22  23
ATOM     23  C   UNL     1       9.410  23.065  35.732  1.00  0.00    -0.000 C 
BRANCH  23  24
ATOM     24  C   UNL     1       8.569  23.500  34.524  1.00  0.00    -0.000 C 
BRANCH  24  25
ATOM     25  C   UNL     1       9.422  23.552  33.252  1.00  0.00    -0.000 C 
BRANCH  25  26
ATOM     26  C   UNL     1       8.688  22.898  32.072  1.00  0.00    -0.000 C 
BRANCH  26  27
ATOM     27  C   UNL     1       8.261  21.447  32.361  1.00  0.00    -0.000 C 
BRANCH  27  28
ATOM     28  C   UNL     1       9.293  20.376  31.964  1.00  0.00    -0.000 C 
BRANCH  28  29
ATOM     29  C   UNL     1       8.785  19.434  30.863  1.00  0.00    -0.003 C 
ATOM     30  C   UNL     1       9.277  18.008  31.091  1.00  0.00     0.004 C 
ENDBRANCH  28  29
ENDBRANCH  27  28
ENDBRANCH  26  27
ENDBRANCH  25  26
ENDBRANCH  24  25
ENDBRANCH  23  24
ENDBRANCH  22  23
ENDBRANCH  21  22
ENDBRANCH  20  21
ENDBRANCH  19  20
ENDBRANCH  18  19
ENDBRANCH  17  18
ENDBRANCH   1  17
TORSDOF 26
ENDMDL
MODEL 9
REMARK VINA RESULT:    -5.855      1.470      2.853
REMARK INTER + INTRA:         -18.338
REMARK INTER:                 -14.919
REMARK INTRA:                  -3.418
REMARK UNBOUND:                -3.584
REMARK SMILES CCCCCCCCCCCCCCCCCCCCCCCCCCCC(=O)[O-]
REMARK SMILES IDX 15 1 16 2 17 3 18 4 19 5 20 6 21 7 22 8 23 9 24 10 25 11
REMARK SMILES IDX 26 12 27 13 28 14 29 15 30 16 14 17 13 18 12 19 11 20 10 21
REMARK SMILES IDX 9 22 8 23 7 24 6 25 5 26 4 27 3 28 2 29 1 30
REMARK H PARENT
REMARK Flexibility Score: inf
ROOT
ATOM      1  C   UNL     1       8.359  19.446  34.767  1.00  0.00     0.000 C 
ENDROOT
BRANCH   1   2
ATOM      2  C   UNL     1       8.993  19.412  36.170  1.00  0.00     0.000 C 
BRANCH   2   3
ATOM      3  C   UNL     1       9.163  17.980  36.704  1.00  0.00     0.000 C 
BRANCH   3   4
ATOM      4  C   UNL     1      10.641  17.586  36.874  1.00  0.00     0.000 C 
BRANCH   4   5
ATOM      5  C   UNL     1      11.586  18.416  35.991  1.00  0.00     0.000 C 
BRANCH   5   6
ATOM      6  C   UNL     1      13.042  17.922  36.061  1.00  0.00     0.000 C 
BRANCH   6   7
ATOM      7  C   UNL     1      13.182  16.442  35.672  1.00  0.00     0.000 C 
BRANCH   7   8
ATOM      8  C   UNL     1      13.796  15.597  36.803  1.00  0.00     0.000 C 
BRANCH   8   9
ATOM      9  C   UNL     1      14.072  16.420  38.072  1.00  0.00     0.000 C 
BRANCH   9  10
ATOM     10  C   UNL     1      15.575  16.595  38.348  1.00  0.00     0.000 C 
BRANCH  10  11
ATOM     11  C   UNL     1      16.101  17.956  37.848  1.00  0.00     0.000 C 
BRANCH  11  12
ATOM     12  C   UNL     1      16.946  17.856  36.565  1.00  0.00     0.006 C 
BRANCH  12  13
ATOM     13  C   UNL     1      17.335  16.414  36.218  1.00  0.00     0.053 C 
BRANCH  13  14
ATOM     14  C   UNL     1      18.102  16.371  34.935  1.00  0.00     0.041 C 
ATOM     15  O   UNL     1      18.103  17.368  34.164  1.00  0.00    -0.550 OA
ATOM     16  O   UNL     1      18.843  15.243  34.606  1.00  0.00    -0.550 OA
ENDBRANCH  13  14
ENDBRANCH  12  13
ENDBRANCH  11  12
ENDBRANCH  10  11
ENDBRANCH   9  10
ENDBRANCH   8   9
ENDBRANCH   7   8
ENDBRANCH   6   7
ENDBRANCH   5   6
ENDBRANCH   4   5
ENDBRANCH   3   4
ENDBRANCH   2   3
ENDBRANCH   1   2
BRANCH   1  17
ATOM     17  C   UNL     1       8.239  18.051  34.134  1.00  0.00     0.000 C 
BRANCH  17  18
ATOM     18  C   UNL     1       9.383  17.747  33.150  1.00  0.00     0.000 C 
BRANCH  18  19
ATOM     19  C   UNL     1       9.757  18.960  32.273  1.00  0.00     0.000 C 
BRANCH  19  20
ATOM     20  C   UNL     1       9.230  18.878  30.828  1.00  0.00     0.000 C 
BRANCH  20  21
ATOM     21  C   UNL     1       8.263  20.003  30.415  1.00  0.00     0.000 C 
BRANCH  21  22
ATOM     22  C   UNL     1       8.028  21.088  31.482  1.00  0.00    -0.000 C 
BRANCH  22  23
ATOM     23  C   UNL     1       8.690  22.429  31.128  1.00  0.00    -0.000 C 
BRANCH  23  24
ATOM     24  C   UNL     1       8.984  23.247  32.392  1.00  0.00    -0.000 C 
BRANCH  24  25
ATOM     25  C   UNL     1       9.904  22.475  33.344  1.00  0.00    -0.000 C 
BRANCH  25  26
ATOM     26  C   UNL     1      11.308  22.318  32.744  1.00  0.00    -0.000 C 
BRANCH  26  27
ATOM     27  C   UNL     1      12.323  23.320  33.325  1.00  0.00    -0.000 C 
BRANCH  27  28
ATOM     28  C   UNL     1      11.750  24.713  33.644  1.00  0.00    -0.000 C 
BRANCH  28  29
ATOM     29  C   UNL     1      12.246  25.799  32.678  1.00  0.00    -0.003 C 
ATOM     30  C   UNL     1      11.650  25.609  31.286  1.00  0.00     0.004 C 
ENDBRANCH  28  29
ENDBRANCH  27  28
ENDBRANCH  26  27
ENDBRANCH  25  26
ENDBRANCH  24  25
ENDBRANCH  23  24
ENDBRANCH  22  23
ENDBRANCH  21  22
ENDBRANCH  20  21
ENDBRANCH  19  20
ENDBRANCH  18  19
ENDBRANCH  17  18
ENDBRANCH   1  17
TORSDOF 26
ENDMDL
