MODEL 1
REMARK VINA RESULT:    -4.915      0.000      0.000
REMARK INTER + INTRA:         -14.114
REMARK INTER:                 -11.236
REMARK INTRA:                  -2.878
REMARK UNBOUND:                -2.878
REMARK SMILES CCCCCCCCCCCCCCCCCCCCCCCC(=O)[O-]
REMARK SMILES IDX 13 1 14 2 15 3 16 4 17 5 18 6 19 7 20 8 21 9 22 10 23 11
REMARK SMILES IDX 24 12 25 13 26 14 12 15 11 16 10 17 9 18 8 19 7 20 6 21 5 22
REMARK SMILES IDX 4 23 3 24 2 25 1 26
REMARK H PARENT
REMARK Flexibility Score: inf
ROOT
ATOM      1  C   UNL     1      43.380   2.015  17.187  1.00  0.00     0.000 C 
ENDROOT
BRANCH   1   2
ATOM      2  C   UNL     1      43.768   2.455  18.606  1.00  0.00     0.000 C 
BRANCH   2   3
ATOM      3  C   UNL     1      45.148   3.127  18.619  1.00  0.00     0.000 C 
BRANCH   3   4
ATOM      4  C   UNL     1      46.191   2.336  19.431  1.00  0.00     0.000 C 
BRANCH   4   5
ATOM      5  C   UNL     1      46.844   3.109  20.596  1.00  0.00     0.000 C 
BRANCH   5   6
ATOM      6  C   UNL     1      47.827   2.293  21.456  1.00  0.00     0.000 C 
BRANCH   6   7
ATOM      7  C   UNL     1      47.787   0.789  21.135  1.00  0.00     0.000 C 
BRANCH   7   8
ATOM      8  C   UNL     1      49.065   0.053  21.571  1.00  0.00     0.000 C 
BRANCH   8   9
ATOM      9  C   UNL     1      50.258   0.184  20.604  1.00  0.00     0.000 C 
BRANCH   9  10
ATOM     10  C   UNL     1      51.003  -1.143  20.346  1.00  0.00     0.006 C 
BRANCH  10  11
ATOM     11  C   UNL     1      52.493  -0.929  20.047  1.00  0.00     0.053 C 
BRANCH  11  12
ATOM     12  C   UNL     1      52.678  -0.334  18.687  1.00  0.00     0.041 C 
ATOM     13  O   UNL     1      53.061   0.859  18.564  1.00  0.00    -0.550 OA
ATOM     14  O   UNL     1      52.409  -1.090  17.551  1.00  0.00    -0.550 OA
ENDBRANCH  11  12
ENDBRANCH  10  11
ENDBRANCH   9  10
ENDBRANCH   8   9
ENDBRANCH   7   8
ENDBRANCH   6   7
ENDBRANCH   5   6
ENDBRANCH   4   5
ENDBRANCH   3   4
ENDBRANCH   2   3
ENDBRANCH   1   2
BRANCH   1  15
ATOM     15  C   UNL     1      42.024   1.291  17.148  1.00  0.00     0.000 C 
BRANCH  15  16
ATOM     16  C   UNL     1      41.519   0.910  18.553  1.00  0.00     0.000 C 
BRANCH  16  17
ATOM     17  C   UNL     1      41.544  -0.609  18.788  1.00  0.00     0.000 C 
BRANCH  17  18
ATOM     18  C   UNL     1      41.815  -0.975  20.258  1.00  0.00    -0.000 C 
BRANCH  18  19
ATOM     19  C   UNL     1      42.016   0.269  21.144  1.00  0.00    -0.000 C 
BRANCH  19  20
ATOM     20  C   UNL     1      43.465   0.429  21.640  1.00  0.00    -0.000 C 
BRANCH  20  21
ATOM     21  C   UNL     1      43.742   1.828  22.226  1.00  0.00    -0.000 C 
BRANCH  21  22
ATOM     22  C   UNL     1      44.715   1.773  23.418  1.00  0.00    -0.000 C 
BRANCH  22  23
ATOM     23  C   UNL     1      45.287   0.359  23.656  1.00  0.00    -0.000 C 
BRANCH  23  24
ATOM     24  C   UNL     1      44.943  -0.204  25.053  1.00  0.00    -0.000 C 
BRANCH  24  25
ATOM     25  C   UNL     1      43.533  -0.812  25.136  1.00  0.00    -0.003 C 
ATOM     26  C   UNL     1      43.554  -2.333  25.286  1.00  0.00     0.004 C 
ENDBRANCH  24  25
ENDBRANCH  23  24
ENDBRANCH  22  23
ENDBRANCH  21  22
ENDBRANCH  20  21
ENDBRANCH  19  20
ENDBRANCH  18  19
ENDBRANCH  17  18
ENDBRANCH  16  17
ENDBRANCH  15  16
ENDBRANCH   1  15
TORSDOF 22
ENDMDL
MODEL 2
REMARK VINA RESULT:    -4.792      1.528      3.291
REMARK INTER + INTRA:         -13.832
REMARK INTER:                 -10.488
REMARK INTRA:                  -3.345
REMARK UNBOUND:                -2.878
REMARK SMILES CCCCCCCCCCCCCCCCCCCCCCCC(=O)[O-]
REMARK SMILES IDX 13 1 14 2 15 3 16 4 17 5 18 6 19 7 20 8 21 9 22 10 23 11
REMARK SMILES IDX 24 12 25 13 26 14 12 15 11 16 10 17 9 18 8 19 7 20 6 21 5 22
REMARK SMILES IDX 4 23 3 24 2 25 1 26
REMARK H PARENT
REMARK Flexibility Score: inf
ROOT
ATOM      1  C   UNL     1      41.628  -0.147  18.750  1.00  0.00     0.000 C 
ENDROOT
BRANCH   1   2
ATOM      2  C   UNL     1      41.589   1.316  18.285  1.00  0.00     0.000 C 
BRANCH   2   3
ATOM      3  C   UNL     1      43.005   1.901  18.177  1.00  0.00     0.000 C 
BRANCH   3   4
ATOM      4  C   UNL     1      43.371   2.805  19.369  1.00  0.00     0.000 C 
BRANCH   4   5
ATOM      5  C   UNL     1      44.688   2.445  20.087  1.00  0.00     0.000 C 
BRANCH   5   6
ATOM      6  C   UNL     1      45.964   2.616  19.242  1.00  0.00     0.000 C 
BRANCH   6   7
ATOM      7  C   UNL     1      47.217   2.058  19.939  1.00  0.00     0.000 C 
BRANCH   7   8
ATOM      8  C   UNL     1      46.908   1.433  21.310  1.00  0.00     0.000 C 
BRANCH   8   9
ATOM      9  C   UNL     1      47.815   0.253  21.711  1.00  0.00     0.000 C 
BRANCH   9  10
ATOM     10  C   UNL     1      48.922  -0.062  20.684  1.00  0.00     0.006 C 
BRANCH  10  11
ATOM     11  C   UNL     1      50.291  -0.272  21.346  1.00  0.00     0.053 C 
BRANCH  11  12
ATOM     12  C   UNL     1      51.278  -0.812  20.359  1.00  0.00     0.041 C 
ATOM     13  O   UNL     1      50.878  -1.430  19.337  1.00  0.00    -0.550 OA
ATOM     14  O   UNL     1      52.642  -0.651  20.575  1.00  0.00    -0.550 OA
ENDBRANCH  11  12
ENDBRANCH  10  11
ENDBRANCH   9  10
ENDBRANCH   8   9
ENDBRANCH   7   8
ENDBRANCH   6   7
ENDBRANCH   5   6
ENDBRANCH   4   5
ENDBRANCH   3   4
ENDBRANCH   2   3
ENDBRANCH   1   2
BRANCH   1  15
ATOM     15  C   UNL     1      41.499  -0.281  20.276  1.00  0.00     0.000 C 
BRANCH  15  16
ATOM     16  C   UNL     1      42.687  -1.036  20.904  1.00  0.00     0.000 C 
BRANCH  16  17
ATOM     17  C   UNL     1      43.330  -0.251  22.059  1.00  0.00     0.000 C 
BRANCH  17  18
ATOM     18  C   UNL     1      42.692  -0.575  23.421  1.00  0.00    -0.000 C 
BRANCH  18  19
ATOM     19  C   UNL     1      43.741  -0.968  24.480  1.00  0.00    -0.000 C 
BRANCH  19  20
ATOM     20  C   UNL     1      45.067  -0.200  24.328  1.00  0.00    -0.000 C 
BRANCH  20  21
ATOM     21  C   UNL     1      45.084   1.121  25.124  1.00  0.00    -0.000 C 
BRANCH  21  22
ATOM     22  C   UNL     1      44.797   2.340  24.228  1.00  0.00    -0.000 C 
BRANCH  22  23
ATOM     23  C   UNL     1      43.731   3.282  24.827  1.00  0.00    -0.000 C 
BRANCH  23  24
ATOM     24  C   UNL     1      43.042   4.168  23.766  1.00  0.00    -0.000 C 
BRANCH  24  25
ATOM     25  C   UNL     1      42.179   3.372  22.773  1.00  0.00    -0.003 C 
ATOM     26  C   UNL     1      41.007   2.661  23.447  1.00  0.00     0.004 C 
ENDBRANCH  24  25
ENDBRANCH  23  24
ENDBRANCH  22  23
ENDBRANCH  21  22
ENDBRANCH  20  21
ENDBRANCH  19  20
ENDBRANCH  18  19
ENDBRANCH  17  18
ENDBRANCH  16  17
ENDBRANCH  15  16
ENDBRANCH   1  15
TORSDOF 22
ENDMDL
MODEL 3
REMARK VINA RESULT:    -4.756      4.065      8.030
REMARK INTER + INTRA:         -13.750
REMARK INTER:                 -10.504
REMARK INTRA:                  -3.246
REMARK UNBOUND:                -2.878
REMARK SMILES CCCCCCCCCCCCCCCCCCCCCCCC(=O)[O-]
REMARK SMILES IDX 13 1 14 2 15 3 16 4 17 5 18 6 19 7 20 8 21 9 22 10 23 11
REMARK SMILES IDX 24 12 25 13 26 14 12 15 11 16 10 17 9 18 8 19 7 20 6 21 5 22
REMARK SMILES IDX 4 23 3 24 2 25 1 26
REMARK H PARENT
REMARK Flexibility Score: inf
ROOT
ATOM      1  C   UNL     1      43.179  -0.877  23.022  1.00  0.00     0.000 C 
ENDROOT
BRANCH   1   2
ATOM      2  C   UNL     1      43.026  -0.671  21.508  1.00  0.00     0.000 C 
BRANCH   2   3
ATOM      3  C   UNL     1      41.550  -0.509  21.117  1.00  0.00     0.000 C 
BRANCH   3   4
ATOM      4  C   UNL     1      41.240  -1.059  19.712  1.00  0.00     0.000 C 
BRANCH   4   5
ATOM      5  C   UNL     1      41.868  -0.270  18.544  1.00  0.00     0.000 C 
BRANCH   5   6
ATOM      6  C   UNL     1      41.347   1.168  18.368  1.00  0.00     0.000 C 
BRANCH   6   7
ATOM      7  C   UNL     1      42.481   2.203  18.269  1.00  0.00     0.000 C 
BRANCH   7   8
ATOM      8  C   UNL     1      43.394   2.205  19.506  1.00  0.00     0.000 C 
BRANCH   8   9
ATOM      9  C   UNL     1      43.286   3.458  20.398  1.00  0.00     0.000 C 
BRANCH   9  10
ATOM     10  C   UNL     1      42.380   3.269  21.634  1.00  0.00     0.006 C 
BRANCH  10  11
ATOM     11  C   UNL     1      42.253   4.552  22.468  1.00  0.00     0.053 C 
BRANCH  11  12
ATOM     12  C   UNL     1      41.583   4.268  23.774  1.00  0.00     0.041 C 
ATOM     13  O   UNL     1      42.203   3.660  24.686  1.00  0.00    -0.550 OA
ATOM     14  O   UNL     1      40.264   4.657  23.982  1.00  0.00    -0.550 OA
ENDBRANCH  11  12
ENDBRANCH  10  11
ENDBRANCH   9  10
ENDBRANCH   8   9
ENDBRANCH   7   8
ENDBRANCH   6   7
ENDBRANCH   5   6
ENDBRANCH   4   5
ENDBRANCH   3   4
ENDBRANCH   2   3
ENDBRANCH   1   2
BRANCH   1  15
ATOM     15  C   UNL     1      42.846   0.392  23.823  1.00  0.00     0.000 C 
BRANCH  15  16
ATOM     16  C   UNL     1      43.830   0.629  24.986  1.00  0.00     0.000 C 
BRANCH  16  17
ATOM     17  C   UNL     1      45.233   1.016  24.491  1.00  0.00     0.000 C 
BRANCH  17  18
ATOM     18  C   UNL     1      45.212   2.230  23.545  1.00  0.00    -0.000 C 
BRANCH  18  19
ATOM     19  C   UNL     1      46.268   2.119  22.428  1.00  0.00    -0.000 C 
BRANCH  19  20
ATOM     20  C   UNL     1      46.328   0.719  21.791  1.00  0.00    -0.000 C 
BRANCH  20  21
ATOM     21  C   UNL     1      47.767   0.279  21.454  1.00  0.00    -0.000 C 
BRANCH  21  22
ATOM     22  C   UNL     1      48.560   1.391  20.743  1.00  0.00    -0.000 C 
BRANCH  22  23
ATOM     23  C   UNL     1      49.861   0.873  20.094  1.00  0.00    -0.000 C 
BRANCH  23  24
ATOM     24  C   UNL     1      50.594  -0.175  20.961  1.00  0.00    -0.000 C 
BRANCH  24  25
ATOM     25  C   UNL     1      51.232  -1.308  20.141  1.00  0.00    -0.003 C 
ATOM     26  C   UNL     1      51.537  -0.895  18.702  1.00  0.00     0.004 C 
ENDBRANCH  24  25
ENDBRANCH  23  24
ENDBRANCH  22  23
ENDBRANCH  21  22
ENDBRANCH  20  21
ENDBRANCH  19  20
ENDBRANCH  18  19
ENDBRANCH  17  18
ENDBRANCH  16  17
ENDBRANCH  15  16
ENDBRANCH   1  15
TORSDOF 22
ENDMDL
MODEL 4
REMARK VINA RESULT:    -4.743      3.854      6.509
REMARK INTER + INTRA:         -13.720
REMARK INTER:                  -9.619
REMARK INTRA:                  -4.101
REMARK UNBOUND:                -2.878
REMARK SMILES CCCCCCCCCCCCCCCCCCCCCCCC(=O)[O-]
REMARK SMILES IDX 13 1 14 2 15 3 16 4 17 5 18 6 19 7 20 8 21 9 22 10 23 11
REMARK SMILES IDX 24 12 25 13 26 14 12 15 11 16 10 17 9 18 8 19 7 20 6 21 5 22
REMARK SMILES IDX 4 23 3 24 2 25 1 26
REMARK H PARENT
REMARK Flexibility Score: inf
ROOT
ATOM      1  C   UNL     1      42.973   0.311  21.252  1.00  0.00     0.000 C 
ENDROOT
BRANCH   1   2
ATOM      2  C   UNL     1      42.111   1.231  22.129  1.00  0.00     0.000 C 
BRANCH   2   3
ATOM      3  C   UNL     1      42.226   2.694  21.677  1.00  0.00     0.000 C 
BRANCH   3   4
ATOM      4  C   UNL     1      41.542   3.675  22.648  1.00  0.00     0.000 C 
BRANCH   4   5
ATOM      5  C   UNL     1      41.826   3.425  24.144  1.00  0.00     0.000 C 
BRANCH   5   6
ATOM      6  C   UNL     1      42.941   4.294  24.754  1.00  0.00     0.000 C 
BRANCH   6   7
ATOM      7  C   UNL     1      44.213   3.489  25.074  1.00  0.00     0.000 C 
BRANCH   7   8
ATOM      8  C   UNL     1      45.085   3.235  23.834  1.00  0.00     0.000 C 
BRANCH   8   9
ATOM      9  C   UNL     1      45.489   1.764  23.608  1.00  0.00     0.000 C 
BRANCH   9  10
ATOM     10  C   UNL     1      45.121   0.827  24.777  1.00  0.00     0.006 C 
BRANCH  10  11
ATOM     11  C   UNL     1      44.672  -0.560  24.297  1.00  0.00     0.053 C 
BRANCH  11  12
ATOM     12  C   UNL     1      43.450  -1.005  25.035  1.00  0.00     0.041 C 
ATOM     13  O   UNL     1      42.559  -0.172  25.346  1.00  0.00    -0.550 OA
ATOM     14  O   UNL     1      43.301  -2.339  25.399  1.00  0.00    -0.550 OA
ENDBRANCH  11  12
ENDBRANCH  10  11
ENDBRANCH   9  10
ENDBRANCH   8   9
ENDBRANCH   7   8
ENDBRANCH   6   7
ENDBRANCH   5   6
ENDBRANCH   4   5
ENDBRANCH   3   4
ENDBRANCH   2   3
ENDBRANCH   1   2
BRANCH   1  15
ATOM     15  C   UNL     1      42.254  -0.999  20.894  1.00  0.00     0.000 C 
BRANCH  15  16
ATOM     16  C   UNL     1      41.193  -0.808  19.792  1.00  0.00     0.000 C 
BRANCH  16  17
ATOM     17  C   UNL     1      41.782  -0.167  18.524  1.00  0.00     0.000 C 
BRANCH  17  18
ATOM     18  C   UNL     1      41.164   1.208  18.216  1.00  0.00    -0.000 C 
BRANCH  18  19
ATOM     19  C   UNL     1      42.233   2.304  18.040  1.00  0.00    -0.000 C 
BRANCH  19  20
ATOM     20  C   UNL     1      43.484   1.810  17.290  1.00  0.00    -0.000 C 
BRANCH  20  21
ATOM     21  C   UNL     1      44.743   2.634  17.627  1.00  0.00    -0.000 C 
BRANCH  21  22
ATOM     22  C   UNL     1      44.732   3.139  19.082  1.00  0.00    -0.000 C 
BRANCH  22  23
ATOM     23  C   UNL     1      45.655   2.315  20.005  1.00  0.00    -0.000 C 
BRANCH  23  24
ATOM     24  C   UNL     1      47.157   2.568  19.741  1.00  0.00    -0.000 C 
BRANCH  24  25
ATOM     25  C   UNL     1      48.024   1.307  19.889  1.00  0.00    -0.003 C 
ATOM     26  C   UNL     1      48.160   0.852  21.340  1.00  0.00     0.004 C 
ENDBRANCH  24  25
ENDBRANCH  23  24
ENDBRANCH  22  23
ENDBRANCH  21  22
ENDBRANCH  20  21
ENDBRANCH  19  20
ENDBRANCH  18  19
ENDBRANCH  17  18
ENDBRANCH  16  17
ENDBRANCH  15  16
ENDBRANCH   1  15
TORSDOF 22
ENDMDL
MODEL 5
REMARK VINA RESULT:    -4.719      3.411      7.217
REMARK INTER + INTRA:         -13.666
REMARK INTER:                 -10.590
REMARK INTRA:                  -3.076
REMARK UNBOUND:                -2.878
REMARK SMILES CCCCCCCCCCCCCCCCCCCCCCCC(=O)[O-]
REMARK SMILES IDX 13 1 14 2 15 3 16 4 17 5 18 6 19 7 20 8 21 9 22 10 23 11
REMARK SMILES IDX 24 12 25 13 26 14 12 15 11 16 10 17 9 18 8 19 7 20 6 21 5 22
REMARK SMILES IDX 4 23 3 24 2 25 1 26
REMARK H PARENT
REMARK Flexibility Score: inf
ROOT
ATOM      1  C   UNL     1      42.269   3.062  20.552  1.00  0.00     0.000 C 
ENDROOT
BRANCH   1   2
ATOM      2  C   UNL     1      43.554   2.806  19.752  1.00  0.00     0.000 C 
BRANCH   2   3
ATOM      3  C   UNL     1      43.268   1.971  18.495  1.00  0.00     0.000 C 
BRANCH   3   4
ATOM      4  C   UNL     1      41.774   1.951  18.120  1.00  0.00     0.000 C 
BRANCH   4   5
ATOM      5  C   UNL     1      41.122   0.553  18.091  1.00  0.00     0.000 C 
BRANCH   5   6
ATOM      6  C   UNL     1      41.907  -0.553  18.821  1.00  0.00     0.000 C 
BRANCH   6   7
ATOM      7  C   UNL     1      41.207  -1.030  20.105  1.00  0.00     0.000 C 
BRANCH   7   8
ATOM      8  C   UNL     1      41.902  -0.533  21.383  1.00  0.00     0.000 C 
BRANCH   8   9
ATOM      9  C   UNL     1      43.442  -0.506  21.324  1.00  0.00     0.000 C 
BRANCH   9  10
ATOM     10  C   UNL     1      44.116  -0.253  22.689  1.00  0.00     0.006 C 
BRANCH  10  11
ATOM     11  C   UNL     1      43.183  -0.560  23.868  1.00  0.00     0.053 C 
BRANCH  11  12
ATOM     12  C   UNL     1      43.868  -1.434  24.870  1.00  0.00     0.041 C 
ATOM     13  O   UNL     1      43.264  -2.421  25.368  1.00  0.00    -0.550 OA
ATOM     14  O   UNL     1      45.169  -1.150  25.272  1.00  0.00    -0.550 OA
ENDBRANCH  11  12
ENDBRANCH  10  11
ENDBRANCH   9  10
ENDBRANCH   8   9
ENDBRANCH   7   8
ENDBRANCH   6   7
ENDBRANCH   5   6
ENDBRANCH   4   5
ENDBRANCH   3   4
ENDBRANCH   2   3
ENDBRANCH   1   2
BRANCH   1  15
ATOM     15  C   UNL     1      42.507   3.967  21.771  1.00  0.00     0.000 C 
BRANCH  15  16
ATOM     16  C   UNL     1      44.006   4.217  22.035  1.00  0.00     0.000 C 
BRANCH  16  17
ATOM     17  C   UNL     1      44.456   3.665  23.397  1.00  0.00     0.000 C 
BRANCH  17  18
ATOM     18  C   UNL     1      45.791   2.904  23.313  1.00  0.00    -0.000 C 
BRANCH  18  19
ATOM     19  C   UNL     1      46.199   2.594  21.860  1.00  0.00    -0.000 C 
BRANCH  19  20
ATOM     20  C   UNL     1      47.713   2.371  21.693  1.00  0.00    -0.000 C 
BRANCH  20  21
ATOM     21  C   UNL     1      48.055   1.501  20.466  1.00  0.00    -0.000 C 
BRANCH  21  22
ATOM     22  C   UNL     1      48.292   0.029  20.848  1.00  0.00    -0.000 C 
BRANCH  22  23
ATOM     23  C   UNL     1      49.790  -0.315  20.993  1.00  0.00    -0.000 C 
BRANCH  23  24
ATOM     24  C   UNL     1      50.710   0.646  20.208  1.00  0.00    -0.000 C 
BRANCH  24  25
ATOM     25  C   UNL     1      50.980   0.191  18.765  1.00  0.00    -0.003 C 
ATOM     26  C   UNL     1      51.919  -1.012  18.692  1.00  0.00     0.004 C 
ENDBRANCH  24  25
ENDBRANCH  23  24
ENDBRANCH  22  23
ENDBRANCH  21  22
ENDBRANCH  20  21
ENDBRANCH  19  20
ENDBRANCH  18  19
ENDBRANCH  17  18
ENDBRANCH  16  17
ENDBRANCH  15  16
ENDBRANCH   1  15
TORSDOF 22
ENDMDL
MODEL 6
REMARK VINA RESULT:    -4.674      3.317      7.693
REMARK INTER + INTRA:         -13.564
REMARK INTER:                 -11.263
REMARK INTRA:                  -2.301
REMARK UNBOUND:                -2.878
REMARK SMILES CCCCCCCCCCCCCCCCCCCCCCCC(=O)[O-]
REMARK SMILES IDX 13 1 14 2 15 3 16 4 17 5 18 6 19 7 20 8 21 9 22 10 23 11
REMARK SMILES IDX 24 12 25 13 26 14 12 15 11 16 10 17 9 18 8 19 7 20 6 21 5 22
REMARK SMILES IDX 4 23 3 24 2 25 1 26
REMARK H PARENT
REMARK Flexibility Score: inf
ROOT
ATOM      1  C   UNL     1      44.997   0.053  23.888  1.00  0.00     0.000 C 
ENDROOT
BRANCH   1   2
ATOM      2  C   UNL     1      43.683  -0.556  23.378  1.00  0.00     0.000 C 
BRANCH   2   3
ATOM      3  C   UNL     1      43.651  -0.599  21.844  1.00  0.00     0.000 C 
BRANCH   3   4
ATOM      4  C   UNL     1      42.317  -0.098  21.260  1.00  0.00     0.000 C 
BRANCH   4   5
ATOM      5  C   UNL     1      41.701  -0.991  20.161  1.00  0.00     0.000 C 
BRANCH   5   6
ATOM      6  C   UNL     1      41.554  -0.324  18.781  1.00  0.00     0.000 C 
BRANCH   6   7
ATOM      7  C   UNL     1      41.640   1.210  18.851  1.00  0.00     0.000 C 
BRANCH   7   8
ATOM      8  C   UNL     1      42.062   1.846  17.516  1.00  0.00     0.000 C 
BRANCH   8   9
ATOM      9  C   UNL     1      43.413   1.358  16.957  1.00  0.00     0.000 C 
BRANCH   9  10
ATOM     10  C   UNL     1      43.687   1.804  15.505  1.00  0.00     0.006 C 
BRANCH  10  11
ATOM     11  C   UNL     1      42.846   1.024  14.485  1.00  0.00     0.053 C 
BRANCH  11  12
ATOM     12  C   UNL     1      43.144   1.483  13.093  1.00  0.00     0.041 C 
ATOM     13  O   UNL     1      43.875   2.491  12.902  1.00  0.00    -0.550 OA
ATOM     14  O   UNL     1      42.600   0.812  12.004  1.00  0.00    -0.550 OA
ENDBRANCH  11  12
ENDBRANCH  10  11
ENDBRANCH   9  10
ENDBRANCH   8   9
ENDBRANCH   7   8
ENDBRANCH   6   7
ENDBRANCH   5   6
ENDBRANCH   4   5
ENDBRANCH   3   4
ENDBRANCH   2   3
ENDBRANCH   1   2
BRANCH   1  15
ATOM     15  C   UNL     1      44.765   1.250  24.823  1.00  0.00     0.000 C 
BRANCH  15  16
ATOM     16  C   UNL     1      44.829   2.599  24.081  1.00  0.00     0.000 C 
BRANCH  16  17
ATOM     17  C   UNL     1      45.730   2.536  22.836  1.00  0.00     0.000 C 
BRANCH  17  18
ATOM     18  C   UNL     1      44.961   2.828  21.535  1.00  0.00    -0.000 C 
BRANCH  18  19
ATOM     19  C   UNL     1      45.708   2.321  20.287  1.00  0.00    -0.000 C 
BRANCH  19  20
ATOM     20  C   UNL     1      47.239   2.328  20.456  1.00  0.00    -0.000 C 
BRANCH  20  21
ATOM     21  C   UNL     1      47.872   0.946  20.198  1.00  0.00    -0.000 C 
BRANCH  21  22
ATOM     22  C   UNL     1      48.322   0.262  21.502  1.00  0.00    -0.000 C 
BRANCH  22  23
ATOM     23  C   UNL     1      49.814  -0.132  21.484  1.00  0.00    -0.000 C 
BRANCH  23  24
ATOM     24  C   UNL     1      50.284  -0.657  20.109  1.00  0.00    -0.000 C 
BRANCH  24  25
ATOM     25  C   UNL     1      51.716  -1.216  20.126  1.00  0.00    -0.003 C 
ATOM     26  C   UNL     1      52.777  -0.120  20.212  1.00  0.00     0.004 C 
ENDBRANCH  24  25
ENDBRANCH  23  24
ENDBRANCH  22  23
ENDBRANCH  21  22
ENDBRANCH  20  21
ENDBRANCH  19  20
ENDBRANCH  18  19
ENDBRANCH  17  18
ENDBRANCH  16  17
ENDBRANCH  15  16
ENDBRANCH   1  15
TORSDOF 22
ENDMDL
MODEL 7
REMARK VINA RESULT:    -4.661      3.552      7.184
REMARK INTER + INTRA:         -13.533
REMARK INTER:                 -10.235
REMARK INTRA:                  -3.298
REMARK UNBOUND:                -2.878
REMARK SMILES CCCCCCCCCCCCCCCCCCCCCCCC(=O)[O-]
REMARK SMILES IDX 13 1 14 2 15 3 16 4 17 5 18 6 19 7 20 8 21 9 22 10 23 11
REMARK SMILES IDX 24 12 25 13 26 14 12 15 11 16 10 17 9 18 8 19 7 20 6 21 5 22
REMARK SMILES IDX 4 23 3 24 2 25 1 26
REMARK H PARENT
REMARK Flexibility Score: inf
ROOT
ATOM      1  C   UNL     1      42.363   3.055  21.136  1.00  0.00     0.000 C 
ENDROOT
BRANCH   1   2
ATOM      2  C   UNL     1      41.888   2.775  19.702  1.00  0.00     0.000 C 
BRANCH   2   3
ATOM      3  C   UNL     1      42.723   1.664  19.049  1.00  0.00     0.000 C 
BRANCH   3   4
ATOM      4  C   UNL     1      41.863   0.647  18.277  1.00  0.00     0.000 C 
BRANCH   4   5
ATOM      5  C   UNL     1      41.691  -0.726  18.962  1.00  0.00     0.000 C 
BRANCH   5   6
ATOM      6  C   UNL     1      41.492  -0.676  20.488  1.00  0.00     0.000 C 
BRANCH   6   7
ATOM      7  C   UNL     1      42.724  -1.173  21.264  1.00  0.00     0.000 C 
BRANCH   7   8
ATOM      8  C   UNL     1      43.203  -0.171  22.328  1.00  0.00     0.000 C 
BRANCH   8   9
ATOM      9  C   UNL     1      44.639   0.353  22.134  1.00  0.00     0.000 C 
BRANCH   9  10
ATOM     10  C   UNL     1      45.426   0.524  23.451  1.00  0.00     0.006 C 
BRANCH  10  11
ATOM     11  C   UNL     1      45.104   1.849  24.157  1.00  0.00     0.053 C 
BRANCH  11  12
ATOM     12  C   UNL     1      44.380   1.600  25.442  1.00  0.00     0.041 C 
ATOM     13  O   UNL     1      44.287   2.513  26.304  1.00  0.00    -0.550 OA
ATOM     14  O   UNL     1      43.824   0.352  25.700  1.00  0.00    -0.550 OA
ENDBRANCH  11  12
ENDBRANCH  10  11
ENDBRANCH   9  10
ENDBRANCH   8   9
ENDBRANCH   7   8
ENDBRANCH   6   7
ENDBRANCH   5   6
ENDBRANCH   4   5
ENDBRANCH   3   4
ENDBRANCH   2   3
ENDBRANCH   1   2
BRANCH   1  15
ATOM     15  C   UNL     1      42.863   4.496  21.318  1.00  0.00     0.000 C 
BRANCH  15  16
ATOM     16  C   UNL     1      44.343   4.558  21.742  1.00  0.00     0.000 C 
BRANCH  16  17
ATOM     17  C   UNL     1      45.297   4.494  20.538  1.00  0.00     0.000 C 
BRANCH  17  18
ATOM     18  C   UNL     1      46.210   3.256  20.573  1.00  0.00    -0.000 C 
BRANCH  18  19
ATOM     19  C   UNL     1      47.322   3.379  21.634  1.00  0.00    -0.000 C 
BRANCH  19  20
ATOM     20  C   UNL     1      48.315   2.203  21.604  1.00  0.00    -0.000 C 
BRANCH  20  21
ATOM     21  C   UNL     1      47.971   1.160  20.521  1.00  0.00    -0.000 C 
BRANCH  21  22
ATOM     22  C   UNL     1      48.549  -0.228  20.850  1.00  0.00    -0.000 C 
BRANCH  22  23
ATOM     23  C   UNL     1      50.069  -0.193  21.114  1.00  0.00    -0.000 C 
BRANCH  23  24
ATOM     24  C   UNL     1      50.885  -0.975  20.061  1.00  0.00    -0.000 C 
BRANCH  24  25
ATOM     25  C   UNL     1      52.398  -0.970  20.333  1.00  0.00    -0.003 C 
ATOM     26  C   UNL     1      53.115   0.200  19.662  1.00  0.00     0.004 C 
ENDBRANCH  24  25
ENDBRANCH  23  24
ENDBRANCH  22  23
ENDBRANCH  21  22
ENDBRANCH  20  21
ENDBRANCH  19  20
ENDBRANCH  18  19
ENDBRANCH  17  18
ENDBRANCH  16  17
ENDBRANCH  15  16
ENDBRANCH   1  15
TORSDOF 22
ENDMDL
MODEL 8
REMARK VINA RESULT:    -4.601      3.602      7.378
REMARK INTER + INTRA:         -13.396
REMARK INTER:                  -9.942
REMARK INTRA:                  -3.453
REMARK UNBOUND:                -2.878
REMARK SMILES CCCCCCCCCCCCCCCCCCCCCCCC(=O)[O-]
REMARK SMILES IDX 13 1 14 2 15 3 16 4 17 5 18 6 19 7 20 8 21 9 22 10 23 11
REMARK SMILES IDX 24 12 25 13 26 14 12 15 11 16 10 17 9 18 8 19 7 20 6 21 5 22
REMARK SMILES IDX 4 23 3 24 2 25 1 26
REMARK H PARENT
REMARK Flexibility Score: inf
ROOT
ATOM      1  C   UNL     1      41.863   3.109  22.141  1.00  0.00     0.000 C 
ENDROOT
BRANCH   1   2
ATOM      2  C   UNL     1      41.359   3.637  23.492  1.00  0.00     0.000 C 
BRANCH   2   3
ATOM      3  C   UNL     1      42.411   4.529  24.167  1.00  0.00     0.000 C 
BRANCH   3   4
ATOM      4  C   UNL     1      43.120   3.831  25.343  1.00  0.00     0.000 C 
BRANCH   4   5
ATOM      5  C   UNL     1      44.542   3.313  25.041  1.00  0.00     0.000 C 
BRANCH   5   6
ATOM      6  C   UNL     1      44.673   1.782  24.935  1.00  0.00     0.000 C 
BRANCH   6   7
ATOM      7  C   UNL     1      43.386   1.047  25.346  1.00  0.00     0.000 C 
BRANCH   7   8
ATOM      8  C   UNL     1      42.825   0.156  24.226  1.00  0.00     0.000 C 
BRANCH   8   9
ATOM      9  C   UNL     1      43.884  -0.589  23.389  1.00  0.00     0.000 C 
BRANCH   9  10
ATOM     10  C   UNL     1      43.603  -0.579  21.871  1.00  0.00     0.006 C 
BRANCH  10  11
ATOM     11  C   UNL     1      42.237   0.034  21.533  1.00  0.00     0.053 C 
BRANCH  11  12
ATOM     12  C   UNL     1      41.812  -0.354  20.153  1.00  0.00     0.041 C 
ATOM     13  O   UNL     1      41.555   0.533  19.296  1.00  0.00    -0.550 OA
ATOM     14  O   UNL     1      41.678  -1.696  19.814  1.00  0.00    -0.550 OA
ENDBRANCH  11  12
ENDBRANCH  10  11
ENDBRANCH   9  10
ENDBRANCH   8   9
ENDBRANCH   7   8
ENDBRANCH   6   7
ENDBRANCH   5   6
ENDBRANCH   4   5
ENDBRANCH   3   4
ENDBRANCH   2   3
ENDBRANCH   1   2
BRANCH   1  15
ATOM     15  C   UNL     1      42.957   4.002  21.535  1.00  0.00     0.000 C 
BRANCH  15  16
ATOM     16  C   UNL     1      44.219   3.206  21.145  1.00  0.00     0.000 C 
BRANCH  16  17
ATOM     17  C   UNL     1      45.511   3.920  21.573  1.00  0.00     0.000 C 
BRANCH  17  18
ATOM     18  C   UNL     1      46.608   2.938  22.022  1.00  0.00    -0.000 C 
BRANCH  18  19
ATOM     19  C   UNL     1      46.791   1.772  21.031  1.00  0.00    -0.000 C 
BRANCH  19  20
ATOM     20  C   UNL     1      47.125   0.438  21.725  1.00  0.00    -0.000 C 
BRANCH  20  21
ATOM     21  C   UNL     1      48.614   0.059  21.599  1.00  0.00    -0.000 C 
BRANCH  21  22
ATOM     22  C   UNL     1      49.445   1.183  20.955  1.00  0.00    -0.000 C 
BRANCH  22  23
ATOM     23  C   UNL     1      50.373   0.671  19.833  1.00  0.00    -0.000 C 
BRANCH  23  24
ATOM     24  C   UNL     1      50.640  -0.849  19.916  1.00  0.00    -0.000 C 
BRANCH  24  25
ATOM     25  C   UNL     1      52.124  -1.198  20.116  1.00  0.00    -0.003 C 
ATOM     26  C   UNL     1      53.046   0.001  19.902  1.00  0.00     0.004 C 
ENDBRANCH  24  25
ENDBRANCH  23  24
ENDBRANCH  22  23
ENDBRANCH  21  22
ENDBRANCH  20  21
ENDBRANCH  19  20
ENDBRANCH  18  19
ENDBRANCH  17  18
ENDBRANCH  16  17
ENDBRANCH  15  16
ENDBRANCH   1  15
TORSDOF 22
ENDMDL
MODEL 9
REMARK VINA RESULT:    -4.586      3.546      8.359
REMARK INTER + INTRA:         -13.361
REMARK INTER:                 -10.102
REMARK INTRA:                  -3.259
REMARK UNBOUND:                -2.878
REMARK SMILES CCCCCCCCCCCCCCCCCCCCCCCC(=O)[O-]
REMARK SMILES IDX 13 1 14 2 15 3 16 4 17 5 18 6 19 7 20 8 21 9 22 10 23 11
REMARK SMILES IDX 24 12 25 13 26 14 12 15 11 16 10 17 9 18 8 19 7 20 6 21 5 22
REMARK SMILES IDX 4 23 3 24 2 25 1 26
REMARK H PARENT
REMARK Flexibility Score: inf
ROOT
ATOM      1  C   UNL     1      47.588   0.865  21.617  1.00  0.00     0.000 C 
ENDROOT
BRANCH   1   2
ATOM      2  C   UNL     1      46.361   1.423  20.881  1.00  0.00     0.000 C 
BRANCH   2   3
ATOM      3  C   UNL     1      45.974   2.807  21.421  1.00  0.00     0.000 C 
BRANCH   3   4
ATOM      4  C   UNL     1      46.065   2.897  22.956  1.00  0.00     0.000 C 
BRANCH   4   5
ATOM      5  C   UNL     1      44.747   2.627  23.711  1.00  0.00     0.000 C 
BRANCH   5   6
ATOM      6  C   UNL     1      44.851   1.620  24.873  1.00  0.00     0.000 C 
BRANCH   6   7
ATOM      7  C   UNL     1      45.234   0.207  24.400  1.00  0.00     0.000 C 
BRANCH   7   8
ATOM      8  C   UNL     1      44.075  -0.796  24.519  1.00  0.00     0.000 C 
BRANCH   8   9
ATOM      9  C   UNL     1      42.960  -0.636  23.468  1.00  0.00     0.000 C 
BRANCH   9  10
ATOM     10  C   UNL     1      43.479  -0.498  22.021  1.00  0.00     0.006 C 
BRANCH  10  11
ATOM     11  C   UNL     1      42.628   0.467  21.183  1.00  0.00     0.053 C 
BRANCH  11  12
ATOM     12  C   UNL     1      41.853  -0.279  20.143  1.00  0.00     0.041 C 
ATOM     13  O   UNL     1      41.191  -1.302  20.460  1.00  0.00    -0.550 OA
ATOM     14  O   UNL     1      41.876   0.142  18.818  1.00  0.00    -0.550 OA
ENDBRANCH  11  12
ENDBRANCH  10  11
ENDBRANCH   9  10
ENDBRANCH   8   9
ENDBRANCH   7   8
ENDBRANCH   6   7
ENDBRANCH   5   6
ENDBRANCH   4   5
ENDBRANCH   3   4
ENDBRANCH   2   3
ENDBRANCH   1   2
BRANCH   1  15
ATOM     15  C   UNL     1      48.548   0.122  20.674  1.00  0.00     0.000 C 
BRANCH  15  16
ATOM     16  C   UNL     1      49.947  -0.072  21.292  1.00  0.00     0.000 C 
BRANCH  16  17
ATOM     17  C   UNL     1      50.829  -1.010  20.450  1.00  0.00     0.000 C 
BRANCH  17  18
ATOM     18  C   UNL     1      52.310  -0.592  20.457  1.00  0.00    -0.000 C 
BRANCH  18  19
ATOM     19  C   UNL     1      52.898  -0.495  19.036  1.00  0.00    -0.000 C 
BRANCH  19  20
ATOM     20  C   UNL     1      53.040   0.956  18.540  1.00  0.00    -0.000 C 
BRANCH  20  21
ATOM     21  C   UNL     1      52.924   1.988  19.680  1.00  0.00    -0.000 C 
BRANCH  21  22
ATOM     22  C   UNL     1      51.823   3.030  19.408  1.00  0.00    -0.000 C 
BRANCH  22  23
ATOM     23  C   UNL     1      50.985   2.698  18.155  1.00  0.00    -0.000 C 
BRANCH  23  24
ATOM     24  C   UNL     1      49.469   2.621  18.443  1.00  0.00    -0.000 C 
BRANCH  24  25
ATOM     25  C   UNL     1      48.628   2.289  17.200  1.00  0.00    -0.003 C 
ATOM     26  C   UNL     1      47.142   2.134  17.518  1.00  0.00     0.004 C 
ENDBRANCH  24  25
ENDBRANCH  23  24
ENDBRANCH  22  23
ENDBRANCH  21  22
ENDBRANCH  20  21
ENDBRANCH  19  20
ENDBRANCH  18  19
ENDBRANCH  17  18
ENDBRANCH  16  17
ENDBRANCH  15  16
ENDBRANCH   1  15
TORSDOF 22
ENDMDL
