MODEL 1
REMARK VINA RESULT:     0.000      0.000      0.000
REMARK INTER + INTRA:          -0.354
REMARK INTER:                   0.000
REMARK INTRA:                  -0.354
REMARK UNBOUND:                -0.354
REMARK SMILES Oc1cc(O)c2cc(O)c(-c3ccc(O)c(O)c3)[o+]c2c1
REMARK SMILES IDX 10 1 19 2 20 3 21 4 2 5 3 6 4 7 6 8 7 9 8 10 11 11 12 12
REMARK SMILES IDX 13 13 14 14 18 15 16 16 15 17 17 19 9 21 1 23 5 25
REMARK H PARENT 15 18 17 20 9 22 1 24 5 26
REMARK Flexibility Score: inf
ROOT
ATOM      1  C   UNL     1      12.649  17.716  50.136  1.00  0.00     0.402 A 
ATOM      2  O   UNL     1      12.898  18.894  50.701  1.00  0.00    -0.202 OA
ATOM      3  C   UNL     1      14.123  19.323  50.986  1.00  0.00     0.368 A 
ATOM      4  C   UNL     1      14.283  20.575  51.584  1.00  0.00     0.162 A 
ATOM      5  C   UNL     1      15.556  21.051  51.897  1.00  0.00     0.128 A 
ATOM      6  C   UNL     1      16.682  20.268  51.612  1.00  0.00     0.093 A 
ATOM      7  C   UNL     1      16.548  19.009  51.014  1.00  0.00     0.136 A 
ATOM      8  C   UNL     1      15.255  18.524  50.691  1.00  0.00     0.125 A 
ATOM      9  C   UNL     1      15.027  17.281  50.079  1.00  0.00     0.078 A 
ATOM     10  C   UNL     1      13.722  16.872  49.786  1.00  0.00     0.223 A 
ENDROOT
BRANCH   1  11
ATOM     11  C   UNL     1      11.239  17.346  49.877  1.00  0.00     0.087 A 
ATOM     12  C   UNL     1      10.605  17.816  48.716  1.00  0.00     0.022 A 
ATOM     13  C   UNL     1       9.269  17.497  48.460  1.00  0.00     0.051 A 
ATOM     14  C   UNL     1       8.544  16.716  49.370  1.00  0.00     0.157 A 
ATOM     15  C   UNL     1      10.502  16.579  50.796  1.00  0.00     0.068 A 
ATOM     16  C   UNL     1       9.160  16.260  50.541  1.00  0.00     0.158 A 
BRANCH  14  17
ATOM     17  O   UNL     1       7.212  16.393  49.118  1.00  0.00    -0.504 OA
ATOM     18  H   UNL     1       6.896  16.128  48.193  1.00  0.00     0.293 HD
ENDBRANCH  14  17
BRANCH  16  19
ATOM     19  O   UNL     1       8.432  15.495  51.452  1.00  0.00    -0.504 OA
ATOM     20  H   UNL     1       8.887  14.843  52.080  1.00  0.00     0.293 HD
ENDBRANCH  16  19
ENDBRANCH   1  11
BRANCH  10  21
ATOM     21  O   UNL     1      13.498  15.661  49.133  1.00  0.00    -0.500 OA
ATOM     22  H   UNL     1      13.298  14.809  49.644  1.00  0.00     0.294 HD
ENDBRANCH  10  21
BRANCH   5  23
ATOM     23  O   UNL     1      15.695  22.302  52.493  1.00  0.00    -0.507 OA
ATOM     24  H   UNL     1      16.570  22.596  52.911  1.00  0.00     0.293 HD
ENDBRANCH   5  23
BRANCH   7  25
ATOM     25  O   UNL     1      17.720  18.288  50.765  1.00  0.00    -0.507 OA
ATOM     26  H   UNL     1      17.933  17.389  51.174  1.00  0.00     0.293 HD
ENDBRANCH   7  25
TORSDOF 6
ENDMDL
MODEL 2
REMARK VINA RESULT:     0.000      5.138      7.334
REMARK INTER + INTRA:          -0.354
REMARK INTER:                   0.000
REMARK INTRA:                  -0.354
REMARK UNBOUND:                -0.354
REMARK SMILES Oc1cc(O)c2cc(O)c(-c3ccc(O)c(O)c3)[o+]c2c1
REMARK SMILES IDX 10 1 19 2 20 3 21 4 2 5 3 6 4 7 6 8 7 9 8 10 11 11 12 12
REMARK SMILES IDX 13 13 14 14 18 15 16 16 15 17 17 19 9 21 1 23 5 25
REMARK H PARENT 15 18 17 20 9 22 1 24 5 26
REMARK Flexibility Score: inf
ROOT
ATOM      1  C   UNL     1       8.790  16.504  51.333  1.00  0.00     0.402 A 
ATOM      2  O   UNL     1       9.386  15.683  50.473  1.00  0.00    -0.202 OA
ATOM      3  C   UNL     1       9.228  15.765  49.156  1.00  0.00     0.368 A 
ATOM      4  C   UNL     1       9.894  14.854  48.333  1.00  0.00     0.162 A 
ATOM      5  C   UNL     1       9.745  14.914  46.948  1.00  0.00     0.128 A 
ATOM      6  C   UNL     1       8.923  15.893  46.377  1.00  0.00     0.093 A 
ATOM      7  C   UNL     1       8.244  16.818  47.180  1.00  0.00     0.136 A 
ATOM      8  C   UNL     1       8.396  16.762  48.590  1.00  0.00     0.125 A 
ATOM      9  C   UNL     1       7.765  17.654  49.471  1.00  0.00     0.078 A 
ATOM     10  C   UNL     1       7.967  17.539  50.850  1.00  0.00     0.223 A 
ENDROOT
BRANCH   1  11
ATOM     11  C   UNL     1       9.038  16.304  52.779  1.00  0.00     0.087 A 
ATOM     12  C   UNL     1      10.193  16.849  53.363  1.00  0.00     0.022 A 
ATOM     13  C   UNL     1      10.458  16.655  54.721  1.00  0.00     0.051 A 
ATOM     14  C   UNL     1       9.579  15.903  55.512  1.00  0.00     0.157 A 
ATOM     15  C   UNL     1       8.169  15.534  53.572  1.00  0.00     0.068 A 
ATOM     16  C   UNL     1       8.435  15.338  54.935  1.00  0.00     0.158 A 
BRANCH  14  17
ATOM     17  O   UNL     1       9.838  15.710  56.867  1.00  0.00    -0.504 OA
ATOM     18  H   UNL     1      10.546  15.058  57.185  1.00  0.00     0.293 HD
ENDBRANCH  14  17
BRANCH  16  19
ATOM     19  O   UNL     1       7.570  14.578  55.721  1.00  0.00    -0.504 OA
ATOM     20  H   UNL     1       6.618  14.875  55.900  1.00  0.00     0.293 HD
ENDBRANCH  16  19
ENDBRANCH   1  11
BRANCH  10  21
ATOM     21  O   UNL     1       7.381  18.456  51.722  1.00  0.00    -0.500 OA
ATOM     22  H   UNL     1       7.570  19.450  51.657  1.00  0.00     0.294 HD
ENDBRANCH  10  21
BRANCH   5  23
ATOM     23  O   UNL     1      10.418  13.997  46.144  1.00  0.00    -0.507 OA
ATOM     24  H   UNL     1      10.785  13.130  46.521  1.00  0.00     0.293 HD
ENDBRANCH   5  23
BRANCH   7  25
ATOM     25  O   UNL     1       7.439  17.762  46.535  1.00  0.00    -0.507 OA
ATOM     26  H   UNL     1       6.657  17.532  45.938  1.00  0.00     0.293 HD
ENDBRANCH   7  25
TORSDOF 6
ENDMDL
MODEL 3
REMARK VINA RESULT:     0.000      3.612      5.624
REMARK INTER + INTRA:          -0.354
REMARK INTER:                   0.000
REMARK INTRA:                  -0.354
REMARK UNBOUND:                -0.354
REMARK SMILES Oc1cc(O)c2cc(O)c(-c3ccc(O)c(O)c3)[o+]c2c1
REMARK SMILES IDX 10 1 19 2 20 3 21 4 2 5 3 6 4 7 6 8 7 9 8 10 11 11 12 12
REMARK SMILES IDX 13 13 14 14 18 15 16 16 15 17 17 19 9 21 1 23 5 25
REMARK H PARENT 15 18 17 20 9 22 1 24 5 26
REMARK Flexibility Score: inf
ROOT
ATOM      1  C   UNL     1      13.986  18.990  50.004  1.00  0.00     0.402 A 
ATOM      2  O   UNL     1      13.558  19.357  51.209  1.00  0.00    -0.202 OA
ATOM      3  C   UNL     1      12.870  20.472  51.431  1.00  0.00     0.368 A 
ATOM      4  C   UNL     1      12.467  20.773  52.734  1.00  0.00     0.162 A 
ATOM      5  C   UNL     1      11.746  21.938  52.999  1.00  0.00     0.128 A 
ATOM      6  C   UNL     1      11.425  22.811  51.952  1.00  0.00     0.093 A 
ATOM      7  C   UNL     1      11.819  22.532  50.638  1.00  0.00     0.136 A 
ATOM      8  C   UNL     1      12.549  21.347  50.365  1.00  0.00     0.125 A 
ATOM      9  C   UNL     1      12.973  20.980  49.078  1.00  0.00     0.078 A 
ATOM     10  C   UNL     1      13.686  19.792  48.886  1.00  0.00     0.223 A 
ENDROOT
BRANCH   1  11
ATOM     11  C   UNL     1      14.753  17.729  49.886  1.00  0.00     0.087 A 
ATOM     12  C   UNL     1      14.064  16.509  49.796  1.00  0.00     0.022 A 
ATOM     13  C   UNL     1      14.766  15.304  49.705  1.00  0.00     0.051 A 
ATOM     14  C   UNL     1      16.167  15.302  49.717  1.00  0.00     0.157 A 
ATOM     15  C   UNL     1      16.158  17.720  49.917  1.00  0.00     0.068 A 
ATOM     16  C   UNL     1      16.864  16.511  49.827  1.00  0.00     0.158 A 
BRANCH  14  17
ATOM     17  O   UNL     1      16.872  14.104  49.623  1.00  0.00    -0.504 OA
ATOM     18  H   UNL     1      17.252  13.779  48.741  1.00  0.00     0.293 HD
ENDBRANCH  14  17
BRANCH  16  19
ATOM     19  O   UNL     1      18.258  16.504  49.854  1.00  0.00    -0.504 OA
ATOM     20  H   UNL     1      18.804  16.816  49.059  1.00  0.00     0.293 HD
ENDBRANCH  16  19
ENDBRANCH   1  11
BRANCH  10  21
ATOM     21  O   UNL     1      14.063  19.402  47.601  1.00  0.00    -0.500 OA
ATOM     22  H   UNL     1      14.660  18.599  47.442  1.00  0.00     0.294 HD
ENDBRANCH  10  21
BRANCH   5  23
ATOM     23  O   UNL     1      11.353  22.221  54.305  1.00  0.00    -0.507 OA
ATOM     24  H   UNL     1      11.429  21.530  55.043  1.00  0.00     0.293 HD
ENDBRANCH   5  23
BRANCH   7  25
ATOM     25  O   UNL     1      11.463  23.456  49.650  1.00  0.00    -0.507 OA
ATOM     26  H   UNL     1      10.997  24.333  49.831  1.00  0.00     0.293 HD
ENDBRANCH   7  25
TORSDOF 6
ENDMDL
MODEL 4
REMARK VINA RESULT:     0.000      3.907      5.924
REMARK INTER + INTRA:          -0.354
REMARK INTER:                   0.000
REMARK INTRA:                  -0.354
REMARK UNBOUND:                -0.354
REMARK SMILES Oc1cc(O)c2cc(O)c(-c3ccc(O)c(O)c3)[o+]c2c1
REMARK SMILES IDX 10 1 19 2 20 3 21 4 2 5 3 6 4 7 6 8 7 9 8 10 11 11 12 12
REMARK SMILES IDX 13 13 14 14 18 15 16 16 15 17 17 19 9 21 1 23 5 25
REMARK H PARENT 15 18 17 20 9 22 1 24 5 26
REMARK Flexibility Score: inf
ROOT
ATOM      1  C   UNL     1      10.374  15.945  53.145  1.00  0.00     0.402 A 
ATOM      2  O   UNL     1      10.905  16.929  52.425  1.00  0.00    -0.202 OA
ATOM      3  C   UNL     1      11.439  16.747  51.221  1.00  0.00     0.368 A 
ATOM      4  C   UNL     1      11.977  17.844  50.543  1.00  0.00     0.162 A 
ATOM      5  C   UNL     1      12.546  17.683  49.280  1.00  0.00     0.128 A 
ATOM      6  C   UNL     1      12.580  16.415  48.688  1.00  0.00     0.093 A 
ATOM      7  C   UNL     1      12.049  15.300  49.347  1.00  0.00     0.136 A 
ATOM      8  C   UNL     1      11.466  15.461  50.630  1.00  0.00     0.125 A 
ATOM      9  C   UNL     1      10.898  14.403  51.358  1.00  0.00     0.078 A 
ATOM     10  C   UNL     1      10.337  14.640  52.617  1.00  0.00     0.223 A 
ENDROOT
BRANCH   1  11
ATOM     11  C   UNL     1       9.819  16.272  54.478  1.00  0.00     0.087 A 
ATOM     12  C   UNL     1       8.515  16.783  54.575  1.00  0.00     0.022 A 
ATOM     13  C   UNL     1       7.977  17.119  55.821  1.00  0.00     0.051 A 
ATOM     14  C   UNL     1       8.742  16.962  56.985  1.00  0.00     0.157 A 
ATOM     15  C   UNL     1      10.589  16.135  55.646  1.00  0.00     0.068 A 
ATOM     16  C   UNL     1      10.051  16.473  56.896  1.00  0.00     0.158 A 
BRANCH  14  17
ATOM     17  O   UNL     1       8.209  17.293  58.229  1.00  0.00    -0.504 OA
ATOM     18  H   UNL     1       7.522  16.704  58.685  1.00  0.00     0.293 HD
ENDBRANCH  14  17
BRANCH  16  19
ATOM     19  O   UNL     1      10.814  16.331  58.055  1.00  0.00    -0.504 OA
ATOM     20  H   UNL     1      10.554  15.678  58.784  1.00  0.00     0.293 HD
ENDBRANCH  16  19
ENDBRANCH   1  11
BRANCH  10  21
ATOM     21  O   UNL     1       9.728  13.599  53.319  1.00  0.00    -0.500 OA
ATOM     22  H   UNL     1       8.766  13.331  53.145  1.00  0.00     0.294 HD
ENDBRANCH  10  21
BRANCH   5  23
ATOM     23  O   UNL     1      13.078  18.789  48.620  1.00  0.00    -0.507 OA
ATOM     24  H   UNL     1      13.993  18.757  48.186  1.00  0.00     0.293 HD
ENDBRANCH   5  23
BRANCH   7  25
ATOM     25  O   UNL     1      12.124  14.068  48.690  1.00  0.00    -0.507 OA
ATOM     26  H   UNL     1      12.004  13.944  47.695  1.00  0.00     0.293 HD
ENDBRANCH   7  25
TORSDOF 6
ENDMDL
MODEL 5
REMARK VINA RESULT:     0.000      6.950     10.337
REMARK INTER + INTRA:          -0.354
REMARK INTER:                   0.000
REMARK INTRA:                  -0.354
REMARK UNBOUND:                -0.354
REMARK SMILES Oc1cc(O)c2cc(O)c(-c3ccc(O)c(O)c3)[o+]c2c1
REMARK SMILES IDX 10 1 19 2 20 3 21 4 2 5 3 6 4 7 6 8 7 9 8 10 11 11 12 12
REMARK SMILES IDX 13 13 14 14 18 15 16 16 15 17 17 19 9 21 1 23 5 25
REMARK H PARENT 15 18 17 20 9 22 1 24 5 26
REMARK Flexibility Score: inf
ROOT
ATOM      1  C   UNL     1      13.797  22.468  57.345  1.00  0.00     0.402 A 
ATOM      2  O   UNL     1      13.272  21.360  57.861  1.00  0.00    -0.202 OA
ATOM      3  C   UNL     1      12.535  21.348  58.967  1.00  0.00     0.368 A 
ATOM      4  C   UNL     1      12.029  20.132  59.434  1.00  0.00     0.162 A 
ATOM      5  C   UNL     1      11.255  20.088  60.593  1.00  0.00     0.128 A 
ATOM      6  C   UNL     1      10.983  21.269  61.294  1.00  0.00     0.093 A 
ATOM      7  C   UNL     1      11.478  22.500  60.847  1.00  0.00     0.136 A 
ATOM      8  C   UNL     1      12.263  22.549  59.667  1.00  0.00     0.125 A 
ATOM      9  C   UNL     1      12.790  23.738  59.138  1.00  0.00     0.078 A 
ATOM     10  C   UNL     1      13.552  23.708  57.966  1.00  0.00     0.223 A 
ENDROOT
BRANCH   1  11
ATOM     11  C   UNL     1      14.609  22.350  56.113  1.00  0.00     0.087 A 
ATOM     12  C   UNL     1      13.967  22.308  54.865  1.00  0.00     0.022 A 
ATOM     13  C   UNL     1      14.712  22.176  53.690  1.00  0.00     0.051 A 
ATOM     14  C   UNL     1      16.108  22.071  53.747  1.00  0.00     0.157 A 
ATOM     15  C   UNL     1      16.009  22.224  56.167  1.00  0.00     0.068 A 
ATOM     16  C   UNL     1      16.757  22.090  54.988  1.00  0.00     0.158 A 
BRANCH  14  17
ATOM     17  O   UNL     1      16.856  21.942  52.578  1.00  0.00    -0.504 OA
ATOM     18  H   UNL     1      17.811  22.277  52.519  1.00  0.00     0.293 HD
ENDBRANCH  14  17
BRANCH  16  19
ATOM     19  O   UNL     1      18.145  21.971  55.043  1.00  0.00    -0.504 OA
ATOM     20  H   UNL     1      18.593  21.252  55.598  1.00  0.00     0.293 HD
ENDBRANCH  16  19
ENDBRANCH   1  11
BRANCH  10  21
ATOM     21  O   UNL     1      14.033  24.894  57.413  1.00  0.00    -0.500 OA
ATOM     22  H   UNL     1      14.241  24.976  56.424  1.00  0.00     0.294 HD
ENDBRANCH  10  21
BRANCH   5  23
ATOM     23  O   UNL     1      10.760  18.866  61.043  1.00  0.00    -0.507 OA
ATOM     24  H   UNL     1      11.116  17.986  60.686  1.00  0.00     0.293 HD
ENDBRANCH   5  23
BRANCH   7  25
ATOM     25  O   UNL     1      11.165  23.633  61.605  1.00  0.00    -0.507 OA
ATOM     26  H   UNL     1      11.307  24.583  61.294  1.00  0.00     0.293 HD
ENDBRANCH   7  25
TORSDOF 6
ENDMDL
MODEL 6
REMARK VINA RESULT:     0.000      6.020      8.306
REMARK INTER + INTRA:          -0.354
REMARK INTER:                   0.000
REMARK INTRA:                  -0.354
REMARK UNBOUND:                -0.354
REMARK SMILES Oc1cc(O)c2cc(O)c(-c3ccc(O)c(O)c3)[o+]c2c1
REMARK SMILES IDX 10 1 19 2 20 3 21 4 2 5 3 6 4 7 6 8 7 9 8 10 11 11 12 12
REMARK SMILES IDX 13 13 14 14 18 15 16 16 15 17 17 19 9 21 1 23 5 25
REMARK H PARENT 15 18 17 20 9 22 1 24 5 26
REMARK Flexibility Score: inf
ROOT
ATOM      1  C   UNL     1       9.677  20.955  53.807  1.00  0.00     0.402 A 
ATOM      2  O   UNL     1       8.404  20.571  53.843  1.00  0.00    -0.202 OA
ATOM      3  C   UNL     1       7.457  21.244  54.489  1.00  0.00     0.368 A 
ATOM      4  C   UNL     1       6.147  20.758  54.472  1.00  0.00     0.162 A 
ATOM      5  C   UNL     1       5.133  21.441  55.143  1.00  0.00     0.128 A 
ATOM      6  C   UNL     1       5.428  22.621  55.837  1.00  0.00     0.093 A 
ATOM      7  C   UNL     1       6.733  23.128  55.869  1.00  0.00     0.136 A 
ATOM      8  C   UNL     1       7.766  22.437  55.185  1.00  0.00     0.125 A 
ATOM      9  C   UNL     1       9.099  22.878  55.152  1.00  0.00     0.078 A 
ATOM     10  C   UNL     1      10.063  22.145  54.453  1.00  0.00     0.223 A 
ENDROOT
BRANCH   1  11
ATOM     11  C   UNL     1      10.642  20.114  53.062  1.00  0.00     0.087 A 
ATOM     12  C   UNL     1      10.760  20.267  51.672  1.00  0.00     0.022 A 
ATOM     13  C   UNL     1      11.649  19.470  50.945  1.00  0.00     0.051 A 
ATOM     14  C   UNL     1      12.421  18.500  51.597  1.00  0.00     0.157 A 
ATOM     15  C   UNL     1      11.404  19.126  53.709  1.00  0.00     0.068 A 
ATOM     16  C   UNL     1      12.295  18.324  52.980  1.00  0.00     0.158 A 
BRANCH  14  17
ATOM     17  O   UNL     1      13.311  17.705  50.877  1.00  0.00    -0.504 OA
ATOM     18  H   UNL     1      14.290  17.951  50.788  1.00  0.00     0.293 HD
ENDBRANCH  14  17
BRANCH  16  19
ATOM     19  O   UNL     1      13.055  17.348  53.624  1.00  0.00    -0.504 OA
ATOM     20  H   UNL     1      13.443  16.560  53.119  1.00  0.00     0.293 HD
ENDBRANCH  16  19
ENDBRANCH   1  11
BRANCH  10  21
ATOM     21  O   UNL     1      11.376  22.610  54.377  1.00  0.00    -0.500 OA
ATOM     22  H   UNL     1      11.996  22.587  55.179  1.00  0.00     0.294 HD
ENDBRANCH  10  21
BRANCH   5  23
ATOM     23  O   UNL     1       3.833  20.941  55.115  1.00  0.00    -0.507 OA
ATOM     24  H   UNL     1       3.215  21.115  54.330  1.00  0.00     0.293 HD
ENDBRANCH   5  23
BRANCH   7  25
ATOM     25  O   UNL     1       6.947  24.308  56.587  1.00  0.00    -0.507 OA
ATOM     26  H   UNL     1       7.777  24.879  56.512  1.00  0.00     0.293 HD
ENDBRANCH   7  25
TORSDOF 6
ENDMDL
MODEL 7
REMARK VINA RESULT:     0.000      3.829      6.515
REMARK INTER + INTRA:          -0.354
REMARK INTER:                   0.000
REMARK INTRA:                  -0.354
REMARK UNBOUND:                -0.354
REMARK SMILES Oc1cc(O)c2cc(O)c(-c3ccc(O)c(O)c3)[o+]c2c1
REMARK SMILES IDX 10 1 19 2 20 3 21 4 2 5 3 6 4 7 6 8 7 9 8 10 11 11 12 12
REMARK SMILES IDX 13 13 14 14 18 15 16 16 15 17 17 19 9 21 1 23 5 25
REMARK H PARENT 15 18 17 20 9 22 1 24 5 26
REMARK Flexibility Score: inf
ROOT
ATOM      1  C   UNL     1       9.960  17.515  52.603  1.00  0.00     0.402 A 
ATOM      2  O   UNL     1      11.038  17.338  51.845  1.00  0.00    -0.202 OA
ATOM      3  C   UNL     1      11.245  16.250  51.111  1.00  0.00     0.368 A 
ATOM      4  C   UNL     1      12.411  16.155  50.349  1.00  0.00     0.162 A 
ATOM      5  C   UNL     1      12.656  15.023  49.571  1.00  0.00     0.128 A 
ATOM      6  C   UNL     1      11.728  13.975  49.554  1.00  0.00     0.093 A 
ATOM      7  C   UNL     1      10.551  14.046  50.310  1.00  0.00     0.136 A 
ATOM      8  C   UNL     1      10.297  15.197  51.099  1.00  0.00     0.125 A 
ATOM      9  C   UNL     1       9.140  15.360  51.877  1.00  0.00     0.078 A 
ATOM     10  C   UNL     1       8.957  16.527  52.627  1.00  0.00     0.223 A 
ENDROOT
BRANCH   1  11
ATOM     11  C   UNL     1       9.850  18.768  53.384  1.00  0.00     0.087 A 
ATOM     12  C   UNL     1       9.361  19.928  52.762  1.00  0.00     0.022 A 
ATOM     13  C   UNL     1       9.267  21.127  53.473  1.00  0.00     0.051 A 
ATOM     14  C   UNL     1       9.675  21.187  54.812  1.00  0.00     0.157 A 
ATOM     15  C   UNL     1      10.276  18.838  54.722  1.00  0.00     0.068 A 
ATOM     16  C   UNL     1      10.184  20.042  55.436  1.00  0.00     0.158 A 
BRANCH  14  17
ATOM     17  O   UNL     1       9.581  22.380  55.526  1.00  0.00    -0.504 OA
ATOM     18  H   UNL     1       9.312  23.248  55.076  1.00  0.00     0.293 HD
ENDBRANCH  14  17
BRANCH  16  19
ATOM     19  O   UNL     1      10.603  20.108  56.765  1.00  0.00    -0.504 OA
ATOM     20  H   UNL     1       9.947  20.017  57.532  1.00  0.00     0.293 HD
ENDBRANCH  16  19
ENDBRANCH   1  11
BRANCH  10  21
ATOM     21  O   UNL     1       7.785  16.711  53.360  1.00  0.00    -0.500 OA
ATOM     22  H   UNL     1       6.960  16.146  53.196  1.00  0.00     0.294 HD
ENDBRANCH  10  21
BRANCH   5  23
ATOM     23  O   UNL     1      13.826  14.947  48.818  1.00  0.00    -0.507 OA
ATOM     24  H   UNL     1      14.740  15.037  49.248  1.00  0.00     0.293 HD
ENDBRANCH   5  23
BRANCH   7  25
ATOM     25  O   UNL     1       9.676  12.957  50.242  1.00  0.00    -0.507 OA
ATOM     26  H   UNL     1       9.937  12.035  49.921  1.00  0.00     0.293 HD
ENDBRANCH   7  25
TORSDOF 6
ENDMDL
MODEL 8
REMARK VINA RESULT:     0.000      3.239      6.012
REMARK INTER + INTRA:          -0.354
REMARK INTER:                   0.000
REMARK INTRA:                  -0.354
REMARK UNBOUND:                -0.354
REMARK SMILES Oc1cc(O)c2cc(O)c(-c3ccc(O)c(O)c3)[o+]c2c1
REMARK SMILES IDX 10 1 19 2 20 3 21 4 2 5 3 6 4 7 6 8 7 9 8 10 11 11 12 12
REMARK SMILES IDX 13 13 14 14 18 15 16 16 15 17 17 19 9 21 1 23 5 25
REMARK H PARENT 15 18 17 20 9 22 1 24 5 26
REMARK Flexibility Score: inf
ROOT
ATOM      1  C   UNL     1      11.011  19.606  50.214  1.00  0.00     0.402 A 
ATOM      2  O   UNL     1      12.090  19.429  49.455  1.00  0.00    -0.202 OA
ATOM      3  C   UNL     1      12.296  18.340  48.721  1.00  0.00     0.368 A 
ATOM      4  C   UNL     1      13.463  18.245  47.959  1.00  0.00     0.162 A 
ATOM      5  C   UNL     1      13.708  17.114  47.181  1.00  0.00     0.128 A 
ATOM      6  C   UNL     1      12.779  16.066  47.164  1.00  0.00     0.093 A 
ATOM      7  C   UNL     1      11.603  16.137  47.920  1.00  0.00     0.136 A 
ATOM      8  C   UNL     1      11.349  17.288  48.709  1.00  0.00     0.125 A 
ATOM      9  C   UNL     1      10.191  17.451  49.487  1.00  0.00     0.078 A 
ATOM     10  C   UNL     1      10.009  18.617  50.237  1.00  0.00     0.223 A 
ENDROOT
BRANCH   1  11
ATOM     11  C   UNL     1      10.901  20.859  50.994  1.00  0.00     0.087 A 
ATOM     12  C   UNL     1      10.412  22.018  50.372  1.00  0.00     0.022 A 
ATOM     13  C   UNL     1      10.319  23.218  51.083  1.00  0.00     0.051 A 
ATOM     14  C   UNL     1      10.726  23.278  52.422  1.00  0.00     0.157 A 
ATOM     15  C   UNL     1      11.328  20.929  52.332  1.00  0.00     0.068 A 
ATOM     16  C   UNL     1      11.236  22.133  53.046  1.00  0.00     0.158 A 
BRANCH  14  17
ATOM     17  O   UNL     1      10.633  24.471  53.136  1.00  0.00    -0.504 OA
ATOM     18  H   UNL     1      10.788  25.369  52.692  1.00  0.00     0.293 HD
ENDBRANCH  14  17
BRANCH  16  19
ATOM     19  O   UNL     1      11.654  22.199  54.375  1.00  0.00    -0.504 OA
ATOM     20  H   UNL     1      11.037  22.523  55.109  1.00  0.00     0.293 HD
ENDBRANCH  16  19
ENDBRANCH   1  11
BRANCH  10  21
ATOM     21  O   UNL     1       8.837  18.802  50.970  1.00  0.00    -0.500 OA
ATOM     22  H   UNL     1       8.011  18.236  50.806  1.00  0.00     0.294 HD
ENDBRANCH  10  21
BRANCH   5  23
ATOM     23  O   UNL     1      14.877  17.037  46.428  1.00  0.00    -0.507 OA
ATOM     24  H   UNL     1      14.889  16.606  45.511  1.00  0.00     0.293 HD
ENDBRANCH   5  23
BRANCH   7  25
ATOM     25  O   UNL     1      10.728  15.048  47.852  1.00  0.00    -0.507 OA
ATOM     26  H   UNL     1      10.989  14.126  47.531  1.00  0.00     0.293 HD
ENDBRANCH   7  25
TORSDOF 6
ENDMDL
MODEL 9
REMARK VINA RESULT:     0.001      6.256      9.609
REMARK INTER + INTRA:          -0.352
REMARK INTER:                   0.000
REMARK INTRA:                  -0.352
REMARK UNBOUND:                -0.354
REMARK SMILES Oc1cc(O)c2cc(O)c(-c3ccc(O)c(O)c3)[o+]c2c1
REMARK SMILES IDX 10 1 19 2 20 3 21 4 2 5 3 6 4 7 6 8 7 9 8 10 11 11 12 12
REMARK SMILES IDX 13 13 14 14 18 15 16 16 15 17 17 19 9 21 1 23 5 25
REMARK H PARENT 15 18 17 20 9 22 1 24 5 26
REMARK Flexibility Score: inf
ROOT
ATOM      1  C   UNL     1       8.319  22.942  49.373  1.00  0.00     0.402 A 
ATOM      2  O   UNL     1       7.009  23.007  49.152  1.00  0.00    -0.202 OA
ATOM      3  C   UNL     1       6.136  22.153  49.676  1.00  0.00     0.368 A 
ATOM      4  C   UNL     1       4.779  22.302  49.381  1.00  0.00     0.162 A 
ATOM      5  C   UNL     1       3.840  21.419  49.915  1.00  0.00     0.128 A 
ATOM      6  C   UNL     1       4.260  20.377  50.751  1.00  0.00     0.093 A 
ATOM      7  C   UNL     1       5.615  20.207  51.061  1.00  0.00     0.136 A 
ATOM      8  C   UNL     1       6.572  21.105  50.523  1.00  0.00     0.125 A 
ATOM      9  C   UNL     1       7.948  21.019  50.789  1.00  0.00     0.078 A 
ATOM     10  C   UNL     1       8.831  21.945  50.225  1.00  0.00     0.223 A 
ENDROOT
BRANCH   1  11
ATOM     11  C   UNL     1       9.191  23.947  48.723  1.00  0.00     0.087 A 
ATOM     12  C   UNL     1       9.352  25.208  49.317  1.00  0.00     0.022 A 
ATOM     13  C   UNL     1      10.154  26.179  48.711  1.00  0.00     0.051 A 
ATOM     14  C   UNL     1      10.794  25.907  47.494  1.00  0.00     0.157 A 
ATOM     15  C   UNL     1       9.820  23.685  47.493  1.00  0.00     0.068 A 
ATOM     16  C   UNL     1      10.623  24.659  46.882  1.00  0.00     0.158 A 
BRANCH  14  17
ATOM     17  O   UNL     1      11.596  26.871  46.887  1.00  0.00    -0.504 OA
ATOM     18  H   UNL     1      12.249  27.431  47.423  1.00  0.00     0.293 HD
ENDBRANCH  14  17
BRANCH  16  19
ATOM     19  O   UNL     1      11.249  24.396  45.665  1.00  0.00    -0.504 OA
ATOM     20  H   UNL     1      11.831  25.088  45.208  1.00  0.00     0.293 HD
ENDBRANCH  16  19
ENDBRANCH   1  11
BRANCH  10  21
ATOM     21  O   UNL     1      10.191  21.890  50.530  1.00  0.00    -0.500 OA
ATOM     22  H   UNL     1      10.694  21.010  50.564  1.00  0.00     0.294 HD
ENDBRANCH  10  21
BRANCH   5  23
ATOM     23  O   UNL     1       2.491  21.584  49.609  1.00  0.00    -0.507 OA
ATOM     24  H   UNL     1       2.143  22.439  49.190  1.00  0.00     0.293 HD
ENDBRANCH   5  23
BRANCH   7  25
ATOM     25  O   UNL     1       5.953  19.141  51.900  1.00  0.00    -0.507 OA
ATOM     26  H   UNL     1       6.317  18.255  51.577  1.00  0.00     0.293 HD
ENDBRANCH   7  25
TORSDOF 6
ENDMDL
