MODEL 1
REMARK VINA RESULT:    -4.079      0.000      0.000
REMARK INTER + INTRA:          -4.198
REMARK INTER:                  -4.198
REMARK INTRA:                   0.000
REMARK UNBOUND:                 0.000
REMARK SMILES O=c1ccc2ccc(O)cc2o1
REMARK SMILES IDX 6 1 7 2 8 3 10 4 11 5 5 6 4 7 3 8 2 9 1 10 12 11 9 12
REMARK H PARENT 9 13
REMARK Flexibility Score: inf
ROOT
ATOM      1  C   UNL     1      25.707  40.004  -1.437  1.00  0.00     0.016 A 
ATOM      2  C   UNL     1      26.981  39.951  -2.010  1.00  0.00     0.047 A 
ATOM      3  C   UNL     1      27.996  39.195  -1.410  1.00  0.00     0.119 A 
ATOM      4  C   UNL     1      27.735  38.487  -0.227  1.00  0.00     0.094 A 
ATOM      5  C   UNL     1      26.463  38.535   0.354  1.00  0.00     0.142 A 
ATOM      6  C   UNL     1      25.442  39.298  -0.255  1.00  0.00     0.018 A 
ATOM      7  C   UNL     1      24.181  39.327   0.348  1.00  0.00     0.019 A 
ATOM      8  C   UNL     1      23.970  38.606   1.524  1.00  0.00     0.094 A 
ATOM      9  C   UNL     1      25.028  37.873   2.070  1.00  0.00     0.336 A 
ATOM     10  O   UNL     1      24.856  37.216   3.130  1.00  0.00    -0.246 OA
ATOM     11  O   UNL     1      26.218  37.862   1.475  1.00  0.00    -0.423 OA
ENDROOT
BRANCH   3  12
ATOM     12  O   UNL     1      29.259  39.154  -1.996  1.00  0.00    -0.508 OA
ATOM     13  H   UNL     1      29.376  39.024  -2.994  1.00  0.00     0.293 HD
ENDBRANCH   3  12
TORSDOF 1
ENDMDL
MODEL 2
REMARK VINA RESULT:    -4.046     14.690     16.731
REMARK INTER + INTRA:          -4.164
REMARK INTER:                  -4.164
REMARK INTRA:                   0.000
REMARK UNBOUND:                 0.000
REMARK SMILES O=c1ccc2ccc(O)cc2o1
REMARK SMILES IDX 6 1 7 2 8 3 10 4 11 5 5 6 4 7 3 8 2 9 1 10 12 11 9 12
REMARK H PARENT 9 13
REMARK Flexibility Score: inf
ROOT
ATOM      1  C   UNL     1      41.903  32.158  -1.627  1.00  0.00     0.016 A 
ATOM      2  C   UNL     1      40.597  32.212  -2.125  1.00  0.00     0.047 A 
ATOM      3  C   UNL     1      39.667  33.104  -1.577  1.00  0.00     0.119 A 
ATOM      4  C   UNL     1      40.045  33.948  -0.523  1.00  0.00     0.094 A 
ATOM      5  C   UNL     1      41.349  33.901  -0.017  1.00  0.00     0.142 A 
ATOM      6  C   UNL     1      42.284  33.001  -0.573  1.00  0.00     0.018 A 
ATOM      7  C   UNL     1      43.580  32.975  -0.048  1.00  0.00     0.019 A 
ATOM      8  C   UNL     1      43.908  33.834   1.001  1.00  0.00     0.094 A 
ATOM      9  C   UNL     1      42.930  34.700   1.501  1.00  0.00     0.336 A 
ATOM     10  O   UNL     1      43.208  35.482   2.447  1.00  0.00    -0.246 OA
ATOM     11  O   UNL     1      41.705  34.703   0.982  1.00  0.00    -0.423 OA
ENDROOT
BRANCH   3  12
ATOM     12  O   UNL     1      38.371  33.143  -2.087  1.00  0.00    -0.508 OA
ATOM     13  H   UNL     1      37.735  32.363  -1.975  1.00  0.00     0.293 HD
ENDBRANCH   3  12
TORSDOF 1
ENDMDL
MODEL 3
REMARK VINA RESULT:    -4.042      2.290      4.367
REMARK INTER + INTRA:          -4.160
REMARK INTER:                  -4.160
REMARK INTRA:                   0.000
REMARK UNBOUND:                 0.000
REMARK SMILES O=c1ccc2ccc(O)cc2o1
REMARK SMILES IDX 6 1 7 2 8 3 10 4 11 5 5 6 4 7 3 8 2 9 1 10 12 11 9 12
REMARK H PARENT 9 13
REMARK Flexibility Score: inf
ROOT
ATOM      1  C   UNL     1      24.099  40.383   1.623  1.00  0.00     0.016 A 
ATOM      2  C   UNL     1      24.277  40.778   2.952  1.00  0.00     0.047 A 
ATOM      3  C   UNL     1      25.556  40.784   3.523  1.00  0.00     0.119 A 
ATOM      4  C   UNL     1      26.665  40.392   2.759  1.00  0.00     0.094 A 
ATOM      5  C   UNL     1      26.496  39.994   1.428  1.00  0.00     0.142 A 
ATOM      6  C   UNL     1      25.205  39.989   0.856  1.00  0.00     0.018 A 
ATOM      7  C   UNL     1      25.066  39.587  -0.476  1.00  0.00     0.019 A 
ATOM      8  C   UNL     1      26.199  39.206  -1.195  1.00  0.00     0.094 A 
ATOM      9  C   UNL     1      27.446  39.235  -0.564  1.00  0.00     0.336 A 
ATOM     10  O   UNL     1      28.479  38.895  -1.197  1.00  0.00    -0.246 OA
ATOM     11  O   UNL     1      27.549  39.623   0.705  1.00  0.00    -0.423 OA
ENDROOT
BRANCH   3  12
ATOM     12  O   UNL     1      25.714  41.182   4.848  1.00  0.00    -0.508 OA
ATOM     13  H   UNL     1      25.016  40.968   5.552  1.00  0.00     0.293 HD
ENDBRANCH   3  12
TORSDOF 1
ENDMDL
MODEL 4
REMARK VINA RESULT:    -4.025     15.522     17.508
REMARK INTER + INTRA:          -4.142
REMARK INTER:                  -4.142
REMARK INTRA:                   0.000
REMARK UNBOUND:                 0.000
REMARK SMILES O=c1ccc2ccc(O)cc2o1
REMARK SMILES IDX 6 1 7 2 8 3 10 4 11 5 5 6 4 7 3 8 2 9 1 10 12 11 9 12
REMARK H PARENT 9 13
REMARK Flexibility Score: inf
ROOT
ATOM      1  C   UNL     1      43.921  32.108   1.626  1.00  0.00     0.016 A 
ATOM      2  C   UNL     1      43.811  31.755   2.975  1.00  0.00     0.047 A 
ATOM      3  C   UNL     1      42.568  31.793   3.617  1.00  0.00     0.119 A 
ATOM      4  C   UNL     1      41.425  32.187   2.906  1.00  0.00     0.094 A 
ATOM      5  C   UNL     1      41.524  32.542   1.556  1.00  0.00     0.142 A 
ATOM      6  C   UNL     1      42.780  32.502   0.912  1.00  0.00     0.018 A 
ATOM      7  C   UNL     1      42.850  32.862  -0.437  1.00  0.00     0.019 A 
ATOM      8  C   UNL     1      41.685  33.247  -1.102  1.00  0.00     0.094 A 
ATOM      9  C   UNL     1      40.476  33.262  -0.400  1.00  0.00     0.336 A 
ATOM     10  O   UNL     1      39.415  33.606  -0.983  1.00  0.00    -0.246 OA
ATOM     11  O   UNL     1      40.439  32.914   0.884  1.00  0.00    -0.423 OA
ENDROOT
BRANCH   3  12
ATOM     12  O   UNL     1      42.479  31.437   4.961  1.00  0.00    -0.508 OA
ATOM     13  H   UNL     1      41.587  31.236   5.398  1.00  0.00     0.293 HD
ENDBRANCH   3  12
TORSDOF 1
ENDMDL
MODEL 5
REMARK VINA RESULT:    -3.962      0.778      4.225
REMARK INTER + INTRA:          -4.078
REMARK INTER:                  -4.078
REMARK INTRA:                   0.000
REMARK UNBOUND:                 0.000
REMARK SMILES O=c1ccc2ccc(O)cc2o1
REMARK SMILES IDX 6 1 7 2 8 3 10 4 11 5 5 6 4 7 3 8 2 9 1 10 12 11 9 12
REMARK H PARENT 9 13
REMARK Flexibility Score: inf
ROOT
ATOM      1  C   UNL     1      24.189  39.378   0.347  1.00  0.00     0.016 A 
ATOM      2  C   UNL     1      23.945  38.713   1.552  1.00  0.00     0.047 A 
ATOM      3  C   UNL     1      24.967  37.992   2.182  1.00  0.00     0.119 A 
ATOM      4  C   UNL     1      26.242  37.934   1.602  1.00  0.00     0.094 A 
ATOM      5  C   UNL     1      26.496  38.597   0.395  1.00  0.00     0.142 A 
ATOM      6  C   UNL     1      25.463  39.323  -0.237  1.00  0.00     0.018 A 
ATOM      7  C   UNL     1      25.745  39.974  -1.441  1.00  0.00     0.019 A 
ATOM      8  C   UNL     1      27.029  39.889  -1.979  1.00  0.00     0.094 A 
ATOM      9  C   UNL     1      28.003  39.151  -1.298  1.00  0.00     0.336 A 
ATOM     10  O   UNL     1      29.167  39.062  -1.768  1.00  0.00    -0.246 OA
ATOM     11  O   UNL     1      27.707  38.541  -0.153  1.00  0.00    -0.423 OA
ENDROOT
BRANCH   3  12
ATOM     12  O   UNL     1      24.704  37.336   3.383  1.00  0.00    -0.508 OA
ATOM     13  H   UNL     1      23.769  37.028   3.624  1.00  0.00     0.293 HD
ENDBRANCH   3  12
TORSDOF 1
ENDMDL
MODEL 6
REMARK VINA RESULT:    -3.945      2.164      2.214
REMARK INTER + INTRA:          -4.060
REMARK INTER:                  -4.060
REMARK INTRA:                   0.000
REMARK UNBOUND:                 0.000
REMARK SMILES O=c1ccc2ccc(O)cc2o1
REMARK SMILES IDX 6 1 7 2 8 3 10 4 11 5 5 6 4 7 3 8 2 9 1 10 12 11 9 12
REMARK H PARENT 9 13
REMARK Flexibility Score: inf
ROOT
ATOM      1  C   UNL     1      25.141  39.597  -0.449  1.00  0.00     0.016 A 
ATOM      2  C   UNL     1      26.279  39.160  -1.132  1.00  0.00     0.047 A 
ATOM      3  C   UNL     1      27.516  39.096  -0.478  1.00  0.00     0.119 A 
ATOM      4  C   UNL     1      27.615  39.474   0.869  1.00  0.00     0.094 A 
ATOM      5  C   UNL     1      26.481  39.914   1.561  1.00  0.00     0.142 A 
ATOM      6  C   UNL     1      25.235  39.976   0.898  1.00  0.00     0.018 A 
ATOM      7  C   UNL     1      24.120  40.420   1.614  1.00  0.00     0.019 A 
ATOM      8  C   UNL     1      24.268  40.785   2.952  1.00  0.00     0.094 A 
ATOM      9  C   UNL     1      25.532  40.697   3.543  1.00  0.00     0.336 A 
ATOM     10  O   UNL     1      25.686  41.022   4.750  1.00  0.00    -0.246 OA
ATOM     11  O   UNL     1      26.578  40.272   2.838  1.00  0.00    -0.423 OA
ENDROOT
BRANCH   3  12
ATOM     12  O   UNL     1      28.639  38.657  -1.175  1.00  0.00    -0.508 OA
ATOM     13  H   UNL     1      29.032  39.195  -1.939  1.00  0.00     0.293 HD
ENDBRANCH   3  12
TORSDOF 1
ENDMDL
MODEL 7
REMARK VINA RESULT:    -3.923      5.892      6.920
REMARK INTER + INTRA:          -4.038
REMARK INTER:                  -4.038
REMARK INTRA:                   0.000
REMARK UNBOUND:                 0.000
REMARK SMILES O=c1ccc2ccc(O)cc2o1
REMARK SMILES IDX 6 1 7 2 8 3 10 4 11 5 5 6 4 7 3 8 2 9 1 10 12 11 9 12
REMARK H PARENT 9 13
REMARK Flexibility Score: inf
ROOT
ATOM      1  C   UNL     1      24.257  43.312   6.134  1.00  0.00     0.016 A 
ATOM      2  C   UNL     1      25.013  44.439   6.471  1.00  0.00     0.047 A 
ATOM      3  C   UNL     1      26.117  44.808   5.692  1.00  0.00     0.119 A 
ATOM      4  C   UNL     1      26.469  44.045   4.570  1.00  0.00     0.094 A 
ATOM      5  C   UNL     1      25.719  42.914   4.226  1.00  0.00     0.142 A 
ATOM      6  C   UNL     1      24.605  42.545   5.013  1.00  0.00     0.018 A 
ATOM      7  C   UNL     1      23.875  41.412   4.645  1.00  0.00     0.019 A 
ATOM      8  C   UNL     1      24.264  40.684   3.520  1.00  0.00     0.094 A 
ATOM      9  C   UNL     1      25.377  41.109   2.788  1.00  0.00     0.336 A 
ATOM     10  O   UNL     1      25.743  40.465   1.770  1.00  0.00    -0.246 OA
ATOM     11  O   UNL     1      26.054  42.192   3.161  1.00  0.00    -0.423 OA
ENDROOT
BRANCH   3  12
ATOM     12  O   UNL     1      26.857  45.935   6.044  1.00  0.00    -0.508 OA
ATOM     13  H   UNL     1      26.426  46.849   6.119  1.00  0.00     0.293 HD
ENDBRANCH   3  12
TORSDOF 1
ENDMDL
MODEL 8
REMARK VINA RESULT:    -3.895     15.300     17.092
REMARK INTER + INTRA:          -4.009
REMARK INTER:                  -4.009
REMARK INTRA:                   0.000
REMARK UNBOUND:                 0.000
REMARK SMILES O=c1ccc2ccc(O)cc2o1
REMARK SMILES IDX 6 1 7 2 8 3 10 4 11 5 5 6 4 7 3 8 2 9 1 10 12 11 9 12
REMARK H PARENT 9 13
REMARK Flexibility Score: inf
ROOT
ATOM      1  C   UNL     1      42.645  32.684  -0.616  1.00  0.00     0.016 A 
ATOM      2  C   UNL     1      41.472  33.034  -1.292  1.00  0.00     0.047 A 
ATOM      3  C   UNL     1      40.304  33.325  -0.577  1.00  0.00     0.119 A 
ATOM      4  C   UNL     1      40.307  33.263   0.824  1.00  0.00     0.094 A 
ATOM      5  C   UNL     1      41.476  32.913   1.509  1.00  0.00     0.142 A 
ATOM      6  C   UNL     1      42.653  32.622   0.785  1.00  0.00     0.018 A 
ATOM      7  C   UNL     1      43.805  32.275   1.495  1.00  0.00     0.019 A 
ATOM      8  C   UNL     1      43.759  32.227   2.889  1.00  0.00     0.094 A 
ATOM      9  C   UNL     1      42.559  32.528   3.539  1.00  0.00     0.336 A 
ATOM     10  O   UNL     1      42.498  32.491   4.796  1.00  0.00    -0.246 OA
ATOM     11  O   UNL     1      41.476  32.856   2.838  1.00  0.00    -0.423 OA
ENDROOT
BRANCH   3  12
ATOM     12  O   UNL     1      39.145  33.672  -1.269  1.00  0.00    -0.508 OA
ATOM     13  H   UNL     1      38.634  32.993  -1.821  1.00  0.00     0.293 HD
ENDBRANCH   3  12
TORSDOF 1
ENDMDL
