MODEL 1
REMARK VINA RESULT:    -5.911      0.000      0.000
REMARK INTER + INTRA:          -7.096
REMARK INTER:                  -6.948
REMARK INTRA:                  -0.148
REMARK UNBOUND:                -0.148
REMARK SMILES O=C([O-])C=Cc1ccc(O)c(O)c1
REMARK SMILES IDX 6 1 13 2 7 3 11 4 8 5 9 6 5 7 4 8 2 9 1 10 3 11 12 12 10 14
REMARK H PARENT 12 13 10 15
REMARK Flexibility Score: inf
ROOT
ATOM      1  C   UNL     1      -2.257  44.117   2.498  1.00  0.00    -0.022 A 
ATOM      2  C   UNL     1      -2.798  43.774   1.246  1.00  0.00     0.058 A 
ATOM      3  C   UNL     1      -1.488  45.282   2.617  1.00  0.00     0.012 A 
ATOM      4  C   UNL     1      -2.614  44.616   0.140  1.00  0.00     0.157 A 
ATOM      5  C   UNL     1      -1.304  46.123   1.517  1.00  0.00     0.051 A 
ATOM      6  C   UNL     1      -1.868  45.798   0.278  1.00  0.00     0.157 A 
ENDROOT
BRANCH   1   7
ATOM      7  C   UNL     1      -2.393  43.217   3.662  1.00  0.00     0.010 C 
ATOM      8  C   UNL     1      -3.150  43.456   4.744  1.00  0.00     0.025 C 
BRANCH   8   9
ATOM      9  C   UNL     1      -3.826  44.731   5.051  1.00  0.00     0.064 C 
ATOM     10  O   UNL     1      -4.947  44.972   4.534  1.00  0.00    -0.545 OA
ATOM     11  O   UNL     1      -3.287  45.639   5.955  1.00  0.00    -0.545 OA
ENDBRANCH   8   9
ENDBRANCH   1   7
BRANCH   4  12
ATOM     12  O   UNL     1      -3.167  44.279  -1.095  1.00  0.00    -0.504 OA
ATOM     13  H   UNL     1      -2.682  43.671  -1.746  1.00  0.00     0.293 HD
ENDBRANCH   4  12
BRANCH   6  14
ATOM     14  O   UNL     1      -1.671  46.657  -0.803  1.00  0.00    -0.504 OA
ATOM     15  H   UNL     1      -2.423  46.913  -1.431  1.00  0.00     0.293 HD
ENDBRANCH   6  14
TORSDOF 4
ENDMDL
MODEL 2
REMARK VINA RESULT:    -5.814      1.884      2.479
REMARK INTER + INTRA:          -6.982
REMARK INTER:                  -6.875
REMARK INTRA:                  -0.108
REMARK UNBOUND:                -0.148
REMARK SMILES O=C([O-])C=Cc1ccc(O)c(O)c1
REMARK SMILES IDX 6 1 13 2 7 3 11 4 8 5 9 6 5 7 4 8 2 9 1 10 3 11 12 12 10 14
REMARK H PARENT 12 13 10 15
REMARK Flexibility Score: inf
ROOT
ATOM      1  C   UNL     1      -1.158  45.655   2.415  1.00  0.00    -0.022 A 
ATOM      2  C   UNL     1       0.035  45.134   1.883  1.00  0.00     0.058 A 
ATOM      3  C   UNL     1      -2.235  45.916   1.559  1.00  0.00     0.012 A 
ATOM      4  C   UNL     1       0.128  44.829   0.517  1.00  0.00     0.157 A 
ATOM      5  C   UNL     1      -2.145  45.612   0.198  1.00  0.00     0.051 A 
ATOM      6  C   UNL     1      -0.970  45.065  -0.328  1.00  0.00     0.157 A 
ENDROOT
BRANCH   1   7
ATOM      7  C   UNL     1      -1.257  46.033   3.840  1.00  0.00     0.010 C 
ATOM      8  C   UNL     1      -2.053  45.445   4.746  1.00  0.00     0.025 C 
BRANCH   8   9
ATOM      9  C   UNL     1      -3.101  44.450   4.447  1.00  0.00     0.064 C 
ATOM     10  O   UNL     1      -4.303  44.819   4.398  1.00  0.00    -0.545 OA
ATOM     11  O   UNL     1      -2.785  43.130   4.148  1.00  0.00    -0.545 OA
ENDBRANCH   8   9
ENDBRANCH   1   7
BRANCH   4  12
ATOM     12  O   UNL     1       1.307  44.297  -0.003  1.00  0.00    -0.504 OA
ATOM     13  H   UNL     1       1.749  44.689  -0.827  1.00  0.00     0.293 HD
ENDBRANCH   4  12
BRANCH   6  14
ATOM     14  O   UNL     1      -0.909  44.768  -1.689  1.00  0.00    -0.504 OA
ATOM     15  H   UNL     1      -1.647  44.262  -2.163  1.00  0.00     0.293 HD
ENDBRANCH   6  14
TORSDOF 4
ENDMDL
MODEL 3
REMARK VINA RESULT:    -5.786      1.649      2.007
REMARK INTER + INTRA:          -6.949
REMARK INTER:                  -6.995
REMARK INTRA:                   0.046
REMARK UNBOUND:                -0.148
REMARK SMILES O=C([O-])C=Cc1ccc(O)c(O)c1
REMARK SMILES IDX 6 1 13 2 7 3 11 4 8 5 9 6 5 7 4 8 2 9 1 10 3 11 12 12 10 14
REMARK H PARENT 12 13 10 15
REMARK Flexibility Score: inf
ROOT
ATOM      1  C   UNL     1      -1.072  45.680   2.683  1.00  0.00    -0.022 A 
ATOM      2  C   UNL     1      -2.141  45.647   1.770  1.00  0.00     0.058 A 
ATOM      3  C   UNL     1       0.197  45.256   2.269  1.00  0.00     0.012 A 
ATOM      4  C   UNL     1      -1.929  45.245   0.443  1.00  0.00     0.157 A 
ATOM      5  C   UNL     1       0.411  44.856   0.947  1.00  0.00     0.051 A 
ATOM      6  C   UNL     1      -0.645  44.853   0.030  1.00  0.00     0.157 A 
ENDROOT
BRANCH   1   7
ATOM      7  C   UNL     1      -1.287  46.049   4.098  1.00  0.00     0.010 C 
ATOM      8  C   UNL     1      -2.146  45.449   4.936  1.00  0.00     0.025 C 
BRANCH   8   9
ATOM      9  C   UNL     1      -3.158  44.448   4.551  1.00  0.00     0.064 C 
ATOM     10  O   UNL     1      -4.358  44.805   4.424  1.00  0.00    -0.545 OA
ATOM     11  O   UNL     1      -2.807  43.136   4.256  1.00  0.00    -0.545 OA
ENDBRANCH   8   9
ENDBRANCH   1   7
BRANCH   4  12
ATOM     12  O   UNL     1      -2.989  45.231  -0.462  1.00  0.00    -0.504 OA
ATOM     13  H   UNL     1      -2.832  45.243  -1.464  1.00  0.00     0.293 HD
ENDBRANCH   4  12
BRANCH   6  14
ATOM     14  O   UNL     1      -0.401  44.452  -1.283  1.00  0.00    -0.504 OA
ATOM     15  H   UNL     1      -0.777  44.954  -2.078  1.00  0.00     0.293 HD
ENDBRANCH   6  14
TORSDOF 4
ENDMDL
MODEL 4
REMARK VINA RESULT:    -5.776      7.932      9.756
REMARK INTER + INTRA:          -6.937
REMARK INTER:                  -6.697
REMARK INTRA:                  -0.240
REMARK UNBOUND:                -0.148
REMARK SMILES O=C([O-])C=Cc1ccc(O)c(O)c1
REMARK SMILES IDX 6 1 13 2 7 3 11 4 8 5 9 6 5 7 4 8 2 9 1 10 3 11 12 12 10 14
REMARK H PARENT 12 13 10 15
REMARK Flexibility Score: inf
ROOT
ATOM      1  C   UNL     1       1.295  47.173  11.232  1.00  0.00    -0.022 A 
ATOM      2  C   UNL     1       0.286  46.385  10.650  1.00  0.00     0.058 A 
ATOM      3  C   UNL     1       1.795  48.276  10.529  1.00  0.00     0.012 A 
ATOM      4  C   UNL     1      -0.252  46.731   9.401  1.00  0.00     0.157 A 
ATOM      5  C   UNL     1       1.261  48.623   9.285  1.00  0.00     0.051 A 
ATOM      6  C   UNL     1       0.235  47.859   8.719  1.00  0.00     0.157 A 
ENDROOT
BRANCH   1   7
ATOM      7  C   UNL     1       1.912  46.795  12.520  1.00  0.00     0.010 C 
ATOM      8  C   UNL     1       3.003  46.027  12.665  1.00  0.00     0.025 C 
BRANCH   8   9
ATOM      9  C   UNL     1       3.667  45.273  11.585  1.00  0.00     0.064 C 
ATOM     10  O   UNL     1       4.853  45.558  11.276  1.00  0.00    -0.545 OA
ATOM     11  O   UNL     1       3.038  44.208  10.950  1.00  0.00    -0.545 OA
ENDBRANCH   8   9
ENDBRANCH   1   7
BRANCH   4  12
ATOM     12  O   UNL     1      -1.264  45.956   8.836  1.00  0.00    -0.504 OA
ATOM     13  H   UNL     1      -1.130  44.972   8.635  1.00  0.00     0.293 HD
ENDBRANCH   4  12
BRANCH   6  14
ATOM     14  O   UNL     1      -0.282  48.230   7.479  1.00  0.00    -0.504 OA
ATOM     15  H   UNL     1      -0.778  49.102   7.341  1.00  0.00     0.293 HD
ENDBRANCH   6  14
TORSDOF 4
ENDMDL
MODEL 5
REMARK VINA RESULT:    -5.748      1.282      4.689
REMARK INTER + INTRA:          -6.905
REMARK INTER:                  -6.707
REMARK INTRA:                  -0.197
REMARK UNBOUND:                -0.148
REMARK SMILES O=C([O-])C=Cc1ccc(O)c(O)c1
REMARK SMILES IDX 6 1 13 2 7 3 11 4 8 5 9 6 5 7 4 8 2 9 1 10 3 11 12 12 10 14
REMARK H PARENT 12 13 10 15
REMARK Flexibility Score: inf
ROOT
ATOM      1  C   UNL     1      -1.277  44.357   2.466  1.00  0.00    -0.022 A 
ATOM      2  C   UNL     1      -2.322  43.645   3.081  1.00  0.00     0.058 A 
ATOM      3  C   UNL     1      -0.845  45.565   3.030  1.00  0.00     0.012 A 
ATOM      4  C   UNL     1      -2.891  44.110   4.275  1.00  0.00     0.157 A 
ATOM      5  C   UNL     1      -1.410  46.030   4.220  1.00  0.00     0.051 A 
ATOM      6  C   UNL     1      -2.428  45.306   4.850  1.00  0.00     0.157 A 
ENDROOT
BRANCH   1   7
ATOM      7  C   UNL     1      -0.702  43.912   1.180  1.00  0.00     0.010 C 
ATOM      8  C   UNL     1      -0.982  44.440  -0.021  1.00  0.00     0.025 C 
BRANCH   8   9
ATOM      9  C   UNL     1      -2.048  45.422  -0.296  1.00  0.00     0.064 C 
ATOM     10  O   UNL     1      -1.744  46.532  -0.805  1.00  0.00    -0.545 OA
ATOM     11  O   UNL     1      -3.387  45.123  -0.073  1.00  0.00    -0.545 OA
ENDBRANCH   8   9
ENDBRANCH   1   7
BRANCH   4  12
ATOM     12  O   UNL     1      -3.915  43.391   4.890  1.00  0.00    -0.504 OA
ATOM     13  H   UNL     1      -4.257  43.637   5.812  1.00  0.00     0.293 HD
ENDBRANCH   4  12
BRANCH   6  14
ATOM     14  O   UNL     1      -2.971  45.793   6.039  1.00  0.00    -0.504 OA
ATOM     15  H   UNL     1      -2.549  45.606   6.940  1.00  0.00     0.293 HD
ENDBRANCH   6  14
TORSDOF 4
ENDMDL
MODEL 6
REMARK VINA RESULT:    -5.713      3.395      4.457
REMARK INTER + INTRA:          -6.863
REMARK INTER:                  -6.678
REMARK INTRA:                  -0.186
REMARK UNBOUND:                -0.148
REMARK SMILES O=C([O-])C=Cc1ccc(O)c(O)c1
REMARK SMILES IDX 6 1 13 2 7 3 11 4 8 5 9 6 5 7 4 8 2 9 1 10 3 11 12 12 10 14
REMARK H PARENT 12 13 10 15
REMARK Flexibility Score: inf
ROOT
ATOM      1  C   UNL     1      -0.217  45.548   2.318  1.00  0.00    -0.022 A 
ATOM      2  C   UNL     1       0.240  46.285   3.424  1.00  0.00     0.058 A 
ATOM      3  C   UNL     1       0.710  44.876   1.510  1.00  0.00     0.012 A 
ATOM      4  C   UNL     1       1.605  46.305   3.747  1.00  0.00     0.157 A 
ATOM      5  C   UNL     1       2.070  44.894   1.830  1.00  0.00     0.051 A 
ATOM      6  C   UNL     1       2.522  45.602   2.948  1.00  0.00     0.157 A 
ENDROOT
BRANCH   1   7
ATOM      7  C   UNL     1      -1.643  45.557   1.930  1.00  0.00     0.010 C 
ATOM      8  C   UNL     1      -2.646  45.019   2.640  1.00  0.00     0.025 C 
BRANCH   8   9
ATOM      9  C   UNL     1      -2.486  44.162   3.831  1.00  0.00     0.064 C 
ATOM     10  O   UNL     1      -2.332  42.922   3.680  1.00  0.00    -0.545 OA
ATOM     11  O   UNL     1      -2.430  44.701   5.111  1.00  0.00    -0.545 OA
ENDBRANCH   8   9
ENDBRANCH   1   7
BRANCH   4  12
ATOM     12  O   UNL     1       2.051  47.024   4.855  1.00  0.00    -0.504 OA
ATOM     13  H   UNL     1       2.671  46.610   5.543  1.00  0.00     0.293 HD
ENDBRANCH   4  12
BRANCH   6  14
ATOM     14  O   UNL     1       3.885  45.600   3.246  1.00  0.00    -0.504 OA
ATOM     15  H   UNL     1       4.284  46.212   3.947  1.00  0.00     0.293 HD
ENDBRANCH   6  14
TORSDOF 4
ENDMDL
MODEL 7
REMARK VINA RESULT:    -5.665      6.520      9.072
REMARK INTER + INTRA:          -6.807
REMARK INTER:                  -7.122
REMARK INTRA:                   0.315
REMARK UNBOUND:                -0.148
REMARK SMILES O=C([O-])C=Cc1ccc(O)c(O)c1
REMARK SMILES IDX 6 1 13 2 7 3 11 4 8 5 9 6 5 7 4 8 2 9 1 10 3 11 12 12 10 14
REMARK H PARENT 12 13 10 15
REMARK Flexibility Score: inf
ROOT
ATOM      1  C   UNL     1       3.638  43.861  -2.435  1.00  0.00    -0.022 A 
ATOM      2  C   UNL     1       2.699  43.848  -3.481  1.00  0.00     0.058 A 
ATOM      3  C   UNL     1       3.226  44.235  -1.149  1.00  0.00     0.012 A 
ATOM      4  C   UNL     1       1.353  44.153  -3.231  1.00  0.00     0.157 A 
ATOM      5  C   UNL     1       1.886  44.539  -0.896  1.00  0.00     0.051 A 
ATOM      6  C   UNL     1       0.945  44.495  -1.930  1.00  0.00     0.157 A 
ENDROOT
BRANCH   1   7
ATOM      7  C   UNL     1       5.069  43.595  -2.688  1.00  0.00     0.010 C 
ATOM      8  C   UNL     1       5.779  44.078  -3.720  1.00  0.00     0.025 C 
BRANCH   8   9
ATOM      9  C   UNL     1       5.221  44.799  -4.879  1.00  0.00     0.064 C 
ATOM     10  O   UNL     1       5.206  46.057  -4.872  1.00  0.00    -0.545 OA
ATOM     11  O   UNL     1       4.776  44.123  -6.010  1.00  0.00    -0.545 OA
ENDBRANCH   8   9
ENDBRANCH   1   7
BRANCH   4  12
ATOM     12  O   UNL     1       0.423  44.121  -4.269  1.00  0.00    -0.504 OA
ATOM     13  H   UNL     1       0.313  43.304  -4.859  1.00  0.00     0.293 HD
ENDBRANCH   4  12
BRANCH   6  14
ATOM     14  O   UNL     1      -0.386  44.800  -1.649  1.00  0.00    -0.504 OA
ATOM     15  H   UNL     1      -1.134  44.134  -1.797  1.00  0.00     0.293 HD
ENDBRANCH   6  14
TORSDOF 4
ENDMDL
MODEL 8
REMARK VINA RESULT:    -5.569      2.056      5.570
REMARK INTER + INTRA:          -6.695
REMARK INTER:                  -6.746
REMARK INTRA:                   0.051
REMARK UNBOUND:                -0.148
REMARK SMILES O=C([O-])C=Cc1ccc(O)c(O)c1
REMARK SMILES IDX 6 1 13 2 7 3 11 4 8 5 9 6 5 7 4 8 2 9 1 10 3 11 12 12 10 14
REMARK H PARENT 12 13 10 15
REMARK Flexibility Score: inf
ROOT
ATOM      1  C   UNL     1      -0.571  44.652   0.517  1.00  0.00    -0.022 A 
ATOM      2  C   UNL     1      -0.262  45.283   1.734  1.00  0.00     0.058 A 
ATOM      3  C   UNL     1      -1.836  44.077   0.344  1.00  0.00     0.012 A 
ATOM      4  C   UNL     1      -1.227  45.383   2.747  1.00  0.00     0.157 A 
ATOM      5  C   UNL     1      -2.800  44.176   1.350  1.00  0.00     0.051 A 
ATOM      6  C   UNL     1      -2.504  44.831   2.550  1.00  0.00     0.157 A 
ENDROOT
BRANCH   1   7
ATOM      7  C   UNL     1       0.449  44.490  -0.540  1.00  0.00     0.010 C 
ATOM      8  C   UNL     1       0.313  44.877  -1.818  1.00  0.00     0.025 C 
BRANCH   8   9
ATOM      9  C   UNL     1      -0.937  45.357  -2.437  1.00  0.00     0.064 C 
ATOM     10  O   UNL     1      -1.282  46.556  -2.278  1.00  0.00    -0.545 OA
ATOM     11  O   UNL     1      -1.705  44.534  -3.253  1.00  0.00    -0.545 OA
ENDBRANCH   8   9
ENDBRANCH   1   7
BRANCH   4  12
ATOM     12  O   UNL     1      -0.921  46.026   3.946  1.00  0.00    -0.504 OA
ATOM     13  H   UNL     1      -0.293  46.821   3.977  1.00  0.00     0.293 HD
ENDBRANCH   4  12
BRANCH   6  14
ATOM     14  O   UNL     1      -3.487  44.918   3.536  1.00  0.00    -0.504 OA
ATOM     15  H   UNL     1      -3.614  44.196   4.234  1.00  0.00     0.293 HD
ENDBRANCH   6  14
TORSDOF 4
ENDMDL
MODEL 9
REMARK VINA RESULT:    -5.563      3.382      4.131
REMARK INTER + INTRA:          -6.687
REMARK INTER:                  -6.575
REMARK INTRA:                  -0.112
REMARK UNBOUND:                -0.148
REMARK SMILES O=C([O-])C=Cc1ccc(O)c(O)c1
REMARK SMILES IDX 6 1 13 2 7 3 11 4 8 5 9 6 5 7 4 8 2 9 1 10 3 11 12 12 10 14
REMARK H PARENT 12 13 10 15
REMARK Flexibility Score: inf
ROOT
ATOM      1  C   UNL     1      -0.276  45.645   2.227  1.00  0.00    -0.022 A 
ATOM      2  C   UNL     1       0.710  44.939   1.515  1.00  0.00     0.058 A 
ATOM      3  C   UNL     1       0.087  46.358   3.377  1.00  0.00     0.012 A 
ATOM      4  C   UNL     1       2.052  44.991   1.921  1.00  0.00     0.157 A 
ATOM      5  C   UNL     1       1.423  46.412   3.783  1.00  0.00     0.051 A 
ATOM      6  C   UNL     1       2.409  45.735   3.058  1.00  0.00     0.157 A 
ENDROOT
BRANCH   1   7
ATOM      7  C   UNL     1      -1.701  45.560   1.847  1.00  0.00     0.010 C 
ATOM      8  C   UNL     1      -2.662  44.955   2.563  1.00  0.00     0.025 C 
BRANCH   8   9
ATOM      9  C   UNL     1      -2.439  44.110   3.751  1.00  0.00     0.064 C 
ATOM     10  O   UNL     1      -2.438  44.641   4.892  1.00  0.00    -0.545 OA
ATOM     11  O   UNL     1      -2.301  42.730   3.646  1.00  0.00    -0.545 OA
ENDBRANCH   8   9
ENDBRANCH   1   7
BRANCH   4  12
ATOM     12  O   UNL     1       3.027  44.303   1.201  1.00  0.00    -0.504 OA
ATOM     13  H   UNL     1       4.005  44.569   1.243  1.00  0.00     0.293 HD
ENDBRANCH   4  12
BRANCH   6  14
ATOM     14  O   UNL     1       3.735  45.809   3.484  1.00  0.00    -0.504 OA
ATOM     15  H   UNL     1       3.989  46.173   4.393  1.00  0.00     0.293 HD
ENDBRANCH   6  14
TORSDOF 4
ENDMDL
