MODEL 1
REMARK VINA RESULT:    -4.045      0.000      0.000
REMARK INTER + INTRA:          -9.047
REMARK INTER:                  -7.355
REMARK INTRA:                  -1.692
REMARK UNBOUND:                -1.692
REMARK SMILES CCCCCCCCCCCCCCCC(=O)[O-]
REMARK SMILES IDX 9 1 10 2 11 3 12 4 13 5 14 6 15 7 16 8 17 9 18 10 8 11 7 12
REMARK SMILES IDX 6 13 5 14 4 15 3 16 2 17 1 18
REMARK H PARENT
REMARK Flexibility Score: inf
ROOT
ATOM      1  C   UNL     1     145.037 129.410 114.322  1.00  0.00     0.000 C 
ENDROOT
BRANCH   1   2
ATOM      2  C   UNL     1     145.597 127.976 114.311  1.00  0.00     0.000 C 
BRANCH   2   3
ATOM      3  C   UNL     1     144.636 126.964 114.956  1.00  0.00     0.000 C 
BRANCH   3   4
ATOM      4  C   UNL     1     143.176 127.451 114.950  1.00  0.00     0.000 C 
BRANCH   4   5
ATOM      5  C   UNL     1     142.575 127.533 116.361  1.00  0.00     0.000 C 
BRANCH   5   6
ATOM      6  C   UNL     1     143.567 127.107 117.453  1.00  0.00     0.006 C 
BRANCH   6   7
ATOM      7  C   UNL     1     143.960 128.297 118.333  1.00  0.00     0.053 C 
BRANCH   7   8
ATOM      8  C   UNL     1     145.441 128.330 118.539  1.00  0.00     0.041 C 
ATOM      9  O   UNL     1     145.965 129.246 119.225  1.00  0.00    -0.550 OA
ATOM     10  O   UNL     1     146.238 127.320 118.016  1.00  0.00    -0.550 OA
ENDBRANCH   7   8
ENDBRANCH   6   7
ENDBRANCH   5   6
ENDBRANCH   4   5
ENDBRANCH   3   4
ENDBRANCH   2   3
ENDBRANCH   1   2
BRANCH   1  11
ATOM     11  C   UNL     1     145.580 130.249 115.489  1.00  0.00     0.000 C 
BRANCH  11  12
ATOM     12  C   UNL     1     144.535 131.231 116.049  1.00  0.00    -0.000 C 
BRANCH  12  13
ATOM     13  C   UNL     1     145.151 132.271 116.998  1.00  0.00    -0.000 C 
BRANCH  13  14
ATOM     14  C   UNL     1     146.338 133.019 116.369  1.00  0.00    -0.000 C 
BRANCH  14  15
ATOM     15  C   UNL     1     146.052 134.522 116.276  1.00  0.00    -0.000 C 
BRANCH  15  16
ATOM     16  C   UNL     1     145.043 134.821 115.158  1.00  0.00    -0.000 C 
BRANCH  16  17
ATOM     17  C   UNL     1     145.540 135.904 114.187  1.00  0.00    -0.003 C 
ATOM     18  C   UNL     1     146.812 135.495 113.446  1.00  0.00     0.004 C 
ENDBRANCH  16  17
ENDBRANCH  15  16
ENDBRANCH  14  15
ENDBRANCH  13  14
ENDBRANCH  12  13
ENDBRANCH  11  12
ENDBRANCH   1  11
TORSDOF 14
ENDMDL
MODEL 2
REMARK VINA RESULT:    -4.023      4.138      5.893
REMARK INTER + INTRA:          -9.008
REMARK INTER:                  -7.009
REMARK INTRA:                  -1.999
REMARK UNBOUND:                -1.692
REMARK SMILES CCCCCCCCCCCCCCCC(=O)[O-]
REMARK SMILES IDX 9 1 10 2 11 3 12 4 13 5 14 6 15 7 16 8 17 9 18 10 8 11 7 12
REMARK SMILES IDX 6 13 5 14 4 15 3 16 2 17 1 18
REMARK H PARENT
REMARK Flexibility Score: inf
ROOT
ATOM      1  C   UNL     1     143.395 127.068 116.723  1.00  0.00     0.000 C 
ENDROOT
BRANCH   1   2
ATOM      2  C   UNL     1     142.188 127.638 117.489  1.00  0.00     0.000 C 
BRANCH   2   3
ATOM      3  C   UNL     1     140.939 127.772 116.604  1.00  0.00     0.000 C 
BRANCH   3   4
ATOM      4  C   UNL     1     141.156 127.205 115.190  1.00  0.00     0.000 C 
BRANCH   4   5
ATOM      5  C   UNL     1     139.838 127.005 114.426  1.00  0.00     0.000 C 
BRANCH   5   6
ATOM      6  C   UNL     1     138.917 128.232 114.504  1.00  0.00     0.006 C 
BRANCH   6   7
ATOM      7  C   UNL     1     139.227 129.223 113.378  1.00  0.00     0.053 C 
BRANCH   7   8
ATOM      8  C   UNL     1     138.632 130.561 113.680  1.00  0.00     0.041 C 
ATOM      9  O   UNL     1     137.594 130.649 114.387  1.00  0.00    -0.550 OA
ATOM     10  O   UNL     1     139.252 131.717 113.222  1.00  0.00    -0.550 OA
ENDBRANCH   7   8
ENDBRANCH   6   7
ENDBRANCH   5   6
ENDBRANCH   4   5
ENDBRANCH   3   4
ENDBRANCH   2   3
ENDBRANCH   1   2
BRANCH   1  11
ATOM     11  C   UNL     1     144.712 127.208 117.503  1.00  0.00     0.000 C 
BRANCH  11  12
ATOM     12  C   UNL     1     145.936 127.337 116.579  1.00  0.00    -0.000 C 
BRANCH  12  13
ATOM     13  C   UNL     1     145.583 127.123 115.098  1.00  0.00    -0.000 C 
BRANCH  13  14
ATOM     14  C   UNL     1     145.504 128.440 114.310  1.00  0.00    -0.000 C 
BRANCH  14  15
ATOM     15  C   UNL     1     145.898 129.630 115.192  1.00  0.00    -0.000 C 
BRANCH  15  16
ATOM     16  C   UNL     1     144.693 130.548 115.447  1.00  0.00    -0.000 C 
BRANCH  16  17
ATOM     17  C   UNL     1     143.431 130.088 114.699  1.00  0.00    -0.003 C 
ATOM     18  C   UNL     1     142.179 130.852 115.127  1.00  0.00     0.004 C 
ENDBRANCH  16  17
ENDBRANCH  15  16
ENDBRANCH  14  15
ENDBRANCH  13  14
ENDBRANCH  12  13
ENDBRANCH  11  12
ENDBRANCH   1  11
TORSDOF 14
ENDMDL
MODEL 3
REMARK VINA RESULT:    -3.982      3.719      5.536
REMARK INTER + INTRA:          -8.932
REMARK INTER:                  -6.858
REMARK INTRA:                  -2.075
REMARK UNBOUND:                -1.692
REMARK SMILES CCCCCCCCCCCCCCCC(=O)[O-]
REMARK SMILES IDX 9 1 10 2 11 3 12 4 13 5 14 6 15 7 16 8 17 9 18 10 8 11 7 12
REMARK SMILES IDX 6 13 5 14 4 15 3 16 2 17 1 18
REMARK H PARENT
REMARK Flexibility Score: inf
ROOT
ATOM      1  C   UNL     1     145.344 129.641 114.735  1.00  0.00     0.000 C 
ENDROOT
BRANCH   1   2
ATOM      2  C   UNL     1     145.575 128.142 114.475  1.00  0.00     0.000 C 
BRANCH   2   3
ATOM      3  C   UNL     1     144.381 127.278 114.912  1.00  0.00     0.000 C 
BRANCH   3   4
ATOM      4  C   UNL     1     143.088 128.098 115.072  1.00  0.00     0.000 C 
BRANCH   4   5
ATOM      5  C   UNL     1     142.006 127.346 115.863  1.00  0.00     0.000 C 
BRANCH   5   6
ATOM      6  C   UNL     1     140.585 127.807 115.506  1.00  0.00     0.006 C 
BRANCH   6   7
ATOM      7  C   UNL     1     139.958 126.887 114.455  1.00  0.00     0.053 C 
BRANCH   7   8
ATOM      8  C   UNL     1     138.651 127.444 113.986  1.00  0.00     0.041 C 
ATOM      9  O   UNL     1     138.613 128.227 113.000  1.00  0.00    -0.550 OA
ATOM     10  O   UNL     1     137.469 127.058 114.604  1.00  0.00    -0.550 OA
ENDBRANCH   7   8
ENDBRANCH   6   7
ENDBRANCH   5   6
ENDBRANCH   4   5
ENDBRANCH   3   4
ENDBRANCH   2   3
ENDBRANCH   1   2
BRANCH   1  11
ATOM     11  C   UNL     1     146.391 130.245 115.684  1.00  0.00     0.000 C 
BRANCH  11  12
ATOM     12  C   UNL     1     146.163 131.746 115.938  1.00  0.00    -0.000 C 
BRANCH  12  13
ATOM     13  C   UNL     1     144.903 132.017 116.778  1.00  0.00    -0.000 C 
BRANCH  13  14
ATOM     14  C   UNL     1     144.866 131.192 118.074  1.00  0.00    -0.000 C 
BRANCH  14  15
ATOM     15  C   UNL     1     143.547 130.420 118.194  1.00  0.00    -0.000 C 
BRANCH  15  16
ATOM     16  C   UNL     1     143.797 128.970 118.633  1.00  0.00    -0.000 C 
BRANCH  16  17
ATOM     17  C   UNL     1     145.293 128.647 118.782  1.00  0.00    -0.003 C 
ATOM     18  C   UNL     1     145.646 127.242 118.298  1.00  0.00     0.004 C 
ENDBRANCH  16  17
ENDBRANCH  15  16
ENDBRANCH  14  15
ENDBRANCH  13  14
ENDBRANCH  12  13
ENDBRANCH  11  12
ENDBRANCH   1  11
TORSDOF 14
ENDMDL
MODEL 4
REMARK VINA RESULT:    -3.921      2.695      5.733
REMARK INTER + INTRA:          -8.822
REMARK INTER:                  -6.809
REMARK INTRA:                  -2.013
REMARK UNBOUND:                -1.692
REMARK SMILES CCCCCCCCCCCCCCCC(=O)[O-]
REMARK SMILES IDX 9 1 10 2 11 3 12 4 13 5 14 6 15 7 16 8 17 9 18 10 8 11 7 12
REMARK SMILES IDX 6 13 5 14 4 15 3 16 2 17 1 18
REMARK H PARENT
REMARK Flexibility Score: inf
ROOT
ATOM      1  C   UNL     1     142.670 130.028 115.084  1.00  0.00     0.000 C 
ENDROOT
BRANCH   1   2
ATOM      2  C   UNL     1     143.988 130.821 115.140  1.00  0.00     0.000 C 
BRANCH   2   3
ATOM      3  C   UNL     1     145.180 129.953 115.574  1.00  0.00     0.000 C 
BRANCH   3   4
ATOM      4  C   UNL     1     145.558 128.902 114.516  1.00  0.00     0.000 C 
BRANCH   4   5
ATOM      5  C   UNL     1     145.351 127.463 115.013  1.00  0.00     0.000 C 
BRANCH   5   6
ATOM      6  C   UNL     1     145.954 127.225 116.406  1.00  0.00     0.006 C 
BRANCH   6   7
ATOM      7  C   UNL     1     144.864 126.875 117.423  1.00  0.00     0.053 C 
BRANCH   7   8
ATOM      8  C   UNL     1     144.949 127.778 118.612  1.00  0.00     0.041 C 
ATOM      9  O   UNL     1     144.126 127.660 119.558  1.00  0.00    -0.550 OA
ATOM     10  O   UNL     1     145.967 128.718 118.701  1.00  0.00    -0.550 OA
ENDBRANCH   7   8
ENDBRANCH   6   7
ENDBRANCH   5   6
ENDBRANCH   4   5
ENDBRANCH   3   4
ENDBRANCH   2   3
ENDBRANCH   1   2
BRANCH   1  11
ATOM     11  C   UNL     1     142.008 129.882 116.463  1.00  0.00     0.000 C 
BRANCH  11  12
ATOM     12  C   UNL     1     141.110 128.636 116.559  1.00  0.00    -0.000 C 
BRANCH  12  13
ATOM     13  C   UNL     1     141.722 127.412 115.858  1.00  0.00    -0.000 C 
BRANCH  13  14
ATOM     14  C   UNL     1     140.836 126.875 114.722  1.00  0.00    -0.000 C 
BRANCH  14  15
ATOM     15  C   UNL     1     139.353 127.122 115.021  1.00  0.00    -0.000 C 
BRANCH  15  16
ATOM     16  C   UNL     1     138.607 127.584 113.760  1.00  0.00    -0.000 C 
BRANCH  16  17
ATOM     17  C   UNL     1     139.016 128.998 113.317  1.00  0.00    -0.003 C 
ATOM     18  C   UNL     1     138.501 130.085 114.259  1.00  0.00     0.004 C 
ENDBRANCH  16  17
ENDBRANCH  15  16
ENDBRANCH  14  15
ENDBRANCH  13  14
ENDBRANCH  12  13
ENDBRANCH  11  12
ENDBRANCH   1  11
TORSDOF 14
ENDMDL
MODEL 5
REMARK VINA RESULT:    -3.876      3.948      6.229
REMARK INTER + INTRA:          -8.741
REMARK INTER:                  -6.382
REMARK INTRA:                  -2.359
REMARK UNBOUND:                -1.692
REMARK SMILES CCCCCCCCCCCCCCCC(=O)[O-]
REMARK SMILES IDX 9 1 10 2 11 3 12 4 13 5 14 6 15 7 16 8 17 9 18 10 8 11 7 12
REMARK SMILES IDX 6 13 5 14 4 15 3 16 2 17 1 18
REMARK H PARENT
REMARK Flexibility Score: inf
ROOT
ATOM      1  C   UNL     1     142.633 130.959 115.862  1.00  0.00     0.000 C 
ENDROOT
BRANCH   1   2
ATOM      2  C   UNL     1     142.586 130.151 114.553  1.00  0.00     0.000 C 
BRANCH   2   3
ATOM      3  C   UNL     1     142.158 128.692 114.777  1.00  0.00     0.000 C 
BRANCH   3   4
ATOM      4  C   UNL     1     141.362 128.505 116.081  1.00  0.00     0.000 C 
BRANCH   4   5
ATOM      5  C   UNL     1     140.347 127.355 115.994  1.00  0.00     0.000 C 
BRANCH   5   6
ATOM      6  C   UNL     1     140.061 126.926 114.547  1.00  0.00     0.006 C 
BRANCH   6   7
ATOM      7  C   UNL     1     138.624 127.272 114.147  1.00  0.00     0.053 C 
BRANCH   7   8
ATOM      8  C   UNL     1     138.484 128.744 113.920  1.00  0.00     0.041 C 
ATOM      9  O   UNL     1     137.762 129.437 114.684  1.00  0.00    -0.550 OA
ATOM     10  O   UNL     1     139.191 129.361 112.896  1.00  0.00    -0.550 OA
ENDBRANCH   7   8
ENDBRANCH   6   7
ENDBRANCH   5   6
ENDBRANCH   4   5
ENDBRANCH   3   4
ENDBRANCH   2   3
ENDBRANCH   1   2
BRANCH   1  11
ATOM     11  C   UNL     1     144.014 130.918 116.534  1.00  0.00     0.000 C 
BRANCH  11  12
ATOM     12  C   UNL     1     145.159 130.730 115.523  1.00  0.00    -0.000 C 
BRANCH  12  13
ATOM     13  C   UNL     1     146.008 129.483 115.818  1.00  0.00    -0.000 C 
BRANCH  13  14
ATOM     14  C   UNL     1     145.776 128.354 114.802  1.00  0.00    -0.000 C 
BRANCH  14  15
ATOM     15  C   UNL     1     145.305 127.074 115.502  1.00  0.00    -0.000 C 
BRANCH  15  16
ATOM     16  C   UNL     1     145.504 127.175 117.022  1.00  0.00    -0.000 C 
BRANCH  16  17
ATOM     17  C   UNL     1     144.216 126.880 117.807  1.00  0.00    -0.003 C 
ATOM     18  C   UNL     1     143.869 127.981 118.809  1.00  0.00     0.004 C 
ENDBRANCH  16  17
ENDBRANCH  15  16
ENDBRANCH  14  15
ENDBRANCH  13  14
ENDBRANCH  12  13
ENDBRANCH  11  12
ENDBRANCH   1  11
TORSDOF 14
ENDMDL
MODEL 6
REMARK VINA RESULT:    -3.863      3.002      6.514
REMARK INTER + INTRA:          -8.716
REMARK INTER:                  -6.453
REMARK INTRA:                  -2.263
REMARK UNBOUND:                -1.692
REMARK SMILES CCCCCCCCCCCCCCCC(=O)[O-]
REMARK SMILES IDX 9 1 10 2 11 3 12 4 13 5 14 6 15 7 16 8 17 9 18 10 8 11 7 12
REMARK SMILES IDX 6 13 5 14 4 15 3 16 2 17 1 18
REMARK H PARENT
REMARK Flexibility Score: inf
ROOT
ATOM      1  C   UNL     1     141.864 129.273 116.181  1.00  0.00     0.000 C 
ENDROOT
BRANCH   1   2
ATOM      2  C   UNL     1     142.565 127.913 116.349  1.00  0.00     0.000 C 
BRANCH   2   3
ATOM      3  C   UNL     1     143.181 127.402 115.037  1.00  0.00     0.000 C 
BRANCH   3   4
ATOM      4  C   UNL     1     144.683 127.095 115.171  1.00  0.00     0.000 C 
BRANCH   4   5
ATOM      5  C   UNL     1     145.545 127.925 114.208  1.00  0.00     0.000 C 
BRANCH   5   6
ATOM      6  C   UNL     1     145.596 129.412 114.592  1.00  0.00     0.006 C 
BRANCH   6   7
ATOM      7  C   UNL     1     146.037 129.588 116.048  1.00  0.00     0.053 C 
BRANCH   7   8
ATOM      8  C   UNL     1     145.290 130.714 116.689  1.00  0.00     0.041 C 
ATOM      9  O   UNL     1     145.255 130.819 117.943  1.00  0.00    -0.550 OA
ATOM     10  O   UNL     1     144.672 131.677 115.900  1.00  0.00    -0.550 OA
ENDBRANCH   7   8
ENDBRANCH   6   7
ENDBRANCH   5   6
ENDBRANCH   4   5
ENDBRANCH   3   4
ENDBRANCH   2   3
ENDBRANCH   1   2
BRANCH   1  11
ATOM     11  C   UNL     1     141.879 129.771 114.727  1.00  0.00     0.000 C 
BRANCH  11  12
ATOM     12  C   UNL     1     140.534 130.384 114.298  1.00  0.00    -0.000 C 
BRANCH  12  13
ATOM     13  C   UNL     1     139.619 129.368 113.596  1.00  0.00    -0.000 C 
BRANCH  13  14
ATOM     14  C   UNL     1     138.326 129.094 114.380  1.00  0.00    -0.000 C 
BRANCH  14  15
ATOM     15  C   UNL     1     138.111 127.588 114.574  1.00  0.00    -0.000 C 
BRANCH  15  16
ATOM     16  C   UNL     1     138.950 127.060 115.747  1.00  0.00    -0.000 C 
BRANCH  16  17
ATOM     17  C   UNL     1     138.591 127.732 117.081  1.00  0.00    -0.003 C 
ATOM     18  C   UNL     1     139.423 127.208 118.251  1.00  0.00     0.004 C 
ENDBRANCH  16  17
ENDBRANCH  15  16
ENDBRANCH  14  15
ENDBRANCH  13  14
ENDBRANCH  12  13
ENDBRANCH  11  12
ENDBRANCH   1  11
TORSDOF 14
ENDMDL
MODEL 7
REMARK VINA RESULT:    -3.850      3.710      6.046
REMARK INTER + INTRA:          -8.692
REMARK INTER:                  -7.238
REMARK INTRA:                  -1.454
REMARK UNBOUND:                -1.692
REMARK SMILES CCCCCCCCCCCCCCCC(=O)[O-]
REMARK SMILES IDX 9 1 10 2 11 3 12 4 13 5 14 6 15 7 16 8 17 9 18 10 8 11 7 12
REMARK SMILES IDX 6 13 5 14 4 15 3 16 2 17 1 18
REMARK H PARENT
REMARK Flexibility Score: inf
ROOT
ATOM      1  C   UNL     1     142.832 128.090 114.899  1.00  0.00     0.000 C 
ENDROOT
BRANCH   1   2
ATOM      2  C   UNL     1     144.237 128.708 114.790  1.00  0.00     0.000 C 
BRANCH   2   3
ATOM      3  C   UNL     1     145.301 127.681 114.369  1.00  0.00     0.000 C 
BRANCH   3   4
ATOM      4  C   UNL     1     145.846 126.876 115.562  1.00  0.00     0.000 C 
BRANCH   4   5
ATOM      5  C   UNL     1     145.809 127.670 116.877  1.00  0.00     0.000 C 
BRANCH   5   6
ATOM      6  C   UNL     1     145.176 126.876 118.030  1.00  0.00     0.006 C 
BRANCH   6   7
ATOM      7  C   UNL     1     144.184 127.742 118.811  1.00  0.00     0.053 C 
BRANCH   7   8
ATOM      8  C   UNL     1     144.842 128.334 120.017  1.00  0.00     0.041 C 
ATOM      9  O   UNL     1     144.207 128.435 121.100  1.00  0.00    -0.550 OA
ATOM     10  O   UNL     1     146.172 128.729 119.959  1.00  0.00    -0.550 OA
ENDBRANCH   7   8
ENDBRANCH   6   7
ENDBRANCH   5   6
ENDBRANCH   4   5
ENDBRANCH   3   4
ENDBRANCH   2   3
ENDBRANCH   1   2
BRANCH   1  11
ATOM     11  C   UNL     1     141.873 128.944 115.744  1.00  0.00     0.000 C 
BRANCH  11  12
ATOM     12  C   UNL     1     141.588 130.317 115.110  1.00  0.00    -0.000 C 
BRANCH  12  13
ATOM     13  C   UNL     1     140.744 130.211 113.829  1.00  0.00    -0.000 C 
BRANCH  13  14
ATOM     14  C   UNL     1     139.291 129.794 114.108  1.00  0.00    -0.000 C 
BRANCH  14  15
ATOM     15  C   UNL     1     138.871 128.631 113.202  1.00  0.00    -0.000 C 
BRANCH  15  16
ATOM     16  C   UNL     1     139.025 127.286 113.928  1.00  0.00    -0.000 C 
BRANCH  16  17
ATOM     17  C   UNL     1     138.472 127.321 115.361  1.00  0.00    -0.003 C 
ATOM     18  C   UNL     1     136.947 127.234 115.409  1.00  0.00     0.004 C 
ENDBRANCH  16  17
ENDBRANCH  15  16
ENDBRANCH  14  15
ENDBRANCH  13  14
ENDBRANCH  12  13
ENDBRANCH  11  12
ENDBRANCH   1  11
TORSDOF 14
ENDMDL
MODEL 8
REMARK VINA RESULT:    -3.848      3.384      6.609
REMARK INTER + INTRA:          -8.690
REMARK INTER:                  -6.895
REMARK INTRA:                  -1.795
REMARK UNBOUND:                -1.692
REMARK SMILES CCCCCCCCCCCCCCCC(=O)[O-]
REMARK SMILES IDX 9 1 10 2 11 3 12 4 13 5 14 6 15 7 16 8 17 9 18 10 8 11 7 12
REMARK SMILES IDX 6 13 5 14 4 15 3 16 2 17 1 18
REMARK H PARENT
REMARK Flexibility Score: inf
ROOT
ATOM      1  C   UNL     1     142.677 127.609 115.130  1.00  0.00     0.000 C 
ENDROOT
BRANCH   1   2
ATOM      2  C   UNL     1     144.097 128.061 114.745  1.00  0.00     0.000 C 
BRANCH   2   3
ATOM      3  C   UNL     1     145.178 127.424 115.632  1.00  0.00     0.000 C 
BRANCH   3   4
ATOM      4  C   UNL     1     145.737 128.406 116.677  1.00  0.00     0.000 C 
BRANCH   4   5
ATOM      5  C   UNL     1     146.042 129.789 116.083  1.00  0.00     0.000 C 
BRANCH   5   6
ATOM      6  C   UNL     1     145.376 130.930 116.867  1.00  0.00     0.006 C 
BRANCH   6   7
ATOM      7  C   UNL     1     144.801 131.985 115.918  1.00  0.00     0.053 C 
BRANCH   7   8
ATOM      8  C   UNL     1     145.605 133.245 115.988  1.00  0.00     0.041 C 
ATOM      9  O   UNL     1     145.143 134.318 115.517  1.00  0.00    -0.550 OA
ATOM     10  O   UNL     1     146.843 133.246 116.618  1.00  0.00    -0.550 OA
ENDBRANCH   7   8
ENDBRANCH   6   7
ENDBRANCH   5   6
ENDBRANCH   4   5
ENDBRANCH   3   4
ENDBRANCH   2   3
ENDBRANCH   1   2
BRANCH   1  11
ATOM     11  C   UNL     1     141.919 128.666 115.948  1.00  0.00     0.000 C 
BRANCH  11  12
ATOM     12  C   UNL     1     141.846 130.027 115.233  1.00  0.00    -0.000 C 
BRANCH  12  13
ATOM     13  C   UNL     1     141.010 129.973 113.944  1.00  0.00    -0.000 C 
BRANCH  13  14
ATOM     14  C   UNL     1     139.507 129.808 114.219  1.00  0.00    -0.000 C 
BRANCH  14  15
ATOM     15  C   UNL     1     138.892 128.753 113.292  1.00  0.00    -0.000 C 
BRANCH  15  16
ATOM     16  C   UNL     1     138.987 127.352 113.914  1.00  0.00    -0.000 C 
BRANCH  16  17
ATOM     17  C   UNL     1     138.484 127.315 115.366  1.00  0.00    -0.003 C 
ATOM     18  C   UNL     1     136.959 127.333 115.465  1.00  0.00     0.004 C 
ENDBRANCH  16  17
ENDBRANCH  15  16
ENDBRANCH  14  15
ENDBRANCH  13  14
ENDBRANCH  12  13
ENDBRANCH  11  12
ENDBRANCH   1  11
TORSDOF 14
ENDMDL
MODEL 9
REMARK VINA RESULT:    -3.746      4.139      6.506
REMARK INTER + INTRA:          -8.503
REMARK INTER:                  -6.580
REMARK INTRA:                  -1.923
REMARK UNBOUND:                -1.692
REMARK SMILES CCCCCCCCCCCCCCCC(=O)[O-]
REMARK SMILES IDX 9 1 10 2 11 3 12 4 13 5 14 6 15 7 16 8 17 9 18 10 8 11 7 12
REMARK SMILES IDX 6 13 5 14 4 15 3 16 2 17 1 18
REMARK H PARENT
REMARK Flexibility Score: inf
ROOT
ATOM      1  C   UNL     1     142.939 130.146 116.025  1.00  0.00     0.000 C 
ENDROOT
BRANCH   1   2
ATOM      2  C   UNL     1     141.667 129.287 116.130  1.00  0.00     0.000 C 
BRANCH   2   3
ATOM      3  C   UNL     1     141.154 128.824 114.756  1.00  0.00     0.000 C 
BRANCH   3   4
ATOM      4  C   UNL     1     140.109 129.784 114.164  1.00  0.00     0.000 C 
BRANCH   4   5
ATOM      5  C   UNL     1     138.883 129.049 113.601  1.00  0.00     0.000 C 
BRANCH   5   6
ATOM      6  C   UNL     1     139.021 127.521 113.681  1.00  0.00     0.006 C 
BRANCH   6   7
ATOM      7  C   UNL     1     137.803 126.895 114.365  1.00  0.00     0.053 C 
BRANCH   7   8
ATOM      8  C   UNL     1     137.768 127.267 115.813  1.00  0.00     0.041 C 
ATOM      9  O   UNL     1     138.695 126.903 116.584  1.00  0.00    -0.550 OA
ATOM     10  O   UNL     1     136.737 128.059 116.303  1.00  0.00    -0.550 OA
ENDBRANCH   7   8
ENDBRANCH   6   7
ENDBRANCH   5   6
ENDBRANCH   4   5
ENDBRANCH   3   4
ENDBRANCH   2   3
ENDBRANCH   1   2
BRANCH   1  11
ATOM     11  C   UNL     1     143.745 129.858 114.748  1.00  0.00     0.000 C 
BRANCH  11  12
ATOM     12  C   UNL     1     145.173 129.369 115.048  1.00  0.00    -0.000 C 
BRANCH  12  13
ATOM     13  C   UNL     1     145.504 128.043 114.342  1.00  0.00    -0.000 C 
BRANCH  13  14
ATOM     14  C   UNL     1     145.681 126.875 115.325  1.00  0.00    -0.000 C 
BRANCH  14  15
ATOM     15  C   UNL     1     145.646 127.370 116.775  1.00  0.00    -0.000 C 
BRANCH  15  16
ATOM     16  C   UNL     1     144.381 126.879 117.494  1.00  0.00    -0.000 C 
BRANCH  16  17
ATOM     17  C   UNL     1     144.118 127.630 118.809  1.00  0.00    -0.003 C 
ATOM     18  C   UNL     1     144.875 128.955 118.895  1.00  0.00     0.004 C 
ENDBRANCH  16  17
ENDBRANCH  15  16
ENDBRANCH  14  15
ENDBRANCH  13  14
ENDBRANCH  12  13
ENDBRANCH  11  12
ENDBRANCH   1  11
TORSDOF 14
ENDMDL
