MODEL 1
REMARK VINA RESULT:    -5.692      0.000      0.000
REMARK INTER + INTRA:         -13.607
REMARK INTER:                 -10.682
REMARK INTRA:                  -2.925
REMARK UNBOUND:                -2.925
REMARK SMILES CCCCCCCCC=CCCCCCCCC(=O)[O-]
REMARK SMILES IDX 10 1 9 2 11 3 12 4 13 5 14 6 15 7 16 8 17 9 18 10 19 11
REMARK SMILES IDX 20 12 8 13 7 14 6 15 5 16 4 17 3 18 2 19 1 20
REMARK H PARENT
REMARK Flexibility Score: inf
ROOT
ATOM      1  C   UNL     1       8.475  23.572  44.993  1.00  0.00    -0.031 C 
ATOM      2  C   UNL     1       7.707  24.124  44.043  1.00  0.00    -0.031 C 
ENDROOT
BRANCH   1   3
ATOM      3  C   UNL     1       8.094  23.624  46.447  1.00  0.00     0.027 C 
BRANCH   3   4
ATOM      4  C   UNL     1       6.577  23.489  46.628  1.00  0.00     0.004 C 
BRANCH   4   5
ATOM      5  C   UNL     1       6.129  22.032  46.459  1.00  0.00     0.000 C 
BRANCH   5   6
ATOM      6  C   UNL     1       4.965  21.879  45.468  1.00  0.00     0.000 C 
BRANCH   6   7
ATOM      7  C   UNL     1       4.292  23.222  45.131  1.00  0.00     0.000 C 
BRANCH   7   8
ATOM      8  C   UNL     1       3.921  23.343  43.645  1.00  0.00     0.006 C 
BRANCH   8   9
ATOM      9  C   UNL     1       4.279  24.714  43.055  1.00  0.00     0.053 C 
BRANCH   9  10
ATOM     10  C   UNL     1       3.157  25.681  43.265  1.00  0.00     0.041 C 
ATOM     11  O   UNL     1       3.213  26.837  42.764  1.00  0.00    -0.550 OA
ATOM     12  O   UNL     1       2.069  25.324  44.053  1.00  0.00    -0.550 OA
ENDBRANCH   9  10
ENDBRANCH   8   9
ENDBRANCH   7   8
ENDBRANCH   6   7
ENDBRANCH   5   6
ENDBRANCH   4   5
ENDBRANCH   3   4
ENDBRANCH   1   3
BRANCH   2  13
ATOM     13  C   UNL     1       8.105  24.091  42.593  1.00  0.00     0.027 C 
BRANCH  13  14
ATOM     14  C   UNL     1       8.209  22.647  42.078  1.00  0.00     0.004 C 
BRANCH  14  15
ATOM     15  C   UNL     1       6.863  21.908  42.115  1.00  0.00     0.000 C 
BRANCH  15  16
ATOM     16  C   UNL     1       6.944  20.566  42.866  1.00  0.00     0.000 C 
BRANCH  16  17
ATOM     17  C   UNL     1       8.379  20.245  43.333  1.00  0.00    -0.000 C 
BRANCH  17  18
ATOM     18  C   UNL     1       8.459  19.787  44.799  1.00  0.00    -0.000 C 
BRANCH  18  19
ATOM     19  C   UNL     1       9.780  20.182  45.473  1.00  0.00    -0.003 C 
ATOM     20  C   UNL     1      10.699  18.975  45.631  1.00  0.00     0.004 C 
ENDBRANCH  18  19
ENDBRANCH  17  18
ENDBRANCH  16  17
ENDBRANCH  15  16
ENDBRANCH  14  15
ENDBRANCH  13  14
ENDBRANCH   2  13
TORSDOF 15
ENDMDL
MODEL 2
REMARK VINA RESULT:    -5.561      3.388      6.079
REMARK INTER + INTRA:         -13.363
REMARK INTER:                 -10.473
REMARK INTRA:                  -2.889
REMARK UNBOUND:                -2.925
REMARK SMILES CCCCCCCCC=CCCCCCCCC(=O)[O-]
REMARK SMILES IDX 10 1 9 2 11 3 12 4 13 5 14 6 15 7 16 8 17 9 18 10 19 11
REMARK SMILES IDX 20 12 8 13 7 14 6 15 5 16 4 17 3 18 2 19 1 20
REMARK H PARENT
REMARK Flexibility Score: inf
ROOT
ATOM      1  C   UNL     1       7.232  22.923  42.124  1.00  0.00    -0.031 C 
ATOM      2  C   UNL     1       7.141  21.693  42.651  1.00  0.00    -0.031 C 
ENDROOT
BRANCH   1   3
ATOM      3  C   UNL     1       8.376  23.842  42.454  1.00  0.00     0.027 C 
BRANCH   3   4
ATOM      4  C   UNL     1       8.109  24.616  43.750  1.00  0.00     0.004 C 
BRANCH   4   5
ATOM      5  C   UNL     1       8.777  23.930  44.949  1.00  0.00     0.000 C 
BRANCH   5   6
ATOM      6  C   UNL     1       7.764  23.469  46.009  1.00  0.00     0.000 C 
BRANCH   6   7
ATOM      7  C   UNL     1       7.820  21.951  46.263  1.00  0.00     0.000 C 
BRANCH   7   8
ATOM      8  C   UNL     1       8.961  21.263  45.496  1.00  0.00     0.006 C 
BRANCH   8   9
ATOM      9  C   UNL     1       8.815  19.736  45.464  1.00  0.00     0.053 C 
BRANCH   9  10
ATOM     10  C   UNL     1       9.589  19.163  44.320  1.00  0.00     0.041 C 
ATOM     11  O   UNL     1      10.069  17.999  44.398  1.00  0.00    -0.550 OA
ATOM     12  O   UNL     1       9.821  19.928  43.183  1.00  0.00    -0.550 OA
ENDBRANCH   9  10
ENDBRANCH   8   9
ENDBRANCH   7   8
ENDBRANCH   6   7
ENDBRANCH   5   6
ENDBRANCH   4   5
ENDBRANCH   3   4
ENDBRANCH   1   3
BRANCH   2  13
ATOM     13  C   UNL     1       5.982  20.787  42.337  1.00  0.00     0.027 C 
BRANCH  13  14
ATOM     14  C   UNL     1       5.568  19.969  43.570  1.00  0.00     0.004 C 
BRANCH  14  15
ATOM     15  C   UNL     1       4.279  20.493  44.221  1.00  0.00     0.000 C 
BRANCH  15  16
ATOM     16  C   UNL     1       4.502  21.794  45.012  1.00  0.00     0.000 C 
BRANCH  16  17
ATOM     17  C   UNL     1       3.897  23.022  44.297  1.00  0.00    -0.000 C 
BRANCH  17  18
ATOM     18  C   UNL     1       4.359  24.364  44.888  1.00  0.00    -0.000 C 
BRANCH  18  19
ATOM     19  C   UNL     1       4.757  25.381  43.809  1.00  0.00    -0.003 C 
ATOM     20  C   UNL     1       4.215  24.972  42.443  1.00  0.00     0.004 C 
ENDBRANCH  18  19
ENDBRANCH  17  18
ENDBRANCH  16  17
ENDBRANCH  15  16
ENDBRANCH  14  15
ENDBRANCH  13  14
ENDBRANCH   2  13
TORSDOF 15
ENDMDL
MODEL 3
REMARK VINA RESULT:    -5.394      4.901      9.728
REMARK INTER + INTRA:         -13.049
REMARK INTER:                 -11.284
REMARK INTRA:                  -1.764
REMARK UNBOUND:                -2.925
REMARK SMILES CCCCCCCCC=CCCCCCCCC(=O)[O-]
REMARK SMILES IDX 10 1 9 2 11 3 12 4 13 5 14 6 15 7 16 8 17 9 18 10 19 11
REMARK SMILES IDX 20 12 8 13 7 14 6 15 5 16 4 17 3 18 2 19 1 20
REMARK H PARENT
REMARK Flexibility Score: inf
ROOT
ATOM      1  C   UNL     1       1.626  27.858  42.810  1.00  0.00    -0.031 C 
ATOM      2  C   UNL     1       0.707  28.546  42.116  1.00  0.00    -0.031 C 
ENDROOT
BRANCH   1   3
ATOM      3  C   UNL     1       1.253  26.669  43.652  1.00  0.00     0.027 C 
BRANCH   3   4
ATOM      4  C   UNL     1       2.457  25.745  43.871  1.00  0.00     0.004 C 
BRANCH   4   5
ATOM      5  C   UNL     1       3.579  26.057  42.872  1.00  0.00     0.000 C 
BRANCH   5   6
ATOM      6  C   UNL     1       4.969  25.670  43.401  1.00  0.00     0.000 C 
BRANCH   6   7
ATOM      7  C   UNL     1       5.382  24.242  42.998  1.00  0.00     0.000 C 
BRANCH   7   8
ATOM      8  C   UNL     1       5.304  23.250  44.168  1.00  0.00     0.006 C 
BRANCH   8   9
ATOM      9  C   UNL     1       5.991  23.776  45.436  1.00  0.00     0.053 C 
BRANCH   9  10
ATOM     10  C   UNL     1       7.359  23.185  45.571  1.00  0.00     0.041 C 
ATOM     11  O   UNL     1       8.030  23.373  46.622  1.00  0.00    -0.550 OA
ATOM     12  O   UNL     1       7.913  22.466  44.519  1.00  0.00    -0.550 OA
ENDBRANCH   9  10
ENDBRANCH   8   9
ENDBRANCH   7   8
ENDBRANCH   6   7
ENDBRANCH   5   6
ENDBRANCH   4   5
ENDBRANCH   3   4
ENDBRANCH   1   3
BRANCH   2  13
ATOM     13  C   UNL     1       1.081  29.750  41.296  1.00  0.00     0.027 C 
BRANCH  13  14
ATOM     14  C   UNL     1      -0.128  30.287  40.513  1.00  0.00     0.004 C 
BRANCH  14  15
ATOM     15  C   UNL     1      -0.962  31.287  41.328  1.00  0.00     0.000 C 
BRANCH  15  16
ATOM     16  C   UNL     1      -2.352  30.736  41.698  1.00  0.00     0.000 C 
BRANCH  16  17
ATOM     17  C   UNL     1      -2.521  30.556  43.221  1.00  0.00    -0.000 C 
BRANCH  17  18
ATOM     18  C   UNL     1      -1.300  31.020  44.033  1.00  0.00    -0.000 C 
BRANCH  18  19
ATOM     19  C   UNL     1      -0.918  30.033  45.145  1.00  0.00    -0.003 C 
ATOM     20  C   UNL     1      -1.701  28.730  45.015  1.00  0.00     0.004 C 
ENDBRANCH  18  19
ENDBRANCH  17  18
ENDBRANCH  16  17
ENDBRANCH  15  16
ENDBRANCH  14  15
ENDBRANCH  13  14
ENDBRANCH   2  13
TORSDOF 15
ENDMDL
MODEL 4
REMARK VINA RESULT:    -5.351      4.708      9.768
REMARK INTER + INTRA:         -12.967
REMARK INTER:                 -10.867
REMARK INTRA:                  -2.100
REMARK UNBOUND:                -2.925
REMARK SMILES CCCCCCCCC=CCCCCCCCC(=O)[O-]
REMARK SMILES IDX 10 1 9 2 11 3 12 4 13 5 14 6 15 7 16 8 17 9 18 10 19 11
REMARK SMILES IDX 20 12 8 13 7 14 6 15 5 16 4 17 3 18 2 19 1 20
REMARK H PARENT
REMARK Flexibility Score: inf
ROOT
ATOM      1  C   UNL     1       0.245  27.865  43.951  1.00  0.00    -0.031 C 
ATOM      2  C   UNL     1      -1.033  27.790  44.353  1.00  0.00    -0.031 C 
ENDROOT
BRANCH   1   3
ATOM      3  C   UNL     1       1.049  26.634  43.640  1.00  0.00     0.027 C 
BRANCH   3   4
ATOM      4  C   UNL     1       2.331  26.987  42.875  1.00  0.00     0.004 C 
BRANCH   4   5
ATOM      5  C   UNL     1       3.426  25.942  43.123  1.00  0.00     0.000 C 
BRANCH   5   6
ATOM      6  C   UNL     1       3.105  25.015  44.306  1.00  0.00     0.000 C 
BRANCH   6   7
ATOM      7  C   UNL     1       3.270  23.525  43.954  1.00  0.00     0.000 C 
BRANCH   7   8
ATOM      8  C   UNL     1       4.385  22.845  44.763  1.00  0.00     0.006 C 
BRANCH   8   9
ATOM      9  C   UNL     1       5.706  22.751  43.987  1.00  0.00     0.053 C 
BRANCH   9  10
ATOM     10  C   UNL     1       6.687  23.755  44.504  1.00  0.00     0.041 C 
ATOM     11  O   UNL     1       7.424  23.475  45.488  1.00  0.00    -0.550 OA
ATOM     12  O   UNL     1       6.756  25.019  43.929  1.00  0.00    -0.550 OA
ENDBRANCH   9  10
ENDBRANCH   8   9
ENDBRANCH   7   8
ENDBRANCH   6   7
ENDBRANCH   5   6
ENDBRANCH   4   5
ENDBRANCH   3   4
ENDBRANCH   1   3
BRANCH   2  13
ATOM     13  C   UNL     1      -1.825  29.024  44.688  1.00  0.00     0.027 C 
BRANCH  13  14
ATOM     14  C   UNL     1      -0.932  30.274  44.692  1.00  0.00     0.004 C 
BRANCH  14  15
ATOM     15  C   UNL     1      -1.379  31.324  43.665  1.00  0.00     0.000 C 
BRANCH  15  16
ATOM     16  C   UNL     1      -2.404  30.769  42.658  1.00  0.00     0.000 C 
BRANCH  16  17
ATOM     17  C   UNL     1      -1.814  30.638  41.238  1.00  0.00    -0.000 C 
BRANCH  17  18
ATOM     18  C   UNL     1      -1.434  29.196  40.863  1.00  0.00    -0.000 C 
BRANCH  18  19
ATOM     19  C   UNL     1      -0.035  29.096  40.238  1.00  0.00    -0.003 C 
ATOM     20  C   UNL     1       0.967  29.963  40.993  1.00  0.00     0.004 C 
ENDBRANCH  18  19
ENDBRANCH  17  18
ENDBRANCH  16  17
ENDBRANCH  15  16
ENDBRANCH  14  15
ENDBRANCH  13  14
ENDBRANCH   2  13
TORSDOF 15
ENDMDL
MODEL 5
REMARK VINA RESULT:    -5.339      4.853      9.661
REMARK INTER + INTRA:         -12.945
REMARK INTER:                 -11.178
REMARK INTRA:                  -1.766
REMARK UNBOUND:                -2.925
REMARK SMILES CCCCCCCCC=CCCCCCCCC(=O)[O-]
REMARK SMILES IDX 10 1 9 2 11 3 12 4 13 5 14 6 15 7 16 8 17 9 18 10 19 11
REMARK SMILES IDX 20 12 8 13 7 14 6 15 5 16 4 17 3 18 2 19 1 20
REMARK H PARENT
REMARK Flexibility Score: inf
ROOT
ATOM      1  C   UNL     1       1.664  27.832  42.682  1.00  0.00    -0.031 C 
ATOM      2  C   UNL     1       0.725  28.651  42.186  1.00  0.00    -0.031 C 
ENDROOT
BRANCH   1   3
ATOM      3  C   UNL     1       1.322  26.733  43.650  1.00  0.00     0.027 C 
BRANCH   3   4
ATOM      4  C   UNL     1       2.499  25.768  43.831  1.00  0.00     0.004 C 
BRANCH   4   5
ATOM      5  C   UNL     1       3.688  26.178  42.953  1.00  0.00     0.000 C 
BRANCH   5   6
ATOM      6  C   UNL     1       4.984  25.442  43.326  1.00  0.00     0.000 C 
BRANCH   6   7
ATOM      7  C   UNL     1       4.814  24.525  44.552  1.00  0.00     0.000 C 
BRANCH   7   8
ATOM      8  C   UNL     1       5.675  23.255  44.466  1.00  0.00     0.006 C 
BRANCH   8   9
ATOM      9  C   UNL     1       5.020  22.153  43.622  1.00  0.00     0.053 C 
BRANCH   9  10
ATOM     10  C   UNL     1       5.967  21.671  42.569  1.00  0.00     0.041 C 
ATOM     11  O   UNL     1       6.596  22.499  41.855  1.00  0.00    -0.550 OA
ATOM     12  O   UNL     1       6.122  20.309  42.343  1.00  0.00    -0.550 OA
ENDBRANCH   9  10
ENDBRANCH   8   9
ENDBRANCH   7   8
ENDBRANCH   6   7
ENDBRANCH   5   6
ENDBRANCH   4   5
ENDBRANCH   3   4
ENDBRANCH   1   3
BRANCH   2  13
ATOM     13  C   UNL     1       1.075  29.765  41.237  1.00  0.00     0.027 C 
BRANCH  13  14
ATOM     14  C   UNL     1      -0.171  30.279  40.499  1.00  0.00     0.004 C 
BRANCH  14  15
ATOM     15  C   UNL     1      -1.003  31.249  41.351  1.00  0.00     0.000 C 
BRANCH  15  16
ATOM     16  C   UNL     1      -2.396  30.691  41.695  1.00  0.00     0.000 C 
BRANCH  16  17
ATOM     17  C   UNL     1      -2.532  30.343  43.193  1.00  0.00    -0.000 C 
BRANCH  17  18
ATOM     18  C   UNL     1      -1.486  31.038  44.080  1.00  0.00    -0.000 C 
BRANCH  18  19
ATOM     19  C   UNL     1      -0.918  30.110  45.164  1.00  0.00    -0.003 C 
ATOM     20  C   UNL     1      -1.671  28.784  45.201  1.00  0.00     0.004 C 
ENDBRANCH  18  19
ENDBRANCH  17  18
ENDBRANCH  16  17
ENDBRANCH  15  16
ENDBRANCH  14  15
ENDBRANCH  13  14
ENDBRANCH   2  13
TORSDOF 15
ENDMDL
MODEL 6
REMARK VINA RESULT:    -5.328      4.765      9.799
REMARK INTER + INTRA:         -12.925
REMARK INTER:                 -11.108
REMARK INTRA:                  -1.817
REMARK UNBOUND:                -2.925
REMARK SMILES CCCCCCCCC=CCCCCCCCC(=O)[O-]
REMARK SMILES IDX 10 1 9 2 11 3 12 4 13 5 14 6 15 7 16 8 17 9 18 10 19 11
REMARK SMILES IDX 20 12 8 13 7 14 6 15 5 16 4 17 3 18 2 19 1 20
REMARK H PARENT
REMARK Flexibility Score: inf
ROOT
ATOM      1  C   UNL     1       0.851  27.176  43.287  1.00  0.00    -0.031 C 
ATOM      2  C   UNL     1       0.173  28.079  44.010  1.00  0.00    -0.031 C 
ENDROOT
BRANCH   1   3
ATOM      3  C   UNL     1       2.252  27.440  42.807  1.00  0.00     0.027 C 
BRANCH   3   4
ATOM      4  C   UNL     1       3.145  26.208  42.997  1.00  0.00     0.004 C 
BRANCH   4   5
ATOM      5  C   UNL     1       2.522  25.225  43.997  1.00  0.00     0.000 C 
BRANCH   5   6
ATOM      6  C   UNL     1       3.265  23.882  44.052  1.00  0.00     0.000 C 
BRANCH   6   7
ATOM      7  C   UNL     1       4.511  23.929  44.956  1.00  0.00     0.000 C 
BRANCH   7   8
ATOM      8  C   UNL     1       5.116  22.538  45.203  1.00  0.00     0.006 C 
BRANCH   8   9
ATOM      9  C   UNL     1       4.497  21.456  44.309  1.00  0.00     0.053 C 
BRANCH   9  10
ATOM     10  C   UNL     1       5.536  20.864  43.411  1.00  0.00     0.041 C 
ATOM     11  O   UNL     1       5.594  21.206  42.198  1.00  0.00    -0.550 OA
ATOM     12  O   UNL     1       6.412  19.902  43.898  1.00  0.00    -0.550 OA
ENDBRANCH   9  10
ENDBRANCH   8   9
ENDBRANCH   7   8
ENDBRANCH   6   7
ENDBRANCH   5   6
ENDBRANCH   4   5
ENDBRANCH   3   4
ENDBRANCH   1   3
BRANCH   2  13
ATOM     13  C   UNL     1      -1.237  27.820  44.467  1.00  0.00     0.027 C 
BRANCH  13  14
ATOM     14  C   UNL     1      -1.890  29.102  45.008  1.00  0.00     0.004 C 
BRANCH  14  15
ATOM     15  C   UNL     1      -1.348  30.371  44.332  1.00  0.00     0.000 C 
BRANCH  15  16
ATOM     16  C   UNL     1      -2.342  30.975  43.324  1.00  0.00     0.000 C 
BRANCH  16  17
ATOM     17  C   UNL     1      -1.791  30.960  41.882  1.00  0.00    -0.000 C 
BRANCH  17  18
ATOM     18  C   UNL     1      -2.176  29.698  41.092  1.00  0.00    -0.000 C 
BRANCH  18  19
ATOM     19  C   UNL     1      -0.955  28.948  40.543  1.00  0.00    -0.003 C 
ATOM     20  C   UNL     1       0.288  29.832  40.564  1.00  0.00     0.004 C 
ENDBRANCH  18  19
ENDBRANCH  17  18
ENDBRANCH  16  17
ENDBRANCH  15  16
ENDBRANCH  14  15
ENDBRANCH  13  14
ENDBRANCH   2  13
TORSDOF 15
ENDMDL
MODEL 7
REMARK VINA RESULT:    -5.327      3.071      5.208
REMARK INTER + INTRA:         -12.923
REMARK INTER:                 -10.978
REMARK INTRA:                  -1.945
REMARK UNBOUND:                -2.925
REMARK SMILES CCCCCCCCC=CCCCCCCCC(=O)[O-]
REMARK SMILES IDX 10 1 9 2 11 3 12 4 13 5 14 6 15 7 16 8 17 9 18 10 19 11
REMARK SMILES IDX 20 12 8 13 7 14 6 15 5 16 4 17 3 18 2 19 1 20
REMARK H PARENT
REMARK Flexibility Score: inf
ROOT
ATOM      1  C   UNL     1       5.449  24.880  43.586  1.00  0.00    -0.031 C 
ATOM      2  C   UNL     1       6.496  24.277  43.005  1.00  0.00    -0.031 C 
ENDROOT
BRANCH   1   3
ATOM      3  C   UNL     1       4.099  24.929  42.926  1.00  0.00     0.027 C 
BRANCH   3   4
ATOM      4  C   UNL     1       2.972  24.785  43.957  1.00  0.00     0.004 C 
BRANCH   4   5
ATOM      5  C   UNL     1       2.122  26.060  44.025  1.00  0.00     0.000 C 
BRANCH   5   6
ATOM      6  C   UNL     1       2.203  26.897  42.739  1.00  0.00     0.000 C 
BRANCH   6   7
ATOM      7  C   UNL     1       1.673  28.330  42.929  1.00  0.00     0.000 C 
BRANCH   7   8
ATOM      8  C   UNL     1       0.239  28.506  42.407  1.00  0.00     0.006 C 
BRANCH   8   9
ATOM      9  C   UNL     1      -0.334  29.897  42.708  1.00  0.00     0.053 C 
BRANCH   9  10
ATOM     10  C   UNL     1      -0.469  30.690  41.447  1.00  0.00     0.041 C 
ATOM     11  O   UNL     1      -1.199  31.717  41.418  1.00  0.00    -0.550 OA
ATOM     12  O   UNL     1       0.176  30.270  40.289  1.00  0.00    -0.550 OA
ENDBRANCH   9  10
ENDBRANCH   8   9
ENDBRANCH   7   8
ENDBRANCH   6   7
ENDBRANCH   5   6
ENDBRANCH   4   5
ENDBRANCH   3   4
ENDBRANCH   1   3
BRANCH   2  13
ATOM     13  C   UNL     1       7.851  24.254  43.658  1.00  0.00     0.027 C 
BRANCH  13  14
ATOM     14  C   UNL     1       8.432  22.832  43.681  1.00  0.00     0.004 C 
BRANCH  14  15
ATOM     15  C   UNL     1       8.252  22.141  45.041  1.00  0.00     0.000 C 
BRANCH  15  16
ATOM     16  C   UNL     1       7.958  23.138  46.177  1.00  0.00     0.000 C 
BRANCH  16  17
ATOM     17  C   UNL     1       6.520  22.994  46.720  1.00  0.00    -0.000 C 
BRANCH  17  18
ATOM     18  C   UNL     1       5.855  21.658  46.350  1.00  0.00    -0.000 C 
BRANCH  18  19
ATOM     19  C   UNL     1       4.600  21.841  45.485  1.00  0.00    -0.003 C 
ATOM     20  C   UNL     1       4.723  21.078  44.170  1.00  0.00     0.004 C 
ENDBRANCH  18  19
ENDBRANCH  17  18
ENDBRANCH  16  17
ENDBRANCH  15  16
ENDBRANCH  14  15
ENDBRANCH  13  14
ENDBRANCH   2  13
TORSDOF 15
ENDMDL
MODEL 8
REMARK VINA RESULT:    -5.311      2.460      4.450
REMARK INTER + INTRA:         -12.893
REMARK INTER:                 -10.800
REMARK INTRA:                  -2.093
REMARK UNBOUND:                -2.925
REMARK SMILES CCCCCCCCC=CCCCCCCCC(=O)[O-]
REMARK SMILES IDX 10 1 9 2 11 3 12 4 13 5 14 6 15 7 16 8 17 9 18 10 19 11
REMARK SMILES IDX 20 12 8 13 7 14 6 15 5 16 4 17 3 18 2 19 1 20
REMARK H PARENT
REMARK Flexibility Score: inf
ROOT
ATOM      1  C   UNL     1       6.009  23.925  42.878  1.00  0.00    -0.031 C 
ATOM      2  C   UNL     1       6.545  24.534  43.946  1.00  0.00    -0.031 C 
ENDROOT
BRANCH   1   3
ATOM      3  C   UNL     1       4.567  24.123  42.497  1.00  0.00     0.027 C 
BRANCH   3   4
ATOM      4  C   UNL     1       3.641  23.907  43.700  1.00  0.00     0.004 C 
BRANCH   4   5
ATOM      5  C   UNL     1       2.869  25.189  44.038  1.00  0.00     0.000 C 
BRANCH   5   6
ATOM      6  C   UNL     1       3.213  26.354  43.097  1.00  0.00     0.000 C 
BRANCH   6   7
ATOM      7  C   UNL     1       1.979  27.192  42.714  1.00  0.00     0.000 C 
BRANCH   7   8
ATOM      8  C   UNL     1       0.924  27.240  43.831  1.00  0.00     0.006 C 
BRANCH   8   9
ATOM      9  C   UNL     1       0.321  28.639  44.014  1.00  0.00     0.053 C 
BRANCH   9  10
ATOM     10  C   UNL     1      -0.899  28.796  43.162  1.00  0.00     0.041 C 
ATOM     11  O   UNL     1      -0.806  29.300  42.009  1.00  0.00    -0.550 OA
ATOM     12  O   UNL     1      -2.145  28.428  43.655  1.00  0.00    -0.550 OA
ENDBRANCH   9  10
ENDBRANCH   8   9
ENDBRANCH   7   8
ENDBRANCH   6   7
ENDBRANCH   5   6
ENDBRANCH   4   5
ENDBRANCH   3   4
ENDBRANCH   1   3
BRANCH   2  13
ATOM     13  C   UNL     1       7.981  24.313  44.337  1.00  0.00     0.027 C 
BRANCH  13  14
ATOM     14  C   UNL     1       8.092  23.314  45.500  1.00  0.00     0.004 C 
BRANCH  14  15
ATOM     15  C   UNL     1       6.966  23.480  46.531  1.00  0.00     0.000 C 
BRANCH  15  16
ATOM     16  C   UNL     1       6.046  22.248  46.608  1.00  0.00     0.000 C 
BRANCH  16  17
ATOM     17  C   UNL     1       6.657  21.019  45.902  1.00  0.00    -0.000 C 
BRANCH  17  18
ATOM     18  C   UNL     1       5.864  20.564  44.666  1.00  0.00    -0.000 C 
BRANCH  18  19
ATOM     19  C   UNL     1       6.737  20.462  43.407  1.00  0.00    -0.003 C 
ATOM     20  C   UNL     1       5.878  20.403  42.147  1.00  0.00     0.004 C 
ENDBRANCH  18  19
ENDBRANCH  17  18
ENDBRANCH  16  17
ENDBRANCH  15  16
ENDBRANCH  14  15
ENDBRANCH  13  14
ENDBRANCH   2  13
TORSDOF 15
ENDMDL
MODEL 9
REMARK VINA RESULT:    -5.302      5.507      8.572
REMARK INTER + INTRA:         -12.877
REMARK INTER:                 -10.842
REMARK INTRA:                  -2.035
REMARK UNBOUND:                -2.925
REMARK SMILES CCCCCCCCC=CCCCCCCCC(=O)[O-]
REMARK SMILES IDX 10 1 9 2 11 3 12 4 13 5 14 6 15 7 16 8 17 9 18 10 19 11
REMARK SMILES IDX 20 12 8 13 7 14 6 15 5 16 4 17 3 18 2 19 1 20
REMARK H PARENT
REMARK Flexibility Score: inf
ROOT
ATOM      1  C   UNL     1       7.595  19.948  43.622  1.00  0.00    -0.031 C 
ATOM      2  C   UNL     1       8.074  21.142  43.243  1.00  0.00    -0.031 C 
ENDROOT
BRANCH   1   3
ATOM      3  C   UNL     1       8.427  18.979  44.417  1.00  0.00     0.027 C 
BRANCH   3   4
ATOM      4  C   UNL     1       9.320  19.713  45.426  1.00  0.00     0.004 C 
BRANCH   4   5
ATOM      5  C   UNL     1      10.664  18.993  45.597  1.00  0.00     0.000 C 
BRANCH   5   6
ATOM      6  C   UNL     1      10.808  17.777  44.670  1.00  0.00     0.000 C 
BRANCH   6   7
ATOM      7  C   UNL     1      12.078  16.956  44.961  1.00  0.00     0.000 C 
BRANCH   7   8
ATOM      8  C   UNL     1      12.619  17.185  46.381  1.00  0.00     0.006 C 
BRANCH   8   9
ATOM      9  C   UNL     1      12.467  15.950  47.278  1.00  0.00     0.053 C 
BRANCH   9  10
ATOM     10  C   UNL     1      13.770  15.225  47.393  1.00  0.00     0.041 C 
ATOM     11  O   UNL     1      13.789  13.993  47.665  1.00  0.00    -0.550 OA
ATOM     12  O   UNL     1      14.967  15.915  47.243  1.00  0.00    -0.550 OA
ENDBRANCH   9  10
ENDBRANCH   8   9
ENDBRANCH   7   8
ENDBRANCH   6   7
ENDBRANCH   5   6
ENDBRANCH   4   5
ENDBRANCH   3   4
ENDBRANCH   1   3
BRANCH   2  13
ATOM     13  C   UNL     1       7.247  22.097  42.426  1.00  0.00     0.027 C 
BRANCH  13  14
ATOM     14  C   UNL     1       7.784  23.532  42.537  1.00  0.00     0.004 C 
BRANCH  14  15
ATOM     15  C   UNL     1       7.389  24.210  43.858  1.00  0.00     0.000 C 
BRANCH  15  16
ATOM     16  C   UNL     1       8.519  24.174  44.903  1.00  0.00     0.000 C 
BRANCH  16  17
ATOM     17  C   UNL     1       8.112  23.397  46.174  1.00  0.00    -0.000 C 
BRANCH  17  18
ATOM     18  C   UNL     1       6.592  23.211  46.318  1.00  0.00    -0.000 C 
BRANCH  18  19
ATOM     19  C   UNL     1       6.197  21.750  46.577  1.00  0.00    -0.003 C 
ATOM     20  C   UNL     1       4.922  21.385  45.823  1.00  0.00     0.004 C 
ENDBRANCH  18  19
ENDBRANCH  17  18
ENDBRANCH  16  17
ENDBRANCH  15  16
ENDBRANCH  14  15
ENDBRANCH  13  14
ENDBRANCH   2  13
TORSDOF 15
ENDMDL
