MODEL 1
REMARK VINA RESULT:    -3.228      0.000      0.000
REMARK INTER + INTRA:         -13.540
REMARK INTER:                  -8.512
REMARK INTRA:                  -5.029
REMARK UNBOUND:                -5.029
REMARK SMILES CCCCCCCCCCCCCCCCCCCCCCCCCCCCCC(=O)[O-]
REMARK SMILES IDX 16 1 17 2 18 3 19 4 20 5 21 6 22 7 23 8 24 9 25 10 26 11
REMARK SMILES IDX 27 12 28 13 29 14 30 15 31 16 32 17 15 18 14 19 13 20 12 21
REMARK SMILES IDX 11 22 10 23 9 24 8 25 7 26 6 27 5 28 4 29 3 30 2 31 1 32
REMARK H PARENT
REMARK Flexibility Score: inf
ROOT
ATOM      1  C   UNL     1      -3.630   8.517   4.537  1.00  0.00     0.000 C 
ENDROOT
BRANCH   1   2
ATOM      2  C   UNL     1      -4.767   8.455   3.504  1.00  0.00     0.000 C 
BRANCH   2   3
ATOM      3  C   UNL     1      -5.226   9.845   3.043  1.00  0.00     0.000 C 
BRANCH   3   4
ATOM      4  C   UNL     1      -5.033  10.071   1.536  1.00  0.00     0.000 C 
BRANCH   4   5
ATOM      5  C   UNL     1      -3.903   9.177   0.998  1.00  0.00     0.000 C 
BRANCH   5   6
ATOM      6  C   UNL     1      -2.495   9.763   1.208  1.00  0.00     0.000 C 
BRANCH   6   7
ATOM      7  C   UNL     1      -1.325   8.782   0.994  1.00  0.00     0.000 C 
BRANCH   7   8
ATOM      8  C   UNL     1      -1.702   7.441   0.324  1.00  0.00     0.000 C 
BRANCH   8   9
ATOM      9  C   UNL     1      -1.610   6.220   1.260  1.00  0.00     0.000 C 
BRANCH   9  10
ATOM     10  C   UNL     1      -1.247   6.541   2.720  1.00  0.00     0.000 C 
BRANCH  10  11
ATOM     11  C   UNL     1       0.062   5.872   3.168  1.00  0.00     0.000 C 
BRANCH  11  12
ATOM     12  C   UNL     1       1.261   6.413   2.376  1.00  0.00     0.000 C 
BRANCH  12  13
ATOM     13  C   UNL     1       2.129   5.266   1.845  1.00  0.00     0.006 C 
BRANCH  13  14
ATOM     14  C   UNL     1       1.448   4.544   0.675  1.00  0.00     0.053 C 
BRANCH  14  15
ATOM     15  C   UNL     1       2.203   4.751  -0.602  1.00  0.00     0.041 C 
ATOM     16  O   UNL     1       3.327   5.319  -0.585  1.00  0.00    -0.550 OA
ATOM     17  O   UNL     1       1.655   4.348  -1.816  1.00  0.00    -0.550 OA
ENDBRANCH  14  15
ENDBRANCH  13  14
ENDBRANCH  12  13
ENDBRANCH  11  12
ENDBRANCH  10  11
ENDBRANCH   9  10
ENDBRANCH   8   9
ENDBRANCH   7   8
ENDBRANCH   6   7
ENDBRANCH   5   6
ENDBRANCH   4   5
ENDBRANCH   3   4
ENDBRANCH   2   3
ENDBRANCH   1   2
BRANCH   1  18
ATOM     18  C   UNL     1      -3.248   9.955   4.926  1.00  0.00     0.000 C 
BRANCH  18  19
ATOM     19  C   UNL     1      -1.788  10.107   5.409  1.00  0.00     0.000 C 
BRANCH  19  20
ATOM     20  C   UNL     1      -0.745   9.342   4.565  1.00  0.00     0.000 C 
BRANCH  20  21
ATOM     21  C   UNL     1       0.736   9.687   4.854  1.00  0.00     0.000 C 
BRANCH  21  22
ATOM     22  C   UNL     1       1.102   9.803   6.347  1.00  0.00     0.000 C 
BRANCH  22  23
ATOM     23  C   UNL     1       2.095   8.713   6.793  1.00  0.00     0.000 C 
BRANCH  23  24
ATOM     24  C   UNL     1       1.800   7.355   6.126  1.00  0.00    -0.000 C 
BRANCH  24  25
ATOM     25  C   UNL     1       2.974   6.359   6.230  1.00  0.00    -0.000 C 
BRANCH  25  26
ATOM     26  C   UNL     1       3.935   6.416   5.020  1.00  0.00    -0.000 C 
BRANCH  26  27
ATOM     27  C   UNL     1       4.427   5.034   4.539  1.00  0.00    -0.000 C 
BRANCH  27  28
ATOM     28  C   UNL     1       3.928   3.857   5.400  1.00  0.00    -0.000 C 
BRANCH  28  29
ATOM     29  C   UNL     1       2.921   2.968   4.650  1.00  0.00    -0.000 C 
BRANCH  29  30
ATOM     30  C   UNL     1       1.481   3.121   5.172  1.00  0.00    -0.000 C 
BRANCH  30  31
ATOM     31  C   UNL     1       1.394   3.290   6.704  1.00  0.00    -0.003 C 
ATOM     32  C   UNL     1       0.175   2.587   7.299  1.00  0.00     0.004 C 
ENDBRANCH  30  31
ENDBRANCH  29  30
ENDBRANCH  28  29
ENDBRANCH  27  28
ENDBRANCH  26  27
ENDBRANCH  25  26
ENDBRANCH  24  25
ENDBRANCH  23  24
ENDBRANCH  22  23
ENDBRANCH  21  22
ENDBRANCH  20  21
ENDBRANCH  19  20
ENDBRANCH  18  19
ENDBRANCH   1  18
TORSDOF 28
ENDMDL
MODEL 2
REMARK VINA RESULT:    -3.135     13.117     16.122
REMARK INTER + INTRA:         -13.294
REMARK INTER:                  -7.999
REMARK INTRA:                  -5.295
REMARK UNBOUND:                -5.029
REMARK SMILES CCCCCCCCCCCCCCCCCCCCCCCCCCCCCC(=O)[O-]
REMARK SMILES IDX 16 1 17 2 18 3 19 4 20 5 21 6 22 7 23 8 24 9 25 10 26 11
REMARK SMILES IDX 27 12 28 13 29 14 30 15 31 16 32 17 15 18 14 19 13 20 12 21
REMARK SMILES IDX 11 22 10 23 9 24 8 25 7 26 6 27 5 28 4 29 3 30 2 31 1 32
REMARK H PARENT
REMARK Flexibility Score: inf
ROOT
ATOM      1  C   UNL     1      -9.520  -7.209  -4.678  1.00  0.00     0.000 C 
ENDROOT
BRANCH   1   2
ATOM      2  C   UNL     1      -8.631  -8.464  -4.707  1.00  0.00     0.000 C 
BRANCH   2   3
ATOM      3  C   UNL     1      -7.857  -8.673  -3.398  1.00  0.00     0.000 C 
BRANCH   3   4
ATOM      4  C   UNL     1      -6.347  -8.852  -3.617  1.00  0.00     0.000 C 
BRANCH   4   5
ATOM      5  C   UNL     1      -5.719  -7.546  -4.131  1.00  0.00     0.000 C 
BRANCH   5   6
ATOM      6  C   UNL     1      -4.365  -7.211  -3.479  1.00  0.00     0.000 C 
BRANCH   6   7
ATOM      7  C   UNL     1      -3.939  -5.730  -3.548  1.00  0.00     0.000 C 
BRANCH   7   8
ATOM      8  C   UNL     1      -4.970  -4.720  -2.995  1.00  0.00     0.000 C 
BRANCH   8   9
ATOM      9  C   UNL     1      -4.785  -4.381  -1.503  1.00  0.00     0.000 C 
BRANCH   9  10
ATOM     10  C   UNL     1      -6.015  -4.637  -0.616  1.00  0.00     0.000 C 
BRANCH  10  11
ATOM     11  C   UNL     1      -6.918  -5.755  -1.161  1.00  0.00     0.000 C 
BRANCH  11  12
ATOM     12  C   UNL     1      -6.900  -6.982  -0.239  1.00  0.00     0.000 C 
BRANCH  12  13
ATOM     13  C   UNL     1      -8.321  -7.495   0.021  1.00  0.00     0.006 C 
BRANCH  13  14
ATOM     14  C   UNL     1      -9.248  -6.363   0.482  1.00  0.00     0.053 C 
BRANCH  14  15
ATOM     15  C   UNL     1      -9.077  -6.086   1.944  1.00  0.00     0.041 C 
ATOM     16  O   UNL     1      -8.608  -4.981   2.325  1.00  0.00    -0.550 OA
ATOM     17  O   UNL     1      -9.406  -7.055   2.887  1.00  0.00    -0.550 OA
ENDBRANCH  14  15
ENDBRANCH  13  14
ENDBRANCH  12  13
ENDBRANCH  11  12
ENDBRANCH  10  11
ENDBRANCH   9  10
ENDBRANCH   8   9
ENDBRANCH   7   8
ENDBRANCH   6   7
ENDBRANCH   5   6
ENDBRANCH   4   5
ENDBRANCH   3   4
ENDBRANCH   2   3
ENDBRANCH   1   2
BRANCH   1  18
ATOM     18  C   UNL     1      -9.904  -6.777  -3.253  1.00  0.00     0.000 C 
BRANCH  18  19
ATOM     19  C   UNL     1     -10.022  -5.246  -3.072  1.00  0.00     0.000 C 
BRANCH  19  20
ATOM     20  C   UNL     1      -9.576  -4.416  -4.296  1.00  0.00     0.000 C 
BRANCH  20  21
ATOM     21  C   UNL     1      -8.254  -3.628  -4.127  1.00  0.00     0.000 C 
BRANCH  21  22
ATOM     22  C   UNL     1      -8.191  -2.714  -2.888  1.00  0.00     0.000 C 
BRANCH  22  23
ATOM     23  C   UNL     1      -7.109  -1.624  -3.019  1.00  0.00     0.000 C 
BRANCH  23  24
ATOM     24  C   UNL     1      -6.371  -1.705  -4.370  1.00  0.00    -0.000 C 
BRANCH  24  25
ATOM     25  C   UNL     1      -4.912  -1.207  -4.296  1.00  0.00    -0.000 C 
BRANCH  25  26
ATOM     26  C   UNL     1      -4.063  -1.614  -5.522  1.00  0.00    -0.000 C 
BRANCH  26  27
ATOM     27  C   UNL     1      -2.946  -2.633  -5.207  1.00  0.00    -0.000 C 
BRANCH  27  28
ATOM     28  C   UNL     1      -1.550  -2.204  -5.700  1.00  0.00    -0.000 C 
BRANCH  28  29
ATOM     29  C   UNL     1      -0.563  -1.978  -4.542  1.00  0.00    -0.000 C 
BRANCH  29  30
ATOM     30  C   UNL     1       0.569  -3.020  -4.508  1.00  0.00    -0.000 C 
BRANCH  30  31
ATOM     31  C   UNL     1       0.593  -3.866  -3.217  1.00  0.00    -0.003 C 
ATOM     32  C   UNL     1      -0.775  -3.932  -2.539  1.00  0.00     0.004 C 
ENDBRANCH  30  31
ENDBRANCH  29  30
ENDBRANCH  28  29
ENDBRANCH  27  28
ENDBRANCH  26  27
ENDBRANCH  25  26
ENDBRANCH  24  25
ENDBRANCH  23  24
ENDBRANCH  22  23
ENDBRANCH  21  22
ENDBRANCH  20  21
ENDBRANCH  19  20
ENDBRANCH  18  19
ENDBRANCH   1  18
TORSDOF 28
ENDMDL
MODEL 3
REMARK VINA RESULT:    -3.125     13.120     16.396
REMARK INTER + INTRA:         -13.268
REMARK INTER:                  -7.837
REMARK INTRA:                  -5.430
REMARK UNBOUND:                -5.029
REMARK SMILES CCCCCCCCCCCCCCCCCCCCCCCCCCCCCC(=O)[O-]
REMARK SMILES IDX 16 1 17 2 18 3 19 4 20 5 21 6 22 7 23 8 24 9 25 10 26 11
REMARK SMILES IDX 27 12 28 13 29 14 30 15 31 16 32 17 15 18 14 19 13 20 12 21
REMARK SMILES IDX 11 22 10 23 9 24 8 25 7 26 6 27 5 28 4 29 3 30 2 31 1 32
REMARK H PARENT
REMARK Flexibility Score: inf
ROOT
ATOM      1  C   UNL     1      -5.468  -7.940  -2.401  1.00  0.00     0.000 C 
ENDROOT
BRANCH   1   2
ATOM      2  C   UNL     1      -6.363  -7.266  -1.347  1.00  0.00     0.000 C 
BRANCH   2   3
ATOM      3  C   UNL     1      -6.912  -8.259  -0.313  1.00  0.00     0.000 C 
BRANCH   3   4
ATOM      4  C   UNL     1      -8.418  -8.093  -0.063  1.00  0.00     0.000 C 
BRANCH   4   5
ATOM      5  C   UNL     1      -8.694  -7.859   1.432  1.00  0.00     0.000 C 
BRANCH   5   6
ATOM      6  C   UNL     1      -9.212  -6.446   1.753  1.00  0.00     0.000 C 
BRANCH   6   7
ATOM      7  C   UNL     1      -9.354  -5.496   0.546  1.00  0.00     0.000 C 
BRANCH   7   8
ATOM      8  C   UNL     1      -8.216  -4.465   0.380  1.00  0.00     0.000 C 
BRANCH   8   9
ATOM      9  C   UNL     1      -8.684  -2.996   0.413  1.00  0.00     0.000 C 
BRANCH   9  10
ATOM     10  C   UNL     1      -9.590  -2.572  -0.756  1.00  0.00     0.000 C 
BRANCH  10  11
ATOM     11  C   UNL     1      -8.962  -1.472  -1.625  1.00  0.00     0.000 C 
BRANCH  11  12
ATOM     12  C   UNL     1      -9.601  -1.435  -3.021  1.00  0.00     0.000 C 
BRANCH  12  13
ATOM     13  C   UNL     1      -8.711  -0.675  -4.012  1.00  0.00     0.006 C 
BRANCH  13  14
ATOM     14  C   UNL     1      -8.644  -1.393  -5.366  1.00  0.00     0.053 C 
BRANCH  14  15
ATOM     15  C   UNL     1      -7.707  -0.693  -6.303  1.00  0.00     0.041 C 
ATOM     16  O   UNL     1      -6.671  -1.280  -6.713  1.00  0.00    -0.550 OA
ATOM     17  O   UNL     1      -7.958   0.616  -6.702  1.00  0.00    -0.550 OA
ENDBRANCH  14  15
ENDBRANCH  13  14
ENDBRANCH  12  13
ENDBRANCH  11  12
ENDBRANCH  10  11
ENDBRANCH   9  10
ENDBRANCH   8   9
ENDBRANCH   7   8
ENDBRANCH   6   7
ENDBRANCH   5   6
ENDBRANCH   4   5
ENDBRANCH   3   4
ENDBRANCH   2   3
ENDBRANCH   1   2
BRANCH   1  18
ATOM     18  C   UNL     1      -5.977  -7.741  -3.838  1.00  0.00     0.000 C 
BRANCH  18  19
ATOM     19  C   UNL     1      -6.802  -8.930  -4.382  1.00  0.00     0.000 C 
BRANCH  19  20
ATOM     20  C   UNL     1      -8.310  -8.874  -4.055  1.00  0.00     0.000 C 
BRANCH  20  21
ATOM     21  C   UNL     1      -9.016  -7.534  -4.375  1.00  0.00     0.000 C 
BRANCH  21  22
ATOM     22  C   UNL     1      -9.780  -6.899  -3.196  1.00  0.00     0.000 C 
BRANCH  22  23
ATOM     23  C   UNL     1      -9.614  -5.368  -3.147  1.00  0.00     0.000 C 
BRANCH  23  24
ATOM     24  C   UNL     1      -8.422  -4.890  -4.000  1.00  0.00    -0.000 C 
BRANCH  24  25
ATOM     25  C   UNL     1      -7.251  -4.344  -3.156  1.00  0.00    -0.000 C 
BRANCH  25  26
ATOM     26  C   UNL     1      -6.184  -3.605  -3.995  1.00  0.00    -0.000 C 
BRANCH  26  27
ATOM     27  C   UNL     1      -5.482  -2.450  -3.248  1.00  0.00    -0.000 C 
BRANCH  27  28
ATOM     28  C   UNL     1      -3.979  -2.322  -3.563  1.00  0.00    -0.000 C 
BRANCH  28  29
ATOM     29  C   UNL     1      -3.713  -2.051  -5.054  1.00  0.00    -0.000 C 
BRANCH  29  30
ATOM     30  C   UNL     1      -2.247  -2.292  -5.455  1.00  0.00    -0.000 C 
BRANCH  30  31
ATOM     31  C   UNL     1      -1.519  -3.312  -4.553  1.00  0.00    -0.003 C 
ATOM     32  C   UNL     1      -0.115  -2.850  -4.167  1.00  0.00     0.004 C 
ENDBRANCH  30  31
ENDBRANCH  29  30
ENDBRANCH  28  29
ENDBRANCH  27  28
ENDBRANCH  26  27
ENDBRANCH  25  26
ENDBRANCH  24  25
ENDBRANCH  23  24
ENDBRANCH  22  23
ENDBRANCH  21  22
ENDBRANCH  20  21
ENDBRANCH  19  20
ENDBRANCH  18  19
ENDBRANCH   1  18
TORSDOF 28
ENDMDL
MODEL 4
REMARK VINA RESULT:    -3.107     12.563     15.747
REMARK INTER + INTRA:         -13.222
REMARK INTER:                  -9.735
REMARK INTRA:                  -3.487
REMARK UNBOUND:                -5.029
REMARK SMILES CCCCCCCCCCCCCCCCCCCCCCCCCCCCCC(=O)[O-]
REMARK SMILES IDX 16 1 17 2 18 3 19 4 20 5 21 6 22 7 23 8 24 9 25 10 26 11
REMARK SMILES IDX 27 12 28 13 29 14 30 15 31 16 32 17 15 18 14 19 13 20 12 21
REMARK SMILES IDX 11 22 10 23 9 24 8 25 7 26 6 27 5 28 4 29 3 30 2 31 1 32
REMARK H PARENT
REMARK Flexibility Score: inf
ROOT
ATOM      1  C   UNL     1      -5.172  -7.514  -3.010  1.00  0.00     0.000 C 
ENDROOT
BRANCH   1   2
ATOM      2  C   UNL     1      -5.570  -6.130  -2.469  1.00  0.00     0.000 C 
BRANCH   2   3
ATOM      3  C   UNL     1      -5.781  -5.096  -3.584  1.00  0.00     0.000 C 
BRANCH   3   4
ATOM      4  C   UNL     1      -4.683  -4.024  -3.624  1.00  0.00     0.000 C 
BRANCH   4   5
ATOM      5  C   UNL     1      -3.363  -4.623  -4.138  1.00  0.00     0.000 C 
BRANCH   5   6
ATOM      6  C   UNL     1      -2.505  -3.631  -4.945  1.00  0.00     0.000 C 
BRANCH   6   7
ATOM      7  C   UNL     1      -1.393  -2.913  -4.154  1.00  0.00     0.000 C 
BRANCH   7   8
ATOM      8  C   UNL     1      -0.820  -1.643  -4.824  1.00  0.00     0.000 C 
BRANCH   8   9
ATOM      9  C   UNL     1       0.476  -1.881  -5.623  1.00  0.00     0.000 C 
BRANCH   9  10
ATOM     10  C   UNL     1       1.558  -2.692  -4.889  1.00  0.00     0.000 C 
BRANCH  10  11
ATOM     11  C   UNL     1       2.980  -2.346  -5.355  1.00  0.00     0.000 C 
BRANCH  11  12
ATOM     12  C   UNL     1       2.966  -1.698  -6.747  1.00  0.00     0.000 C 
BRANCH  12  13
ATOM     13  C   UNL     1       4.306  -1.017  -7.048  1.00  0.00     0.006 C 
BRANCH  13  14
ATOM     14  C   UNL     1       4.125   0.485  -7.304  1.00  0.00     0.053 C 
BRANCH  14  15
ATOM     15  C   UNL     1       5.134   1.289  -6.543  1.00  0.00     0.041 C 
ATOM     16  O   UNL     1       6.227   1.603  -7.083  1.00  0.00    -0.550 OA
ATOM     17  O   UNL     1       4.884   1.667  -5.227  1.00  0.00    -0.550 OA
ENDBRANCH  14  15
ENDBRANCH  13  14
ENDBRANCH  12  13
ENDBRANCH  11  12
ENDBRANCH  10  11
ENDBRANCH   9  10
ENDBRANCH   8   9
ENDBRANCH   7   8
ENDBRANCH   6   7
ENDBRANCH   5   6
ENDBRANCH   4   5
ENDBRANCH   3   4
ENDBRANCH   2   3
ENDBRANCH   1   2
BRANCH   1  18
ATOM     18  C   UNL     1      -6.320  -8.536  -2.950  1.00  0.00     0.000 C 
BRANCH  18  19
ATOM     19  C   UNL     1      -6.999  -8.796  -4.315  1.00  0.00     0.000 C 
BRANCH  19  20
ATOM     20  C   UNL     1      -8.525  -8.559  -4.332  1.00  0.00     0.000 C 
BRANCH  20  21
ATOM     21  C   UNL     1      -8.979  -7.091  -4.147  1.00  0.00     0.000 C 
BRANCH  21  22
ATOM     22  C   UNL     1      -9.824  -6.821  -2.886  1.00  0.00     0.000 C 
BRANCH  22  23
ATOM     23  C   UNL     1      -9.286  -5.634  -2.065  1.00  0.00     0.000 C 
BRANCH  23  24
ATOM     24  C   UNL     1      -8.848  -6.062  -0.650  1.00  0.00    -0.000 C 
BRANCH  24  25
ATOM     25  C   UNL     1      -8.652  -7.586  -0.510  1.00  0.00    -0.000 C 
BRANCH  25  26
ATOM     26  C   UNL     1      -8.517  -8.055   0.958  1.00  0.00    -0.000 C 
BRANCH  26  27
ATOM     27  C   UNL     1      -7.879  -9.452   1.118  1.00  0.00    -0.000 C 
BRANCH  27  28
ATOM     28  C   UNL     1      -6.854  -9.544   2.265  1.00  0.00    -0.000 C 
BRANCH  28  29
ATOM     29  C   UNL     1      -5.416  -9.733   1.752  1.00  0.00    -0.000 C 
BRANCH  29  30
ATOM     30  C   UNL     1      -5.003  -8.668   0.721  1.00  0.00    -0.000 C 
BRANCH  30  31
ATOM     31  C   UNL     1      -4.425  -7.384   1.355  1.00  0.00    -0.003 C 
ATOM     32  C   UNL     1      -5.287  -6.155   1.069  1.00  0.00     0.004 C 
ENDBRANCH  30  31
ENDBRANCH  29  30
ENDBRANCH  28  29
ENDBRANCH  27  28
ENDBRANCH  26  27
ENDBRANCH  25  26
ENDBRANCH  24  25
ENDBRANCH  23  24
ENDBRANCH  22  23
ENDBRANCH  21  22
ENDBRANCH  20  21
ENDBRANCH  19  20
ENDBRANCH  18  19
ENDBRANCH   1  18
TORSDOF 28
ENDMDL
MODEL 5
REMARK VINA RESULT:    -3.057     13.155     16.429
REMARK INTER + INTRA:         -13.089
REMARK INTER:                  -7.982
REMARK INTRA:                  -5.107
REMARK UNBOUND:                -5.029
REMARK SMILES CCCCCCCCCCCCCCCCCCCCCCCCCCCCCC(=O)[O-]
REMARK SMILES IDX 16 1 17 2 18 3 19 4 20 5 21 6 22 7 23 8 24 9 25 10 26 11
REMARK SMILES IDX 27 12 28 13 29 14 30 15 31 16 32 17 15 18 14 19 13 20 12 21
REMARK SMILES IDX 11 22 10 23 9 24 8 25 7 26 6 27 5 28 4 29 3 30 2 31 1 32
REMARK H PARENT
REMARK Flexibility Score: inf
ROOT
ATOM      1  C   UNL     1      -7.231  -7.762   0.225  1.00  0.00     0.000 C 
ENDROOT
BRANCH   1   2
ATOM      2  C   UNL     1      -8.307  -8.772   0.658  1.00  0.00     0.000 C 
BRANCH   2   3
ATOM      3  C   UNL     1      -8.862  -8.483   2.060  1.00  0.00     0.000 C 
BRANCH   3   4
ATOM      4  C   UNL     1      -8.704  -7.013   2.476  1.00  0.00     0.000 C 
BRANCH   4   5
ATOM      5  C   UNL     1     -10.036  -6.262   2.320  1.00  0.00     0.000 C 
BRANCH   5   6
ATOM      6  C   UNL     1     -10.032  -5.221   1.185  1.00  0.00     0.000 C 
BRANCH   6   7
ATOM      7  C   UNL     1      -8.800  -4.294   1.134  1.00  0.00     0.000 C 
BRANCH   7   8
ATOM      8  C   UNL     1      -8.485  -3.690  -0.253  1.00  0.00     0.000 C 
BRANCH   8   9
ATOM      9  C   UNL     1      -7.037  -3.184  -0.407  1.00  0.00     0.000 C 
BRANCH   9  10
ATOM     10  C   UNL     1      -5.967  -4.043   0.287  1.00  0.00     0.000 C 
BRANCH  10  11
ATOM     11  C   UNL     1      -4.933  -4.614  -0.695  1.00  0.00     0.000 C 
BRANCH  11  12
ATOM     12  C   UNL     1      -4.932  -3.833  -2.017  1.00  0.00     0.000 C 
BRANCH  12  13
ATOM     13  C   UNL     1      -4.406  -4.701  -3.166  1.00  0.00     0.006 C 
BRANCH  13  14
ATOM     14  C   UNL     1      -5.469  -5.699  -3.644  1.00  0.00     0.053 C 
BRANCH  14  15
ATOM     15  C   UNL     1      -4.849  -7.010  -4.022  1.00  0.00     0.041 C 
ATOM     16  O   UNL     1      -5.536  -8.064  -3.991  1.00  0.00    -0.550 OA
ATOM     17  O   UNL     1      -3.506  -7.076  -4.380  1.00  0.00    -0.550 OA
ENDBRANCH  14  15
ENDBRANCH  13  14
ENDBRANCH  12  13
ENDBRANCH  11  12
ENDBRANCH  10  11
ENDBRANCH   9  10
ENDBRANCH   8   9
ENDBRANCH   7   8
ENDBRANCH   6   7
ENDBRANCH   5   6
ENDBRANCH   4   5
ENDBRANCH   3   4
ENDBRANCH   2   3
ENDBRANCH   1   2
BRANCH   1  18
ATOM     18  C   UNL     1      -7.525  -7.118  -1.141  1.00  0.00     0.000 C 
BRANCH  18  19
ATOM     19  C   UNL     1      -8.876  -7.547  -1.758  1.00  0.00     0.000 C 
BRANCH  19  20
ATOM     20  C   UNL     1      -9.736  -6.385  -2.302  1.00  0.00     0.000 C 
BRANCH  20  21
ATOM     21  C   UNL     1     -10.088  -6.459  -3.807  1.00  0.00     0.000 C 
BRANCH  21  22
ATOM     22  C   UNL     1      -9.679  -5.225  -4.636  1.00  0.00     0.000 C 
BRANCH  22  23
ATOM     23  C   UNL     1      -8.845  -4.221  -3.817  1.00  0.00     0.000 C 
BRANCH  23  24
ATOM     24  C   UNL     1      -9.140  -2.762  -4.220  1.00  0.00    -0.000 C 
BRANCH  24  25
ATOM     25  C   UNL     1      -8.010  -2.121  -5.052  1.00  0.00    -0.000 C 
BRANCH  25  26
ATOM     26  C   UNL     1      -6.760  -1.763  -4.215  1.00  0.00    -0.000 C 
BRANCH  26  27
ATOM     27  C   UNL     1      -5.460  -1.646  -5.040  1.00  0.00    -0.000 C 
BRANCH  27  28
ATOM     28  C   UNL     1      -5.691  -1.335  -6.532  1.00  0.00    -0.000 C 
BRANCH  28  29
ATOM     29  C   UNL     1      -5.673   0.175  -6.825  1.00  0.00    -0.000 C 
BRANCH  29  30
ATOM     30  C   UNL     1      -6.708   0.591  -7.886  1.00  0.00    -0.000 C 
BRANCH  30  31
ATOM     31  C   UNL     1      -7.866   1.442  -7.320  1.00  0.00    -0.003 C 
ATOM     32  C   UNL     1      -7.429   2.866  -6.980  1.00  0.00     0.004 C 
ENDBRANCH  30  31
ENDBRANCH  29  30
ENDBRANCH  28  29
ENDBRANCH  27  28
ENDBRANCH  26  27
ENDBRANCH  25  26
ENDBRANCH  24  25
ENDBRANCH  23  24
ENDBRANCH  22  23
ENDBRANCH  21  22
ENDBRANCH  20  21
ENDBRANCH  19  20
ENDBRANCH  18  19
ENDBRANCH   1  18
TORSDOF 28
ENDMDL
MODEL 6
REMARK VINA RESULT:    -3.039      3.131      4.948
REMARK INTER + INTRA:         -13.043
REMARK INTER:                  -8.052
REMARK INTRA:                  -4.991
REMARK UNBOUND:                -5.029
REMARK SMILES CCCCCCCCCCCCCCCCCCCCCCCCCCCCCC(=O)[O-]
REMARK SMILES IDX 16 1 17 2 18 3 19 4 20 5 21 6 22 7 23 8 24 9 25 10 26 11
REMARK SMILES IDX 27 12 28 13 29 14 30 15 31 16 32 17 15 18 14 19 13 20 12 21
REMARK SMILES IDX 11 22 10 23 9 24 8 25 7 26 6 27 5 28 4 29 3 30 2 31 1 32
REMARK H PARENT
REMARK Flexibility Score: inf
ROOT
ATOM      1  C   UNL     1      -2.725   9.736   3.843  1.00  0.00     0.000 C 
ENDROOT
BRANCH   1   2
ATOM      2  C   UNL     1      -4.115   9.132   4.105  1.00  0.00     0.000 C 
BRANCH   2   3
ATOM      3  C   UNL     1      -4.094   7.598   4.167  1.00  0.00     0.000 C 
BRANCH   3   4
ATOM      4  C   UNL     1      -4.688   6.939   2.914  1.00  0.00     0.000 C 
BRANCH   4   5
ATOM      5  C   UNL     1      -3.751   5.839   2.388  1.00  0.00     0.000 C 
BRANCH   5   6
ATOM      6  C   UNL     1      -2.263   6.096   2.689  1.00  0.00     0.000 C 
BRANCH   6   7
ATOM      7  C   UNL     1      -1.407   4.839   2.945  1.00  0.00     0.000 C 
BRANCH   7   8
ATOM      8  C   UNL     1      -2.203   3.543   3.220  1.00  0.00     0.000 C 
BRANCH   8   9
ATOM      9  C   UNL     1      -1.445   2.506   4.072  1.00  0.00     0.000 C 
BRANCH   9  10
ATOM     10  C   UNL     1      -0.157   3.021   4.737  1.00  0.00     0.000 C 
BRANCH  10  11
ATOM     11  C   UNL     1       0.304   2.136   5.905  1.00  0.00     0.000 C 
BRANCH  11  12
ATOM     12  C   UNL     1       0.702   2.985   7.121  1.00  0.00     0.000 C 
BRANCH  12  13
ATOM     13  C   UNL     1       2.227   3.075   7.253  1.00  0.00     0.006 C 
BRANCH  13  14
ATOM     14  C   UNL     1       2.924   1.992   6.420  1.00  0.00     0.053 C 
BRANCH  14  15
ATOM     15  C   UNL     1       3.605   0.988   7.300  1.00  0.00     0.041 C 
ATOM     16  O   UNL     1       2.923   0.138   7.931  1.00  0.00    -0.550 OA
ATOM     17  O   UNL     1       4.988   1.007   7.451  1.00  0.00    -0.550 OA
ENDBRANCH  14  15
ENDBRANCH  13  14
ENDBRANCH  12  13
ENDBRANCH  11  12
ENDBRANCH  10  11
ENDBRANCH   9  10
ENDBRANCH   8   9
ENDBRANCH   7   8
ENDBRANCH   6   7
ENDBRANCH   5   6
ENDBRANCH   4   5
ENDBRANCH   3   4
ENDBRANCH   2   3
ENDBRANCH   1   2
BRANCH   1  18
ATOM     18  C   UNL     1      -1.755   9.545   5.020  1.00  0.00     0.000 C 
BRANCH  18  19
ATOM     19  C   UNL     1      -0.279   9.369   4.594  1.00  0.00     0.000 C 
BRANCH  19  20
ATOM     20  C   UNL     1      -0.080   8.873   3.145  1.00  0.00     0.000 C 
BRANCH  20  21
ATOM     21  C   UNL     1       0.911   9.694   2.285  1.00  0.00     0.000 C 
BRANCH  21  22
ATOM     22  C   UNL     1       2.333   9.821   2.868  1.00  0.00     0.000 C 
BRANCH  22  23
ATOM     23  C   UNL     1       3.391  10.079   1.777  1.00  0.00     0.000 C 
BRANCH  23  24
ATOM     24  C   UNL     1       4.349   8.883   1.608  1.00  0.00    -0.000 C 
BRANCH  24  25
ATOM     25  C   UNL     1       3.968   7.671   2.485  1.00  0.00    -0.000 C 
BRANCH  25  26
ATOM     26  C   UNL     1       3.247   6.550   1.701  1.00  0.00    -0.000 C 
BRANCH  26  27
ATOM     27  C   UNL     1       2.029   5.949   2.436  1.00  0.00    -0.000 C 
BRANCH  27  28
ATOM     28  C   UNL     1       2.354   5.393   3.836  1.00  0.00    -0.000 C 
BRANCH  28  29
ATOM     29  C   UNL     1       1.673   6.195   4.958  1.00  0.00    -0.000 C 
BRANCH  29  30
ATOM     30  C   UNL     1       2.644   6.595   6.083  1.00  0.00    -0.000 C 
BRANCH  30  31
ATOM     31  C   UNL     1       3.047   8.085   6.052  1.00  0.00    -0.003 C 
ATOM     32  C   UNL     1       2.509   8.859   7.255  1.00  0.00     0.004 C 
ENDBRANCH  30  31
ENDBRANCH  29  30
ENDBRANCH  28  29
ENDBRANCH  27  28
ENDBRANCH  26  27
ENDBRANCH  25  26
ENDBRANCH  24  25
ENDBRANCH  23  24
ENDBRANCH  22  23
ENDBRANCH  21  22
ENDBRANCH  20  21
ENDBRANCH  19  20
ENDBRANCH  18  19
ENDBRANCH   1  18
TORSDOF 28
ENDMDL
MODEL 7
REMARK VINA RESULT:    -2.962     11.523     14.086
REMARK INTER + INTRA:         -12.839
REMARK INTER:                  -6.367
REMARK INTRA:                  -6.472
REMARK UNBOUND:                -5.029
REMARK SMILES CCCCCCCCCCCCCCCCCCCCCCCCCCCCCC(=O)[O-]
REMARK SMILES IDX 16 1 17 2 18 3 19 4 20 5 21 6 22 7 23 8 24 9 25 10 26 11
REMARK SMILES IDX 27 12 28 13 29 14 30 15 31 16 32 17 15 18 14 19 13 20 12 21
REMARK SMILES IDX 11 22 10 23 9 24 8 25 7 26 6 27 5 28 4 29 3 30 2 31 1 32
REMARK H PARENT
REMARK Flexibility Score: inf
ROOT
ATOM      1  C   UNL     1      -6.245  -1.388  -1.605  1.00  0.00     0.000 C 
ENDROOT
BRANCH   1   2
ATOM      2  C   UNL     1      -7.327  -0.425  -2.122  1.00  0.00     0.000 C 
BRANCH   2   3
ATOM      3  C   UNL     1      -8.408  -1.137  -2.948  1.00  0.00     0.000 C 
BRANCH   3   4
ATOM      4  C   UNL     1      -8.475  -2.647  -2.674  1.00  0.00     0.000 C 
BRANCH   4   5
ATOM      5  C   UNL     1      -8.733  -3.420  -3.977  1.00  0.00     0.000 C 
BRANCH   5   6
ATOM      6  C   UNL     1      -8.141  -4.842  -3.982  1.00  0.00     0.000 C 
BRANCH   6   7
ATOM      7  C   UNL     1      -9.137  -5.981  -3.684  1.00  0.00     0.000 C 
BRANCH   7   8
ATOM      8  C   UNL     1      -8.867  -6.769  -2.382  1.00  0.00     0.000 C 
BRANCH   8   9
ATOM      9  C   UNL     1      -9.343  -6.055  -1.101  1.00  0.00     0.000 C 
BRANCH   9  10
ATOM     10  C   UNL     1      -8.234  -5.371  -0.284  1.00  0.00     0.000 C 
BRANCH  10  11
ATOM     11  C   UNL     1      -6.838  -5.936  -0.587  1.00  0.00     0.000 C 
BRANCH  11  12
ATOM     12  C   UNL     1      -5.904  -4.845  -1.130  1.00  0.00     0.000 C 
BRANCH  12  13
ATOM     13  C   UNL     1      -4.818  -5.449  -2.028  1.00  0.00     0.006 C 
BRANCH  13  14
ATOM     14  C   UNL     1      -5.057  -6.946  -2.264  1.00  0.00     0.053 C 
BRANCH  14  15
ATOM     15  C   UNL     1      -4.997  -7.281  -3.723  1.00  0.00     0.041 C 
ATOM     16  O   UNL     1      -3.941  -7.067  -4.376  1.00  0.00    -0.550 OA
ATOM     17  O   UNL     1      -6.113  -7.799  -4.372  1.00  0.00    -0.550 OA
ENDBRANCH  14  15
ENDBRANCH  13  14
ENDBRANCH  12  13
ENDBRANCH  11  12
ENDBRANCH  10  11
ENDBRANCH   9  10
ENDBRANCH   8   9
ENDBRANCH   7   8
ENDBRANCH   6   7
ENDBRANCH   5   6
ENDBRANCH   4   5
ENDBRANCH   3   4
ENDBRANCH   2   3
ENDBRANCH   1   2
BRANCH   1  18
ATOM     18  C   UNL     1      -5.004  -0.661  -1.060  1.00  0.00     0.000 C 
BRANCH  18  19
ATOM     19  C   UNL     1      -3.687  -1.051  -1.770  1.00  0.00     0.000 C 
BRANCH  19  20
ATOM     20  C   UNL     1      -3.051   0.075  -2.614  1.00  0.00     0.000 C 
BRANCH  20  21
ATOM     21  C   UNL     1      -3.948   1.309  -2.873  1.00  0.00     0.000 C 
BRANCH  21  22
ATOM     22  C   UNL     1      -4.193   1.641  -4.358  1.00  0.00     0.000 C 
BRANCH  22  23
ATOM     23  C   UNL     1      -5.448   0.942  -4.915  1.00  0.00     0.000 C 
BRANCH  23  24
ATOM     24  C   UNL     1      -5.089  -0.246  -5.830  1.00  0.00    -0.000 C 
BRANCH  24  25
ATOM     25  C   UNL     1      -5.888  -1.526  -5.505  1.00  0.00    -0.000 C 
BRANCH  25  26
ATOM     26  C   UNL     1      -5.036  -2.623  -4.825  1.00  0.00    -0.000 C 
BRANCH  26  27
ATOM     27  C   UNL     1      -3.525  -2.526  -5.125  1.00  0.00    -0.000 C 
BRANCH  27  28
ATOM     28  C   UNL     1      -2.724  -3.779  -4.720  1.00  0.00    -0.000 C 
BRANCH  28  29
ATOM     29  C   UNL     1      -1.417  -3.428  -3.988  1.00  0.00    -0.000 C 
BRANCH  29  30
ATOM     30  C   UNL     1      -1.404  -3.903  -2.524  1.00  0.00    -0.000 C 
BRANCH  30  31
ATOM     31  C   UNL     1      -1.072  -5.402  -2.364  1.00  0.00    -0.003 C 
ATOM     32  C   UNL     1       0.326  -5.747  -2.875  1.00  0.00     0.004 C 
ENDBRANCH  30  31
ENDBRANCH  29  30
ENDBRANCH  28  29
ENDBRANCH  27  28
ENDBRANCH  26  27
ENDBRANCH  25  26
ENDBRANCH  24  25
ENDBRANCH  23  24
ENDBRANCH  22  23
ENDBRANCH  21  22
ENDBRANCH  20  21
ENDBRANCH  19  20
ENDBRANCH  18  19
ENDBRANCH   1  18
TORSDOF 28
ENDMDL
MODEL 8
REMARK VINA RESULT:    -2.134     12.612     15.605
REMARK INTER + INTRA:         -10.655
REMARK INTER:                  -4.157
REMARK INTRA:                  -6.498
REMARK UNBOUND:                -5.029
REMARK SMILES CCCCCCCCCCCCCCCCCCCCCCCCCCCCCC(=O)[O-]
REMARK SMILES IDX 16 1 17 2 18 3 19 4 20 5 21 6 22 7 23 8 24 9 25 10 26 11
REMARK SMILES IDX 27 12 28 13 29 14 30 15 31 16 32 17 15 18 14 19 13 20 12 21
REMARK SMILES IDX 11 22 10 23 9 24 8 25 7 26 6 27 5 28 4 29 3 30 2 31 1 32
REMARK H PARENT
REMARK Flexibility Score: inf
ROOT
ATOM      1  C   UNL     1      -1.910  -5.786  -3.192  1.00  0.00     0.000 C 
ENDROOT
BRANCH   1   2
ATOM      2  C   UNL     1      -2.999  -6.371  -4.107  1.00  0.00     0.000 C 
BRANCH   2   3
ATOM      3  C   UNL     1      -4.054  -7.176  -3.334  1.00  0.00     0.000 C 
BRANCH   3   4
ATOM      4  C   UNL     1      -5.446  -7.115  -3.979  1.00  0.00     0.000 C 
BRANCH   4   5
ATOM      5  C   UNL     1      -6.265  -8.364  -3.613  1.00  0.00     0.000 C 
BRANCH   5   6
ATOM      6  C   UNL     1      -7.734  -8.062  -3.265  1.00  0.00     0.000 C 
BRANCH   6   7
ATOM      7  C   UNL     1      -8.256  -6.682  -3.713  1.00  0.00     0.000 C 
BRANCH   7   8
ATOM      8  C   UNL     1      -9.764  -6.438  -3.476  1.00  0.00     0.000 C 
BRANCH   8   9
ATOM      9  C   UNL     1     -10.071  -5.441  -2.341  1.00  0.00     0.000 C 
BRANCH   9  10
ATOM     10  C   UNL     1      -9.897  -5.997  -0.917  1.00  0.00     0.000 C 
BRANCH  10  11
ATOM     11  C   UNL     1      -9.999  -4.909   0.163  1.00  0.00     0.000 C 
BRANCH  11  12
ATOM     12  C   UNL     1     -10.125  -3.514  -0.465  1.00  0.00     0.000 C 
BRANCH  12  13
ATOM     13  C   UNL     1      -9.516  -2.444   0.450  1.00  0.00     0.006 C 
BRANCH  13  14
ATOM     14  C   UNL     1      -8.929  -3.066   1.723  1.00  0.00     0.053 C 
BRANCH  14  15
ATOM     15  C   UNL     1      -8.326  -2.018   2.608  1.00  0.00     0.041 C 
ATOM     16  O   UNL     1      -8.300  -2.187   3.856  1.00  0.00    -0.550 OA
ATOM     17  O   UNL     1      -7.822  -0.841   2.063  1.00  0.00    -0.550 OA
ENDBRANCH  14  15
ENDBRANCH  13  14
ENDBRANCH  12  13
ENDBRANCH  11  12
ENDBRANCH  10  11
ENDBRANCH   9  10
ENDBRANCH   8   9
ENDBRANCH   7   8
ENDBRANCH   6   7
ENDBRANCH   5   6
ENDBRANCH   4   5
ENDBRANCH   3   4
ENDBRANCH   2   3
ENDBRANCH   1   2
BRANCH   1  18
ATOM     18  C   UNL     1      -1.832  -4.252  -3.256  1.00  0.00     0.000 C 
BRANCH  18  19
ATOM     19  C   UNL     1      -2.640  -3.631  -4.418  1.00  0.00     0.000 C 
BRANCH  19  20
ATOM     20  C   UNL     1      -3.794  -2.703  -3.979  1.00  0.00     0.000 C 
BRANCH  20  21
ATOM     21  C   UNL     1      -4.659  -2.120  -5.123  1.00  0.00     0.000 C 
BRANCH  21  22
ATOM     22  C   UNL     1      -6.182  -2.218  -4.906  1.00  0.00     0.000 C 
BRANCH  22  23
ATOM     23  C   UNL     1      -6.569  -3.393  -3.988  1.00  0.00     0.000 C 
BRANCH  23  24
ATOM     24  C   UNL     1      -7.424  -2.933  -2.791  1.00  0.00    -0.000 C 
BRANCH  24  25
ATOM     25  C   UNL     1      -7.044  -1.529  -2.277  1.00  0.00    -0.000 C 
BRANCH  25  26
ATOM     26  C   UNL     1      -5.987  -1.556  -1.148  1.00  0.00    -0.000 C 
BRANCH  26  27
ATOM     27  C   UNL     1      -5.934  -2.885  -0.365  1.00  0.00    -0.000 C 
BRANCH  27  28
ATOM     28  C   UNL     1      -4.607  -3.654  -0.525  1.00  0.00    -0.000 C 
BRANCH  28  29
ATOM     29  C   UNL     1      -4.824  -5.163  -0.726  1.00  0.00    -0.000 C 
BRANCH  29  30
ATOM     30  C   UNL     1      -6.304  -5.574  -0.625  1.00  0.00    -0.000 C 
BRANCH  30  31
ATOM     31  C   UNL     1      -6.526  -6.909   0.118  1.00  0.00    -0.003 C 
ATOM     32  C   UNL     1      -5.301  -7.821   0.055  1.00  0.00     0.004 C 
ENDBRANCH  30  31
ENDBRANCH  29  30
ENDBRANCH  28  29
ENDBRANCH  27  28
ENDBRANCH  26  27
ENDBRANCH  25  26
ENDBRANCH  24  25
ENDBRANCH  23  24
ENDBRANCH  22  23
ENDBRANCH  21  22
ENDBRANCH  20  21
ENDBRANCH  19  20
ENDBRANCH  18  19
ENDBRANCH   1  18
TORSDOF 28
ENDMDL
