MODEL 1
REMARK VINA RESULT:    -4.889      0.000      0.000
REMARK INTER + INTRA:         -15.603
REMARK INTER:                 -12.319
REMARK INTRA:                  -3.284
REMARK UNBOUND:                -3.284
REMARK SMILES CCCCCCCCCCCCCCCCCCCCCCCCCCCC(=O)[O-]
REMARK SMILES IDX 15 1 16 2 17 3 18 4 19 5 20 6 21 7 22 8 23 9 24 10 25 11
REMARK SMILES IDX 26 12 27 13 28 14 29 15 30 16 14 17 13 18 12 19 11 20 10 21
REMARK SMILES IDX 9 22 8 23 7 24 6 25 5 26 4 27 3 28 2 29 1 30
REMARK H PARENT
REMARK Flexibility Score: inf
ROOT
ATOM      1  C   UNL     1       9.720  16.268  65.142  1.00  0.00     0.000 C 
ENDROOT
BRANCH   1   2
ATOM      2  C   UNL     1      10.784  17.150  64.461  1.00  0.00     0.000 C 
BRANCH   2   3
ATOM      3  C   UNL     1      11.693  16.336  63.519  1.00  0.00     0.000 C 
BRANCH   3   4
ATOM      4  C   UNL     1      12.564  15.303  64.262  1.00  0.00     0.000 C 
BRANCH   4   5
ATOM      5  C   UNL     1      14.061  15.657  64.317  1.00  0.00     0.000 C 
BRANCH   5   6
ATOM      6  C   UNL     1      14.420  17.105  63.933  1.00  0.00     0.000 C 
BRANCH   6   7
ATOM      7  C   UNL     1      15.386  17.249  62.740  1.00  0.00     0.000 C 
BRANCH   7   8
ATOM      8  C   UNL     1      15.042  16.308  61.572  1.00  0.00     0.000 C 
BRANCH   8   9
ATOM      9  C   UNL     1      15.278  16.967  60.203  1.00  0.00     0.000 C 
BRANCH   9  10
ATOM     10  C   UNL     1      16.321  16.229  59.331  1.00  0.00     0.000 C 
BRANCH  10  11
ATOM     11  C   UNL     1      17.731  16.845  59.403  1.00  0.00     0.000 C 
BRANCH  11  12
ATOM     12  C   UNL     1      18.771  15.976  60.131  1.00  0.00     0.006 C 
BRANCH  12  13
ATOM     13  C   UNL     1      18.739  16.161  61.658  1.00  0.00     0.053 C 
BRANCH  13  14
ATOM     14  C   UNL     1      19.618  17.296  62.086  1.00  0.00     0.041 C 
ATOM     15  O   UNL     1      19.156  18.233  62.792  1.00  0.00    -0.550 OA
ATOM     16  O   UNL     1      20.944  17.338  61.673  1.00  0.00    -0.550 OA
ENDBRANCH  13  14
ENDBRANCH  12  13
ENDBRANCH  11  12
ENDBRANCH  10  11
ENDBRANCH   9  10
ENDBRANCH   8   9
ENDBRANCH   7   8
ENDBRANCH   6   7
ENDBRANCH   5   6
ENDBRANCH   4   5
ENDBRANCH   3   4
ENDBRANCH   2   3
ENDBRANCH   1   2
BRANCH   1  17
ATOM     17  C   UNL     1       9.514  16.608  66.630  1.00  0.00     0.000 C 
BRANCH  17  18
ATOM     18  C   UNL     1       8.500  17.751  66.825  1.00  0.00     0.000 C 
BRANCH  18  19
ATOM     19  C   UNL     1       8.992  18.829  67.802  1.00  0.00     0.000 C 
BRANCH  19  20
ATOM     20  C   UNL     1       9.348  20.150  67.101  1.00  0.00     0.000 C 
BRANCH  20  21
ATOM     21  C   UNL     1       8.741  20.252  65.693  1.00  0.00     0.000 C 
BRANCH  21  22
ATOM     22  C   UNL     1       9.811  20.299  64.586  1.00  0.00    -0.000 C 
BRANCH  22  23
ATOM     23  C   UNL     1      10.439  21.703  64.444  1.00  0.00    -0.000 C 
BRANCH  23  24
ATOM     24  C   UNL     1      11.898  21.678  63.953  1.00  0.00    -0.000 C 
BRANCH  24  25
ATOM     25  C   UNL     1      12.339  20.287  63.467  1.00  0.00    -0.000 C 
BRANCH  25  26
ATOM     26  C   UNL     1      13.446  20.357  62.404  1.00  0.00    -0.000 C 
BRANCH  26  27
ATOM     27  C   UNL     1      13.899  21.796  62.111  1.00  0.00    -0.000 C 
BRANCH  27  28
ATOM     28  C   UNL     1      13.606  22.171  60.652  1.00  0.00    -0.000 C 
BRANCH  28  29
ATOM     29  C   UNL     1      12.460  23.186  60.519  1.00  0.00    -0.003 C 
ATOM     30  C   UNL     1      12.774  24.521  61.192  1.00  0.00     0.004 C 
ENDBRANCH  28  29
ENDBRANCH  27  28
ENDBRANCH  26  27
ENDBRANCH  25  26
ENDBRANCH  24  25
ENDBRANCH  23  24
ENDBRANCH  22  23
ENDBRANCH  21  22
ENDBRANCH  20  21
ENDBRANCH  19  20
ENDBRANCH  18  19
ENDBRANCH  17  18
ENDBRANCH   1  17
TORSDOF 26
ENDMDL
MODEL 2
REMARK VINA RESULT:    -4.869      5.069      9.612
REMARK INTER + INTRA:         -15.554
REMARK INTER:                 -13.625
REMARK INTRA:                  -1.929
REMARK UNBOUND:                -3.284
REMARK SMILES CCCCCCCCCCCCCCCCCCCCCCCCCCCC(=O)[O-]
REMARK SMILES IDX 15 1 16 2 17 3 18 4 19 5 20 6 21 7 22 8 23 9 24 10 25 11
REMARK SMILES IDX 26 12 27 13 28 14 29 15 30 16 14 17 13 18 12 19 11 20 10 21
REMARK SMILES IDX 9 22 8 23 7 24 6 25 5 26 4 27 3 28 2 29 1 30
REMARK H PARENT
REMARK Flexibility Score: inf
ROOT
ATOM      1  C   UNL     1      10.513  20.126  63.024  1.00  0.00     0.000 C 
ENDROOT
BRANCH   1   2
ATOM      2  C   UNL     1      11.265  21.206  62.224  1.00  0.00     0.000 C 
BRANCH   2   3
ATOM      3  C   UNL     1      12.778  21.194  62.514  1.00  0.00     0.000 C 
BRANCH   3   4
ATOM      4  C   UNL     1      13.618  21.808  61.376  1.00  0.00     0.000 C 
BRANCH   4   5
ATOM      5  C   UNL     1      13.713  23.345  61.414  1.00  0.00     0.000 C 
BRANCH   5   6
ATOM      6  C   UNL     1      13.231  24.076  60.146  1.00  0.00     0.000 C 
BRANCH   6   7
ATOM      7  C   UNL     1      11.706  24.265  60.035  1.00  0.00     0.000 C 
BRANCH   7   8
ATOM      8  C   UNL     1      11.301  25.232  58.909  1.00  0.00     0.000 C 
BRANCH   8   9
ATOM      9  C   UNL     1      10.657  26.521  59.449  1.00  0.00     0.000 C 
BRANCH   9  10
ATOM     10  C   UNL     1      10.778  27.725  58.486  1.00  0.00     0.000 C 
BRANCH  10  11
ATOM     11  C   UNL     1       9.908  27.593  57.222  1.00  0.00     0.000 C 
BRANCH  11  12
ATOM     12  C   UNL     1      10.701  27.427  55.915  1.00  0.00     0.006 C 
BRANCH  12  13
ATOM     13  C   UNL     1      10.757  28.719  55.083  1.00  0.00     0.053 C 
BRANCH  13  14
ATOM     14  C   UNL     1      11.454  28.493  53.776  1.00  0.00     0.041 C 
ATOM     15  O   UNL     1      11.325  29.317  52.831  1.00  0.00    -0.550 OA
ATOM     16  O   UNL     1      12.220  27.349  53.589  1.00  0.00    -0.550 OA
ENDBRANCH  13  14
ENDBRANCH  12  13
ENDBRANCH  11  12
ENDBRANCH  10  11
ENDBRANCH   9  10
ENDBRANCH   8   9
ENDBRANCH   7   8
ENDBRANCH   6   7
ENDBRANCH   5   6
ENDBRANCH   4   5
ENDBRANCH   3   4
ENDBRANCH   2   3
ENDBRANCH   1   2
BRANCH   1  17
ATOM     17  C   UNL     1      11.436  19.012  63.553  1.00  0.00     0.000 C 
BRANCH  17  18
ATOM     18  C   UNL     1      10.668  17.704  63.818  1.00  0.00     0.000 C 
BRANCH  18  19
ATOM     19  C   UNL     1      11.527  16.635  64.511  1.00  0.00     0.000 C 
BRANCH  19  20
ATOM     20  C   UNL     1      12.045  15.564  63.538  1.00  0.00     0.000 C 
BRANCH  20  21
ATOM     21  C   UNL     1      13.564  15.360  63.641  1.00  0.00     0.000 C 
BRANCH  21  22
ATOM     22  C   UNL     1      14.321  16.667  63.944  1.00  0.00    -0.000 C 
BRANCH  22  23
ATOM     23  C   UNL     1      14.886  17.322  62.665  1.00  0.00    -0.000 C 
BRANCH  23  24
ATOM     24  C   UNL     1      15.427  16.307  61.641  1.00  0.00    -0.000 C 
BRANCH  24  25
ATOM     25  C   UNL     1      15.448  16.862  60.207  1.00  0.00    -0.000 C 
BRANCH  25  26
ATOM     26  C   UNL     1      16.864  16.911  59.614  1.00  0.00    -0.000 C 
BRANCH  26  27
ATOM     27  C   UNL     1      17.944  16.469  60.615  1.00  0.00    -0.000 C 
BRANCH  27  28
ATOM     28  C   UNL     1      19.286  17.144  60.299  1.00  0.00    -0.000 C 
BRANCH  28  29
ATOM     29  C   UNL     1      20.209  17.230  61.524  1.00  0.00    -0.003 C 
ATOM     30  C   UNL     1      19.527  17.871  62.733  1.00  0.00     0.004 C 
ENDBRANCH  28  29
ENDBRANCH  27  28
ENDBRANCH  26  27
ENDBRANCH  25  26
ENDBRANCH  24  25
ENDBRANCH  23  24
ENDBRANCH  22  23
ENDBRANCH  21  22
ENDBRANCH  20  21
ENDBRANCH  19  20
ENDBRANCH  18  19
ENDBRANCH  17  18
ENDBRANCH   1  17
TORSDOF 26
ENDMDL
MODEL 3
REMARK VINA RESULT:    -4.752      1.847      2.573
REMARK INTER + INTRA:         -15.258
REMARK INTER:                 -12.255
REMARK INTRA:                  -3.002
REMARK UNBOUND:                -3.284
REMARK SMILES CCCCCCCCCCCCCCCCCCCCCCCCCCCC(=O)[O-]
REMARK SMILES IDX 15 1 16 2 17 3 18 4 19 5 20 6 21 7 22 8 23 9 24 10 25 11
REMARK SMILES IDX 26 12 27 13 28 14 29 15 30 16 14 17 13 18 12 19 11 20 10 21
REMARK SMILES IDX 9 22 8 23 7 24 6 25 5 26 4 27 3 28 2 29 1 30
REMARK H PARENT
REMARK Flexibility Score: inf
ROOT
ATOM      1  C   UNL     1      10.399  16.940  64.840  1.00  0.00     0.000 C 
ENDROOT
BRANCH   1   2
ATOM      2  C   UNL     1      11.315  16.248  63.813  1.00  0.00     0.000 C 
BRANCH   2   3
ATOM      3  C   UNL     1      12.632  17.018  63.599  1.00  0.00     0.000 C 
BRANCH   3   4
ATOM      4  C   UNL     1      13.860  16.291  64.185  1.00  0.00     0.000 C 
BRANCH   4   5
ATOM      5  C   UNL     1      13.518  15.075  65.067  1.00  0.00     0.000 C 
BRANCH   5   6
ATOM      6  C   UNL     1      13.970  13.707  64.522  1.00  0.00     0.000 C 
BRANCH   6   7
ATOM      7  C   UNL     1      13.511  13.386  63.086  1.00  0.00     0.000 C 
BRANCH   7   8
ATOM      8  C   UNL     1      14.552  12.581  62.289  1.00  0.00     0.000 C 
BRANCH   8   9
ATOM      9  C   UNL     1      15.057  13.343  61.051  1.00  0.00     0.000 C 
BRANCH   9  10
ATOM     10  C   UNL     1      15.719  14.699  61.386  1.00  0.00     0.000 C 
BRANCH  10  11
ATOM     11  C   UNL     1      15.083  15.894  60.650  1.00  0.00     0.000 C 
BRANCH  11  12
ATOM     12  C   UNL     1      15.969  16.513  59.556  1.00  0.00     0.006 C 
BRANCH  12  13
ATOM     13  C   UNL     1      16.512  15.469  58.566  1.00  0.00     0.053 C 
BRANCH  13  14
ATOM     14  C   UNL     1      17.997  15.589  58.410  1.00  0.00     0.041 C 
ATOM     15  O   UNL     1      18.774  15.050  59.244  1.00  0.00    -0.550 OA
ATOM     16  O   UNL     1      18.526  16.330  57.360  1.00  0.00    -0.550 OA
ENDBRANCH  13  14
ENDBRANCH  12  13
ENDBRANCH  11  12
ENDBRANCH  10  11
ENDBRANCH   9  10
ENDBRANCH   8   9
ENDBRANCH   7   8
ENDBRANCH   6   7
ENDBRANCH   5   6
ENDBRANCH   4   5
ENDBRANCH   3   4
ENDBRANCH   2   3
ENDBRANCH   1   2
BRANCH   1  17
ATOM     17  C   UNL     1      10.122  16.076  66.084  1.00  0.00     0.000 C 
BRANCH  17  18
ATOM     18  C   UNL     1       9.389  16.867  67.184  1.00  0.00     0.000 C 
BRANCH  18  19
ATOM     19  C   UNL     1       8.192  17.669  66.650  1.00  0.00     0.000 C 
BRANCH  19  20
ATOM     20  C   UNL     1       8.082  19.066  67.281  1.00  0.00     0.000 C 
BRANCH  20  21
ATOM     21  C   UNL     1       8.188  20.192  66.241  1.00  0.00     0.000 C 
BRANCH  21  22
ATOM     22  C   UNL     1       9.622  20.378  65.710  1.00  0.00    -0.000 C 
BRANCH  22  23
ATOM     23  C   UNL     1       9.642  20.951  64.277  1.00  0.00    -0.000 C 
BRANCH  23  24
ATOM     24  C   UNL     1      10.338  20.032  63.256  1.00  0.00    -0.000 C 
BRANCH  24  25
ATOM     25  C   UNL     1      11.284  20.797  62.315  1.00  0.00    -0.000 C 
BRANCH  25  26
ATOM     26  C   UNL     1      12.761  20.641  62.708  1.00  0.00    -0.000 C 
BRANCH  26  27
ATOM     27  C   UNL     1      13.723  21.030  61.575  1.00  0.00    -0.000 C 
BRANCH  27  28
ATOM     28  C   UNL     1      13.038  21.984  60.586  1.00  0.00    -0.000 C 
BRANCH  28  29
ATOM     29  C   UNL     1      13.245  23.463  60.949  1.00  0.00    -0.003 C 
ATOM     30  C   UNL     1      12.420  24.406  60.074  1.00  0.00     0.004 C 
ENDBRANCH  28  29
ENDBRANCH  27  28
ENDBRANCH  26  27
ENDBRANCH  25  26
ENDBRANCH  24  25
ENDBRANCH  23  24
ENDBRANCH  22  23
ENDBRANCH  21  22
ENDBRANCH  20  21
ENDBRANCH  19  20
ENDBRANCH  18  19
ENDBRANCH  17  18
ENDBRANCH   1  17
TORSDOF 26
ENDMDL
MODEL 4
REMARK VINA RESULT:    -4.731      2.796      4.965
REMARK INTER + INTRA:         -15.206
REMARK INTER:                 -11.981
REMARK INTRA:                  -3.225
REMARK UNBOUND:                -3.284
REMARK SMILES CCCCCCCCCCCCCCCCCCCCCCCCCCCC(=O)[O-]
REMARK SMILES IDX 15 1 16 2 17 3 18 4 19 5 20 6 21 7 22 8 23 9 24 10 25 11
REMARK SMILES IDX 26 12 27 13 28 14 29 15 30 16 14 17 13 18 12 19 11 20 10 21
REMARK SMILES IDX 9 22 8 23 7 24 6 25 5 26 4 27 3 28 2 29 1 30
REMARK H PARENT
REMARK Flexibility Score: inf
ROOT
ATOM      1  C   UNL     1      14.302  16.577  62.354  1.00  0.00     0.000 C 
ENDROOT
BRANCH   1   2
ATOM      2  C   UNL     1      15.741  16.106  62.633  1.00  0.00     0.000 C 
BRANCH   2   3
ATOM      3  C   UNL     1      16.780  16.913  61.830  1.00  0.00     0.000 C 
BRANCH   3   4
ATOM      4  C   UNL     1      18.093  16.139  61.590  1.00  0.00     0.000 C 
BRANCH   4   5
ATOM      5  C   UNL     1      18.970  16.712  60.461  1.00  0.00     0.000 C 
BRANCH   5   6
ATOM      6  C   UNL     1      18.347  16.683  59.052  1.00  0.00     0.000 C 
BRANCH   6   7
ATOM      7  C   UNL     1      17.731  15.334  58.633  1.00  0.00     0.000 C 
BRANCH   7   8
ATOM      8  C   UNL     1      16.221  15.426  58.349  1.00  0.00     0.000 C 
BRANCH   8   9
ATOM      9  C   UNL     1      15.389  14.594  59.340  1.00  0.00     0.000 C 
BRANCH   9  10
ATOM     10  C   UNL     1      15.509  13.068  59.121  1.00  0.00     0.000 C 
BRANCH  10  11
ATOM     11  C   UNL     1      14.935  12.232  60.281  1.00  0.00     0.000 C 
BRANCH  11  12
ATOM     12  C   UNL     1      15.059  12.890  61.665  1.00  0.00     0.006 C 
BRANCH  12  13
ATOM     13  C   UNL     1      13.731  12.905  62.440  1.00  0.00     0.053 C 
BRANCH  13  14
ATOM     14  C   UNL     1      13.947  12.617  63.895  1.00  0.00     0.041 C 
ATOM     15  O   UNL     1      14.524  13.457  64.635  1.00  0.00    -0.550 OA
ATOM     16  O   UNL     1      13.543  11.398  64.426  1.00  0.00    -0.550 OA
ENDBRANCH  13  14
ENDBRANCH  12  13
ENDBRANCH  11  12
ENDBRANCH  10  11
ENDBRANCH   9  10
ENDBRANCH   8   9
ENDBRANCH   7   8
ENDBRANCH   6   7
ENDBRANCH   5   6
ENDBRANCH   4   5
ENDBRANCH   3   4
ENDBRANCH   2   3
ENDBRANCH   1   2
BRANCH   1  17
ATOM     17  C   UNL     1      13.499  16.862  63.637  1.00  0.00     0.000 C 
BRANCH  17  18
ATOM     18  C   UNL     1      12.030  16.418  63.509  1.00  0.00     0.000 C 
BRANCH  18  19
ATOM     19  C   UNL     1      11.033  17.538  63.844  1.00  0.00     0.000 C 
BRANCH  19  20
ATOM     20  C   UNL     1      11.637  18.941  63.678  1.00  0.00     0.000 C 
BRANCH  20  21
ATOM     21  C   UNL     1      10.563  20.035  63.571  1.00  0.00     0.000 C 
BRANCH  21  22
ATOM     22  C   UNL     1      11.082  21.315  62.889  1.00  0.00    -0.000 C 
BRANCH  22  23
ATOM     23  C   UNL     1      12.147  21.010  61.814  1.00  0.00    -0.000 C 
BRANCH  23  24
ATOM     24  C   UNL     1      13.586  21.312  62.270  1.00  0.00    -0.000 C 
BRANCH  24  25
ATOM     25  C   UNL     1      13.917  22.813  62.245  1.00  0.00    -0.000 C 
BRANCH  25  26
ATOM     26  C   UNL     1      13.409  23.508  60.972  1.00  0.00    -0.000 C 
BRANCH  26  27
ATOM     27  C   UNL     1      12.836  24.907  61.246  1.00  0.00    -0.000 C 
BRANCH  27  28
ATOM     28  C   UNL     1      11.320  24.837  61.475  1.00  0.00    -0.000 C 
BRANCH  28  29
ATOM     29  C   UNL     1      10.581  24.113  60.340  1.00  0.00    -0.003 C 
ATOM     30  C   UNL     1       9.223  23.565  60.775  1.00  0.00     0.004 C 
ENDBRANCH  28  29
ENDBRANCH  27  28
ENDBRANCH  26  27
ENDBRANCH  25  26
ENDBRANCH  24  25
ENDBRANCH  23  24
ENDBRANCH  22  23
ENDBRANCH  21  22
ENDBRANCH  20  21
ENDBRANCH  19  20
ENDBRANCH  18  19
ENDBRANCH  17  18
ENDBRANCH   1  17
TORSDOF 26
ENDMDL
MODEL 5
REMARK VINA RESULT:    -4.726      2.478      7.660
REMARK INTER + INTRA:         -15.193
REMARK INTER:                 -11.783
REMARK INTRA:                  -3.410
REMARK UNBOUND:                -3.284
REMARK SMILES CCCCCCCCCCCCCCCCCCCCCCCCCCCC(=O)[O-]
REMARK SMILES IDX 15 1 16 2 17 3 18 4 19 5 20 6 21 7 22 8 23 9 24 10 25 11
REMARK SMILES IDX 26 12 27 13 28 14 29 15 30 16 14 17 13 18 12 19 11 20 10 21
REMARK SMILES IDX 9 22 8 23 7 24 6 25 5 26 4 27 3 28 2 29 1 30
REMARK H PARENT
REMARK Flexibility Score: inf
ROOT
ATOM      1  C   UNL     1      11.947  16.549  63.431  1.00  0.00     0.000 C 
ENDROOT
BRANCH   1   2
ATOM      2  C   UNL     1      10.894  17.556  63.934  1.00  0.00     0.000 C 
BRANCH   2   3
ATOM      3  C   UNL     1      11.225  19.000  63.509  1.00  0.00     0.000 C 
BRANCH   3   4
ATOM      4  C   UNL     1      10.338  20.053  64.205  1.00  0.00     0.000 C 
BRANCH   4   5
ATOM      5  C   UNL     1       9.419  20.838  63.251  1.00  0.00     0.000 C 
BRANCH   5   6
ATOM      6  C   UNL     1       9.195  20.203  61.865  1.00  0.00     0.000 C 
BRANCH   6   7
ATOM      7  C   UNL     1       8.630  21.153  60.790  1.00  0.00     0.000 C 
BRANCH   7   8
ATOM      8  C   UNL     1       8.305  22.554  61.338  1.00  0.00     0.000 C 
BRANCH   8   9
ATOM      9  C   UNL     1       9.151  23.652  60.671  1.00  0.00     0.000 C 
BRANCH   9  10
ATOM     10  C   UNL     1      10.542  23.844  61.320  1.00  0.00     0.000 C 
BRANCH  10  11
ATOM     11  C   UNL     1      11.669  24.093  60.301  1.00  0.00     0.000 C 
BRANCH  11  12
ATOM     12  C   UNL     1      12.751  23.000  60.266  1.00  0.00     0.006 C 
BRANCH  12  13
ATOM     13  C   UNL     1      12.399  21.785  61.140  1.00  0.00     0.053 C 
BRANCH  13  14
ATOM     14  C   UNL     1      13.535  21.420  62.046  1.00  0.00     0.041 C 
ATOM     15  O   UNL     1      13.936  22.228  62.927  1.00  0.00    -0.550 OA
ATOM     16  O   UNL     1      14.178  20.198  61.893  1.00  0.00    -0.550 OA
ENDBRANCH  13  14
ENDBRANCH  12  13
ENDBRANCH  11  12
ENDBRANCH  10  11
ENDBRANCH   9  10
ENDBRANCH   8   9
ENDBRANCH   7   8
ENDBRANCH   6   7
ENDBRANCH   5   6
ENDBRANCH   4   5
ENDBRANCH   3   4
ENDBRANCH   2   3
ENDBRANCH   1   2
BRANCH   1  17
ATOM     17  C   UNL     1      13.390  17.074  63.546  1.00  0.00     0.000 C 
BRANCH  17  18
ATOM     18  C   UNL     1      14.329  16.043  64.200  1.00  0.00     0.000 C 
BRANCH  18  19
ATOM     19  C   UNL     1      13.576  14.967  64.996  1.00  0.00     0.000 C 
BRANCH  19  20
ATOM     20  C   UNL     1      13.968  13.539  64.583  1.00  0.00     0.000 C 
BRANCH  20  21
ATOM     21  C   UNL     1      13.476  13.178  63.173  1.00  0.00     0.000 C 
BRANCH  21  22
ATOM     22  C   UNL     1      14.570  12.521  62.311  1.00  0.00    -0.000 C 
BRANCH  22  23
ATOM     23  C   UNL     1      14.732  13.220  60.944  1.00  0.00    -0.000 C 
BRANCH  23  24
ATOM     24  C   UNL     1      15.840  14.289  60.926  1.00  0.00    -0.000 C 
BRANCH  24  25
ATOM     25  C   UNL     1      15.298  15.705  60.668  1.00  0.00    -0.000 C 
BRANCH  25  26
ATOM     26  C   UNL     1      16.417  16.742  60.489  1.00  0.00    -0.000 C 
BRANCH  26  27
ATOM     27  C   UNL     1      17.396  16.372  59.363  1.00  0.00    -0.000 C 
BRANCH  27  28
ATOM     28  C   UNL     1      18.837  16.326  59.890  1.00  0.00    -0.000 C 
BRANCH  28  29
ATOM     29  C   UNL     1      18.905  16.284  61.424  1.00  0.00    -0.003 C 
ATOM     30  C   UNL     1      19.881  17.310  61.999  1.00  0.00     0.004 C 
ENDBRANCH  28  29
ENDBRANCH  27  28
ENDBRANCH  26  27
ENDBRANCH  25  26
ENDBRANCH  24  25
ENDBRANCH  23  24
ENDBRANCH  22  23
ENDBRANCH  21  22
ENDBRANCH  20  21
ENDBRANCH  19  20
ENDBRANCH  18  19
ENDBRANCH  17  18
ENDBRANCH   1  17
TORSDOF 26
ENDMDL
MODEL 6
REMARK VINA RESULT:    -4.719      2.268      2.617
REMARK INTER + INTRA:         -15.175
REMARK INTER:                 -11.757
REMARK INTRA:                  -3.418
REMARK UNBOUND:                -3.284
REMARK SMILES CCCCCCCCCCCCCCCCCCCCCCCCCCCC(=O)[O-]
REMARK SMILES IDX 15 1 16 2 17 3 18 4 19 5 20 6 21 7 22 8 23 9 24 10 25 11
REMARK SMILES IDX 26 12 27 13 28 14 29 15 30 16 14 17 13 18 12 19 11 20 10 21
REMARK SMILES IDX 9 22 8 23 7 24 6 25 5 26 4 27 3 28 2 29 1 30
REMARK H PARENT
REMARK Flexibility Score: inf
ROOT
ATOM      1  C   UNL     1       9.603  16.258  65.053  1.00  0.00     0.000 C 
ENDROOT
BRANCH   1   2
ATOM      2  C   UNL     1      10.703  17.021  64.291  1.00  0.00     0.000 C 
BRANCH   2   3
ATOM      3  C   UNL     1      11.713  16.067  63.623  1.00  0.00     0.000 C 
BRANCH   3   4
ATOM      4  C   UNL     1      12.735  15.477  64.616  1.00  0.00     0.000 C 
BRANCH   4   5
ATOM      5  C   UNL     1      14.201  15.833  64.305  1.00  0.00     0.000 C 
BRANCH   5   6
ATOM      6  C   UNL     1      14.425  17.183  63.597  1.00  0.00     0.000 C 
BRANCH   6   7
ATOM      7  C   UNL     1      15.469  17.165  62.463  1.00  0.00     0.000 C 
BRANCH   7   8
ATOM      8  C   UNL     1      15.005  16.366  61.232  1.00  0.00     0.000 C 
BRANCH   8   9
ATOM      9  C   UNL     1      16.014  16.444  60.073  1.00  0.00     0.000 C 
BRANCH   9  10
ATOM     10  C   UNL     1      15.829  15.331  59.016  1.00  0.00     0.000 C 
BRANCH  10  11
ATOM     11  C   UNL     1      16.866  14.196  59.127  1.00  0.00     0.000 C 
BRANCH  11  12
ATOM     12  C   UNL     1      16.271  12.780  59.057  1.00  0.00     0.006 C 
BRANCH  12  13
ATOM     13  C   UNL     1      15.081  12.585  60.011  1.00  0.00     0.053 C 
BRANCH  13  14
ATOM     14  C   UNL     1      15.541  12.406  61.426  1.00  0.00     0.041 C 
ATOM     15  O   UNL     1      14.990  13.043  62.363  1.00  0.00    -0.550 OA
ATOM     16  O   UNL     1      16.609  11.562  61.705  1.00  0.00    -0.550 OA
ENDBRANCH  13  14
ENDBRANCH  12  13
ENDBRANCH  11  12
ENDBRANCH  10  11
ENDBRANCH   9  10
ENDBRANCH   8   9
ENDBRANCH   7   8
ENDBRANCH   6   7
ENDBRANCH   5   6
ENDBRANCH   4   5
ENDBRANCH   3   4
ENDBRANCH   2   3
ENDBRANCH   1   2
BRANCH   1  17
ATOM     17  C   UNL     1       9.405  16.760  66.495  1.00  0.00     0.000 C 
BRANCH  17  18
ATOM     18  C   UNL     1       8.466  17.980  66.557  1.00  0.00     0.000 C 
BRANCH  18  19
ATOM     19  C   UNL     1       8.965  19.072  67.515  1.00  0.00     0.000 C 
BRANCH  19  20
ATOM     20  C   UNL     1       9.424  20.343  66.782  1.00  0.00     0.000 C 
BRANCH  20  21
ATOM     21  C   UNL     1       8.903  20.410  65.338  1.00  0.00     0.000 C 
BRANCH  21  22
ATOM     22  C   UNL     1      10.035  20.551  64.303  1.00  0.00    -0.000 C 
BRANCH  22  23
ATOM     23  C   UNL     1      11.177  21.458  64.810  1.00  0.00    -0.000 C 
BRANCH  23  24
ATOM     24  C   UNL     1      12.549  21.121  64.199  1.00  0.00    -0.000 C 
BRANCH  24  25
ATOM     25  C   UNL     1      12.437  20.372  62.861  1.00  0.00    -0.000 C 
BRANCH  25  26
ATOM     26  C   UNL     1      13.728  20.451  62.031  1.00  0.00    -0.000 C 
BRANCH  26  27
ATOM     27  C   UNL     1      13.560  21.280  60.748  1.00  0.00    -0.000 C 
BRANCH  27  28
ATOM     28  C   UNL     1      13.325  22.760  61.085  1.00  0.00    -0.000 C 
BRANCH  28  29
ATOM     29  C   UNL     1      12.048  23.318  60.441  1.00  0.00    -0.003 C 
ATOM     30  C   UNL     1      10.886  23.422  61.429  1.00  0.00     0.004 C 
ENDBRANCH  28  29
ENDBRANCH  27  28
ENDBRANCH  26  27
ENDBRANCH  25  26
ENDBRANCH  24  25
ENDBRANCH  23  24
ENDBRANCH  22  23
ENDBRANCH  21  22
ENDBRANCH  20  21
ENDBRANCH  19  20
ENDBRANCH  18  19
ENDBRANCH  17  18
ENDBRANCH   1  17
TORSDOF 26
ENDMDL
MODEL 7
REMARK VINA RESULT:    -4.707      1.733      3.844
REMARK INTER + INTRA:         -15.145
REMARK INTER:                 -11.276
REMARK INTRA:                  -3.869
REMARK UNBOUND:                -3.284
REMARK SMILES CCCCCCCCCCCCCCCCCCCCCCCCCCCC(=O)[O-]
REMARK SMILES IDX 15 1 16 2 17 3 18 4 19 5 20 6 21 7 22 8 23 9 24 10 25 11
REMARK SMILES IDX 26 12 27 13 28 14 29 15 30 16 14 17 13 18 12 19 11 20 10 21
REMARK SMILES IDX 9 22 8 23 7 24 6 25 5 26 4 27 3 28 2 29 1 30
REMARK H PARENT
REMARK Flexibility Score: inf
ROOT
ATOM      1  C   UNL     1       8.864  20.324  66.231  1.00  0.00     0.000 C 
ENDROOT
BRANCH   1   2
ATOM      2  C   UNL     1       8.993  19.095  67.150  1.00  0.00     0.000 C 
BRANCH   2   3
ATOM      3  C   UNL     1       8.712  17.778  66.399  1.00  0.00     0.000 C 
BRANCH   3   4
ATOM      4  C   UNL     1       9.606  16.612  66.867  1.00  0.00     0.000 C 
BRANCH   4   5
ATOM      5  C   UNL     1      10.445  15.966  65.749  1.00  0.00     0.000 C 
BRANCH   5   6
ATOM      6  C   UNL     1      10.344  16.637  64.366  1.00  0.00     0.000 C 
BRANCH   6   7
ATOM      7  C   UNL     1      11.641  17.298  63.860  1.00  0.00     0.000 C 
BRANCH   7   8
ATOM      8  C   UNL     1      12.738  16.277  63.508  1.00  0.00     0.000 C 
BRANCH   8   9
ATOM      9  C   UNL     1      14.151  16.824  63.772  1.00  0.00     0.000 C 
BRANCH   9  10
ATOM     10  C   UNL     1      14.849  17.374  62.505  1.00  0.00     0.000 C 
BRANCH  10  11
ATOM     11  C   UNL     1      15.989  16.475  61.991  1.00  0.00     0.000 C 
BRANCH  11  12
ATOM     12  C   UNL     1      15.861  16.063  60.515  1.00  0.00     0.006 C 
BRANCH  12  13
ATOM     13  C   UNL     1      16.837  16.819  59.597  1.00  0.00     0.053 C 
BRANCH  13  14
ATOM     14  C   UNL     1      18.254  16.642  60.048  1.00  0.00     0.041 C 
ATOM     15  O   UNL     1      18.852  15.547  59.866  1.00  0.00    -0.550 OA
ATOM     16  O   UNL     1      18.906  17.677  60.707  1.00  0.00    -0.550 OA
ENDBRANCH  13  14
ENDBRANCH  12  13
ENDBRANCH  11  12
ENDBRANCH  10  11
ENDBRANCH   9  10
ENDBRANCH   8   9
ENDBRANCH   7   8
ENDBRANCH   6   7
ENDBRANCH   5   6
ENDBRANCH   4   5
ENDBRANCH   3   4
ENDBRANCH   2   3
ENDBRANCH   1   2
BRANCH   1  17
ATOM     17  C   UNL     1       9.966  20.396  65.158  1.00  0.00     0.000 C 
BRANCH  17  18
ATOM     18  C   UNL     1       9.438  20.958  63.824  1.00  0.00     0.000 C 
BRANCH  18  19
ATOM     19  C   UNL     1      10.019  20.239  62.598  1.00  0.00     0.000 C 
BRANCH  19  20
ATOM     20  C   UNL     1       9.519  20.828  61.270  1.00  0.00     0.000 C 
BRANCH  20  21
ATOM     21  C   UNL     1       8.447  21.910  61.472  1.00  0.00     0.000 C 
BRANCH  21  22
ATOM     22  C   UNL     1       8.914  23.304  61.011  1.00  0.00    -0.000 C 
BRANCH  22  23
ATOM     23  C   UNL     1      10.438  23.356  60.767  1.00  0.00    -0.000 C 
BRANCH  23  24
ATOM     24  C   UNL     1      11.155  24.448  61.582  1.00  0.00    -0.000 C 
BRANCH  24  25
ATOM     25  C   UNL     1      11.362  24.053  63.054  1.00  0.00    -0.000 C 
BRANCH  25  26
ATOM     26  C   UNL     1      12.821  24.212  63.507  1.00  0.00    -0.000 C 
BRANCH  26  27
ATOM     27  C   UNL     1      13.759  23.176  62.867  1.00  0.00    -0.000 C 
BRANCH  27  28
ATOM     28  C   UNL     1      13.328  21.751  63.240  1.00  0.00    -0.000 C 
BRANCH  28  29
ATOM     29  C   UNL     1      13.497  20.758  62.080  1.00  0.00    -0.003 C 
ATOM     30  C   UNL     1      13.598  21.450  60.721  1.00  0.00     0.004 C 
ENDBRANCH  28  29
ENDBRANCH  27  28
ENDBRANCH  26  27
ENDBRANCH  25  26
ENDBRANCH  24  25
ENDBRANCH  23  24
ENDBRANCH  22  23
ENDBRANCH  21  22
ENDBRANCH  20  21
ENDBRANCH  19  20
ENDBRANCH  18  19
ENDBRANCH  17  18
ENDBRANCH   1  17
TORSDOF 26
ENDMDL
MODEL 8
REMARK VINA RESULT:    -4.702      2.382      4.034
REMARK INTER + INTRA:         -15.134
REMARK INTER:                 -11.531
REMARK INTRA:                  -3.603
REMARK UNBOUND:                -3.284
REMARK SMILES CCCCCCCCCCCCCCCCCCCCCCCCCCCC(=O)[O-]
REMARK SMILES IDX 15 1 16 2 17 3 18 4 19 5 20 6 21 7 22 8 23 9 24 10 25 11
REMARK SMILES IDX 26 12 27 13 28 14 29 15 30 16 14 17 13 18 12 19 11 20 10 21
REMARK SMILES IDX 9 22 8 23 7 24 6 25 5 26 4 27 3 28 2 29 1 30
REMARK H PARENT
REMARK Flexibility Score: inf
ROOT
ATOM      1  C   UNL     1      12.089  19.567  63.820  1.00  0.00     0.000 C 
ENDROOT
BRANCH   1   2
ATOM      2  C   UNL     1      12.318  18.101  63.404  1.00  0.00     0.000 C 
BRANCH   2   3
ATOM      3  C   UNL     1      13.802  17.809  63.108  1.00  0.00     0.000 C 
BRANCH   3   4
ATOM      4  C   UNL     1      14.364  16.632  63.932  1.00  0.00     0.000 C 
BRANCH   4   5
ATOM      5  C   UNL     1      13.311  15.588  64.346  1.00  0.00     0.000 C 
BRANCH   5   6
ATOM      6  C   UNL     1      13.848  14.368  65.120  1.00  0.00     0.000 C 
BRANCH   6   7
ATOM      7  C   UNL     1      13.890  13.050  64.322  1.00  0.00     0.000 C 
BRANCH   7   8
ATOM      8  C   UNL     1      13.453  13.221  62.856  1.00  0.00     0.000 C 
BRANCH   8   9
ATOM      9  C   UNL     1      14.578  12.873  61.867  1.00  0.00     0.000 C 
BRANCH   9  10
ATOM     10  C   UNL     1      15.242  14.112  61.222  1.00  0.00     0.000 C 
BRANCH  10  11
ATOM     11  C   UNL     1      15.122  14.147  59.686  1.00  0.00     0.000 C 
BRANCH  11  12
ATOM     12  C   UNL     1      15.469  15.503  59.049  1.00  0.00     0.006 C 
BRANCH  12  13
ATOM     13  C   UNL     1      16.889  15.539  58.459  1.00  0.00     0.053 C 
BRANCH  13  14
ATOM     14  C   UNL     1      17.838  16.254  59.370  1.00  0.00     0.041 C 
ATOM     15  O   UNL     1      17.770  17.504  59.513  1.00  0.00    -0.550 OA
ATOM     16  O   UNL     1      18.827  15.541  60.037  1.00  0.00    -0.550 OA
ENDBRANCH  13  14
ENDBRANCH  12  13
ENDBRANCH  11  12
ENDBRANCH  10  11
ENDBRANCH   9  10
ENDBRANCH   8   9
ENDBRANCH   7   8
ENDBRANCH   6   7
ENDBRANCH   5   6
ENDBRANCH   4   5
ENDBRANCH   3   4
ENDBRANCH   2   3
ENDBRANCH   1   2
BRANCH   1  17
ATOM     17  C   UNL     1      10.604  19.975  63.805  1.00  0.00     0.000 C 
BRANCH  17  18
ATOM     18  C   UNL     1      10.133  20.389  62.399  1.00  0.00     0.000 C 
BRANCH  18  19
ATOM     19  C   UNL     1       9.934  21.905  62.255  1.00  0.00     0.000 C 
BRANCH  19  20
ATOM     20  C   UNL     1       9.116  22.283  61.010  1.00  0.00     0.000 C 
BRANCH  20  21
ATOM     21  C   UNL     1       9.329  23.745  60.588  1.00  0.00     0.000 C 
BRANCH  21  22
ATOM     22  C   UNL     1      10.089  24.566  61.647  1.00  0.00    -0.000 C 
BRANCH  22  23
ATOM     23  C   UNL     1      11.397  25.165  61.090  1.00  0.00    -0.000 C 
BRANCH  23  24
ATOM     24  C   UNL     1      12.089  24.271  60.046  1.00  0.00    -0.000 C 
BRANCH  24  25
ATOM     25  C   UNL     1      13.430  23.705  60.541  1.00  0.00    -0.000 C 
BRANCH  25  26
ATOM     26  C   UNL     1      13.379  22.188  60.778  1.00  0.00    -0.000 C 
BRANCH  26  27
ATOM     27  C   UNL     1      13.932  21.782  62.153  1.00  0.00    -0.000 C 
BRANCH  27  28
ATOM     28  C   UNL     1      14.022  23.000  63.084  1.00  0.00    -0.000 C 
BRANCH  28  29
ATOM     29  C   UNL     1      12.891  23.037  64.122  1.00  0.00    -0.003 C 
ATOM     30  C   UNL     1      12.499  24.460  64.516  1.00  0.00     0.004 C 
ENDBRANCH  28  29
ENDBRANCH  27  28
ENDBRANCH  26  27
ENDBRANCH  25  26
ENDBRANCH  24  25
ENDBRANCH  23  24
ENDBRANCH  22  23
ENDBRANCH  21  22
ENDBRANCH  20  21
ENDBRANCH  19  20
ENDBRANCH  18  19
ENDBRANCH  17  18
ENDBRANCH   1  17
TORSDOF 26
ENDMDL
MODEL 9
REMARK VINA RESULT:    -4.642      2.363      7.478
REMARK INTER + INTRA:         -14.982
REMARK INTER:                 -11.580
REMARK INTRA:                  -3.402
REMARK UNBOUND:                -3.284
REMARK SMILES CCCCCCCCCCCCCCCCCCCCCCCCCCCC(=O)[O-]
REMARK SMILES IDX 15 1 16 2 17 3 18 4 19 5 20 6 21 7 22 8 23 9 24 10 25 11
REMARK SMILES IDX 26 12 27 13 28 14 29 15 30 16 14 17 13 18 12 19 11 20 10 21
REMARK SMILES IDX 9 22 8 23 7 24 6 25 5 26 4 27 3 28 2 29 1 30
REMARK H PARENT
REMARK Flexibility Score: inf
ROOT
ATOM      1  C   UNL     1      10.466  17.405  64.513  1.00  0.00     0.000 C 
ENDROOT
BRANCH   1   2
ATOM      2  C   UNL     1      10.113  16.241  65.458  1.00  0.00     0.000 C 
BRANCH   2   3
ATOM      3  C   UNL     1       9.495  16.737  66.780  1.00  0.00     0.000 C 
BRANCH   3   4
ATOM      4  C   UNL     1       8.485  17.886  66.583  1.00  0.00     0.000 C 
BRANCH   4   5
ATOM      5  C   UNL     1       8.578  19.002  67.639  1.00  0.00     0.000 C 
BRANCH   5   6
ATOM      6  C   UNL     1       9.514  20.176  67.290  1.00  0.00     0.000 C 
BRANCH   6   7
ATOM      7  C   UNL     1       9.356  20.740  65.864  1.00  0.00     0.000 C 
BRANCH   7   8
ATOM      8  C   UNL     1      10.645  21.389  65.329  1.00  0.00     0.000 C 
BRANCH   8   9
ATOM      9  C   UNL     1      10.947  20.977  63.878  1.00  0.00     0.000 C 
BRANCH   9  10
ATOM     10  C   UNL     1      12.428  20.609  63.634  1.00  0.00     0.000 C 
BRANCH  10  11
ATOM     11  C   UNL     1      12.996  21.177  62.319  1.00  0.00     0.000 C 
BRANCH  11  12
ATOM     12  C   UNL     1      12.077  22.186  61.610  1.00  0.00     0.006 C 
BRANCH  12  13
ATOM     13  C   UNL     1      12.358  23.640  62.024  1.00  0.00     0.053 C 
BRANCH  13  14
ATOM     14  C   UNL     1      13.752  24.050  61.658  1.00  0.00     0.041 C 
ATOM     15  O   UNL     1      14.083  24.185  60.450  1.00  0.00    -0.550 OA
ATOM     16  O   UNL     1      14.699  24.248  62.655  1.00  0.00    -0.550 OA
ENDBRANCH  13  14
ENDBRANCH  12  13
ENDBRANCH  11  12
ENDBRANCH  10  11
ENDBRANCH   9  10
ENDBRANCH   8   9
ENDBRANCH   7   8
ENDBRANCH   6   7
ENDBRANCH   5   6
ENDBRANCH   4   5
ENDBRANCH   3   4
ENDBRANCH   2   3
ENDBRANCH   1   2
BRANCH   1  17
ATOM     17  C   UNL     1      11.595  17.060  63.524  1.00  0.00     0.000 C 
BRANCH  17  18
ATOM     18  C   UNL     1      12.383  15.811  63.959  1.00  0.00     0.000 C 
BRANCH  18  19
ATOM     19  C   UNL     1      13.856  16.110  64.273  1.00  0.00     0.000 C 
BRANCH  19  20
ATOM     20  C   UNL     1      14.394  17.326  63.502  1.00  0.00     0.000 C 
BRANCH  20  21
ATOM     21  C   UNL     1      15.513  16.951  62.517  1.00  0.00     0.000 C 
BRANCH  21  22
ATOM     22  C   UNL     1      14.980  16.270  61.243  1.00  0.00    -0.000 C 
BRANCH  22  23
ATOM     23  C   UNL     1      15.362  14.775  61.178  1.00  0.00    -0.000 C 
BRANCH  23  24
ATOM     24  C   UNL     1      15.317  14.190  59.755  1.00  0.00    -0.000 C 
BRANCH  24  25
ATOM     25  C   UNL     1      15.946  15.122  58.707  1.00  0.00    -0.000 C 
BRANCH  25  26
ATOM     26  C   UNL     1      17.431  14.816  58.460  1.00  0.00    -0.000 C 
BRANCH  26  27
ATOM     27  C   UNL     1      18.275  16.084  58.256  1.00  0.00    -0.000 C 
BRANCH  27  28
ATOM     28  C   UNL     1      18.022  17.091  59.387  1.00  0.00    -0.000 C 
BRANCH  28  29
ATOM     29  C   UNL     1      19.158  17.118  60.421  1.00  0.00    -0.003 C 
ATOM     30  C   UNL     1      18.878  16.224  61.628  1.00  0.00     0.004 C 
ENDBRANCH  28  29
ENDBRANCH  27  28
ENDBRANCH  26  27
ENDBRANCH  25  26
ENDBRANCH  24  25
ENDBRANCH  23  24
ENDBRANCH  22  23
ENDBRANCH  21  22
ENDBRANCH  20  21
ENDBRANCH  19  20
ENDBRANCH  18  19
ENDBRANCH  17  18
ENDBRANCH   1  17
TORSDOF 26
ENDMDL
