MODEL 1
REMARK VINA RESULT:     9.347      0.000      0.000
REMARK INTER + INTRA:          12.532
REMARK INTER:                  12.898
REMARK INTRA:                  -0.366
REMARK UNBOUND:                -0.366
REMARK SMILES CC[C@H](CC[C@H](C)[C@H]1CC[C@H]2[C@@H]3CC=C4C[C@@H](O)CC[C@]4(C)[C@H]3CC[C@@]12C)C(C)C
REMARK SMILES IDX 5 1 4 2 3 3 2 4 1 5 28 6 29 7 30 8 6 9 7 10 8 11 9 12 26 13
REMARK SMILES IDX 10 14 11 15 25 16 27 17 12 18 24 19 23 20 13 21 21 22 14 23
REMARK SMILES IDX 15 24 20 25 22 26 16 27 19 28 17 29 18 30
REMARK H PARENT 18 31
REMARK Flexibility Score: inf
ROOT
ATOM      1  C   UNL     1     136.012 134.416 140.013  1.00  0.00     0.004 C 
ENDROOT
BRANCH   1   2
ATOM      2  C   UNL     1     137.508 134.225 139.687  1.00  0.00     0.004 C 
BRANCH   2   3
ATOM      3  C   UNL     1     138.271 133.465 140.813  1.00  0.00    -0.009 C 
BRANCH   3   4
ATOM      4  C   UNL     1     138.372 131.954 140.464  1.00  0.00     0.000 C 
ATOM      5  C   UNL     1     137.150 131.140 140.897  1.00  0.00     0.004 C 
ENDBRANCH   3   4
BRANCH   3   6
ATOM      6  C   UNL     1     139.666 134.103 141.130  1.00  0.00    -0.014 C 
ATOM      7  C   UNL     1     139.726 134.807 142.496  1.00  0.00     0.007 C 
ATOM      8  C   UNL     1     140.810 133.081 141.008  1.00  0.00     0.007 C 
ENDBRANCH   3   6
ENDBRANCH   2   3
ENDBRANCH   1   2
BRANCH   1   9
ATOM      9  C   UNL     1     135.268 135.225 138.912  1.00  0.00    -0.011 C 
ATOM     10  C   UNL     1     134.181 136.124 139.527  1.00  0.00     0.008 C 
BRANCH   9  11
ATOM     11  C   UNL     1     134.727 134.417 137.678  1.00  0.00    -0.002 C 
ATOM     12  C   UNL     1     135.731 133.425 137.105  1.00  0.00     0.005 C 
ATOM     13  C   UNL     1     133.359 133.650 137.710  1.00  0.00    -0.026 C 
ATOM     14  C   UNL     1     134.951 132.663 136.057  1.00  0.00     0.005 C 
ATOM     15  C   UNL     1     133.499 132.574 136.574  1.00  0.00    -0.001 C 
ATOM     16  C   UNL     1     133.085 132.971 139.073  1.00  0.00     0.007 C 
ATOM     17  C   UNL     1     132.193 134.619 137.368  1.00  0.00     0.012 C 
ATOM     18  C   UNL     1     133.139 131.108 136.993  1.00  0.00     0.000 C 
ATOM     19  C   UNL     1     131.858 132.053 139.043  1.00  0.00     0.005 C 
ATOM     20  C   UNL     1     131.850 131.045 137.854  1.00  0.00     0.003 C 
ATOM     21  C   UNL     1     132.963 130.229 135.733  1.00  0.00     0.031 C 
ATOM     22  C   UNL     1     131.504 129.565 138.281  1.00  0.00    -0.008 C 
ATOM     23  C   UNL     1     132.303 128.903 135.987  1.00  0.00    -0.027 C 
ATOM     24  C   UNL     1     131.520 128.645 137.055  1.00  0.00    -0.065 C 
ATOM     25  C   UNL     1     130.075 129.552 138.913  1.00  0.00     0.014 C 
ATOM     26  C   UNL     1     132.537 128.994 139.297  1.00  0.00     0.016 C 
ATOM     27  C   UNL     1     130.842 127.291 137.139  1.00  0.00     0.063 C 
ATOM     28  C   UNL     1     129.475 128.147 139.071  1.00  0.00     0.033 C 
ATOM     29  C   UNL     1     129.432 127.415 137.728  1.00  0.00     0.118 C 
BRANCH  29  30
ATOM     30  O   UNL     1     128.878 126.140 137.919  1.00  0.00    -0.393 OA
ATOM     31  H   UNL     1     128.922 125.675 137.044  1.00  0.00     0.210 HD
ENDBRANCH  29  30
ENDBRANCH   9  11
ENDBRANCH   1   9
TORSDOF 7
ENDMDL
MODEL 2
REMARK VINA RESULT:    12.138      2.994      8.166
REMARK INTER + INTRA:          16.384
REMARK INTER:                  17.146
REMARK INTRA:                  -0.762
REMARK UNBOUND:                -0.366
REMARK SMILES CC[C@H](CC[C@H](C)[C@H]1CC[C@H]2[C@@H]3CC=C4C[C@@H](O)CC[C@]4(C)[C@H]3CC[C@@]12C)C(C)C
REMARK SMILES IDX 5 1 4 2 3 3 2 4 1 5 28 6 29 7 30 8 6 9 7 10 8 11 9 12 26 13
REMARK SMILES IDX 10 14 11 15 25 16 27 17 12 18 24 19 23 20 13 21 21 22 14 23
REMARK SMILES IDX 15 24 20 25 22 26 16 27 19 28 17 29 18 30
REMARK H PARENT 18 31
REMARK Flexibility Score: inf
ROOT
ATOM      1  C   UNL     1     131.215 130.621 137.778  1.00  0.00     0.004 C 
ENDROOT
BRANCH   1   2
ATOM      2  C   UNL     1     131.757 129.220 137.424  1.00  0.00     0.004 C 
BRANCH   2   3
ATOM      3  C   UNL     1     131.510 128.182 138.558  1.00  0.00    -0.009 C 
BRANCH   3   4
ATOM      4  C   UNL     1     130.574 128.786 139.642  1.00  0.00     0.000 C 
ATOM      5  C   UNL     1     130.826 128.237 141.048  1.00  0.00     0.004 C 
ENDBRANCH   3   4
BRANCH   3   6
ATOM      6  C   UNL     1     130.991 126.808 138.014  1.00  0.00    -0.014 C 
ATOM      7  C   UNL     1     129.467 126.759 137.814  1.00  0.00     0.007 C 
ATOM      8  C   UNL     1     131.711 126.390 136.719  1.00  0.00     0.007 C 
ENDBRANCH   3   6
ENDBRANCH   2   3
ENDBRANCH   1   2
BRANCH   1   9
ATOM      9  C   UNL     1     131.512 131.666 136.663  1.00  0.00    -0.011 C 
ATOM     10  C   UNL     1     132.190 131.004 135.451  1.00  0.00     0.008 C 
BRANCH   9  11
ATOM     11  C   UNL     1     132.254 132.981 137.100  1.00  0.00    -0.002 C 
ATOM     12  C   UNL     1     131.737 133.574 138.405  1.00  0.00     0.005 C 
ATOM     13  C   UNL     1     133.817 133.072 137.194  1.00  0.00    -0.026 C 
ATOM     14  C   UNL     1     132.688 134.711 138.703  1.00  0.00     0.005 C 
ATOM     15  C   UNL     1     134.071 134.274 138.173  1.00  0.00    -0.001 C 
ATOM     16  C   UNL     1     134.461 131.776 137.745  1.00  0.00     0.007 C 
ATOM     17  C   UNL     1     134.421 133.399 135.800  1.00  0.00     0.012 C 
ATOM     18  C   UNL     1     135.059 133.980 139.351  1.00  0.00     0.000 C 
ATOM     19  C   UNL     1     135.957 131.933 138.033  1.00  0.00     0.005 C 
ATOM     20  C   UNL     1     136.311 133.191 138.883  1.00  0.00     0.003 C 
ATOM     21  C   UNL     1     135.502 135.308 140.010  1.00  0.00     0.031 C 
ATOM     22  C   UNL     1     137.293 132.889 140.082  1.00  0.00    -0.008 C 
ATOM     23  C   UNL     1     136.688 135.183 140.924  1.00  0.00    -0.027 C 
ATOM     24  C   UNL     1     137.584 134.177 140.862  1.00  0.00    -0.065 C 
ATOM     25  C   UNL     1     138.631 132.331 139.498  1.00  0.00     0.014 C 
ATOM     26  C   UNL     1     136.690 131.868 141.090  1.00  0.00     0.016 C 
ATOM     27  C   UNL     1     138.785 134.224 141.787  1.00  0.00     0.063 C 
ATOM     28  C   UNL     1     139.790 132.305 140.505  1.00  0.00     0.033 C 
ATOM     29  C   UNL     1     140.043 133.698 141.085  1.00  0.00     0.118 C 
BRANCH  29  30
ATOM     30  O   UNL     1     141.106 133.627 141.999  1.00  0.00    -0.393 OA
ATOM     31  H   UNL     1     141.535 134.522 142.009  1.00  0.00     0.210 HD
ENDBRANCH  29  30
ENDBRANCH   9  11
ENDBRANCH   1   9
TORSDOF 7
ENDMDL
