MODEL 1
REMARK VINA RESULT:    -5.047      0.000      0.000
REMARK INTER + INTRA:          -9.959
REMARK INTER:                  -6.965
REMARK INTRA:                  -2.994
REMARK UNBOUND:                -2.994
REMARK SMILES CC[C@H](CC[C@@H](C)[C@H]1CC[C@@H]2[C@@H]3CC=C4C[C@@H](O)CC[C@@]4(C)[C@@H]3CC[C@]21C)C(C)C
REMARK SMILES IDX 5 1 4 2 3 3 2 4 1 5 28 6 29 7 30 8 6 9 7 10 8 11 9 12 26 13
REMARK SMILES IDX 10 14 11 15 25 16 27 17 12 18 24 19 23 20 13 21 21 22 14 23
REMARK SMILES IDX 15 24 20 25 22 26 16 27 19 28 17 29 18 30
REMARK H PARENT 18 31
REMARK Flexibility Score: inf
ROOT
ATOM      1  C   UNL     1      43.949  14.566  38.349  1.00  0.00     0.004 C 
ENDROOT
BRANCH   1   2
ATOM      2  C   UNL     1      43.343  14.410  39.769  1.00  0.00     0.004 C 
BRANCH   2   3
ATOM      3  C   UNL     1      44.083  13.380  40.671  1.00  0.00    -0.009 C 
BRANCH   3   4
ATOM      4  C   UNL     1      45.575  13.777  40.859  1.00  0.00     0.000 C 
ATOM      5  C   UNL     1      45.906  14.519  42.155  1.00  0.00     0.004 C 
ENDBRANCH   3   4
BRANCH   3   6
ATOM      6  C   UNL     1      43.306  12.995  41.982  1.00  0.00    -0.014 C 
ATOM      7  C   UNL     1      43.517  11.550  42.468  1.00  0.00     0.007 C 
ATOM      8  C   UNL     1      41.807  13.325  41.906  1.00  0.00     0.007 C 
ENDBRANCH   3   6
ENDBRANCH   2   3
ENDBRANCH   1   2
BRANCH   1   9
ATOM      9  C   UNL     1      43.048  13.987  37.213  1.00  0.00    -0.011 C 
ATOM     10  C   UNL     1      43.367  14.758  35.911  1.00  0.00     0.008 C 
BRANCH   9  11
ATOM     11  C   UNL     1      43.253  12.445  36.983  1.00  0.00    -0.002 C 
ATOM     12  C   UNL     1      44.646  11.891  37.423  1.00  0.00     0.005 C 
ATOM     13  C   UNL     1      42.194  11.456  37.639  1.00  0.00    -0.026 C 
ATOM     14  C   UNL     1      44.404  10.537  38.080  1.00  0.00     0.005 C 
ATOM     15  C   UNL     1      43.052  10.751  38.711  1.00  0.00    -0.001 C 
ATOM     16  C   UNL     1      40.962  12.023  38.402  1.00  0.00     0.007 C 
ATOM     17  C   UNL     1      41.677  10.542  36.489  1.00  0.00     0.012 C 
ATOM     18  C   UNL     1      42.404   9.600  39.514  1.00  0.00     0.000 C 
ATOM     19  C   UNL     1      40.203  10.923  39.191  1.00  0.00     0.005 C 
ATOM     20  C   UNL     1      41.095  10.112  40.186  1.00  0.00     0.003 C 
ATOM     21  C   UNL     1      42.278   8.260  38.753  1.00  0.00     0.031 C 
ATOM     22  C   UNL     1      40.332   8.964  40.959  1.00  0.00    -0.008 C 
ATOM     23  C   UNL     1      41.081   7.424  39.110  1.00  0.00    -0.027 C 
ATOM     24  C   UNL     1      40.231   7.694  40.124  1.00  0.00    -0.065 C 
ATOM     25  C   UNL     1      41.098   8.569  42.261  1.00  0.00     0.014 C 
ATOM     26  C   UNL     1      38.911   9.465  41.356  1.00  0.00     0.016 C 
ATOM     27  C   UNL     1      39.497   6.530  40.754  1.00  0.00     0.063 C 
ATOM     28  C   UNL     1      40.489   7.346  42.994  1.00  0.00     0.033 C 
ATOM     29  C   UNL     1      40.203   6.134  42.069  1.00  0.00     0.118 C 
BRANCH  29  30
ATOM     30  O   UNL     1      41.379   5.406  41.809  1.00  0.00    -0.393 OA
ATOM     31  H   UNL     1      41.654   4.954  42.647  1.00  0.00     0.210 HD
ENDBRANCH  29  30
ENDBRANCH   9  11
ENDBRANCH   1   9
TORSDOF 7
ENDMDL
MODEL 2
REMARK VINA RESULT:    -4.782      3.796      7.030
REMARK INTER + INTRA:          -9.593
REMARK INTER:                  -6.909
REMARK INTRA:                  -2.684
REMARK UNBOUND:                -2.994
REMARK SMILES CC[C@H](CC[C@@H](C)[C@H]1CC[C@@H]2[C@@H]3CC=C4C[C@@H](O)CC[C@@]4(C)[C@@H]3CC[C@]21C)C(C)C
REMARK SMILES IDX 5 1 4 2 3 3 2 4 1 5 28 6 29 7 30 8 6 9 7 10 8 11 9 12 26 13
REMARK SMILES IDX 10 14 11 15 25 16 27 17 12 18 24 19 23 20 13 21 21 22 14 23
REMARK SMILES IDX 15 24 20 25 22 26 16 27 19 28 17 29 18 30
REMARK H PARENT 18 31
REMARK Flexibility Score: inf
ROOT
ATOM      1  C   UNL     1      41.642   7.829  41.632  1.00  0.00     0.004 C 
ENDROOT
BRANCH   1   2
ATOM      2  C   UNL     1      40.258   7.239  42.010  1.00  0.00     0.004 C 
BRANCH   2   3
ATOM      3  C   UNL     1      39.489   6.597  40.820  1.00  0.00    -0.009 C 
BRANCH   3   4
ATOM      4  C   UNL     1      39.450   5.047  40.955  1.00  0.00     0.000 C 
ATOM      5  C   UNL     1      39.504   4.504  42.383  1.00  0.00     0.004 C 
ENDBRANCH   3   4
BRANCH   3   6
ATOM      6  C   UNL     1      38.117   7.289  40.489  1.00  0.00    -0.014 C 
ATOM      7  C   UNL     1      37.524   8.144  41.624  1.00  0.00     0.007 C 
ATOM      8  C   UNL     1      37.067   6.305  39.950  1.00  0.00     0.007 C 
ENDBRANCH   3   6
ENDBRANCH   2   3
ENDBRANCH   1   2
BRANCH   1   9
ATOM      9  C   UNL     1      41.595   9.338  41.232  1.00  0.00    -0.011 C 
ATOM     10  C   UNL     1      42.714  10.073  42.007  1.00  0.00     0.008 C 
BRANCH   9  11
ATOM     11  C   UNL     1      41.771   9.577  39.688  1.00  0.00    -0.002 C 
ATOM     12  C   UNL     1      42.184   8.315  38.866  1.00  0.00     0.005 C 
ATOM     13  C   UNL     1      40.538  10.194  38.895  1.00  0.00    -0.026 C 
ATOM     14  C   UNL     1      41.399   8.350  37.560  1.00  0.00     0.005 C 
ATOM     15  C   UNL     1      40.116   9.007  38.004  1.00  0.00    -0.001 C 
ATOM     16  C   UNL     1      39.249  10.618  39.657  1.00  0.00     0.007 C 
ATOM     17  C   UNL     1      41.084  11.439  38.134  1.00  0.00     0.012 C 
ATOM     18  C   UNL     1      38.992   9.241  36.969  1.00  0.00     0.000 C 
ATOM     19  C   UNL     1      38.076  10.940  38.694  1.00  0.00     0.005 C 
ATOM     20  C   UNL     1      37.727   9.788  37.696  1.00  0.00     0.003 C 
ATOM     21  C   UNL     1      39.418  10.020  35.703  1.00  0.00     0.031 C 
ATOM     22  C   UNL     1      36.560  10.130  36.687  1.00  0.00    -0.008 C 
ATOM     23  C   UNL     1      38.359  10.897  35.097  1.00  0.00    -0.027 C 
ATOM     24  C   UNL     1      37.067  10.922  35.487  1.00  0.00    -0.065 C 
ATOM     25  C   UNL     1      35.925   8.826  36.110  1.00  0.00     0.014 C 
ATOM     26  C   UNL     1      35.450  10.930  37.432  1.00  0.00     0.016 C 
ATOM     27  C   UNL     1      36.031  11.329  34.462  1.00  0.00     0.063 C 
ATOM     28  C   UNL     1      34.874   9.083  34.999  1.00  0.00     0.033 C 
ATOM     29  C   UNL     1      35.350  10.063  33.895  1.00  0.00     0.118 C 
BRANCH  29  30
ATOM     30  O   UNL     1      36.187   9.415  32.968  1.00  0.00    -0.393 OA
ATOM     31  H   UNL     1      36.718   8.735  33.455  1.00  0.00     0.210 HD
ENDBRANCH  29  30
ENDBRANCH   9  11
ENDBRANCH   1   9
TORSDOF 7
ENDMDL
MODEL 3
REMARK VINA RESULT:    -4.743     11.833     15.032
REMARK INTER + INTRA:          -9.539
REMARK INTER:                  -6.889
REMARK INTRA:                  -2.650
REMARK UNBOUND:                -2.994
REMARK SMILES CC[C@H](CC[C@@H](C)[C@H]1CC[C@@H]2[C@@H]3CC=C4C[C@@H](O)CC[C@@]4(C)[C@@H]3CC[C@]21C)C(C)C
REMARK SMILES IDX 5 1 4 2 3 3 2 4 1 5 28 6 29 7 30 8 6 9 7 10 8 11 9 12 26 13
REMARK SMILES IDX 10 14 11 15 25 16 27 17 12 18 24 19 23 20 13 21 21 22 14 23
REMARK SMILES IDX 15 24 20 25 22 26 16 27 19 28 17 29 18 30
REMARK H PARENT 18 31
REMARK Flexibility Score: inf
ROOT
ATOM      1  C   UNL     1      26.770  14.927  40.812  1.00  0.00     0.004 C 
ENDROOT
BRANCH   1   2
ATOM      2  C   UNL     1      26.626  15.437  39.354  1.00  0.00     0.004 C 
BRANCH   2   3
ATOM      3  C   UNL     1      27.813  15.058  38.422  1.00  0.00    -0.009 C 
BRANCH   3   4
ATOM      4  C   UNL     1      27.691  13.583  37.940  1.00  0.00     0.000 C 
ATOM      5  C   UNL     1      28.909  12.696  38.203  1.00  0.00     0.004 C 
ENDBRANCH   3   4
BRANCH   3   6
ATOM      6  C   UNL     1      28.122  16.120  37.306  1.00  0.00    -0.014 C 
ATOM      7  C   UNL     1      27.192  16.072  36.080  1.00  0.00     0.007 C 
ATOM      8  C   UNL     1      29.595  16.111  36.867  1.00  0.00     0.007 C 
ENDBRANCH   3   6
ENDBRANCH   2   3
ENDBRANCH   1   2
BRANCH   1   9
ATOM      9  C   UNL     1      27.352  15.990  41.797  1.00  0.00    -0.011 C 
ATOM     10  C   UNL     1      26.565  15.892  43.125  1.00  0.00     0.008 C 
BRANCH   9  11
ATOM     11  C   UNL     1      28.889  15.805  42.073  1.00  0.00    -0.002 C 
ATOM     12  C   UNL     1      29.505  14.482  41.517  1.00  0.00     0.005 C 
ATOM     13  C   UNL     1      29.869  16.954  41.574  1.00  0.00    -0.026 C 
ATOM     14  C   UNL     1      30.877  14.828  40.950  1.00  0.00     0.005 C 
ATOM     15  C   UNL     1      30.646  16.232  40.452  1.00  0.00    -0.001 C 
ATOM     16  C   UNL     1      29.295  18.242  40.917  1.00  0.00     0.007 C 
ATOM     17  C   UNL     1      30.718  17.374  42.811  1.00  0.00     0.012 C 
ATOM     18  C   UNL     1      31.807  16.993  39.772  1.00  0.00     0.000 C 
ATOM     19  C   UNL     1      30.401  19.110  40.260  1.00  0.00     0.005 C 
ATOM     20  C   UNL     1      31.281  18.349  39.216  1.00  0.00     0.003 C 
ATOM     21  C   UNL     1      33.110  17.076  40.601  1.00  0.00     0.031 C 
ATOM     22  C   UNL     1      32.435  19.220  38.577  1.00  0.00    -0.008 C 
ATOM     23  C   UNL     1      33.920  18.327  40.406  1.00  0.00    -0.027 C 
ATOM     24  C   UNL     1      33.666  19.269  39.474  1.00  0.00    -0.065 C 
ATOM     25  C   UNL     1      32.908  18.606  37.223  1.00  0.00     0.014 C 
ATOM     26  C   UNL     1      31.905  20.660  38.307  1.00  0.00     0.016 C 
ATOM     27  C   UNL     1      34.830  20.097  38.976  1.00  0.00     0.063 C 
ATOM     28  C   UNL     1      34.141  19.321  36.611  1.00  0.00     0.033 C 
ATOM     29  C   UNL     1      35.304  19.543  37.614  1.00  0.00     0.118 C 
BRANCH  29  30
ATOM     30  O   UNL     1      36.057  18.368  37.785  1.00  0.00    -0.393 OA
ATOM     31  H   UNL     1      35.769  17.936  38.629  1.00  0.00     0.210 HD
ENDBRANCH  29  30
ENDBRANCH   9  11
ENDBRANCH   1   9
TORSDOF 7
ENDMDL
MODEL 4
REMARK VINA RESULT:    -4.719      1.391      2.161
REMARK INTER + INTRA:          -9.506
REMARK INTER:                  -7.254
REMARK INTRA:                  -2.252
REMARK UNBOUND:                -2.994
REMARK SMILES CC[C@H](CC[C@@H](C)[C@H]1CC[C@@H]2[C@@H]3CC=C4C[C@@H](O)CC[C@@]4(C)[C@@H]3CC[C@]21C)C(C)C
REMARK SMILES IDX 5 1 4 2 3 3 2 4 1 5 28 6 29 7 30 8 6 9 7 10 8 11 9 12 26 13
REMARK SMILES IDX 10 14 11 15 25 16 27 17 12 18 24 19 23 20 13 21 21 22 14 23
REMARK SMILES IDX 15 24 20 25 22 26 16 27 19 28 17 29 18 30
REMARK H PARENT 18 31
REMARK Flexibility Score: inf
ROOT
ATOM      1  C   UNL     1      46.124  14.327  39.124  1.00  0.00     0.004 C 
ENDROOT
BRANCH   1   2
ATOM      2  C   UNL     1      46.013  14.115  40.657  1.00  0.00     0.004 C 
BRANCH   2   3
ATOM      3  C   UNL     1      44.917  14.980  41.345  1.00  0.00    -0.009 C 
BRANCH   3   4
ATOM      4  C   UNL     1      44.197  14.175  42.466  1.00  0.00     0.000 C 
ATOM      5  C   UNL     1      44.200  12.655  42.298  1.00  0.00     0.004 C 
ENDBRANCH   3   4
BRANCH   3   6
ATOM      6  C   UNL     1      45.389  16.427  41.737  1.00  0.00    -0.014 C 
ATOM      7  C   UNL     1      44.910  16.923  43.113  1.00  0.00     0.007 C 
ATOM      8  C   UNL     1      45.080  17.469  40.650  1.00  0.00     0.007 C 
ENDBRANCH   3   6
ENDBRANCH   2   3
ENDBRANCH   1   2
BRANCH   1   9
ATOM      9  C   UNL     1      44.745  14.389  38.395  1.00  0.00    -0.011 C 
ATOM     10  C   UNL     1      44.795  15.549  37.374  1.00  0.00     0.008 C 
BRANCH   9  11
ATOM     11  C   UNL     1      44.369  13.049  37.662  1.00  0.00    -0.002 C 
ATOM     12  C   UNL     1      45.522  12.000  37.570  1.00  0.00     0.005 C 
ATOM     13  C   UNL     1      43.119  12.235  38.213  1.00  0.00    -0.026 C 
ATOM     14  C   UNL     1      44.904  10.629  37.817  1.00  0.00     0.005 C 
ATOM     15  C   UNL     1      43.798  10.972  38.783  1.00  0.00    -0.001 C 
ATOM     16  C   UNL     1      42.264  12.808  39.380  1.00  0.00     0.007 C 
ATOM     17  C   UNL     1      42.179  11.995  36.993  1.00  0.00     0.012 C 
ATOM     18  C   UNL     1      42.891   9.843  39.323  1.00  0.00     0.000 C 
ATOM     19  C   UNL     1      41.269  11.761  39.948  1.00  0.00     0.005 C 
ATOM     20  C   UNL     1      41.935  10.423  40.408  1.00  0.00     0.003 C 
ATOM     21  C   UNL     1      42.214   8.972  38.240  1.00  0.00     0.031 C 
ATOM     22  C   UNL     1      40.919   9.341  40.948  1.00  0.00    -0.008 C 
ATOM     23  C   UNL     1      40.853   8.442  38.595  1.00  0.00    -0.027 C 
ATOM     24  C   UNL     1      40.280   8.551  39.812  1.00  0.00    -0.065 C 
ATOM     25  C   UNL     1      41.649   8.295  41.847  1.00  0.00     0.014 C 
ATOM     26  C   UNL     1      39.821  10.043  41.802  1.00  0.00     0.016 C 
ATOM     27  C   UNL     1      39.267   7.499  40.208  1.00  0.00     0.063 C 
ATOM     28  C   UNL     1      40.744   7.116  42.292  1.00  0.00     0.033 C 
ATOM     29  C   UNL     1      39.944   6.464  41.134  1.00  0.00     0.118 C 
BRANCH  29  30
ATOM     30  O   UNL     1      40.751   5.580  40.394  1.00  0.00    -0.393 OA
ATOM     31  H   UNL     1      41.055   4.859  41.002  1.00  0.00     0.210 HD
ENDBRANCH  29  30
ENDBRANCH   9  11
ENDBRANCH   1   9
TORSDOF 7
ENDMDL
MODEL 5
REMARK VINA RESULT:    -4.709      3.893      7.844
REMARK INTER + INTRA:          -9.492
REMARK INTER:                  -7.727
REMARK INTRA:                  -1.765
REMARK UNBOUND:                -2.994
REMARK SMILES CC[C@H](CC[C@@H](C)[C@H]1CC[C@@H]2[C@@H]3CC=C4C[C@@H](O)CC[C@@]4(C)[C@@H]3CC[C@]21C)C(C)C
REMARK SMILES IDX 5 1 4 2 3 3 2 4 1 5 28 6 29 7 30 8 6 9 7 10 8 11 9 12 26 13
REMARK SMILES IDX 10 14 11 15 25 16 27 17 12 18 24 19 23 20 13 21 21 22 14 23
REMARK SMILES IDX 15 24 20 25 22 26 16 27 19 28 17 29 18 30
REMARK H PARENT 18 31
REMARK Flexibility Score: inf
ROOT
ATOM      1  C   UNL     1      40.451   6.617  40.455  1.00  0.00     0.004 C 
ENDROOT
BRANCH   1   2
ATOM      2  C   UNL     1      39.076   5.900  40.529  1.00  0.00     0.004 C 
BRANCH   2   3
ATOM      3  C   UNL     1      38.143   6.421  41.660  1.00  0.00    -0.009 C 
BRANCH   3   4
ATOM      4  C   UNL     1      36.743   6.798  41.095  1.00  0.00     0.000 C 
ATOM      5  C   UNL     1      36.549   6.570  39.595  1.00  0.00     0.004 C 
ENDBRANCH   3   4
BRANCH   3   6
ATOM      6  C   UNL     1      38.141   5.531  42.956  1.00  0.00    -0.014 C 
ATOM      7  C   UNL     1      39.368   4.617  43.125  1.00  0.00     0.007 C 
ATOM      8  C   UNL     1      36.842   4.727  43.125  1.00  0.00     0.007 C 
ENDBRANCH   3   6
ENDBRANCH   2   3
ENDBRANCH   1   2
BRANCH   1   9
ATOM      9  C   UNL     1      40.404   8.115  40.893  1.00  0.00    -0.011 C 
ATOM     10  C   UNL     1      41.134   8.238  42.252  1.00  0.00     0.008 C 
BRANCH   9  11
ATOM     11  C   UNL     1      41.058   9.089  39.847  1.00  0.00    -0.002 C 
ATOM     12  C   UNL     1      42.213   8.468  38.998  1.00  0.00     0.005 C 
ATOM     13  C   UNL     1      40.097   9.780  38.785  1.00  0.00    -0.026 C 
ATOM     14  C   UNL     1      42.051   8.983  37.572  1.00  0.00     0.005 C 
ATOM     15  C   UNL     1      40.552   9.109  37.472  1.00  0.00    -0.001 C 
ATOM     16  C   UNL     1      38.560   9.552  38.856  1.00  0.00     0.007 C 
ATOM     17  C   UNL     1      40.367  11.312  38.880  1.00  0.00     0.012 C 
ATOM     18  C   UNL     1      39.924   9.605  36.149  1.00  0.00     0.000 C 
ATOM     19  C   UNL     1      37.829  10.081  37.592  1.00  0.00     0.005 C 
ATOM     20  C   UNL     1      38.372   9.505  36.245  1.00  0.00     0.003 C 
ATOM     21  C   UNL     1      40.470  10.956  35.631  1.00  0.00     0.031 C 
ATOM     22  C   UNL     1      37.657  10.074  34.956  1.00  0.00    -0.008 C 
ATOM     23  C   UNL     1      39.480  11.812  34.892  1.00  0.00    -0.027 C 
ATOM     24  C   UNL     1      38.239  11.418  34.536  1.00  0.00    -0.065 C 
ATOM     25  C   UNL     1      37.856   9.115  33.742  1.00  0.00     0.014 C 
ATOM     26  C   UNL     1      36.129  10.210  35.231  1.00  0.00     0.016 C 
ATOM     27  C   UNL     1      37.615  12.074  33.323  1.00  0.00     0.063 C 
ATOM     28  C   UNL     1      37.310   9.680  32.404  1.00  0.00     0.033 C 
ATOM     29  C   UNL     1      37.757  11.135  32.106  1.00  0.00     0.118 C 
BRANCH  29  30
ATOM     30  O   UNL     1      39.069  11.168  31.597  1.00  0.00    -0.393 OA
ATOM     31  H   UNL     1      39.119  10.538  30.834  1.00  0.00     0.210 HD
ENDBRANCH  29  30
ENDBRANCH   9  11
ENDBRANCH   1   9
TORSDOF 7
ENDMDL
MODEL 6
REMARK VINA RESULT:    -4.557      2.663      6.615
REMARK INTER + INTRA:          -9.282
REMARK INTER:                  -6.325
REMARK INTRA:                  -2.958
REMARK UNBOUND:                -2.994
REMARK SMILES CC[C@H](CC[C@@H](C)[C@H]1CC[C@@H]2[C@@H]3CC=C4C[C@@H](O)CC[C@@]4(C)[C@@H]3CC[C@]21C)C(C)C
REMARK SMILES IDX 5 1 4 2 3 3 2 4 1 5 28 6 29 7 30 8 6 9 7 10 8 11 9 12 26 13
REMARK SMILES IDX 10 14 11 15 25 16 27 17 12 18 24 19 23 20 13 21 21 22 14 23
REMARK SMILES IDX 15 24 20 25 22 26 16 27 19 28 17 29 18 30
REMARK H PARENT 18 31
REMARK Flexibility Score: inf
ROOT
ATOM      1  C   UNL     1      40.179   8.144  42.282  1.00  0.00     0.004 C 
ENDROOT
BRANCH   1   2
ATOM      2  C   UNL     1      40.834   9.271  43.125  1.00  0.00     0.004 C 
BRANCH   2   3
ATOM      3  C   UNL     1      41.206  10.544  42.312  1.00  0.00    -0.009 C 
BRANCH   3   4
ATOM      4  C   UNL     1      40.060  11.595  42.369  1.00  0.00     0.000 C 
ATOM      5  C   UNL     1      39.435  11.969  41.023  1.00  0.00     0.004 C 
ENDBRANCH   3   4
BRANCH   3   6
ATOM      6  C   UNL     1      42.652  11.092  42.597  1.00  0.00    -0.014 C 
ATOM      7  C   UNL     1      43.181  12.108  41.570  1.00  0.00     0.007 C 
ATOM      8  C   UNL     1      43.679   9.972  42.828  1.00  0.00     0.007 C 
ENDBRANCH   3   6
ENDBRANCH   2   3
ENDBRANCH   1   2
BRANCH   1   9
ATOM      9  C   UNL     1      41.133   7.522  41.214  1.00  0.00    -0.011 C 
ATOM     10  C   UNL     1      41.289   6.017  41.532  1.00  0.00     0.008 C 
BRANCH   9  11
ATOM     11  C   UNL     1      40.617   7.705  39.739  1.00  0.00    -0.002 C 
ATOM     12  C   UNL     1      39.147   8.216  39.612  1.00  0.00     0.005 C 
ATOM     13  C   UNL     1      41.462   8.648  38.777  1.00  0.00    -0.026 C 
ATOM     14  C   UNL     1      39.117   9.222  38.467  1.00  0.00     0.005 C 
ATOM     15  C   UNL     1      40.492   9.831  38.572  1.00  0.00    -0.001 C 
ATOM     16  C   UNL     1      42.792   9.284  39.273  1.00  0.00     0.007 C 
ATOM     17  C   UNL     1      41.770   7.809  37.501  1.00  0.00     0.012 C 
ATOM     18  C   UNL     1      40.903  10.941  37.578  1.00  0.00     0.000 C 
ATOM     19  C   UNL     1      43.322  10.371  38.301  1.00  0.00     0.005 C 
ATOM     20  C   UNL     1      42.297  11.507  37.984  1.00  0.00     0.003 C 
ATOM     21  C   UNL     1      40.746  10.573  36.084  1.00  0.00     0.031 C 
ATOM     22  C   UNL     1      42.820  12.592  36.961  1.00  0.00    -0.008 C 
ATOM     23  C   UNL     1      41.754  11.193  35.157  1.00  0.00    -0.027 C 
ATOM     24  C   UNL     1      42.652  12.133  35.518  1.00  0.00    -0.065 C 
ATOM     25  C   UNL     1      42.006  13.917  37.093  1.00  0.00     0.014 C 
ATOM     26  C   UNL     1      44.318  12.902  37.259  1.00  0.00     0.016 C 
ATOM     27  C   UNL     1      43.143  13.084  34.447  1.00  0.00     0.063 C 
ATOM     28  C   UNL     1      42.363  14.978  36.019  1.00  0.00     0.033 C 
ATOM     29  C   UNL     1      42.387  14.424  34.570  1.00  0.00     0.118 C 
BRANCH  29  30
ATOM     30  O   UNL     1      41.085  14.317  34.047  1.00  0.00    -0.393 OA
ATOM     31  H   UNL     1      41.022  14.910  33.255  1.00  0.00     0.210 HD
ENDBRANCH  29  30
ENDBRANCH   9  11
ENDBRANCH   1   9
TORSDOF 7
ENDMDL
MODEL 7
REMARK VINA RESULT:    -4.529      2.709      6.931
REMARK INTER + INTRA:          -9.244
REMARK INTER:                  -7.055
REMARK INTRA:                  -2.189
REMARK UNBOUND:                -2.994
REMARK SMILES CC[C@H](CC[C@@H](C)[C@H]1CC[C@@H]2[C@@H]3CC=C4C[C@@H](O)CC[C@@]4(C)[C@@H]3CC[C@]21C)C(C)C
REMARK SMILES IDX 5 1 4 2 3 3 2 4 1 5 28 6 29 7 30 8 6 9 7 10 8 11 9 12 26 13
REMARK SMILES IDX 10 14 11 15 25 16 27 17 12 18 24 19 23 20 13 21 21 22 14 23
REMARK SMILES IDX 15 24 20 25 22 26 16 27 19 28 17 29 18 30
REMARK H PARENT 18 31
REMARK Flexibility Score: inf
ROOT
ATOM      1  C   UNL     1      37.378   8.821  40.518  1.00  0.00     0.004 C 
ENDROOT
BRANCH   1   2
ATOM      2  C   UNL     1      38.127   7.887  41.506  1.00  0.00     0.004 C 
BRANCH   2   3
ATOM      3  C   UNL     1      39.644   7.722  41.205  1.00  0.00    -0.009 C 
BRANCH   3   4
ATOM      4  C   UNL     1      40.506   8.430  42.290  1.00  0.00     0.000 C 
ATOM      5  C   UNL     1      41.481   9.490  41.774  1.00  0.00     0.004 C 
ENDBRANCH   3   4
BRANCH   3   6
ATOM      6  C   UNL     1      40.074   6.255  40.840  1.00  0.00    -0.014 C 
ATOM      7  C   UNL     1      38.945   5.210  40.887  1.00  0.00     0.007 C 
ATOM      8  C   UNL     1      41.290   5.772  41.647  1.00  0.00     0.007 C 
ENDBRANCH   3   6
ENDBRANCH   2   3
ENDBRANCH   1   2
BRANCH   1   9
ATOM      9  C   UNL     1      37.506   8.389  39.023  1.00  0.00    -0.011 C 
ATOM     10  C   UNL     1      36.179   7.715  38.605  1.00  0.00     0.008 C 
BRANCH   9  11
ATOM     11  C   UNL     1      37.823   9.588  38.056  1.00  0.00    -0.002 C 
ATOM     12  C   UNL     1      37.309  10.981  38.540  1.00  0.00     0.005 C 
ATOM     13  C   UNL     1      39.344   9.830  37.658  1.00  0.00    -0.026 C 
ATOM     14  C   UNL     1      38.392  12.001  38.207  1.00  0.00     0.005 C 
ATOM     15  C   UNL     1      39.640  11.170  38.364  1.00  0.00    -0.001 C 
ATOM     16  C   UNL     1      40.448   8.850  38.151  1.00  0.00     0.007 C 
ATOM     17  C   UNL     1      39.390   9.870  36.102  1.00  0.00     0.012 C 
ATOM     18  C   UNL     1      41.019  11.826  38.123  1.00  0.00     0.000 C 
ATOM     19  C   UNL     1      41.877   9.396  37.891  1.00  0.00     0.005 C 
ATOM     20  C   UNL     1      42.144  10.814  38.491  1.00  0.00     0.003 C 
ATOM     21  C   UNL     1      41.180  12.528  36.754  1.00  0.00     0.031 C 
ATOM     22  C   UNL     1      43.585  11.389  38.191  1.00  0.00    -0.008 C 
ATOM     23  C   UNL     1      42.563  12.491  36.168  1.00  0.00    -0.027 C 
ATOM     24  C   UNL     1      43.658  12.035  36.813  1.00  0.00    -0.065 C 
ATOM     25  C   UNL     1      43.961  12.505  39.215  1.00  0.00     0.014 C 
ATOM     26  C   UNL     1      44.633  10.242  38.306  1.00  0.00     0.016 C 
ATOM     27  C   UNL     1      45.001  12.601  36.404  1.00  0.00     0.063 C 
ATOM     28  C   UNL     1      45.299  13.221  38.893  1.00  0.00     0.033 C 
ATOM     29  C   UNL     1      45.427  13.685  37.418  1.00  0.00     0.118 C 
BRANCH  29  30
ATOM     30  O   UNL     1      44.722  14.882  37.200  1.00  0.00    -0.393 OA
ATOM     31  H   UNL     1      43.867  14.659  36.749  1.00  0.00     0.210 HD
ENDBRANCH  29  30
ENDBRANCH   9  11
ENDBRANCH   1   9
TORSDOF 7
ENDMDL
MODEL 8
REMARK VINA RESULT:    -4.512      1.742      3.150
REMARK INTER + INTRA:          -9.221
REMARK INTER:                  -6.825
REMARK INTRA:                  -2.396
REMARK UNBOUND:                -2.994
REMARK SMILES CC[C@H](CC[C@@H](C)[C@H]1CC[C@@H]2[C@@H]3CC=C4C[C@@H](O)CC[C@@]4(C)[C@@H]3CC[C@]21C)C(C)C
REMARK SMILES IDX 5 1 4 2 3 3 2 4 1 5 28 6 29 7 30 8 6 9 7 10 8 11 9 12 26 13
REMARK SMILES IDX 10 14 11 15 25 16 27 17 12 18 24 19 23 20 13 21 21 22 14 23
REMARK SMILES IDX 15 24 20 25 22 26 16 27 19 28 17 29 18 30
REMARK H PARENT 18 31
REMARK Flexibility Score: inf
ROOT
ATOM      1  C   UNL     1      43.018  13.046  35.689  1.00  0.00     0.004 C 
ENDROOT
BRANCH   1   2
ATOM      2  C   UNL     1      44.488  12.736  36.077  1.00  0.00     0.004 C 
BRANCH   2   3
ATOM      3  C   UNL     1      44.687  12.337  37.568  1.00  0.00    -0.009 C 
BRANCH   3   4
ATOM      4  C   UNL     1      45.033  10.826  37.698  1.00  0.00     0.000 C 
ATOM      5  C   UNL     1      44.162  10.027  38.669  1.00  0.00     0.004 C 
ENDBRANCH   3   4
BRANCH   3   6
ATOM      6  C   UNL     1      45.602  13.321  38.383  1.00  0.00    -0.014 C 
ATOM      7  C   UNL     1      45.168  13.566  39.839  1.00  0.00     0.007 C 
ATOM      8  C   UNL     1      45.836  14.656  37.657  1.00  0.00     0.007 C 
ENDBRANCH   3   6
ENDBRANCH   2   3
ENDBRANCH   1   2
BRANCH   1   9
ATOM      9  C   UNL     1      42.067  13.221  36.915  1.00  0.00    -0.011 C 
ATOM     10  C   UNL     1      41.614  14.700  36.960  1.00  0.00     0.008 C 
BRANCH   9  11
ATOM     11  C   UNL     1      40.809  12.280  36.865  1.00  0.00    -0.002 C 
ATOM     12  C   UNL     1      40.855  11.173  35.764  1.00  0.00     0.005 C 
ATOM     13  C   UNL     1      40.412  11.511  38.200  1.00  0.00    -0.026 C 
ATOM     14  C   UNL     1      40.282   9.901  36.379  1.00  0.00     0.005 C 
ATOM     15  C   UNL     1      40.714  10.047  37.816  1.00  0.00    -0.001 C 
ATOM     16  C   UNL     1      41.203  11.767  39.515  1.00  0.00     0.007 C 
ATOM     17  C   UNL     1      38.911  11.836  38.463  1.00  0.00     0.012 C 
ATOM     18  C   UNL     1      40.343   8.942  38.831  1.00  0.00     0.000 C 
ATOM     19  C   UNL     1      40.847  10.740  40.623  1.00  0.00     0.005 C 
ATOM     20  C   UNL     1      41.025   9.246  40.199  1.00  0.00     0.003 C 
ATOM     21  C   UNL     1      38.838   8.596  38.903  1.00  0.00     0.031 C 
ATOM     22  C   UNL     1      40.624   8.199  41.312  1.00  0.00    -0.008 C 
ATOM     23  C   UNL     1      38.336   8.176  40.256  1.00  0.00    -0.027 C 
ATOM     24  C   UNL     1      39.122   7.943  41.328  1.00  0.00    -0.065 C 
ATOM     25  C   UNL     1      41.298   6.817  41.042  1.00  0.00     0.014 C 
ATOM     26  C   UNL     1      41.099   8.716  42.703  1.00  0.00     0.016 C 
ATOM     27  C   UNL     1      38.615   6.972  42.373  1.00  0.00     0.063 C 
ATOM     28  C   UNL     1      40.831   5.697  42.009  1.00  0.00     0.033 C 
ATOM     29  C   UNL     1      39.291   5.599  42.164  1.00  0.00     0.118 C 
BRANCH  29  30
ATOM     30  O   UNL     1      38.714   4.916  41.077  1.00  0.00    -0.393 OA
ATOM     31  H   UNL     1      39.191   4.054  40.968  1.00  0.00     0.210 HD
ENDBRANCH  29  30
ENDBRANCH   9  11
ENDBRANCH   1   9
TORSDOF 7
ENDMDL
MODEL 9
REMARK VINA RESULT:    -4.427      3.595      8.642
REMARK INTER + INTRA:          -9.103
REMARK INTER:                  -6.985
REMARK INTRA:                  -2.118
REMARK UNBOUND:                -2.994
REMARK SMILES CC[C@H](CC[C@@H](C)[C@H]1CC[C@@H]2[C@@H]3CC=C4C[C@@H](O)CC[C@@]4(C)[C@@H]3CC[C@]21C)C(C)C
REMARK SMILES IDX 5 1 4 2 3 3 2 4 1 5 28 6 29 7 30 8 6 9 7 10 8 11 9 12 26 13
REMARK SMILES IDX 10 14 11 15 25 16 27 17 12 18 24 19 23 20 13 21 21 22 14 23
REMARK SMILES IDX 15 24 20 25 22 26 16 27 19 28 17 29 18 30
REMARK H PARENT 18 31
REMARK Flexibility Score: inf
ROOT
ATOM      1  C   UNL     1      34.958   5.757  40.466  1.00  0.00     0.004 C 
ENDROOT
BRANCH   1   2
ATOM      2  C   UNL     1      33.677   6.314  39.790  1.00  0.00     0.004 C 
BRANCH   2   3
ATOM      3  C   UNL     1      33.929   7.520  38.838  1.00  0.00    -0.009 C 
BRANCH   3   4
ATOM      4  C   UNL     1      33.888   8.864  39.622  1.00  0.00     0.000 C 
ATOM      5  C   UNL     1      32.771   8.993  40.659  1.00  0.00     0.004 C 
ENDBRANCH   3   4
BRANCH   3   6
ATOM      6  C   UNL     1      35.149   7.331  37.866  1.00  0.00    -0.014 C 
ATOM      7  C   UNL     1      35.910   8.621  37.511  1.00  0.00     0.007 C 
ATOM      8  C   UNL     1      34.781   6.553  36.593  1.00  0.00     0.007 C 
ENDBRANCH   3   6
ENDBRANCH   2   3
ENDBRANCH   1   2
BRANCH   1   9
ATOM      9  C   UNL     1      35.183   6.285  41.918  1.00  0.00    -0.011 C 
ATOM     10  C   UNL     1      34.354   5.404  42.881  1.00  0.00     0.008 C 
BRANCH   9  11
ATOM     11  C   UNL     1      36.694   6.276  42.355  1.00  0.00    -0.002 C 
ATOM     12  C   UNL     1      37.483   4.981  41.979  1.00  0.00     0.005 C 
ATOM     13  C   UNL     1      37.612   7.473  41.853  1.00  0.00    -0.026 C 
ATOM     14  C   UNL     1      38.869   5.416  41.517  1.00  0.00     0.005 C 
ATOM     15  C   UNL     1      38.563   6.748  40.878  1.00  0.00    -0.001 C 
ATOM     16  C   UNL     1      36.994   8.643  41.035  1.00  0.00     0.007 C 
ATOM     17  C   UNL     1      38.286   8.071  43.124  1.00  0.00     0.012 C 
ATOM     18  C   UNL     1      39.715   7.564  40.248  1.00  0.00     0.000 C 
ATOM     19  C   UNL     1      38.079   9.563  40.413  1.00  0.00     0.005 C 
ATOM     20  C   UNL     1      39.128   8.814  39.528  1.00  0.00     0.003 C 
ATOM     21  C   UNL     1      40.912   7.840  41.187  1.00  0.00     0.031 C 
ATOM     22  C   UNL     1      40.257   9.743  38.929  1.00  0.00    -0.008 C 
ATOM     23  C   UNL     1      41.621   9.147  40.963  1.00  0.00    -0.027 C 
ATOM     24  C   UNL     1      41.379   9.984  39.931  1.00  0.00    -0.065 C 
ATOM     25  C   UNL     1      40.922   9.075  37.685  1.00  0.00     0.014 C 
ATOM     26  C   UNL     1      39.630  11.098  38.484  1.00  0.00     0.016 C 
ATOM     27  C   UNL     1      42.509  10.882  39.476  1.00  0.00     0.063 C 
ATOM     28  C   UNL     1      42.141   9.859  37.133  1.00  0.00     0.033 C 
ATOM     29  C   UNL     1      43.169  10.273  38.220  1.00  0.00     0.118 C 
BRANCH  29  30
ATOM     30  O   UNL     1      44.005   9.195  38.563  1.00  0.00    -0.393 OA
ATOM     31  H   UNL     1      44.039   9.134  39.552  1.00  0.00     0.210 HD
ENDBRANCH  29  30
ENDBRANCH   9  11
ENDBRANCH   1   9
TORSDOF 7
ENDMDL
