MODEL 1
REMARK VINA RESULT:    18.107      0.000      0.000
REMARK INTER + INTRA:          38.152
REMARK INTER:                  39.277
REMARK INTRA:                  -1.125
REMARK UNBOUND:                -1.125
REMARK SMILES CCCCCCCCCCCCCCCCCCCCCC(=O)[O-]
REMARK SMILES IDX 12 1 11 2 10 3 9 4 8 5 7 6 6 7 5 8 4 9 3 10 2 11 1 12 13 13
REMARK SMILES IDX 14 14 15 15 16 16 17 17 18 18 19 19 20 20 21 21 22 22 23 23
REMARK SMILES IDX 24 24
REMARK H PARENT
REMARK Flexibility Score: inf
ROOT
ATOM      1  C   UNL     1      16.046  15.590  20.225  1.00  0.00     0.000 C 
ENDROOT
BRANCH   1   2
ATOM      2  C   UNL     1      14.762  14.852  20.642  1.00  0.00     0.000 C 
BRANCH   2   3
ATOM      3  C   UNL     1      14.952  13.328  20.707  1.00  0.00     0.000 C 
BRANCH   3   4
ATOM      4  C   UNL     1      13.948  12.567  19.826  1.00  0.00    -0.000 C 
BRANCH   4   5
ATOM      5  C   UNL     1      14.554  11.303  19.190  1.00  0.00    -0.000 C 
BRANCH   5   6
ATOM      6  C   UNL     1      15.397  10.438  20.148  1.00  0.00    -0.000 C 
BRANCH   6   7
ATOM      7  C   UNL     1      16.257   9.354  19.468  1.00  0.00    -0.000 C 
BRANCH   7   8
ATOM      8  C   UNL     1      17.604   9.061  20.154  1.00  0.00    -0.000 C 
BRANCH   8   9
ATOM      9  C   UNL     1      18.766   8.923  19.156  1.00  0.00    -0.000 C 
BRANCH   9  10
ATOM     10  C   UNL     1      19.818  10.031  19.322  1.00  0.00    -0.000 C 
BRANCH  10  11
ATOM     11  C   UNL     1      19.911  10.546  20.765  1.00  0.00    -0.003 C 
ATOM     12  C   UNL     1      20.283  12.025  20.798  1.00  0.00     0.004 C 
ENDBRANCH  10  11
ENDBRANCH   9  10
ENDBRANCH   8   9
ENDBRANCH   7   8
ENDBRANCH   6   7
ENDBRANCH   5   6
ENDBRANCH   4   5
ENDBRANCH   3   4
ENDBRANCH   2   3
ENDBRANCH   1   2
BRANCH   1  13
ATOM     13  C   UNL     1      15.782  16.673  19.166  1.00  0.00     0.000 C 
BRANCH  13  14
ATOM     14  C   UNL     1      16.958  17.656  19.022  1.00  0.00     0.000 C 
BRANCH  14  15
ATOM     15  C   UNL     1      18.223  17.172  19.749  1.00  0.00     0.000 C 
BRANCH  15  16
ATOM     16  C   UNL     1      18.567  18.027  20.981  1.00  0.00     0.000 C 
BRANCH  16  17
ATOM     17  C   UNL     1      20.048  18.435  21.016  1.00  0.00     0.000 C 
BRANCH  17  18
ATOM     18  C   UNL     1      20.785  18.089  19.711  1.00  0.00     0.000 C 
BRANCH  18  19
ATOM     19  C   UNL     1      22.175  17.473  19.954  1.00  0.00     0.000 C 
BRANCH  19  20
ATOM     20  C   UNL     1      23.096  18.294  20.874  1.00  0.00     0.006 C 
BRANCH  20  21
ATOM     21  C   UNL     1      24.405  17.570  21.215  1.00  0.00     0.053 C 
BRANCH  21  22
ATOM     22  C   UNL     1      25.034  18.169  22.432  1.00  0.00     0.041 C 
ATOM     23  O   UNL     1      25.157  19.419  22.533  1.00  0.00    -0.550 OA
ATOM     24  O   UNL     1      25.519  17.346  23.441  1.00  0.00    -0.550 OA
ENDBRANCH  21  22
ENDBRANCH  20  21
ENDBRANCH  19  20
ENDBRANCH  18  19
ENDBRANCH  17  18
ENDBRANCH  16  17
ENDBRANCH  15  16
ENDBRANCH  14  15
ENDBRANCH  13  14
ENDBRANCH   1  13
TORSDOF 20
ENDMDL
MODEL 2
REMARK VINA RESULT:    18.152      2.801      8.505
REMARK INTER + INTRA:          38.251
REMARK INTER:                  39.390
REMARK INTRA:                  -1.139
REMARK UNBOUND:                -1.125
REMARK SMILES CCCCCCCCCCCCCCCCCCCCCC(=O)[O-]
REMARK SMILES IDX 12 1 11 2 10 3 9 4 8 5 7 6 6 7 5 8 4 9 3 10 2 11 1 12 13 13
REMARK SMILES IDX 14 14 15 15 16 16 17 17 18 18 19 19 20 20 21 21 22 22 23 23
REMARK SMILES IDX 24 24
REMARK H PARENT
REMARK Flexibility Score: inf
ROOT
ATOM      1  C   UNL     1      15.679  16.664  19.288  1.00  0.00     0.000 C 
ENDROOT
BRANCH   1   2
ATOM      2  C   UNL     1      16.884  17.597  19.072  1.00  0.00     0.000 C 
BRANCH   2   3
ATOM      3  C   UNL     1      18.120  17.159  19.874  1.00  0.00     0.000 C 
BRANCH   3   4
ATOM      4  C   UNL     1      18.524  18.184  20.947  1.00  0.00    -0.000 C 
BRANCH   4   5
ATOM      5  C   UNL     1      20.045  18.406  21.013  1.00  0.00    -0.000 C 
BRANCH   5   6
ATOM      6  C   UNL     1      20.809  18.040  19.724  1.00  0.00    -0.000 C 
BRANCH   6   7
ATOM      7  C   UNL     1      22.346  18.047  19.848  1.00  0.00    -0.000 C 
BRANCH   7   8
ATOM      8  C   UNL     1      22.900  17.409  21.136  1.00  0.00    -0.000 C 
BRANCH   8   9
ATOM      9  C   UNL     1      24.417  17.607  21.295  1.00  0.00    -0.000 C 
BRANCH   9  10
ATOM     10  C   UNL     1      24.776  19.006  21.819  1.00  0.00    -0.000 C 
BRANCH  10  11
ATOM     11  C   UNL     1      25.183  18.997  23.299  1.00  0.00    -0.003 C 
ATOM     12  C   UNL     1      25.820  17.666  23.686  1.00  0.00     0.004 C 
ENDBRANCH  10  11
ENDBRANCH   9  10
ENDBRANCH   8   9
ENDBRANCH   7   8
ENDBRANCH   6   7
ENDBRANCH   5   6
ENDBRANCH   4   5
ENDBRANCH   3   4
ENDBRANCH   2   3
ENDBRANCH   1   2
BRANCH   1  13
ATOM     13  C   UNL     1      16.024  15.455  20.174  1.00  0.00     0.000 C 
BRANCH  13  14
ATOM     14  C   UNL     1      14.772  14.712  20.672  1.00  0.00     0.000 C 
BRANCH  14  15
ATOM     15  C   UNL     1      14.973  13.189  20.724  1.00  0.00     0.000 C 
BRANCH  15  16
ATOM     16  C   UNL     1      13.989  12.427  19.817  1.00  0.00     0.000 C 
BRANCH  16  17
ATOM     17  C   UNL     1      14.660  11.261  19.074  1.00  0.00     0.000 C 
BRANCH  17  18
ATOM     18  C   UNL     1      15.278  10.230  20.034  1.00  0.00     0.000 C 
BRANCH  18  19
ATOM     19  C   UNL     1      16.498   9.508  19.433  1.00  0.00     0.000 C 
BRANCH  19  20
ATOM     20  C   UNL     1      17.722   9.422  20.362  1.00  0.00     0.006 C 
BRANCH  20  21
ATOM     21  C   UNL     1      19.044   9.263  19.600  1.00  0.00     0.053 C 
BRANCH  21  22
ATOM     22  C   UNL     1      20.002  10.347  19.981  1.00  0.00     0.041 C 
ATOM     23  O   UNL     1      19.884  10.940  21.086  1.00  0.00    -0.550 OA
ATOM     24  O   UNL     1      21.006  10.729  19.099  1.00  0.00    -0.550 OA
ENDBRANCH  21  22
ENDBRANCH  20  21
ENDBRANCH  19  20
ENDBRANCH  18  19
ENDBRANCH  17  18
ENDBRANCH  16  17
ENDBRANCH  15  16
ENDBRANCH  14  15
ENDBRANCH  13  14
ENDBRANCH   1  13
TORSDOF 20
ENDMDL
MODEL 3
REMARK VINA RESULT:    18.155      4.238      6.753
REMARK INTER + INTRA:          38.258
REMARK INTER:                  38.913
REMARK INTRA:                  -0.656
REMARK UNBOUND:                -1.125
REMARK SMILES CCCCCCCCCCCCCCCCCCCCCC(=O)[O-]
REMARK SMILES IDX 12 1 11 2 10 3 9 4 8 5 7 6 6 7 5 8 4 9 3 10 2 11 1 12 13 13
REMARK SMILES IDX 14 14 15 15 16 16 17 17 18 18 19 19 20 20 21 21 22 22 23 23
REMARK SMILES IDX 24 24
REMARK H PARENT
REMARK Flexibility Score: inf
ROOT
ATOM      1  C   UNL     1      18.887  18.258  21.160  1.00  0.00     0.000 C 
ENDROOT
BRANCH   1   2
ATOM      2  C   UNL     1      18.325  17.567  19.905  1.00  0.00     0.000 C 
BRANCH   2   3
ATOM      3  C   UNL     1      17.409  16.381  20.245  1.00  0.00     0.000 C 
BRANCH   3   4
ATOM      4  C   UNL     1      16.030  16.484  19.572  1.00  0.00    -0.000 C 
BRANCH   4   5
ATOM      5  C   UNL     1      15.926  17.684  18.613  1.00  0.00    -0.000 C 
BRANCH   5   6
ATOM      6  C   UNL     1      16.983  17.708  17.490  1.00  0.00    -0.000 C 
BRANCH   6   7
ATOM      7  C   UNL     1      16.417  17.805  16.059  1.00  0.00    -0.000 C 
BRANCH   7   8
ATOM      8  C   UNL     1      17.203  17.021  14.991  1.00  0.00    -0.000 C 
BRANCH   8   9
ATOM      9  C   UNL     1      18.105  17.923  14.131  1.00  0.00    -0.000 C 
BRANCH   9  10
ATOM     10  C   UNL     1      17.483  19.304  13.875  1.00  0.00    -0.000 C 
BRANCH  10  11
ATOM     11  C   UNL     1      18.258  20.438  14.563  1.00  0.00    -0.003 C 
ATOM     12  C   UNL     1      19.741  20.382  14.211  1.00  0.00     0.004 C 
ENDBRANCH  10  11
ENDBRANCH   9  10
ENDBRANCH   8   9
ENDBRANCH   7   8
ENDBRANCH   6   7
ENDBRANCH   5   6
ENDBRANCH   4   5
ENDBRANCH   3   4
ENDBRANCH   2   3
ENDBRANCH   1   2
BRANCH   1  13
ATOM     13  C   UNL     1      20.386  18.576  21.033  1.00  0.00     0.000 C 
BRANCH  13  14
ATOM     14  C   UNL     1      21.043  17.851  19.845  1.00  0.00     0.000 C 
BRANCH  14  15
ATOM     15  C   UNL     1      22.567  17.722  20.004  1.00  0.00     0.000 C 
BRANCH  15  16
ATOM     16  C   UNL     1      23.083  18.335  21.318  1.00  0.00     0.000 C 
BRANCH  16  17
ATOM     17  C   UNL     1      24.322  17.603  21.858  1.00  0.00     0.000 C 
BRANCH  17  18
ATOM     18  C   UNL     1      24.989  18.356  23.022  1.00  0.00     0.000 C 
BRANCH  18  19
ATOM     19  C   UNL     1      25.311  19.822  22.682  1.00  0.00     0.000 C 
BRANCH  19  20
ATOM     20  C   UNL     1      24.356  20.856  23.306  1.00  0.00     0.006 C 
BRANCH  20  21
ATOM     21  C   UNL     1      23.545  20.293  24.481  1.00  0.00     0.053 C 
BRANCH  21  22
ATOM     22  C   UNL     1      22.103  20.666  24.349  1.00  0.00     0.041 C 
ATOM     23  O   UNL     1      21.213  19.775  24.348  1.00  0.00    -0.550 OA
ATOM     24  O   UNL     1      21.742  21.999  24.191  1.00  0.00    -0.550 OA
ENDBRANCH  21  22
ENDBRANCH  20  21
ENDBRANCH  19  20
ENDBRANCH  18  19
ENDBRANCH  17  18
ENDBRANCH  16  17
ENDBRANCH  15  16
ENDBRANCH  14  15
ENDBRANCH  13  14
ENDBRANCH   1  13
TORSDOF 20
ENDMDL
MODEL 4
REMARK VINA RESULT:    18.265      4.123      8.701
REMARK INTER + INTRA:          38.497
REMARK INTER:                  38.484
REMARK INTRA:                   0.012
REMARK UNBOUND:                -1.125
REMARK SMILES CCCCCCCCCCCCCCCCCCCCCC(=O)[O-]
REMARK SMILES IDX 12 1 11 2 10 3 9 4 8 5 7 6 6 7 5 8 4 9 3 10 2 11 1 12 13 13
REMARK SMILES IDX 14 14 15 15 16 16 17 17 18 18 19 19 20 20 21 21 22 22 23 23
REMARK SMILES IDX 24 24
REMARK H PARENT
REMARK Flexibility Score: inf
ROOT
ATOM      1  C   UNL     1      15.613  15.646  20.273  1.00  0.00     0.000 C 
ENDROOT
BRANCH   1   2
ATOM      2  C   UNL     1      17.026  16.156  19.937  1.00  0.00     0.000 C 
BRANCH   2   3
ATOM      3  C   UNL     1      17.012  17.548  19.286  1.00  0.00     0.000 C 
BRANCH   3   4
ATOM      4  C   UNL     1      15.952  17.675  18.179  1.00  0.00    -0.000 C 
BRANCH   4   5
ATOM      5  C   UNL     1      16.555  18.080  16.823  1.00  0.00    -0.000 C 
BRANCH   5   6
ATOM      6  C   UNL     1      15.894  17.419  15.597  1.00  0.00    -0.000 C 
BRANCH   6   7
ATOM      7  C   UNL     1      16.854  16.641  14.674  1.00  0.00    -0.000 C 
BRANCH   7   8
ATOM      8  C   UNL     1      17.902  17.502  13.945  1.00  0.00    -0.000 C 
BRANCH   8   9
ATOM      9  C   UNL     1      18.431  18.659  14.809  1.00  0.00    -0.000 C 
BRANCH   9  10
ATOM     10  C   UNL     1      18.231  20.029  14.142  1.00  0.00    -0.000 C 
BRANCH  10  11
ATOM     11  C   UNL     1      19.490  20.906  14.202  1.00  0.00    -0.003 C 
ATOM     12  C   UNL     1      19.164  22.360  13.879  1.00  0.00     0.004 C 
ENDBRANCH  10  11
ENDBRANCH   9  10
ENDBRANCH   8   9
ENDBRANCH   7   8
ENDBRANCH   6   7
ENDBRANCH   5   6
ENDBRANCH   4   5
ENDBRANCH   3   4
ENDBRANCH   2   3
ENDBRANCH   1   2
BRANCH   1  13
ATOM     13  C   UNL     1      15.458  14.138  20.018  1.00  0.00     0.000 C 
BRANCH  13  14
ATOM     14  C   UNL     1      14.185  13.559  20.662  1.00  0.00     0.000 C 
BRANCH  14  15
ATOM     15  C   UNL     1      13.637  12.345  19.895  1.00  0.00     0.000 C 
BRANCH  15  16
ATOM     16  C   UNL     1      14.749  11.486  19.266  1.00  0.00     0.000 C 
BRANCH  16  17
ATOM     17  C   UNL     1      15.789  11.024  20.299  1.00  0.00     0.000 C 
BRANCH  17  18
ATOM     18  C   UNL     1      16.002   9.501  20.280  1.00  0.00     0.000 C 
BRANCH  18  19
ATOM     19  C   UNL     1      16.726   9.014  19.012  1.00  0.00     0.000 C 
BRANCH  19  20
ATOM     20  C   UNL     1      18.263   9.061  19.085  1.00  0.00     0.006 C 
BRANCH  20  21
ATOM     21  C   UNL     1      18.786   9.437  20.477  1.00  0.00     0.053 C 
BRANCH  21  22
ATOM     22  C   UNL     1      19.847  10.486  20.372  1.00  0.00     0.041 C 
ATOM     23  O   UNL     1      20.610  10.520  19.370  1.00  0.00    -0.550 OA
ATOM     24  O   UNL     1      20.019  11.407  21.399  1.00  0.00    -0.550 OA
ENDBRANCH  21  22
ENDBRANCH  20  21
ENDBRANCH  19  20
ENDBRANCH  18  19
ENDBRANCH  17  18
ENDBRANCH  16  17
ENDBRANCH  15  16
ENDBRANCH  14  15
ENDBRANCH  13  14
ENDBRANCH   1  13
TORSDOF 20
ENDMDL
MODEL 5
REMARK VINA RESULT:    18.299      3.130      9.154
REMARK INTER + INTRA:          38.570
REMARK INTER:                  39.589
REMARK INTRA:                  -1.019
REMARK UNBOUND:                -1.125
REMARK SMILES CCCCCCCCCCCCCCCCCCCCCC(=O)[O-]
REMARK SMILES IDX 12 1 11 2 10 3 9 4 8 5 7 6 6 7 5 8 4 9 3 10 2 11 1 12 13 13
REMARK SMILES IDX 14 14 15 15 16 16 17 17 18 18 19 19 20 20 21 21 22 22 23 23
REMARK SMILES IDX 24 24
REMARK H PARENT
REMARK Flexibility Score: inf
ROOT
ATOM      1  C   UNL     1      16.392  17.023  19.218  1.00  0.00     0.000 C 
ENDROOT
BRANCH   1   2
ATOM      2  C   UNL     1      17.724  17.774  19.396  1.00  0.00     0.000 C 
BRANCH   2   3
ATOM      3  C   UNL     1      18.390  17.481  20.750  1.00  0.00     0.000 C 
BRANCH   3   4
ATOM      4  C   UNL     1      19.512  18.477  21.087  1.00  0.00    -0.000 C 
BRANCH   4   5
ATOM      5  C   UNL     1      19.762  18.600  22.601  1.00  0.00    -0.000 C 
BRANCH   5   6
ATOM      6  C   UNL     1      21.136  19.187  22.984  1.00  0.00    -0.000 C 
BRANCH   6   7
ATOM      7  C   UNL     1      21.100  20.281  24.070  1.00  0.00    -0.000 C 
BRANCH   7   8
ATOM      8  C   UNL     1      22.429  20.505  24.816  1.00  0.00    -0.000 C 
BRANCH   8   9
ATOM      9  C   UNL     1      23.595  20.846  23.872  1.00  0.00    -0.000 C 
BRANCH   9  10
ATOM     10  C   UNL     1      24.601  19.692  23.741  1.00  0.00    -0.000 C 
BRANCH  10  11
ATOM     11  C   UNL     1      25.037  19.450  22.289  1.00  0.00    -0.003 C 
ATOM     12  C   UNL     1      24.380  18.197  21.719  1.00  0.00     0.004 C 
ENDBRANCH  10  11
ENDBRANCH   9  10
ENDBRANCH   8   9
ENDBRANCH   7   8
ENDBRANCH   6   7
ENDBRANCH   5   6
ENDBRANCH   4   5
ENDBRANCH   3   4
ENDBRANCH   2   3
ENDBRANCH   1   2
BRANCH   1  13
ATOM     13  C   UNL     1      16.207  15.904  20.256  1.00  0.00     0.000 C 
BRANCH  13  14
ATOM     14  C   UNL     1      14.931  15.078  20.012  1.00  0.00     0.000 C 
BRANCH  14  15
ATOM     15  C   UNL     1      14.982  13.700  20.691  1.00  0.00     0.000 C 
BRANCH  15  16
ATOM     16  C   UNL     1      13.983  12.699  20.084  1.00  0.00     0.000 C 
BRANCH  16  17
ATOM     17  C   UNL     1      14.683  11.545  19.350  1.00  0.00     0.000 C 
BRANCH  17  18
ATOM     18  C   UNL     1      15.791  10.895  20.196  1.00  0.00     0.000 C 
BRANCH  18  19
ATOM     19  C   UNL     1      16.072   9.436  19.796  1.00  0.00     0.000 C 
BRANCH  19  20
ATOM     20  C   UNL     1      17.543   9.128  19.461  1.00  0.00     0.006 C 
BRANCH  20  21
ATOM     21  C   UNL     1      18.496   9.406  20.630  1.00  0.00     0.053 C 
BRANCH  21  22
ATOM     22  C   UNL     1      19.613  10.300  20.194  1.00  0.00     0.041 C 
ATOM     23  O   UNL     1      20.282  10.025  19.163  1.00  0.00    -0.550 OA
ATOM     24  O   UNL     1      19.940  11.421  20.947  1.00  0.00    -0.550 OA
ENDBRANCH  21  22
ENDBRANCH  20  21
ENDBRANCH  19  20
ENDBRANCH  18  19
ENDBRANCH  17  18
ENDBRANCH  16  17
ENDBRANCH  15  16
ENDBRANCH  14  15
ENDBRANCH  13  14
ENDBRANCH   1  13
TORSDOF 20
ENDMDL
MODEL 6
REMARK VINA RESULT:    18.535      1.843      2.297
REMARK INTER + INTRA:          39.081
REMARK INTER:                  40.196
REMARK INTRA:                  -1.116
REMARK UNBOUND:                -1.125
REMARK SMILES CCCCCCCCCCCCCCCCCCCCCC(=O)[O-]
REMARK SMILES IDX 12 1 11 2 10 3 9 4 8 5 7 6 6 7 5 8 4 9 3 10 2 11 1 12 13 13
REMARK SMILES IDX 14 14 15 15 16 16 17 17 18 18 19 19 20 20 21 21 22 22 23 23
REMARK SMILES IDX 24 24
REMARK H PARENT
REMARK Flexibility Score: inf
ROOT
ATOM      1  C   UNL     1      16.205  15.608  20.174  1.00  0.00     0.000 C 
ENDROOT
BRANCH   1   2
ATOM      2  C   UNL     1      14.878  14.933  20.567  1.00  0.00     0.000 C 
BRANCH   2   3
ATOM      3  C   UNL     1      15.010  13.408  20.700  1.00  0.00     0.000 C 
BRANCH   3   4
ATOM      4  C   UNL     1      13.961  12.648  19.870  1.00  0.00    -0.000 C 
BRANCH   4   5
ATOM      5  C   UNL     1      14.512  11.342  19.269  1.00  0.00    -0.000 C 
BRANCH   5   6
ATOM      6  C   UNL     1      15.660  10.695  20.069  1.00  0.00    -0.000 C 
BRANCH   6   7
ATOM      7  C   UNL     1      15.816   9.173  19.877  1.00  0.00    -0.000 C 
BRANCH   7   8
ATOM      8  C   UNL     1      17.148   8.726  19.247  1.00  0.00    -0.000 C 
BRANCH   8   9
ATOM      9  C   UNL     1      18.376   9.261  20.004  1.00  0.00    -0.000 C 
BRANCH   9  10
ATOM     10  C   UNL     1      19.556   9.566  19.067  1.00  0.00    -0.000 C 
BRANCH  10  11
ATOM     11  C   UNL     1      20.533  10.591  19.663  1.00  0.00    -0.003 C 
ATOM     12  C   UNL     1      19.971  11.210  20.938  1.00  0.00     0.004 C 
ENDBRANCH  10  11
ENDBRANCH   9  10
ENDBRANCH   8   9
ENDBRANCH   7   8
ENDBRANCH   6   7
ENDBRANCH   5   6
ENDBRANCH   4   5
ENDBRANCH   3   4
ENDBRANCH   2   3
ENDBRANCH   1   2
BRANCH   1  13
ATOM     13  C   UNL     1      16.007  16.731  19.142  1.00  0.00     0.000 C 
BRANCH  13  14
ATOM     14  C   UNL     1      16.796  18.004  19.497  1.00  0.00     0.000 C 
BRANCH  14  15
ATOM     15  C   UNL     1      18.002  17.715  20.405  1.00  0.00     0.000 C 
BRANCH  15  16
ATOM     16  C   UNL     1      19.340  17.740  19.645  1.00  0.00     0.000 C 
BRANCH  16  17
ATOM     17  C   UNL     1      20.515  18.162  20.541  1.00  0.00     0.000 C 
BRANCH  17  18
ATOM     18  C   UNL     1      20.119  18.262  22.023  1.00  0.00     0.000 C 
BRANCH  18  19
ATOM     19  C   UNL     1      20.402  19.649  22.628  1.00  0.00     0.000 C 
BRANCH  19  20
ATOM     20  C   UNL     1      21.014  19.627  24.040  1.00  0.00     0.006 C 
BRANCH  20  21
ATOM     21  C   UNL     1      21.576  20.988  24.471  1.00  0.00     0.053 C 
BRANCH  21  22
ATOM     22  C   UNL     1      23.062  20.917  24.623  1.00  0.00     0.041 C 
ATOM     23  O   UNL     1      23.574  20.226  25.544  1.00  0.00    -0.550 OA
ATOM     24  O   UNL     1      23.884  21.643  23.770  1.00  0.00    -0.550 OA
ENDBRANCH  21  22
ENDBRANCH  20  21
ENDBRANCH  19  20
ENDBRANCH  18  19
ENDBRANCH  17  18
ENDBRANCH  16  17
ENDBRANCH  15  16
ENDBRANCH  14  15
ENDBRANCH  13  14
ENDBRANCH   1  13
TORSDOF 20
ENDMDL
MODEL 7
REMARK VINA RESULT:    18.579      3.006      8.613
REMARK INTER + INTRA:          39.176
REMARK INTER:                  39.497
REMARK INTRA:                  -0.321
REMARK UNBOUND:                -1.125
REMARK SMILES CCCCCCCCCCCCCCCCCCCCCC(=O)[O-]
REMARK SMILES IDX 12 1 11 2 10 3 9 4 8 5 7 6 6 7 5 8 4 9 3 10 2 11 1 12 13 13
REMARK SMILES IDX 14 14 15 15 16 16 17 17 18 18 19 19 20 20 21 21 22 22 23 23
REMARK SMILES IDX 24 24
REMARK H PARENT
REMARK Flexibility Score: inf
ROOT
ATOM      1  C   UNL     1      15.795  15.331  20.220  1.00  0.00     0.000 C 
ENDROOT
BRANCH   1   2
ATOM      2  C   UNL     1      15.550  16.437  19.179  1.00  0.00     0.000 C 
BRANCH   2   3
ATOM      3  C   UNL     1      16.630  17.529  19.213  1.00  0.00     0.000 C 
BRANCH   3   4
ATOM      4  C   UNL     1      17.725  17.247  20.256  1.00  0.00    -0.000 C 
BRANCH   4   5
ATOM      5  C   UNL     1      19.145  17.375  19.675  1.00  0.00    -0.000 C 
BRANCH   5   6
ATOM      6  C   UNL     1      20.113  18.232  20.516  1.00  0.00    -0.000 C 
BRANCH   6   7
ATOM      7  C   UNL     1      19.475  18.946  21.725  1.00  0.00    -0.000 C 
BRANCH   7   8
ATOM      8  C   UNL     1      20.165  18.687  23.077  1.00  0.00    -0.000 C 
BRANCH   8   9
ATOM      9  C   UNL     1      21.402  19.574  23.298  1.00  0.00    -0.000 C 
BRANCH   9  10
ATOM     10  C   UNL     1      21.223  20.549  24.471  1.00  0.00    -0.000 C 
BRANCH  10  11
ATOM     11  C   UNL     1      22.525  21.276  24.839  1.00  0.00    -0.003 C 
ATOM     12  C   UNL     1      23.670  20.287  25.037  1.00  0.00     0.004 C 
ENDBRANCH  10  11
ENDBRANCH   9  10
ENDBRANCH   8   9
ENDBRANCH   7   8
ENDBRANCH   6   7
ENDBRANCH   5   6
ENDBRANCH   4   5
ENDBRANCH   3   4
ENDBRANCH   2   3
ENDBRANCH   1   2
BRANCH   1  13
ATOM     13  C   UNL     1      14.503  14.588  20.602  1.00  0.00     0.000 C 
BRANCH  13  14
ATOM     14  C   UNL     1      14.705  13.066  20.696  1.00  0.00     0.000 C 
BRANCH  14  15
ATOM     15  C   UNL     1      13.954  12.302  19.594  1.00  0.00     0.000 C 
BRANCH  15  16
ATOM     16  C   UNL     1      14.775  11.140  19.008  1.00  0.00     0.000 C 
BRANCH  16  17
ATOM     17  C   UNL     1      15.608  10.414  20.076  1.00  0.00     0.000 C 
BRANCH  17  18
ATOM     18  C   UNL     1      16.532   9.342  19.475  1.00  0.00     0.000 C 
BRANCH  18  19
ATOM     19  C   UNL     1      17.900   9.268  20.175  1.00  0.00     0.000 C 
BRANCH  19  20
ATOM     20  C   UNL     1      19.095   9.013  19.238  1.00  0.00     0.006 C 
BRANCH  20  21
ATOM     21  C   UNL     1      20.090  10.181  19.202  1.00  0.00     0.053 C 
BRANCH  21  22
ATOM     22  C   UNL     1      20.041  10.950  20.484  1.00  0.00     0.041 C 
ATOM     23  O   UNL     1      19.829  10.356  21.574  1.00  0.00    -0.550 OA
ATOM     24  O   UNL     1      20.194  12.332  20.471  1.00  0.00    -0.550 OA
ENDBRANCH  21  22
ENDBRANCH  20  21
ENDBRANCH  19  20
ENDBRANCH  18  19
ENDBRANCH  17  18
ENDBRANCH  16  17
ENDBRANCH  15  16
ENDBRANCH  14  15
ENDBRANCH  13  14
ENDBRANCH   1  13
TORSDOF 20
ENDMDL
MODEL 8
REMARK VINA RESULT:    18.802      2.946      8.949
REMARK INTER + INTRA:          39.660
REMARK INTER:                  40.732
REMARK INTRA:                  -1.072
REMARK UNBOUND:                -1.125
REMARK SMILES CCCCCCCCCCCCCCCCCCCCCC(=O)[O-]
REMARK SMILES IDX 12 1 11 2 10 3 9 4 8 5 7 6 6 7 5 8 4 9 3 10 2 11 1 12 13 13
REMARK SMILES IDX 14 14 15 15 16 16 17 17 18 18 19 19 20 20 21 21 22 22 23 23
REMARK SMILES IDX 24 24
REMARK H PARENT
REMARK Flexibility Score: inf
ROOT
ATOM      1  C   UNL     1      16.347  16.761  19.144  1.00  0.00     0.000 C 
ENDROOT
BRANCH   1   2
ATOM      2  C   UNL     1      17.542  17.722  19.279  1.00  0.00     0.000 C 
BRANCH   2   3
ATOM      3  C   UNL     1      18.386  17.441  20.533  1.00  0.00     0.000 C 
BRANCH   3   4
ATOM      4  C   UNL     1      19.680  18.271  20.575  1.00  0.00    -0.000 C 
BRANCH   4   5
ATOM      5  C   UNL     1      20.900  17.494  20.049  1.00  0.00    -0.000 C 
BRANCH   5   6
ATOM      6  C   UNL     1      22.228  18.278  20.078  1.00  0.00    -0.000 C 
BRANCH   6   7
ATOM      7  C   UNL     1      23.192  17.892  21.218  1.00  0.00    -0.000 C 
BRANCH   7   8
ATOM      8  C   UNL     1      24.627  18.432  21.072  1.00  0.00    -0.000 C 
BRANCH   8   9
ATOM      9  C   UNL     1      25.065  19.296  22.266  1.00  0.00    -0.000 C 
BRANCH   9  10
ATOM     10  C   UNL     1      24.010  19.336  23.382  1.00  0.00    -0.000 C 
BRANCH  10  11
ATOM     11  C   UNL     1      23.665  20.767  23.820  1.00  0.00    -0.003 C 
ATOM     12  C   UNL     1      22.399  20.792  24.671  1.00  0.00     0.004 C 
ENDBRANCH  10  11
ENDBRANCH   9  10
ENDBRANCH   8   9
ENDBRANCH   7   8
ENDBRANCH   6   7
ENDBRANCH   5   6
ENDBRANCH   4   5
ENDBRANCH   3   4
ENDBRANCH   2   3
ENDBRANCH   1   2
BRANCH   1  13
ATOM     13  C   UNL     1      16.388  15.626  20.180  1.00  0.00     0.000 C 
BRANCH  13  14
ATOM     14  C   UNL     1      14.987  15.084  20.516  1.00  0.00     0.000 C 
BRANCH  14  15
ATOM     15  C   UNL     1      14.985  13.566  20.758  1.00  0.00     0.000 C 
BRANCH  15  16
ATOM     16  C   UNL     1      14.014  12.816  19.828  1.00  0.00     0.000 C 
BRANCH  16  17
ATOM     17  C   UNL     1      14.624  11.523  19.264  1.00  0.00     0.000 C 
BRANCH  17  18
ATOM     18  C   UNL     1      15.567  10.832  20.264  1.00  0.00     0.000 C 
BRANCH  18  19
ATOM     19  C   UNL     1      16.226   9.565  19.690  1.00  0.00     0.000 C 
BRANCH  19  20
ATOM     20  C   UNL     1      17.553   9.165  20.360  1.00  0.00     0.006 C 
BRANCH  20  21
ATOM     21  C   UNL     1      18.762   9.297  19.424  1.00  0.00     0.053 C 
BRANCH  21  22
ATOM     22  C   UNL     1      19.788  10.206  20.019  1.00  0.00     0.041 C 
ATOM     23  O   UNL     1      19.645  10.646  21.191  1.00  0.00    -0.550 OA
ATOM     24  O   UNL     1      20.889  10.599  19.267  1.00  0.00    -0.550 OA
ENDBRANCH  21  22
ENDBRANCH  20  21
ENDBRANCH  19  20
ENDBRANCH  18  19
ENDBRANCH  17  18
ENDBRANCH  16  17
ENDBRANCH  15  16
ENDBRANCH  14  15
ENDBRANCH  13  14
ENDBRANCH   1  13
TORSDOF 20
ENDMDL
MODEL 9
REMARK VINA RESULT:    19.142      1.691      2.670
REMARK INTER + INTRA:          40.398
REMARK INTER:                  41.192
REMARK INTRA:                  -0.795
REMARK UNBOUND:                -1.125
REMARK SMILES CCCCCCCCCCCCCCCCCCCCCC(=O)[O-]
REMARK SMILES IDX 12 1 11 2 10 3 9 4 8 5 7 6 6 7 5 8 4 9 3 10 2 11 1 12 13 13
REMARK SMILES IDX 14 14 15 15 16 16 17 17 18 18 19 19 20 20 21 21 22 22 23 23
REMARK SMILES IDX 24 24
REMARK H PARENT
REMARK Flexibility Score: inf
ROOT
ATOM      1  C   UNL     1      16.982  17.193  19.321  1.00  0.00     0.000 C 
ENDROOT
BRANCH   1   2
ATOM      2  C   UNL     1      15.955  16.491  20.227  1.00  0.00     0.000 C 
BRANCH   2   3
ATOM      3  C   UNL     1      15.363  15.229  19.580  1.00  0.00     0.000 C 
BRANCH   3   4
ATOM      4  C   UNL     1      15.206  14.069  20.577  1.00  0.00    -0.000 C 
BRANCH   4   5
ATOM      5  C   UNL     1      14.067  13.107  20.195  1.00  0.00    -0.000 C 
BRANCH   5   6
ATOM      6  C   UNL     1      14.525  11.789  19.540  1.00  0.00    -0.000 C 
BRANCH   6   7
ATOM      7  C   UNL     1      15.625  11.024  20.305  1.00  0.00    -0.000 C 
BRANCH   7   8
ATOM      8  C   UNL     1      15.946   9.621  19.759  1.00  0.00    -0.000 C 
BRANCH   8   9
ATOM      9  C   UNL     1      17.348   9.131  20.159  1.00  0.00    -0.000 C 
BRANCH   9  10
ATOM     10  C   UNL     1      18.390   9.362  19.053  1.00  0.00    -0.000 C 
BRANCH  10  11
ATOM     11  C   UNL     1      19.792   9.647  19.611  1.00  0.00    -0.003 C 
ATOM     12  C   UNL     1      19.748  10.737  20.677  1.00  0.00     0.004 C 
ENDBRANCH  10  11
ENDBRANCH   9  10
ENDBRANCH   8   9
ENDBRANCH   7   8
ENDBRANCH   6   7
ENDBRANCH   5   6
ENDBRANCH   4   5
ENDBRANCH   3   4
ENDBRANCH   2   3
ENDBRANCH   1   2
BRANCH   1  13
ATOM     13  C   UNL     1      18.396  17.192  19.926  1.00  0.00     0.000 C 
BRANCH  13  14
ATOM     14  C   UNL     1      18.721  18.502  20.665  1.00  0.00     0.000 C 
BRANCH  14  15
ATOM     15  C   UNL     1      19.634  18.281  21.882  1.00  0.00     0.000 C 
BRANCH  15  16
ATOM     16  C   UNL     1      20.056  19.598  22.558  1.00  0.00     0.000 C 
BRANCH  16  17
ATOM     17  C   UNL     1      21.318  19.436  23.419  1.00  0.00     0.000 C 
BRANCH  17  18
ATOM     18  C   UNL     1      21.510  20.599  24.407  1.00  0.00     0.000 C 
BRANCH  18  19
ATOM     19  C   UNL     1      22.978  21.046  24.530  1.00  0.00     0.000 C 
BRANCH  19  20
ATOM     20  C   UNL     1      24.013  19.917  24.375  1.00  0.00     0.006 C 
BRANCH  20  21
ATOM     21  C   UNL     1      24.652  19.876  22.981  1.00  0.00     0.053 C 
BRANCH  21  22
ATOM     22  C   UNL     1      24.874  18.462  22.547  1.00  0.00     0.041 C 
ATOM     23  O   UNL     1      24.430  18.060  21.439  1.00  0.00    -0.550 OA
ATOM     24  O   UNL     1      25.540  17.574  23.383  1.00  0.00    -0.550 OA
ENDBRANCH  21  22
ENDBRANCH  20  21
ENDBRANCH  19  20
ENDBRANCH  18  19
ENDBRANCH  17  18
ENDBRANCH  16  17
ENDBRANCH  15  16
ENDBRANCH  14  15
ENDBRANCH  13  14
ENDBRANCH   1  13
TORSDOF 20
ENDMDL
