MODEL 1
REMARK VINA RESULT:    -5.891      0.000      0.000
REMARK INTER + INTRA:          -6.176
REMARK INTER:                  -6.408
REMARK INTRA:                   0.232
REMARK UNBOUND:                 0.232
REMARK SMILES CC1(C)CC[C@@]2(C(=O)[O-])CC[C@@]3(C)C(=CC[C@@H]4[C@@]5(C)CC[C@@H](O)C(C)(C)[C@@H]5CC[C@@]43C)[C@@H]2C1
REMARK SMILES IDX 6 1 5 2 10 3 32 4 4 5 11 6 14 7 33 8 2 9 12 10 15 11 1 12
REMARK SMILES IDX 3 13 13 14 30 15 16 16 17 17 29 18 31 19 18 20 28 21 27 22
REMARK SMILES IDX 20 23 19 24 24 25 21 26 22 27 25 28 26 29 7 30 8 31 9 32
REMARK SMILES IDX 23 33
REMARK H PARENT 23 34
REMARK Flexibility Score: inf
ROOT
ATOM      1  C   UNL     1       5.836  26.316  59.470  1.00  0.00     0.017 C 
ATOM      2  C   UNL     1       6.181  25.975  57.993  1.00  0.00     0.014 C 
ATOM      3  C   UNL     1       6.813  25.541  60.390  1.00  0.00     0.014 C 
ATOM      4  C   UNL     1       6.045  27.843  59.712  1.00  0.00     0.028 C 
ATOM      5  C   UNL     1       5.391  26.824  56.985  1.00  0.00     0.007 C 
ATOM      6  C   UNL     1       6.608  25.892  61.881  1.00  0.00     0.013 C 
ATOM      7  C   UNL     1       5.832  28.198  61.208  1.00  0.00    -0.064 C 
ATOM      8  C   UNL     1       5.260  28.711  58.683  1.00  0.00     0.015 C 
ATOM      9  C   UNL     1       5.568  28.352  57.203  1.00  0.00    -0.035 C 
ATOM     10  C   UNL     1       6.687  27.430  62.243  1.00  0.00    -0.006 C 
ATOM     11  C   UNL     1       5.049  29.243  61.562  1.00  0.00    -0.027 C 
ATOM     12  C   UNL     1       6.992  28.820  56.808  1.00  0.00     0.011 C 
ATOM     13  C   UNL     1       4.563  29.101  56.289  1.00  0.00     0.011 C 
ATOM     14  C   UNL     1       8.167  27.849  62.005  1.00  0.00     0.017 C 
ATOM     15  C   UNL     1       6.207  27.710  63.781  1.00  0.00    -0.020 C 
ATOM     16  C   UNL     1       4.707  29.653  62.966  1.00  0.00     0.032 C 
ATOM     17  C   UNL     1       5.690  29.190  64.055  1.00  0.00     0.006 C 
ATOM     18  C   UNL     1       7.286  27.313  64.847  1.00  0.00     0.008 C 
ATOM     19  C   UNL     1       4.972  26.785  64.104  1.00  0.00     0.012 C 
ATOM     20  C   UNL     1       6.666  30.324  64.618  1.00  0.00    -0.025 C 
ATOM     21  C   UNL     1       8.272  28.415  65.270  1.00  0.00     0.005 C 
ATOM     22  C   UNL     1       7.542  29.685  65.762  1.00  0.00     0.003 C 
ATOM     23  C   UNL     1       5.780  31.494  65.228  1.00  0.00     0.010 C 
ATOM     24  C   UNL     1       7.539  30.956  63.497  1.00  0.00     0.012 C 
ATOM     25  C   UNL     1       8.456  30.697  66.592  1.00  0.00    -0.006 C 
ATOM     26  C   UNL     1       6.252  32.020  66.600  1.00  0.00     0.033 C 
ATOM     27  C   UNL     1       7.781  32.117  66.672  1.00  0.00     0.120 C 
ATOM     28  C   UNL     1       8.667  30.120  68.021  1.00  0.00     0.014 C 
ATOM     29  C   UNL     1       9.869  30.877  65.983  1.00  0.00     0.014 C 
ENDROOT
BRANCH   1  30
ATOM     30  C   UNL     1       4.420  25.837  59.767  1.00  0.00     0.048 C 
ATOM     31  O   UNL     1       3.446  26.645  59.812  1.00  0.00    -0.550 OA
ATOM     32  O   UNL     1       4.175  24.486  60.000  1.00  0.00    -0.550 OA
ENDBRANCH   1  30
BRANCH  27  33
ATOM     33  O   UNL     1       8.185  32.849  67.806  1.00  0.00    -0.393 OA
ATOM     34  H   UNL     1       8.513  32.208  68.493  1.00  0.00     0.210 HD
ENDBRANCH  27  33
TORSDOF 2
ENDMDL
MODEL 2
REMARK VINA RESULT:    -5.797      2.505      3.419
REMARK INTER + INTRA:          -6.074
REMARK INTER:                  -6.291
REMARK INTRA:                   0.217
REMARK UNBOUND:                 0.232
REMARK SMILES CC1(C)CC[C@@]2(C(=O)[O-])CC[C@@]3(C)C(=CC[C@@H]4[C@@]5(C)CC[C@@H](O)C(C)(C)[C@@H]5CC[C@@]43C)[C@@H]2C1
REMARK SMILES IDX 6 1 5 2 10 3 32 4 4 5 11 6 14 7 33 8 2 9 12 10 15 11 1 12
REMARK SMILES IDX 3 13 13 14 30 15 16 16 17 17 29 18 31 19 18 20 28 21 27 22
REMARK SMILES IDX 20 23 19 24 24 25 21 26 22 27 25 28 26 29 7 30 8 31 9 32
REMARK SMILES IDX 23 33
REMARK H PARENT 23 34
REMARK Flexibility Score: inf
ROOT
ATOM      1  C   UNL     1       6.076  26.640  61.910  1.00  0.00     0.017 C 
ATOM      2  C   UNL     1       6.491  25.303  61.236  1.00  0.00     0.014 C 
ATOM      3  C   UNL     1       6.736  26.707  63.310  1.00  0.00     0.014 C 
ATOM      4  C   UNL     1       6.608  27.836  61.061  1.00  0.00     0.028 C 
ATOM      5  C   UNL     1       6.038  25.206  59.772  1.00  0.00     0.007 C 
ATOM      6  C   UNL     1       6.456  28.051  64.020  1.00  0.00     0.013 C 
ATOM      7  C   UNL     1       6.320  29.186  61.770  1.00  0.00    -0.064 C 
ATOM      8  C   UNL     1       6.166  27.738  59.570  1.00  0.00     0.015 C 
ATOM      9  C   UNL     1       6.542  26.388  58.898  1.00  0.00    -0.035 C 
ATOM     10  C   UNL     1       6.853  29.352  63.213  1.00  0.00    -0.006 C 
ATOM     11  C   UNL     1       5.769  30.218  61.089  1.00  0.00    -0.027 C 
ATOM     12  C   UNL     1       8.071  26.302  58.656  1.00  0.00     0.011 C 
ATOM     13  C   UNL     1       5.848  26.310  57.513  1.00  0.00     0.011 C 
ATOM     14  C   UNL     1       8.406  29.342  63.124  1.00  0.00     0.017 C 
ATOM     15  C   UNL     1       6.284  30.703  63.938  1.00  0.00    -0.020 C 
ATOM     16  C   UNL     1       5.380  31.548  61.666  1.00  0.00     0.032 C 
ATOM     17  C   UNL     1       6.101  31.949  62.965  1.00  0.00     0.006 C 
ATOM     18  C   UNL     1       7.117  31.125  65.198  1.00  0.00     0.008 C 
ATOM     19  C   UNL     1       4.840  30.412  64.496  1.00  0.00     0.012 C 
ATOM     20  C   UNL     1       7.247  33.051  62.794  1.00  0.00    -0.025 C 
ATOM     21  C   UNL     1       8.280  32.102  64.958  1.00  0.00     0.005 C 
ATOM     22  C   UNL     1       7.818  33.381  64.226  1.00  0.00     0.003 C 
ATOM     23  C   UNL     1       6.598  34.362  62.174  1.00  0.00     0.010 C 
ATOM     24  C   UNL     1       8.362  32.590  61.813  1.00  0.00     0.012 C 
ATOM     25  C   UNL     1       8.846  34.600  64.305  1.00  0.00    -0.006 C 
ATOM     26  C   UNL     1       7.025  35.682  62.848  1.00  0.00     0.033 C 
ATOM     27  C   UNL     1       8.517  35.677  63.205  1.00  0.00     0.120 C 
ATOM     28  C   UNL     1       8.757  35.235  65.722  1.00  0.00     0.014 C 
ATOM     29  C   UNL     1      10.320  34.163  64.117  1.00  0.00     0.014 C 
ENDROOT
BRANCH   1  30
ATOM     30  C   UNL     1       4.562  26.647  62.096  1.00  0.00     0.048 C 
ATOM     31  O   UNL     1       3.815  27.396  61.401  1.00  0.00    -0.550 OA
ATOM     32  O   UNL     1       3.974  25.820  63.049  1.00  0.00    -0.550 OA
ENDBRANCH   1  30
BRANCH  27  33
ATOM     33  O   UNL     1       8.953  36.969  63.559  1.00  0.00    -0.393 OA
ATOM     34  H   UNL     1       9.938  36.940  63.701  1.00  0.00     0.210 HD
ENDBRANCH  27  33
TORSDOF 2
ENDMDL
MODEL 3
REMARK VINA RESULT:    -5.617      3.952      7.873
REMARK INTER + INTRA:          -5.878
REMARK INTER:                  -6.088
REMARK INTRA:                   0.211
REMARK UNBOUND:                 0.232
REMARK SMILES CC1(C)CC[C@@]2(C(=O)[O-])CC[C@@]3(C)C(=CC[C@@H]4[C@@]5(C)CC[C@@H](O)C(C)(C)[C@@H]5CC[C@@]43C)[C@@H]2C1
REMARK SMILES IDX 6 1 5 2 10 3 32 4 4 5 11 6 14 7 33 8 2 9 12 10 15 11 1 12
REMARK SMILES IDX 3 13 13 14 30 15 16 16 17 17 29 18 31 19 18 20 28 21 27 22
REMARK SMILES IDX 20 23 19 24 24 25 21 26 22 27 25 28 26 29 7 30 8 31 9 32
REMARK SMILES IDX 23 33
REMARK H PARENT 23 34
REMARK Flexibility Score: inf
ROOT
ATOM      1  C   UNL     1       9.413  22.506  63.902  1.00  0.00     0.017 C 
ATOM      2  C   UNL     1       9.346  21.072  64.496  1.00  0.00     0.014 C 
ATOM      3  C   UNL     1      10.087  22.426  62.509  1.00  0.00     0.014 C 
ATOM      4  C   UNL     1       7.966  23.058  63.713  1.00  0.00     0.028 C 
ATOM      5  C   UNL     1       8.538  21.004  65.800  1.00  0.00     0.007 C 
ATOM      6  C   UNL     1      10.112  23.798  61.796  1.00  0.00     0.013 C 
ATOM      7  C   UNL     1       7.991  24.438  63.005  1.00  0.00    -0.064 C 
ATOM      8  C   UNL     1       7.133  22.978  65.028  1.00  0.00     0.015 C 
ATOM      9  C   UNL     1       7.093  21.555  65.653  1.00  0.00    -0.035 C 
ATOM     10  C   UNL     1       8.712  24.516  61.638  1.00  0.00    -0.006 C 
ATOM     11  C   UNL     1       7.273  25.476  63.494  1.00  0.00    -0.027 C 
ATOM     12  C   UNL     1       6.209  20.607  64.802  1.00  0.00     0.011 C 
ATOM     13  C   UNL     1       6.452  21.647  67.062  1.00  0.00     0.011 C 
ATOM     14  C   UNL     1       7.892  23.642  60.645  1.00  0.00     0.017 C 
ATOM     15  C   UNL     1       8.884  26.054  61.110  1.00  0.00    -0.020 C 
ATOM     16  C   UNL     1       7.260  26.875  62.948  1.00  0.00     0.032 C 
ATOM     17  C   UNL     1       7.671  27.019  61.472  1.00  0.00     0.006 C 
ATOM     18  C   UNL     1       9.204  26.148  59.577  1.00  0.00     0.008 C 
ATOM     19  C   UNL     1      10.137  26.698  61.816  1.00  0.00     0.012 C 
ATOM     20  C   UNL     1       6.467  27.267  60.451  1.00  0.00    -0.025 C 
ATOM     21  C   UNL     1       7.999  26.273  58.630  1.00  0.00     0.005 C 
ATOM     22  C   UNL     1       7.084  27.457  59.012  1.00  0.00     0.003 C 
ATOM     23  C   UNL     1       5.710  28.598  60.877  1.00  0.00     0.010 C 
ATOM     24  C   UNL     1       5.419  26.119  60.490  1.00  0.00     0.012 C 
ATOM     25  C   UNL     1       6.065  27.907  57.868  1.00  0.00    -0.006 C 
ATOM     26  C   UNL     1       5.374  29.556  59.715  1.00  0.00     0.033 C 
ATOM     27  C   UNL     1       4.910  28.791  58.469  1.00  0.00     0.120 C 
ATOM     28  C   UNL     1       6.849  28.706  56.789  1.00  0.00     0.014 C 
ATOM     29  C   UNL     1       5.413  26.709  57.133  1.00  0.00     0.014 C 
ENDROOT
BRANCH   1  30
ATOM     30  C   UNL     1      10.286  23.372  64.804  1.00  0.00     0.048 C 
ATOM     31  O   UNL     1       9.787  24.285  65.525  1.00  0.00    -0.550 OA
ATOM     32  O   UNL     1      11.663  23.168  64.845  1.00  0.00    -0.550 OA
ENDBRANCH   1  30
BRANCH  27  33
ATOM     33  O   UNL     1       4.348  29.670  57.521  1.00  0.00    -0.393 OA
ATOM     34  H   UNL     1       3.509  29.262  57.173  1.00  0.00     0.210 HD
ENDBRANCH  27  33
TORSDOF 2
ENDMDL
MODEL 4
REMARK VINA RESULT:    -5.413      4.154      8.051
REMARK INTER + INTRA:          -5.656
REMARK INTER:                  -5.870
REMARK INTRA:                   0.214
REMARK UNBOUND:                 0.232
REMARK SMILES CC1(C)CC[C@@]2(C(=O)[O-])CC[C@@]3(C)C(=CC[C@@H]4[C@@]5(C)CC[C@@H](O)C(C)(C)[C@@H]5CC[C@@]43C)[C@@H]2C1
REMARK SMILES IDX 6 1 5 2 10 3 32 4 4 5 11 6 14 7 33 8 2 9 12 10 15 11 1 12
REMARK SMILES IDX 3 13 13 14 30 15 16 16 17 17 29 18 31 19 18 20 28 21 27 22
REMARK SMILES IDX 20 23 19 24 24 25 21 26 22 27 25 28 26 29 7 30 8 31 9 32
REMARK SMILES IDX 23 33
REMARK H PARENT 23 34
REMARK Flexibility Score: inf
ROOT
ATOM      1  C   UNL     1       3.607  23.723  65.584  1.00  0.00     0.017 C 
ATOM      2  C   UNL     1       3.193  23.891  67.072  1.00  0.00     0.014 C 
ATOM      3  C   UNL     1       2.380  24.051  64.696  1.00  0.00     0.014 C 
ATOM      4  C   UNL     1       4.742  24.738  65.242  1.00  0.00     0.028 C 
ATOM      5  C   UNL     1       4.379  23.763  68.040  1.00  0.00     0.007 C 
ATOM      6  C   UNL     1       2.724  24.003  63.190  1.00  0.00     0.013 C 
ATOM      7  C   UNL     1       5.093  24.685  63.732  1.00  0.00    -0.064 C 
ATOM      8  C   UNL     1       5.943  24.625  66.230  1.00  0.00     0.015 C 
ATOM      9  C   UNL     1       5.534  24.753  67.724  1.00  0.00    -0.035 C 
ATOM     10  C   UNL     1       3.935  24.911  62.731  1.00  0.00    -0.006 C 
ATOM     11  C   UNL     1       6.382  24.604  63.327  1.00  0.00    -0.027 C 
ATOM     12  C   UNL     1       5.138  26.213  68.062  1.00  0.00     0.011 C 
ATOM     13  C   UNL     1       6.755  24.387  68.608  1.00  0.00     0.011 C 
ATOM     14  C   UNL     1       3.461  26.382  62.916  1.00  0.00     0.017 C 
ATOM     15  C   UNL     1       4.373  24.592  61.188  1.00  0.00    -0.020 C 
ATOM     16  C   UNL     1       6.855  24.479  61.908  1.00  0.00     0.032 C 
ATOM     17  C   UNL     1       5.875  24.979  60.832  1.00  0.00     0.006 C 
ATOM     18  C   UNL     1       3.395  25.210  60.129  1.00  0.00     0.008 C 
ATOM     19  C   UNL     1       4.288  23.038  60.946  1.00  0.00     0.012 C 
ATOM     20  C   UNL     1       6.242  26.393  60.181  1.00  0.00    -0.025 C 
ATOM     21  C   UNL     1       3.735  26.621  59.620  1.00  0.00     0.005 C 
ATOM     22  C   UNL     1       5.174  26.703  59.064  1.00  0.00     0.003 C 
ATOM     23  C   UNL     1       7.680  26.284  59.515  1.00  0.00     0.010 C 
ATOM     24  C   UNL     1       6.320  27.524  61.245  1.00  0.00     0.012 C 
ATOM     25  C   UNL     1       5.464  27.984  58.155  1.00  0.00    -0.006 C 
ATOM     26  C   UNL     1       7.794  26.899  58.105  1.00  0.00     0.033 C 
ATOM     27  C   UNL     1       7.013  28.215  58.000  1.00  0.00     0.120 C 
ATOM     28  C   UNL     1       4.809  27.763  56.762  1.00  0.00     0.014 C 
ATOM     29  C   UNL     1       4.844  29.284  58.725  1.00  0.00     0.014 C 
ENDROOT
BRANCH   1  30
ATOM     30  C   UNL     1       3.994  22.268  65.343  1.00  0.00     0.048 C 
ATOM     31  O   UNL     1       5.199  21.927  65.158  1.00  0.00    -0.550 OA
ATOM     32  O   UNL     1       3.012  21.280  65.320  1.00  0.00    -0.550 OA
ENDBRANCH   1  30
BRANCH  27  33
ATOM     33  O   UNL     1       7.344  28.902  56.814  1.00  0.00    -0.393 OA
ATOM     34  H   UNL     1       7.430  29.870  57.026  1.00  0.00     0.210 HD
ENDBRANCH  27  33
TORSDOF 2
ENDMDL
MODEL 5
REMARK VINA RESULT:    -5.067      2.340      7.966
REMARK INTER + INTRA:          -5.280
REMARK INTER:                  -5.494
REMARK INTRA:                   0.214
REMARK UNBOUND:                 0.232
REMARK SMILES CC1(C)CC[C@@]2(C(=O)[O-])CC[C@@]3(C)C(=CC[C@@H]4[C@@]5(C)CC[C@@H](O)C(C)(C)[C@@H]5CC[C@@]43C)[C@@H]2C1
REMARK SMILES IDX 6 1 5 2 10 3 32 4 4 5 11 6 14 7 33 8 2 9 12 10 15 11 1 12
REMARK SMILES IDX 3 13 13 14 30 15 16 16 17 17 29 18 31 19 18 20 28 21 27 22
REMARK SMILES IDX 20 23 19 24 24 25 21 26 22 27 25 28 26 29 7 30 8 31 9 32
REMARK SMILES IDX 23 33
REMARK H PARENT 23 34
REMARK Flexibility Score: inf
ROOT
ATOM      1  C   UNL     1       5.521  29.430  67.260  1.00  0.00     0.017 C 
ATOM      2  C   UNL     1       4.879  29.165  68.650  1.00  0.00     0.014 C 
ATOM      3  C   UNL     1       6.653  28.395  67.039  1.00  0.00     0.014 C 
ATOM      4  C   UNL     1       4.449  29.226  66.145  1.00  0.00     0.028 C 
ATOM      5  C   UNL     1       3.628  30.019  68.902  1.00  0.00     0.007 C 
ATOM      6  C   UNL     1       7.289  28.521  65.636  1.00  0.00     0.013 C 
ATOM      7  C   UNL     1       5.085  29.360  64.737  1.00  0.00    -0.064 C 
ATOM      8  C   UNL     1       3.169  30.077  66.403  1.00  0.00     0.015 C 
ATOM      9  C   UNL     1       2.541  29.849  67.806  1.00  0.00    -0.035 C 
ATOM     10  C   UNL     1       6.286  28.439  64.416  1.00  0.00    -0.006 C 
ATOM     11  C   UNL     1       4.506  30.134  63.790  1.00  0.00    -0.027 C 
ATOM     12  C   UNL     1       1.868  28.454  67.886  1.00  0.00     0.011 C 
ATOM     13  C   UNL     1       1.435  30.912  68.037  1.00  0.00     0.011 C 
ATOM     14  C   UNL     1       5.745  26.980  64.404  1.00  0.00     0.017 C 
ATOM     15  C   UNL     1       7.020  28.837  63.009  1.00  0.00    -0.020 C 
ATOM     16  C   UNL     1       5.049  30.403  62.416  1.00  0.00     0.032 C 
ATOM     17  C   UNL     1       6.035  29.355  61.871  1.00  0.00     0.006 C 
ATOM     18  C   UNL     1       7.935  27.695  62.446  1.00  0.00     0.008 C 
ATOM     19  C   UNL     1       8.003  30.040  63.271  1.00  0.00     0.012 C 
ATOM     20  C   UNL     1       5.435  28.363  60.770  1.00  0.00    -0.025 C 
ATOM     21  C   UNL     1       7.276  26.701  61.476  1.00  0.00     0.005 C 
ATOM     22  C   UNL     1       6.600  27.417  60.286  1.00  0.00     0.003 C 
ATOM     23  C   UNL     1       4.917  29.227  59.542  1.00  0.00     0.010 C 
ATOM     24  C   UNL     1       4.215  27.561  61.306  1.00  0.00     0.012 C 
ATOM     25  C   UNL     1       6.261  26.470  59.046  1.00  0.00    -0.006 C 
ATOM     26  C   UNL     1       5.313  28.686  58.152  1.00  0.00     0.033 C 
ATOM     27  C   UNL     1       5.213  27.157  58.093  1.00  0.00     0.120 C 
ATOM     28  C   UNL     1       7.578  26.174  58.273  1.00  0.00     0.014 C 
ATOM     29  C   UNL     1       5.688  25.095  59.471  1.00  0.00     0.014 C 
ENDROOT
BRANCH   1  30
ATOM     30  C   UNL     1       6.143  30.822  67.264  1.00  0.00     0.048 C 
ATOM     31  O   UNL     1       5.608  31.786  66.641  1.00  0.00    -0.550 OA
ATOM     32  O   UNL     1       7.327  31.055  67.960  1.00  0.00    -0.550 OA
ENDBRANCH   1  30
BRANCH  27  33
ATOM     33  O   UNL     1       5.305  26.699  56.763  1.00  0.00    -0.393 OA
ATOM     34  H   UNL     1       4.610  26.001  56.622  1.00  0.00     0.210 HD
ENDBRANCH  27  33
TORSDOF 2
ENDMDL
MODEL 6
REMARK VINA RESULT:    -5.024      1.917      2.471
REMARK INTER + INTRA:          -5.233
REMARK INTER:                  -5.492
REMARK INTRA:                   0.259
REMARK UNBOUND:                 0.232
REMARK SMILES CC1(C)CC[C@@]2(C(=O)[O-])CC[C@@]3(C)C(=CC[C@@H]4[C@@]5(C)CC[C@@H](O)C(C)(C)[C@@H]5CC[C@@]43C)[C@@H]2C1
REMARK SMILES IDX 6 1 5 2 10 3 32 4 4 5 11 6 14 7 33 8 2 9 12 10 15 11 1 12
REMARK SMILES IDX 3 13 13 14 30 15 16 16 17 17 29 18 31 19 18 20 28 21 27 22
REMARK SMILES IDX 20 23 19 24 24 25 21 26 22 27 25 28 26 29 7 30 8 31 9 32
REMARK SMILES IDX 23 33
REMARK H PARENT 23 34
REMARK Flexibility Score: inf
ROOT
ATOM      1  C   UNL     1       7.033  26.505  60.019  1.00  0.00     0.017 C 
ATOM      2  C   UNL     1       7.608  26.616  58.580  1.00  0.00     0.014 C 
ATOM      3  C   UNL     1       8.203  26.654  61.025  1.00  0.00     0.014 C 
ATOM      4  C   UNL     1       6.025  27.670  60.268  1.00  0.00     0.028 C 
ATOM      5  C   UNL     1       6.514  26.660  57.502  1.00  0.00     0.007 C 
ATOM      6  C   UNL     1       7.713  26.651  62.490  1.00  0.00     0.013 C 
ATOM      7  C   UNL     1       5.527  27.663  61.737  1.00  0.00    -0.064 C 
ATOM      8  C   UNL     1       4.921  27.731  59.169  1.00  0.00     0.015 C 
ATOM      9  C   UNL     1       5.484  27.803  57.723  1.00  0.00    -0.035 C 
ATOM     10  C   UNL     1       6.603  27.721  62.846  1.00  0.00    -0.006 C 
ATOM     11  C   UNL     1       4.206  27.765  62.016  1.00  0.00    -0.027 C 
ATOM     12  C   UNL     1       6.113  29.193  57.447  1.00  0.00     0.011 C 
ATOM     13  C   UNL     1       4.315  27.615  56.722  1.00  0.00     0.011 C 
ATOM     14  C   UNL     1       7.295  29.110  62.731  1.00  0.00     0.017 C 
ATOM     15  C   UNL     1       5.979  27.464  64.336  1.00  0.00    -0.020 C 
ATOM     16  C   UNL     1       3.586  27.705  63.383  1.00  0.00     0.032 C 
ATOM     17  C   UNL     1       4.519  28.058  64.555  1.00  0.00     0.006 C 
ATOM     18  C   UNL     1       6.928  27.935  65.493  1.00  0.00     0.008 C 
ATOM     19  C   UNL     1       5.820  25.912  64.560  1.00  0.00     0.012 C 
ATOM     20  C   UNL     1       4.294  29.508  65.190  1.00  0.00    -0.025 C 
ATOM     21  C   UNL     1       6.742  29.378  65.990  1.00  0.00     0.005 C 
ATOM     22  C   UNL     1       5.283  29.661  66.408  1.00  0.00     0.003 C 
ATOM     23  C   UNL     1       2.797  29.602  65.715  1.00  0.00     0.010 C 
ATOM     24  C   UNL     1       4.478  30.642  64.142  1.00  0.00     0.012 C 
ATOM     25  C   UNL     1       5.090  30.968  67.306  1.00  0.00    -0.006 C 
ATOM     26  C   UNL     1       2.636  30.224  67.117  1.00  0.00     0.033 C 
ATOM     27  C   UNL     1       3.581  31.416  67.318  1.00  0.00     0.120 C 
ATOM     28  C   UNL     1       5.570  30.654  68.751  1.00  0.00     0.014 C 
ATOM     29  C   UNL     1       5.938  32.169  66.817  1.00  0.00     0.014 C 
ENDROOT
BRANCH   1  30
ATOM     30  C   UNL     1       6.424  25.119  60.199  1.00  0.00     0.048 C 
ATOM     31  O   UNL     1       7.145  24.109  60.452  1.00  0.00    -0.550 OA
ATOM     32  O   UNL     1       5.048  24.942  60.080  1.00  0.00    -0.550 OA
ENDBRANCH   1  30
BRANCH  27  33
ATOM     33  O   UNL     1       3.237  32.140  68.477  1.00  0.00    -0.393 OA
ATOM     34  H   UNL     1       2.803  32.991  68.199  1.00  0.00     0.210 HD
ENDBRANCH  27  33
TORSDOF 2
ENDMDL
MODEL 7
REMARK VINA RESULT:    -5.006      5.922      7.764
REMARK INTER + INTRA:          -5.213
REMARK INTER:                  -5.427
REMARK INTRA:                   0.214
REMARK UNBOUND:                 0.232
REMARK SMILES CC1(C)CC[C@@]2(C(=O)[O-])CC[C@@]3(C)C(=CC[C@@H]4[C@@]5(C)CC[C@@H](O)C(C)(C)[C@@H]5CC[C@@]43C)[C@@H]2C1
REMARK SMILES IDX 6 1 5 2 10 3 32 4 4 5 11 6 14 7 33 8 2 9 12 10 15 11 1 12
REMARK SMILES IDX 3 13 13 14 30 15 16 16 17 17 29 18 31 19 18 20 28 21 27 22
REMARK SMILES IDX 20 23 19 24 24 25 21 26 22 27 25 28 26 29 7 30 8 31 9 32
REMARK SMILES IDX 23 33
REMARK H PARENT 23 34
REMARK Flexibility Score: inf
ROOT
ATOM      1  C   UNL     1      13.228  26.319  61.371  1.00  0.00     0.017 C 
ATOM      2  C   UNL     1      13.066  25.109  60.409  1.00  0.00     0.014 C 
ATOM      3  C   UNL     1      14.662  26.883  61.207  1.00  0.00     0.014 C 
ATOM      4  C   UNL     1      12.216  27.438  60.974  1.00  0.00     0.028 C 
ATOM      5  C   UNL     1      11.625  24.579  60.357  1.00  0.00     0.007 C 
ATOM      6  C   UNL     1      14.888  28.153  62.058  1.00  0.00     0.013 C 
ATOM      7  C   UNL     1      12.436  28.710  61.834  1.00  0.00    -0.064 C 
ATOM      8  C   UNL     1      10.753  26.903  60.903  1.00  0.00     0.015 C 
ATOM      9  C   UNL     1      10.586  25.669  59.975  1.00  0.00    -0.035 C 
ATOM     10  C   UNL     1      13.854  29.328  61.827  1.00  0.00    -0.006 C 
ATOM     11  C   UNL     1      11.390  29.331  62.427  1.00  0.00    -0.027 C 
ATOM     12  C   UNL     1      10.718  26.080  58.485  1.00  0.00     0.011 C 
ATOM     13  C   UNL     1       9.162  25.086  60.171  1.00  0.00     0.011 C 
ATOM     14  C   UNL     1      14.113  29.848  60.383  1.00  0.00     0.017 C 
ATOM     15  C   UNL     1      14.027  30.507  62.947  1.00  0.00    -0.020 C 
ATOM     16  C   UNL     1      11.470  30.524  63.334  1.00  0.00     0.032 C 
ATOM     17  C   UNL     1      12.728  31.396  63.179  1.00  0.00     0.006 C 
ATOM     18  C   UNL     1      15.268  31.430  62.686  1.00  0.00     0.008 C 
ATOM     19  C   UNL     1      14.316  29.841  64.346  1.00  0.00     0.012 C 
ATOM     20  C   UNL     1      12.509  32.775  62.400  1.00  0.00    -0.025 C 
ATOM     21  C   UNL     1      15.024  32.686  61.834  1.00  0.00     0.005 C 
ATOM     22  C   UNL     1      13.880  33.555  62.402  1.00  0.00     0.003 C 
ATOM     23  C   UNL     1      11.419  33.628  63.180  1.00  0.00     0.010 C 
ATOM     24  C   UNL     1      11.965  32.554  60.960  1.00  0.00     0.012 C 
ATOM     25  C   UNL     1      13.835  35.048  61.837  1.00  0.00    -0.006 C 
ATOM     26  C   UNL     1      11.772  35.118  63.369  1.00  0.00     0.033 C 
ATOM     27  C   UNL     1      12.432  35.706  62.116  1.00  0.00     0.120 C 
ATOM     28  C   UNL     1      14.962  35.872  62.523  1.00  0.00     0.014 C 
ATOM     29  C   UNL     1      14.104  35.128  60.314  1.00  0.00     0.014 C 
ENDROOT
BRANCH   1  30
ATOM     30  C   UNL     1      13.070  25.830  62.806  1.00  0.00     0.048 C 
ATOM     31  O   UNL     1      12.043  26.114  63.491  1.00  0.00    -0.550 OA
ATOM     32  O   UNL     1      14.069  25.057  63.393  1.00  0.00    -0.550 OA
ENDBRANCH   1  30
BRANCH  27  33
ATOM     33  O   UNL     1      12.496  37.111  62.193  1.00  0.00    -0.393 OA
ATOM     34  H   UNL     1      12.711  37.467  61.289  1.00  0.00     0.210 HD
ENDBRANCH  27  33
TORSDOF 2
ENDMDL
MODEL 8
REMARK VINA RESULT:    -4.969      5.612      8.715
REMARK INTER + INTRA:          -5.172
REMARK INTER:                  -5.387
REMARK INTRA:                   0.215
REMARK UNBOUND:                 0.232
REMARK SMILES CC1(C)CC[C@@]2(C(=O)[O-])CC[C@@]3(C)C(=CC[C@@H]4[C@@]5(C)CC[C@@H](O)C(C)(C)[C@@H]5CC[C@@]43C)[C@@H]2C1
REMARK SMILES IDX 6 1 5 2 10 3 32 4 4 5 11 6 14 7 33 8 2 9 12 10 15 11 1 12
REMARK SMILES IDX 3 13 13 14 30 15 16 16 17 17 29 18 31 19 18 20 28 21 27 22
REMARK SMILES IDX 20 23 19 24 24 25 21 26 22 27 25 28 26 29 7 30 8 31 9 32
REMARK SMILES IDX 23 33
REMARK H PARENT 23 34
REMARK Flexibility Score: inf
ROOT
ATOM      1  C   UNL     1       6.633  33.578  62.787  1.00  0.00     0.017 C 
ATOM      2  C   UNL     1       5.216  34.082  62.394  1.00  0.00     0.014 C 
ATOM      3  C   UNL     1       7.183  32.713  61.625  1.00  0.00     0.014 C 
ATOM      4  C   UNL     1       7.584  34.799  62.979  1.00  0.00     0.028 C 
ATOM      5  C   UNL     1       4.644  35.096  63.396  1.00  0.00     0.007 C 
ATOM      6  C   UNL     1       8.632  32.243  61.887  1.00  0.00     0.013 C 
ATOM      7  C   UNL     1       9.037  34.329  63.249  1.00  0.00    -0.064 C 
ATOM      8  C   UNL     1       7.003  35.841  63.983  1.00  0.00     0.015 C 
ATOM      9  C   UNL     1       5.571  36.322  63.621  1.00  0.00    -0.035 C 
ATOM     10  C   UNL     1       9.679  33.386  62.204  1.00  0.00    -0.006 C 
ATOM     11  C   UNL     1       9.753  34.854  64.271  1.00  0.00    -0.027 C 
ATOM     12  C   UNL     1       5.601  37.245  62.375  1.00  0.00     0.011 C 
ATOM     13  C   UNL     1       5.011  37.156  64.803  1.00  0.00     0.011 C 
ATOM     14  C   UNL     1       9.829  34.205  60.890  1.00  0.00     0.017 C 
ATOM     15  C   UNL     1      11.105  32.767  62.712  1.00  0.00    -0.020 C 
ATOM     16  C   UNL     1      11.137  34.443  64.682  1.00  0.00     0.032 C 
ATOM     17  C   UNL     1      11.982  33.762  63.592  1.00  0.00     0.006 C 
ATOM     18  C   UNL     1      11.972  32.176  61.546  1.00  0.00     0.008 C 
ATOM     19  C   UNL     1      10.819  31.539  63.656  1.00  0.00     0.012 C 
ATOM     20  C   UNL     1      13.115  34.680  62.936  1.00  0.00    -0.025 C 
ATOM     21  C   UNL     1      12.967  33.136  60.875  1.00  0.00     0.005 C 
ATOM     22  C   UNL     1      13.913  33.798  61.901  1.00  0.00     0.003 C 
ATOM     23  C   UNL     1      14.101  35.163  64.084  1.00  0.00     0.010 C 
ATOM     24  C   UNL     1      12.524  35.960  62.279  1.00  0.00     0.012 C 
ATOM     25  C   UNL     1      15.216  34.470  61.268  1.00  0.00    -0.006 C 
ATOM     26  C   UNL     1      15.602  35.059  63.740  1.00  0.00     0.033 C 
ATOM     27  C   UNL     1      15.878  35.469  62.288  1.00  0.00     0.120 C 
ATOM     28  C   UNL     1      16.221  33.346  60.887  1.00  0.00     0.014 C 
ATOM     29  C   UNL     1      14.922  35.250  59.962  1.00  0.00     0.014 C 
ENDROOT
BRANCH   1  30
ATOM     30  C   UNL     1       6.513  32.694  64.024  1.00  0.00     0.048 C 
ATOM     31  O   UNL     1       6.928  33.082  65.155  1.00  0.00    -0.550 OA
ATOM     32  O   UNL     1       5.941  31.428  63.923  1.00  0.00    -0.550 OA
ENDBRANCH   1  30
BRANCH  27  33
ATOM     33  O   UNL     1      17.259  35.637  62.068  1.00  0.00    -0.393 OA
ATOM     34  H   UNL     1      17.705  35.761  62.949  1.00  0.00     0.210 HD
ENDBRANCH  27  33
TORSDOF 2
ENDMDL
MODEL 9
REMARK VINA RESULT:    -4.816      4.893      7.807
REMARK INTER + INTRA:          -5.006
REMARK INTER:                  -5.221
REMARK INTRA:                   0.215
REMARK UNBOUND:                 0.232
REMARK SMILES CC1(C)CC[C@@]2(C(=O)[O-])CC[C@@]3(C)C(=CC[C@@H]4[C@@]5(C)CC[C@@H](O)C(C)(C)[C@@H]5CC[C@@]43C)[C@@H]2C1
REMARK SMILES IDX 6 1 5 2 10 3 32 4 4 5 11 6 14 7 33 8 2 9 12 10 15 11 1 12
REMARK SMILES IDX 3 13 13 14 30 15 16 16 17 17 29 18 31 19 18 20 28 21 27 22
REMARK SMILES IDX 20 23 19 24 24 25 21 26 22 27 25 28 26 29 7 30 8 31 9 32
REMARK SMILES IDX 23 33
REMARK H PARENT 23 34
REMARK Flexibility Score: inf
ROOT
ATOM      1  C   UNL     1       6.812  31.805  64.380  1.00  0.00     0.017 C 
ATOM      2  C   UNL     1       5.881  30.613  64.734  1.00  0.00     0.014 C 
ATOM      3  C   UNL     1       7.723  32.091  65.601  1.00  0.00     0.014 C 
ATOM      4  C   UNL     1       7.722  31.415  63.174  1.00  0.00     0.028 C 
ATOM      5  C   UNL     1       5.055  30.125  63.534  1.00  0.00     0.007 C 
ATOM      6  C   UNL     1       8.753  33.206  65.308  1.00  0.00     0.013 C 
ATOM      7  C   UNL     1       8.751  32.536  62.875  1.00  0.00    -0.064 C 
ATOM      8  C   UNL     1       6.892  30.904  61.958  1.00  0.00     0.015 C 
ATOM      9  C   UNL     1       5.927  29.737  62.309  1.00  0.00    -0.035 C 
ATOM     10  C   UNL     1       9.669  32.979  64.039  1.00  0.00    -0.006 C 
ATOM     11  C   UNL     1       8.936  32.982  61.610  1.00  0.00    -0.027 C 
ATOM     12  C   UNL     1       6.720  28.429  62.569  1.00  0.00     0.011 C 
ATOM     13  C   UNL     1       4.993  29.480  61.098  1.00  0.00     0.011 C 
ATOM     14  C   UNL     1      10.582  31.766  64.380  1.00  0.00     0.017 C 
ATOM     15  C   UNL     1      10.534  34.319  63.677  1.00  0.00    -0.020 C 
ATOM     16  C   UNL     1       9.846  34.100  61.193  1.00  0.00     0.032 C 
ATOM     17  C   UNL     1      11.002  34.416  62.158  1.00  0.00     0.006 C 
ATOM     18  C   UNL     1      11.759  34.539  64.630  1.00  0.00     0.008 C 
ATOM     19  C   UNL     1       9.625  35.587  63.900  1.00  0.00     0.012 C 
ATOM     20  C   UNL     1      12.439  33.895  61.692  1.00  0.00    -0.025 C 
ATOM     21  C   UNL     1      13.095  33.919  64.186  1.00  0.00     0.005 C 
ATOM     22  C   UNL     1      13.496  34.367  62.764  1.00  0.00     0.003 C 
ATOM     23  C   UNL     1      12.785  34.555  60.289  1.00  0.00     0.010 C 
ATOM     24  C   UNL     1      12.466  32.354  61.486  1.00  0.00     0.012 C 
ATOM     25  C   UNL     1      15.028  34.115  62.394  1.00  0.00    -0.006 C 
ATOM     26  C   UNL     1      14.219  35.111  60.166  1.00  0.00     0.033 C 
ATOM     27  C   UNL     1      15.242  34.186  60.836  1.00  0.00     0.120 C 
ATOM     28  C   UNL     1      15.896  35.191  63.106  1.00  0.00     0.014 C 
ATOM     29  C   UNL     1      15.551  32.741  62.883  1.00  0.00     0.014 C 
ENDROOT
BRANCH   1  30
ATOM     30  C   UNL     1       5.954  33.040  64.126  1.00  0.00     0.048 C 
ATOM     31  O   UNL     1       5.807  33.512  62.961  1.00  0.00    -0.550 OA
ATOM     32  O   UNL     1       5.315  33.675  65.188  1.00  0.00    -0.550 OA
ENDBRANCH   1  30
BRANCH  27  33
ATOM     33  O   UNL     1      16.557  34.552  60.483  1.00  0.00    -0.393 OA
ATOM     34  H   UNL     1      16.984  33.782  60.021  1.00  0.00     0.210 HD
ENDBRANCH  27  33
TORSDOF 2
ENDMDL
