MODEL 1
REMARK VINA RESULT:    -4.912      0.000      0.000
REMARK INTER + INTRA:          -6.153
REMARK INTER:                  -5.917
REMARK INTRA:                  -0.236
REMARK UNBOUND:                -0.236
REMARK SMILES O=c1c(O)c(-c2ccc(O)c(O)c2)oc2cc(O)cc(O)c12
REMARK SMILES IDX 5 1 3 2 2 3 1 4 22 5 20 6 19 7 17 8 16 9 15 10 14 11 6 12
REMARK SMILES IDX 7 13 8 14 9 15 13 16 11 17 10 18 12 20 4 22 21 24 18 26
REMARK H PARENT 10 19 12 21 4 23 21 25 18 27
REMARK Flexibility Score: inf
ROOT
ATOM      1  C   UNL     1      30.909  27.476  12.232  1.00  0.00     0.180 A 
ATOM      2  C   UNL     1      30.360  28.601  11.592  1.00  0.00     0.208 A 
ATOM      3  C   UNL     1      28.970  28.798  11.632  1.00  0.00     0.238 A 
ATOM      4  O   UNL     1      28.491  29.835  11.106  1.00  0.00    -0.285 OA
ATOM      5  C   UNL     1      28.146  27.859  12.298  1.00  0.00     0.111 A 
ATOM      6  C   UNL     1      26.722  27.937  12.366  1.00  0.00     0.134 A 
ATOM      7  C   UNL     1      26.018  27.024  13.161  1.00  0.00     0.093 A 
ATOM      8  C   UNL     1      26.681  25.996  13.837  1.00  0.00     0.123 A 
ATOM      9  C   UNL     1      28.063  25.877  13.728  1.00  0.00     0.094 A 
ATOM     10  C   UNL     1      28.797  26.794  12.971  1.00  0.00     0.146 A 
ATOM     11  O   UNL     1      30.115  26.649  12.903  1.00  0.00    -0.452 OA
ENDROOT
BRANCH   1  12
ATOM     12  C   UNL     1      32.361  27.188  12.211  1.00  0.00     0.025 A 
ATOM     13  C   UNL     1      33.012  26.795  11.032  1.00  0.00     0.016 A 
ATOM     14  C   UNL     1      34.378  26.506  11.043  1.00  0.00     0.051 A 
ATOM     15  C   UNL     1      35.117  26.590  12.228  1.00  0.00     0.157 A 
ATOM     16  C   UNL     1      33.095  27.252  13.406  1.00  0.00     0.062 A 
ATOM     17  C   UNL     1      34.466  26.963  13.427  1.00  0.00     0.158 A 
BRANCH  15  18
ATOM     18  O   UNL     1      36.479  26.291  12.170  1.00  0.00    -0.504 OA
ATOM     19  H   UNL     1      37.053  26.430  11.350  1.00  0.00     0.293 HD
ENDBRANCH  15  18
BRANCH  17  20
ATOM     20  O   UNL     1      35.134  27.059  14.650  1.00  0.00    -0.504 OA
ATOM     21  H   UNL     1      35.608  26.288  15.096  1.00  0.00     0.293 HD
ENDBRANCH  17  20
ENDBRANCH   1  12
BRANCH   2  22
ATOM     22  O   UNL     1      31.196  29.527  10.960  1.00  0.00    -0.502 OA
ATOM     23  H   UNL     1      30.835  30.319  10.442  1.00  0.00     0.293 HD
ENDBRANCH   2  22
BRANCH   6  24
ATOM     24  O   UNL     1      25.956  28.867  11.657  1.00  0.00    -0.507 OA
ATOM     25  H   UNL     1      25.422  28.658  10.826  1.00  0.00     0.293 HD
ENDBRANCH   6  24
BRANCH   8  26
ATOM     26  O   UNL     1      25.970  25.083  14.613  1.00  0.00    -0.508 OA
ATOM     27  H   UNL     1      25.015  25.260  14.900  1.00  0.00     0.293 HD
ENDBRANCH   8  26
TORSDOF 6
ENDMDL
MODEL 2
REMARK VINA RESULT:    -4.829      1.613      2.256
REMARK INTER + INTRA:          -6.054
REMARK INTER:                  -5.772
REMARK INTRA:                  -0.282
REMARK UNBOUND:                -0.236
REMARK SMILES O=c1c(O)c(-c2ccc(O)c(O)c2)oc2cc(O)cc(O)c12
REMARK SMILES IDX 5 1 3 2 2 3 1 4 22 5 20 6 19 7 17 8 16 9 15 10 14 11 6 12
REMARK SMILES IDX 7 13 8 14 9 15 13 16 11 17 10 18 12 20 4 22 21 24 18 26
REMARK H PARENT 10 19 12 21 4 23 21 25 18 27
REMARK Flexibility Score: inf
ROOT
ATOM      1  C   UNL     1      30.065  27.597  11.968  1.00  0.00     0.180 A 
ATOM      2  C   UNL     1      29.087  28.480  11.476  1.00  0.00     0.208 A 
ATOM      3  C   UNL     1      27.756  28.326  11.895  1.00  0.00     0.238 A 
ATOM      4  O   UNL     1      26.896  29.152  11.495  1.00  0.00    -0.285 OA
ATOM      5  C   UNL     1      27.416  27.282  12.789  1.00  0.00     0.111 A 
ATOM      6  C   UNL     1      26.093  27.007  13.249  1.00  0.00     0.134 A 
ATOM      7  C   UNL     1      25.892  26.031  14.233  1.00  0.00     0.093 A 
ATOM      8  C   UNL     1      26.959  25.275  14.725  1.00  0.00     0.123 A 
ATOM      9  C   UNL     1      28.244  25.494  14.240  1.00  0.00     0.094 A 
ATOM     10  C   UNL     1      28.482  26.486  13.284  1.00  0.00     0.146 A 
ATOM     11  O   UNL     1      29.725  26.669  12.856  1.00  0.00    -0.452 OA
ENDROOT
BRANCH   1  12
ATOM     12  C   UNL     1      31.483  27.681  11.553  1.00  0.00     0.025 A 
ATOM     13  C   UNL     1      32.450  28.286  12.371  1.00  0.00     0.016 A 
ATOM     14  C   UNL     1      33.777  28.376  11.946  1.00  0.00     0.051 A 
ATOM     15  C   UNL     1      34.163  27.879  10.697  1.00  0.00     0.157 A 
ATOM     16  C   UNL     1      31.863  27.202  10.289  1.00  0.00     0.062 A 
ATOM     17  C   UNL     1      33.192  27.288   9.855  1.00  0.00     0.158 A 
BRANCH  15  18
ATOM     18  O   UNL     1      35.506  27.997  10.335  1.00  0.00    -0.504 OA
ATOM     19  H   UNL     1      36.278  27.805  10.958  1.00  0.00     0.293 HD
ENDBRANCH  15  18
BRANCH  17  20
ATOM     20  O   UNL     1      33.499  26.778   8.591  1.00  0.00    -0.504 OA
ATOM     21  H   UNL     1      33.119  25.920   8.221  1.00  0.00     0.293 HD
ENDBRANCH  17  20
ENDBRANCH   1  12
BRANCH   2  22
ATOM     22  O   UNL     1      29.449  29.517  10.612  1.00  0.00    -0.502 OA
ATOM     23  H   UNL     1      29.685  30.444  10.944  1.00  0.00     0.293 HD
ENDBRANCH   2  22
BRANCH   6  24
ATOM     24  O   UNL     1      24.949  27.641  12.756  1.00  0.00    -0.507 OA
ATOM     25  H   UNL     1      24.344  27.261  12.042  1.00  0.00     0.293 HD
ENDBRANCH   6  24
BRANCH   8  26
ATOM     26  O   UNL     1      26.747  24.295  15.693  1.00  0.00    -0.508 OA
ATOM     27  H   UNL     1      27.466  24.046  16.363  1.00  0.00     0.293 HD
ENDBRANCH   8  26
TORSDOF 6
ENDMDL
MODEL 3
REMARK VINA RESULT:    -4.823     18.537     19.412
REMARK INTER + INTRA:          -6.046
REMARK INTER:                  -6.088
REMARK INTRA:                   0.042
REMARK UNBOUND:                -0.236
REMARK SMILES O=c1c(O)c(-c2ccc(O)c(O)c2)oc2cc(O)cc(O)c12
REMARK SMILES IDX 5 1 3 2 2 3 1 4 22 5 20 6 19 7 17 8 16 9 15 10 14 11 6 12
REMARK SMILES IDX 7 13 8 14 9 15 13 16 11 17 10 18 12 20 4 22 21 24 18 26
REMARK H PARENT 10 19 12 21 4 23 21 25 18 27
REMARK Flexibility Score: inf
ROOT
ATOM      1  C   UNL     1      35.531  42.675  23.583  1.00  0.00     0.180 A 
ATOM      2  C   UNL     1      35.159  43.295  22.377  1.00  0.00     0.208 A 
ATOM      3  C   UNL     1      33.802  43.329  22.018  1.00  0.00     0.238 A 
ATOM      4  O   UNL     1      33.470  43.933  20.965  1.00  0.00    -0.285 OA
ATOM      5  C   UNL     1      32.836  42.730  22.862  1.00  0.00     0.111 A 
ATOM      6  C   UNL     1      31.438  42.670  22.577  1.00  0.00     0.134 A 
ATOM      7  C   UNL     1      30.558  42.169  23.544  1.00  0.00     0.093 A 
ATOM      8  C   UNL     1      31.032  41.664  24.758  1.00  0.00     0.123 A 
ATOM      9  C   UNL     1      32.399  41.665  25.020  1.00  0.00     0.094 A 
ATOM     10  C   UNL     1      33.300  42.191  24.090  1.00  0.00     0.146 A 
ATOM     11  O   UNL     1      34.594  42.181  24.384  1.00  0.00    -0.452 OA
ENDROOT
BRANCH   1  12
ATOM     12  C   UNL     1      36.944  42.578  24.016  1.00  0.00     0.025 A 
ATOM     13  C   UNL     1      37.792  43.696  23.996  1.00  0.00     0.016 A 
ATOM     14  C   UNL     1      39.128  43.574  24.386  1.00  0.00     0.051 A 
ATOM     15  C   UNL     1      39.645  42.338  24.789  1.00  0.00     0.157 A 
ATOM     16  C   UNL     1      37.466  41.333  24.399  1.00  0.00     0.062 A 
ATOM     17  C   UNL     1      38.804  41.201  24.792  1.00  0.00     0.158 A 
BRANCH  15  18
ATOM     18  O   UNL     1      40.987  42.286  25.170  1.00  0.00    -0.504 OA
ATOM     19  H   UNL     1      41.480  41.431  25.385  1.00  0.00     0.293 HD
ENDBRANCH  15  18
BRANCH  17  20
ATOM     20  O   UNL     1      39.250  39.933  25.172  1.00  0.00    -0.504 OA
ATOM     21  H   UNL     1      39.673  39.728  26.064  1.00  0.00     0.293 HD
ENDBRANCH  17  20
ENDBRANCH   1  12
BRANCH   2  22
ATOM     22  O   UNL     1      36.128  43.899  21.570  1.00  0.00    -0.502 OA
ATOM     23  H   UNL     1      36.369  44.880  21.653  1.00  0.00     0.293 HD
ENDBRANCH   2  22
BRANCH   6  24
ATOM     24  O   UNL     1      30.872  43.062  21.361  1.00  0.00    -0.507 OA
ATOM     25  H   UNL     1      31.386  43.461  20.590  1.00  0.00     0.293 HD
ENDBRANCH   6  24
BRANCH   8  26
ATOM     26  O   UNL     1      30.150  41.153  25.708  1.00  0.00    -0.508 OA
ATOM     27  H   UNL     1      29.150  41.300  25.637  1.00  0.00     0.293 HD
ENDBRANCH   8  26
TORSDOF 6
ENDMDL
MODEL 4
REMARK VINA RESULT:    -4.817      1.925      6.870
REMARK INTER + INTRA:          -6.039
REMARK INTER:                  -5.713
REMARK INTRA:                  -0.326
REMARK UNBOUND:                -0.236
REMARK SMILES O=c1c(O)c(-c2ccc(O)c(O)c2)oc2cc(O)cc(O)c12
REMARK SMILES IDX 5 1 3 2 2 3 1 4 22 5 20 6 19 7 17 8 16 9 15 10 14 11 6 12
REMARK SMILES IDX 7 13 8 14 9 15 13 16 11 17 10 18 12 20 4 22 21 24 18 26
REMARK H PARENT 10 19 12 21 4 23 21 25 18 27
REMARK Flexibility Score: inf
ROOT
ATOM      1  C   UNL     1      29.985  28.184  11.066  1.00  0.00     0.180 A 
ATOM      2  C   UNL     1      30.243  28.841   9.850  1.00  0.00     0.208 A 
ATOM      3  C   UNL     1      31.576  29.046   9.456  1.00  0.00     0.238 A 
ATOM      4  O   UNL     1      31.800  29.585   8.341  1.00  0.00    -0.285 OA
ATOM      5  C   UNL     1      32.632  28.605  10.289  1.00  0.00     0.111 A 
ATOM      6  C   UNL     1      34.018  28.797  10.009  1.00  0.00     0.134 A 
ATOM      7  C   UNL     1      34.979  28.205  10.839  1.00  0.00     0.093 A 
ATOM      8  C   UNL     1      34.602  27.485  11.977  1.00  0.00     0.123 A 
ATOM      9  C   UNL     1      33.253  27.344  12.291  1.00  0.00     0.094 A 
ATOM     10  C   UNL     1      32.271  27.892  11.462  1.00  0.00     0.146 A 
ATOM     11  O   UNL     1      30.997  27.725  11.793  1.00  0.00    -0.452 OA
ENDROOT
BRANCH   1  12
ATOM     12  C   UNL     1      28.607  27.954  11.559  1.00  0.00     0.025 A 
ATOM     13  C   UNL     1      27.911  28.943  12.269  1.00  0.00     0.016 A 
ATOM     14  C   UNL     1      26.622  28.694  12.745  1.00  0.00     0.051 A 
ATOM     15  C   UNL     1      26.010  27.454  12.535  1.00  0.00     0.157 A 
ATOM     16  C   UNL     1      28.005  26.701  11.366  1.00  0.00     0.062 A 
ATOM     17  C   UNL     1      26.712  26.441  11.840  1.00  0.00     0.158 A 
BRANCH  15  18
ATOM     18  O   UNL     1      24.719  27.271  13.034  1.00  0.00    -0.504 OA
ATOM     19  H   UNL     1      23.879  27.526  12.534  1.00  0.00     0.293 HD
ENDBRANCH  15  18
BRANCH  17  20
ATOM     20  O   UNL     1      26.172  25.176  11.601  1.00  0.00    -0.504 OA
ATOM     21  H   UNL     1      25.410  24.779  12.131  1.00  0.00     0.293 HD
ENDBRANCH  17  20
ENDBRANCH   1  12
BRANCH   2  22
ATOM     22  O   UNL     1      29.185  29.248   9.032  1.00  0.00    -0.502 OA
ATOM     23  H   UNL     1      29.231  29.202   8.021  1.00  0.00     0.293 HD
ENDBRANCH   2  22
BRANCH   6  24
ATOM     24  O   UNL     1      34.501  29.574   8.953  1.00  0.00    -0.507 OA
ATOM     25  H   UNL     1      35.476  29.777   8.788  1.00  0.00     0.293 HD
ENDBRANCH   6  24
BRANCH   8  26
ATOM     26  O   UNL     1      35.565  26.913  12.806  1.00  0.00    -0.508 OA
ATOM     27  H   UNL     1      36.063  26.072  12.539  1.00  0.00     0.293 HD
ENDBRANCH   8  26
TORSDOF 6
ENDMDL
MODEL 5
REMARK VINA RESULT:    -4.770      1.981      6.869
REMARK INTER + INTRA:          -5.982
REMARK INTER:                  -5.660
REMARK INTRA:                  -0.321
REMARK UNBOUND:                -0.236
REMARK SMILES O=c1c(O)c(-c2ccc(O)c(O)c2)oc2cc(O)cc(O)c12
REMARK SMILES IDX 5 1 3 2 2 3 1 4 22 5 20 6 19 7 17 8 16 9 15 10 14 11 6 12
REMARK SMILES IDX 7 13 8 14 9 15 13 16 11 17 10 18 12 20 4 22 21 24 18 26
REMARK H PARENT 10 19 12 21 4 23 21 25 18 27
REMARK Flexibility Score: inf
ROOT
ATOM      1  C   UNL     1      30.505  27.482  10.963  1.00  0.00     0.180 A 
ATOM      2  C   UNL     1      30.712  27.768   9.602  1.00  0.00     0.208 A 
ATOM      3  C   UNL     1      32.025  27.801   9.105  1.00  0.00     0.238 A 
ATOM      4  O   UNL     1      32.201  28.002   7.875  1.00  0.00    -0.285 OA
ATOM      5  C   UNL     1      33.114  27.563   9.977  1.00  0.00     0.111 A 
ATOM      6  C   UNL     1      34.487  27.612   9.591  1.00  0.00     0.134 A 
ATOM      7  C   UNL     1      35.476  27.233  10.507  1.00  0.00     0.093 A 
ATOM      8  C   UNL     1      35.146  26.870  11.815  1.00  0.00     0.123 A 
ATOM      9  C   UNL     1      33.813  26.876  12.219  1.00  0.00     0.094 A 
ATOM     10  C   UNL     1      32.801  27.216  11.317  1.00  0.00     0.146 A 
ATOM     11  O   UNL     1      31.543  27.199  11.741  1.00  0.00    -0.452 OA
ENDROOT
BRANCH   1  12
ATOM     12  C   UNL     1      29.152  27.454  11.565  1.00  0.00     0.025 A 
ATOM     13  C   UNL     1      28.370  26.288  11.550  1.00  0.00     0.016 A 
ATOM     14  C   UNL     1      27.087  26.293  12.102  1.00  0.00     0.051 A 
ATOM     15  C   UNL     1      26.555  27.459  12.664  1.00  0.00     0.157 A 
ATOM     16  C   UNL     1      28.612  28.630  12.108  1.00  0.00     0.062 A 
ATOM     17  C   UNL     1      27.326  28.645  12.663  1.00  0.00     0.158 A 
BRANCH  15  18
ATOM     18  O   UNL     1      25.269  27.395  13.203  1.00  0.00    -0.504 OA
ATOM     19  H   UNL     1      24.512  28.007  12.933  1.00  0.00     0.293 HD
ENDBRANCH  15  18
BRANCH  17  20
ATOM     20  O   UNL     1      26.860  29.848  13.197  1.00  0.00    -0.504 OA
ATOM     21  H   UNL     1      27.420  30.470  13.760  1.00  0.00     0.293 HD
ENDBRANCH  17  20
ENDBRANCH   1  12
BRANCH   2  22
ATOM     22  O   UNL     1      29.620  27.977   8.754  1.00  0.00    -0.502 OA
ATOM     23  H   UNL     1      29.726  28.118   7.757  1.00  0.00     0.293 HD
ENDBRANCH   2  22
BRANCH   6  24
ATOM     24  O   UNL     1      34.931  28.048   8.339  1.00  0.00    -0.507 OA
ATOM     25  H   UNL     1      34.651  28.913   7.900  1.00  0.00     0.293 HD
ENDBRANCH   6  24
BRANCH   8  26
ATOM     26  O   UNL     1      36.138  26.509  12.724  1.00  0.00    -0.508 OA
ATOM     27  H   UNL     1      36.058  26.726  13.711  1.00  0.00     0.293 HD
ENDBRANCH   8  26
TORSDOF 6
ENDMDL
MODEL 6
REMARK VINA RESULT:    -4.694      1.932      3.581
REMARK INTER + INTRA:          -5.890
REMARK INTER:                  -5.584
REMARK INTRA:                  -0.306
REMARK UNBOUND:                -0.236
REMARK SMILES O=c1c(O)c(-c2ccc(O)c(O)c2)oc2cc(O)cc(O)c12
REMARK SMILES IDX 5 1 3 2 2 3 1 4 22 5 20 6 19 7 17 8 16 9 15 10 14 11 6 12
REMARK SMILES IDX 7 13 8 14 9 15 13 16 11 17 10 18 12 20 4 22 21 24 18 26
REMARK H PARENT 10 19 12 21 4 23 21 25 18 27
REMARK Flexibility Score: inf
ROOT
ATOM      1  C   UNL     1      30.713  26.275  13.011  1.00  0.00     0.180 A 
ATOM      2  C   UNL     1      30.687  25.230  13.952  1.00  0.00     0.208 A 
ATOM      3  C   UNL     1      29.463  24.875  14.542  1.00  0.00     0.238 A 
ATOM      4  O   UNL     1      29.437  23.904  15.342  1.00  0.00    -0.285 OA
ATOM      5  C   UNL     1      28.285  25.578  14.196  1.00  0.00     0.111 A 
ATOM      6  C   UNL     1      26.997  25.330  14.761  1.00  0.00     0.134 A 
ATOM      7  C   UNL     1      25.878  25.999  14.250  1.00  0.00     0.093 A 
ATOM      8  C   UNL     1      26.009  26.954  13.238  1.00  0.00     0.123 A 
ATOM      9  C   UNL     1      27.269  27.246  12.722  1.00  0.00     0.094 A 
ATOM     10  C   UNL     1      28.400  26.570  13.187  1.00  0.00     0.146 A 
ATOM     11  O   UNL     1      29.580  26.871  12.659  1.00  0.00    -0.452 OA
ENDROOT
BRANCH   1  12
ATOM     12  C   UNL     1      31.969  26.722  12.366  1.00  0.00     0.025 A 
ATOM     13  C   UNL     1      32.873  27.564  13.032  1.00  0.00     0.016 A 
ATOM     14  C   UNL     1      34.039  27.991  12.393  1.00  0.00     0.051 A 
ATOM     15  C   UNL     1      34.319  27.602  11.079  1.00  0.00     0.157 A 
ATOM     16  C   UNL     1      32.236  26.347  11.040  1.00  0.00     0.062 A 
ATOM     17  C   UNL     1      33.403  26.772  10.391  1.00  0.00     0.158 A 
BRANCH  15  18
ATOM     18  O   UNL     1      35.503  28.061  10.501  1.00  0.00    -0.504 OA
ATOM     19  H   UNL     1      36.393  28.086  10.979  1.00  0.00     0.293 HD
ENDBRANCH  15  18
BRANCH  17  20
ATOM     20  O   UNL     1      33.608  26.350   9.076  1.00  0.00    -0.504 OA
ATOM     21  H   UNL     1      34.283  26.762   8.450  1.00  0.00     0.293 HD
ENDBRANCH  17  20
ENDBRANCH   1  12
BRANCH   2  22
ATOM     22  O   UNL     1      31.859  24.535  14.263  1.00  0.00    -0.502 OA
ATOM     23  H   UNL     1      32.395  24.719  15.102  1.00  0.00     0.293 HD
ENDBRANCH   2  22
BRANCH   6  24
ATOM     24  O   UNL     1      26.770  24.465  15.835  1.00  0.00    -0.507 OA
ATOM     25  H   UNL     1      26.371  23.541  15.754  1.00  0.00     0.293 HD
ENDBRANCH   6  24
BRANCH   8  26
ATOM     26  O   UNL     1      24.892  27.626  12.746  1.00  0.00    -0.508 OA
ATOM     27  H   UNL     1      24.978  28.375  12.070  1.00  0.00     0.293 HD
ENDBRANCH   8  26
TORSDOF 6
ENDMDL
MODEL 7
REMARK VINA RESULT:    -4.691      1.303      3.056
REMARK INTER + INTRA:          -5.887
REMARK INTER:                  -5.607
REMARK INTRA:                  -0.280
REMARK UNBOUND:                -0.236
REMARK SMILES O=c1c(O)c(-c2ccc(O)c(O)c2)oc2cc(O)cc(O)c12
REMARK SMILES IDX 5 1 3 2 2 3 1 4 22 5 20 6 19 7 17 8 16 9 15 10 14 11 6 12
REMARK SMILES IDX 7 13 8 14 9 15 13 16 11 17 10 18 12 20 4 22 21 24 18 26
REMARK H PARENT 10 19 12 21 4 23 21 25 18 27
REMARK Flexibility Score: inf
ROOT
ATOM      1  C   UNL     1      30.654  26.090  13.118  1.00  0.00     0.180 A 
ATOM      2  C   UNL     1      30.092  25.006  13.816  1.00  0.00     0.208 A 
ATOM      3  C   UNL     1      28.702  24.967  14.011  1.00  0.00     0.238 A 
ATOM      4  O   UNL     1      28.200  23.968  14.588  1.00  0.00    -0.285 OA
ATOM      5  C   UNL     1      27.893  26.020  13.520  1.00  0.00     0.111 A 
ATOM      6  C   UNL     1      26.479  26.105  13.696  1.00  0.00     0.134 A 
ATOM      7  C   UNL     1      25.763  27.124  13.055  1.00  0.00     0.093 A 
ATOM      8  C   UNL     1      26.419  28.100  12.299  1.00  0.00     0.123 A 
ATOM      9  C   UNL     1      27.805  28.059  12.171  1.00  0.00     0.094 A 
ATOM     10  C   UNL     1      28.543  27.034  12.769  1.00  0.00     0.146 A 
ATOM     11  O   UNL     1      29.861  27.028  12.613  1.00  0.00    -0.452 OA
ENDROOT
BRANCH   1  12
ATOM     12  C   UNL     1      32.112  26.212  12.895  1.00  0.00     0.025 A 
ATOM     13  C   UNL     1      32.694  25.871  11.665  1.00  0.00     0.016 A 
ATOM     14  C   UNL     1      34.076  25.972  11.486  1.00  0.00     0.051 A 
ATOM     15  C   UNL     1      34.902  26.398  12.531  1.00  0.00     0.157 A 
ATOM     16  C   UNL     1      32.942  26.619  13.952  1.00  0.00     0.062 A 
ATOM     17  C   UNL     1      34.328  26.723  13.782  1.00  0.00     0.158 A 
BRANCH  15  18
ATOM     18  O   UNL     1      36.274  26.480  12.285  1.00  0.00    -0.504 OA
ATOM     19  H   UNL     1      36.744  27.321  11.980  1.00  0.00     0.293 HD
ENDBRANCH  15  18
BRANCH  17  20
ATOM     20  O   UNL     1      35.089  27.146  14.874  1.00  0.00    -0.504 OA
ATOM     21  H   UNL     1      35.488  28.069  14.960  1.00  0.00     0.293 HD
ENDBRANCH  17  20
ENDBRANCH   1  12
BRANCH   2  22
ATOM     22  O   UNL     1      30.907  23.966  14.273  1.00  0.00    -0.502 OA
ATOM     23  H   UNL     1      31.630  24.108  14.969  1.00  0.00     0.293 HD
ENDBRANCH   2  22
BRANCH   6  24
ATOM     24  O   UNL     1      25.739  25.236  14.503  1.00  0.00    -0.507 OA
ATOM     25  H   UNL     1      25.503  25.411  15.469  1.00  0.00     0.293 HD
ENDBRANCH   6  24
BRANCH   8  26
ATOM     26  O   UNL     1      25.700  29.119  11.679  1.00  0.00    -0.508 OA
ATOM     27  H   UNL     1      25.731  30.073  12.019  1.00  0.00     0.293 HD
ENDBRANCH   8  26
TORSDOF 6
ENDMDL
MODEL 8
REMARK VINA RESULT:    -4.565      1.926      7.009
REMARK INTER + INTRA:          -5.735
REMARK INTER:                  -5.476
REMARK INTRA:                  -0.259
REMARK UNBOUND:                -0.236
REMARK SMILES O=c1c(O)c(-c2ccc(O)c(O)c2)oc2cc(O)cc(O)c12
REMARK SMILES IDX 5 1 3 2 2 3 1 4 22 5 20 6 19 7 17 8 16 9 15 10 14 11 6 12
REMARK SMILES IDX 7 13 8 14 9 15 13 16 11 17 10 18 12 20 4 22 21 24 18 26
REMARK H PARENT 10 19 12 21 4 23 21 25 18 27
REMARK Flexibility Score: inf
ROOT
ATOM      1  C   UNL     1      31.639  27.792  10.962  1.00  0.00     0.180 A 
ATOM      2  C   UNL     1      32.006  27.866   9.606  1.00  0.00     0.208 A 
ATOM      3  C   UNL     1      33.302  27.476   9.229  1.00  0.00     0.238 A 
ATOM      4  O   UNL     1      33.607  27.492   8.009  1.00  0.00    -0.285 OA
ATOM      5  C   UNL     1      34.218  27.032  10.214  1.00  0.00     0.111 A 
ATOM      6  C   UNL     1      35.568  26.652   9.951  1.00  0.00     0.134 A 
ATOM      7  C   UNL     1      36.345  26.105  10.980  1.00  0.00     0.093 A 
ATOM      8  C   UNL     1      35.840  25.987  12.278  1.00  0.00     0.123 A 
ATOM      9  C   UNL     1      34.544  26.411  12.557  1.00  0.00     0.094 A 
ATOM     10  C   UNL     1      33.733  26.927  11.543  1.00  0.00     0.146 A 
ATOM     11  O   UNL     1      32.499  27.309  11.851  1.00  0.00    -0.452 OA
ENDROOT
BRANCH   1  12
ATOM     12  C   UNL     1      30.300  28.208  11.438  1.00  0.00     0.025 A 
ATOM     13  C   UNL     1      29.931  29.561  11.489  1.00  0.00     0.016 A 
ATOM     14  C   UNL     1      28.671  29.930  11.965  1.00  0.00     0.051 A 
ATOM     15  C   UNL     1      27.764  28.963  12.411  1.00  0.00     0.157 A 
ATOM     16  C   UNL     1      29.400  27.237  11.905  1.00  0.00     0.062 A 
ATOM     17  C   UNL     1      28.134  27.599  12.385  1.00  0.00     0.158 A 
BRANCH  15  18
ATOM     18  O   UNL     1      26.520  29.399  12.871  1.00  0.00    -0.504 OA
ATOM     19  H   UNL     1      26.037  28.997  13.662  1.00  0.00     0.293 HD
ENDBRANCH  15  18
BRANCH  17  20
ATOM     20  O   UNL     1      27.287  26.578  12.822  1.00  0.00    -0.504 OA
ATOM     21  H   UNL     1      27.605  25.663  13.105  1.00  0.00     0.293 HD
ENDBRANCH  17  20
ENDBRANCH   1  12
BRANCH   2  22
ATOM     22  O   UNL     1      31.079  28.286   8.649  1.00  0.00    -0.502 OA
ATOM     23  H   UNL     1      30.079  28.199   8.786  1.00  0.00     0.293 HD
ENDBRANCH   2  22
BRANCH   6  24
ATOM     24  O   UNL     1      36.198  26.814   8.713  1.00  0.00    -0.507 OA
ATOM     25  H   UNL     1      37.077  27.290   8.574  1.00  0.00     0.293 HD
ENDBRANCH   6  24
BRANCH   8  26
ATOM     26  O   UNL     1      36.625  25.457  13.300  1.00  0.00    -0.508 OA
ATOM     27  H   UNL     1      36.320  25.472  14.266  1.00  0.00     0.293 HD
ENDBRANCH   8  26
TORSDOF 6
ENDMDL
MODEL 9
REMARK VINA RESULT:    -4.549     18.492     19.546
REMARK INTER + INTRA:          -5.716
REMARK INTER:                  -5.430
REMARK INTRA:                  -0.285
REMARK UNBOUND:                -0.236
REMARK SMILES O=c1c(O)c(-c2ccc(O)c(O)c2)oc2cc(O)cc(O)c12
REMARK SMILES IDX 5 1 3 2 2 3 1 4 22 5 20 6 19 7 17 8 16 9 15 10 14 11 6 12
REMARK SMILES IDX 7 13 8 14 9 15 13 16 11 17 10 18 12 20 4 22 21 24 18 26
REMARK H PARENT 10 19 12 21 4 23 21 25 18 27
REMARK Flexibility Score: inf
ROOT
ATOM      1  C   UNL     1      35.059  41.740  24.817  1.00  0.00     0.180 A 
ATOM      2  C   UNL     1      34.009  41.109  25.507  1.00  0.00     0.208 A 
ATOM      3  C   UNL     1      32.697  41.245  25.023  1.00  0.00     0.238 A 
ATOM      4  O   UNL     1      31.769  40.633  25.613  1.00  0.00    -0.285 OA
ATOM      5  C   UNL     1      32.451  42.021  23.866  1.00  0.00     0.111 A 
ATOM      6  C   UNL     1      31.157  42.261  23.311  1.00  0.00     0.134 A 
ATOM      7  C   UNL     1      31.044  42.937  22.090  1.00  0.00     0.093 A 
ATOM      8  C   UNL     1      32.173  43.440  21.437  1.00  0.00     0.123 A 
ATOM      9  C   UNL     1      33.433  43.263  22.001  1.00  0.00     0.094 A 
ATOM     10  C   UNL     1      33.582  42.562  23.200  1.00  0.00     0.146 A 
ATOM     11  O   UNL     1      34.803  42.407  23.697  1.00  0.00    -0.452 OA
ENDROOT
BRANCH   1  12
ATOM     12  C   UNL     1      36.463  41.663  25.280  1.00  0.00     0.025 A 
ATOM     13  C   UNL     1      37.074  42.737  25.945  1.00  0.00     0.016 A 
ATOM     14  C   UNL     1      38.407  42.649  26.350  1.00  0.00     0.051 A 
ATOM     15  C   UNL     1      39.159  41.499  26.089  1.00  0.00     0.157 A 
ATOM     16  C   UNL     1      37.222  40.516  24.997  1.00  0.00     0.062 A 
ATOM     17  C   UNL     1      38.561  40.419  25.399  1.00  0.00     0.158 A 
BRANCH  15  18
ATOM     18  O   UNL     1      40.486  41.475  26.524  1.00  0.00    -0.504 OA
ATOM     19  H   UNL     1      41.284  41.469  25.905  1.00  0.00     0.293 HD
ENDBRANCH  15  18
BRANCH  17  20
ATOM     20  O   UNL     1      39.250  39.244  25.094  1.00  0.00    -0.504 OA
ATOM     21  H   UNL     1      39.310  38.448  25.711  1.00  0.00     0.293 HD
ENDBRANCH  17  20
ENDBRANCH   1  12
BRANCH   2  22
ATOM     22  O   UNL     1      34.278  40.328  26.634  1.00  0.00    -0.502 OA
ATOM     23  H   UNL     1      35.195  39.943  26.822  1.00  0.00     0.293 HD
ENDBRANCH   2  22
BRANCH   6  24
ATOM     24  O   UNL     1      29.961  41.882  23.927  1.00  0.00    -0.507 OA
ATOM     25  H   UNL     1      29.681  40.928  24.099  1.00  0.00     0.293 HD
ENDBRANCH   6  24
BRANCH   8  26
ATOM     26  O   UNL     1      32.049  44.125  20.230  1.00  0.00    -0.508 OA
ATOM     27  H   UNL     1      32.853  44.320  19.646  1.00  0.00     0.293 HD
ENDBRANCH   8  26
TORSDOF 6
ENDMDL
