MODEL 1
REMARK VINA RESULT:    -8.152      0.000      0.000
REMARK INTER + INTRA:          -9.899
REMARK INTER:                  -9.582
REMARK INTRA:                  -0.317
REMARK UNBOUND:                -0.317
REMARK SMILES O=c1cc(-c2ccc(O)c(O)c2)oc2cc(O)cc(O)c12
REMARK SMILES IDX 4 1 3 2 2 3 1 4 21 5 19 6 18 7 16 8 15 9 14 10 13 11 5 12
REMARK SMILES IDX 6 13 7 14 8 15 12 16 10 17 9 18 11 20 20 22 17 24
REMARK H PARENT 9 19 11 21 20 23 17 25
REMARK Flexibility Score: inf
ROOT
ATOM      1  C   UNL     1     -32.091   6.272   1.352  1.00  0.00     0.138 A 
ATOM      2  C   UNL     1     -31.398   5.110   0.985  1.00  0.00     0.100 A 
ATOM      3  C   UNL     1     -30.012   5.150   0.838  1.00  0.00     0.197 A 
ATOM      4  O   UNL     1     -29.425   4.108   0.446  1.00  0.00    -0.289 OA
ATOM      5  C   UNL     1     -29.312   6.354   1.090  1.00  0.00     0.107 A 
ATOM      6  C   UNL     1     -27.894   6.502   1.011  1.00  0.00     0.134 A 
ATOM      7  C   UNL     1     -27.324   7.771   1.169  1.00  0.00     0.093 A 
ATOM      8  C   UNL     1     -28.111   8.884   1.462  1.00  0.00     0.123 A 
ATOM      9  C   UNL     1     -29.492   8.741   1.595  1.00  0.00     0.094 A 
ATOM     10  C   UNL     1     -30.095   7.495   1.408  1.00  0.00     0.146 A 
ATOM     11  O   UNL     1     -31.415   7.403   1.529  1.00  0.00    -0.456 OA
ENDROOT
BRANCH   1  12
ATOM     12  C   UNL     1     -33.566   6.286   1.523  1.00  0.00     0.021 A 
ATOM     13  C   UNL     1     -34.363   5.186   1.153  1.00  0.00     0.016 A 
ATOM     14  C   UNL     1     -35.748   5.223   1.336  1.00  0.00     0.051 A 
ATOM     15  C   UNL     1     -36.359   6.346   1.896  1.00  0.00     0.157 A 
ATOM     16  C   UNL     1     -34.185   7.409   2.099  1.00  0.00     0.062 A 
ATOM     17  C   UNL     1     -35.576   7.446   2.281  1.00  0.00     0.158 A 
BRANCH  15  18
ATOM     18  O   UNL     1     -37.744   6.353   2.064  1.00  0.00    -0.504 OA
ATOM     19  H   UNL     1     -38.229   5.623   2.570  1.00  0.00     0.293 HD
ENDBRANCH  15  18
BRANCH  17  20
ATOM     20  O   UNL     1     -36.178   8.570   2.845  1.00  0.00    -0.504 OA
ATOM     21  H   UNL     1     -36.668   8.523   3.731  1.00  0.00     0.293 HD
ENDBRANCH  17  20
ENDBRANCH   1  12
BRANCH   6  22
ATOM     22  O   UNL     1     -27.008   5.440   0.806  1.00  0.00    -0.507 OA
ATOM     23  H   UNL     1     -26.313   5.134   1.470  1.00  0.00     0.293 HD
ENDBRANCH   6  22
BRANCH   8  24
ATOM     24  O   UNL     1     -27.506  10.128   1.627  1.00  0.00    -0.508 OA
ATOM     25  H   UNL     1     -26.721  10.417   1.054  1.00  0.00     0.293 HD
ENDBRANCH   8  24
TORSDOF 5
ENDMDL
MODEL 2
REMARK VINA RESULT:    -8.107      1.121      1.699
REMARK INTER + INTRA:          -9.846
REMARK INTER:                  -9.568
REMARK INTRA:                  -0.278
REMARK UNBOUND:                -0.317
REMARK SMILES O=c1cc(-c2ccc(O)c(O)c2)oc2cc(O)cc(O)c12
REMARK SMILES IDX 4 1 3 2 2 3 1 4 21 5 19 6 18 7 16 8 15 9 14 10 13 11 5 12
REMARK SMILES IDX 6 13 7 14 8 15 12 16 10 17 9 18 11 20 20 22 17 24
REMARK H PARENT 9 19 11 21 20 23 17 25
REMARK Flexibility Score: inf
ROOT
ATOM      1  C   UNL     1     -32.466   5.774   1.508  1.00  0.00     0.138 A 
ATOM      2  C   UNL     1     -31.735   4.724   0.934  1.00  0.00     0.100 A 
ATOM      3  C   UNL     1     -30.356   4.853   0.770  1.00  0.00     0.197 A 
ATOM      4  O   UNL     1     -29.737   3.921   0.195  1.00  0.00    -0.289 OA
ATOM      5  C   UNL     1     -29.701   6.027   1.212  1.00  0.00     0.107 A 
ATOM      6  C   UNL     1     -28.294   6.251   1.133  1.00  0.00     0.134 A 
ATOM      7  C   UNL     1     -27.773   7.499   1.496  1.00  0.00     0.093 A 
ATOM      8  C   UNL     1     -28.598   8.509   1.991  1.00  0.00     0.123 A 
ATOM      9  C   UNL     1     -29.969   8.282   2.123  1.00  0.00     0.094 A 
ATOM     10  C   UNL     1     -30.523   7.059   1.736  1.00  0.00     0.146 A 
ATOM     11  O   UNL     1     -31.835   6.887   1.864  1.00  0.00    -0.456 OA
ENDROOT
BRANCH   1  12
ATOM     12  C   UNL     1     -33.936   5.690   1.707  1.00  0.00     0.021 A 
ATOM     13  C   UNL     1     -34.782   6.779   1.430  1.00  0.00     0.016 A 
ATOM     14  C   UNL     1     -36.162   6.669   1.617  1.00  0.00     0.051 A 
ATOM     15  C   UNL     1     -36.722   5.473   2.073  1.00  0.00     0.157 A 
ATOM     16  C   UNL     1     -34.506   4.484   2.153  1.00  0.00     0.062 A 
ATOM     17  C   UNL     1     -35.891   4.373   2.341  1.00  0.00     0.158 A 
BRANCH  15  18
ATOM     18  O   UNL     1     -38.103   5.394   2.251  1.00  0.00    -0.504 OA
ATOM     19  H   UNL     1     -38.750   5.933   1.690  1.00  0.00     0.293 HD
ENDBRANCH  15  18
BRANCH  17  20
ATOM     20  O   UNL     1     -36.442   3.175   2.793  1.00  0.00    -0.504 OA
ATOM     21  H   UNL     1     -35.873   2.349   2.937  1.00  0.00     0.293 HD
ENDBRANCH  17  20
ENDBRANCH   1  12
BRANCH   6  22
ATOM     22  O   UNL     1     -27.369   5.282   0.733  1.00  0.00    -0.507 OA
ATOM     23  H   UNL     1     -26.593   5.448   0.110  1.00  0.00     0.293 HD
ENDBRANCH   6  22
BRANCH   8  24
ATOM     24  O   UNL     1     -28.042   9.733   2.356  1.00  0.00    -0.508 OA
ATOM     25  H   UNL     1     -27.094   9.801   2.706  1.00  0.00     0.293 HD
ENDBRANCH   8  24
TORSDOF 5
ENDMDL
MODEL 3
REMARK VINA RESULT:    -8.054      1.748      7.046
REMARK INTER + INTRA:          -9.783
REMARK INTER:                  -9.492
REMARK INTRA:                  -0.292
REMARK UNBOUND:                -0.317
REMARK SMILES O=c1cc(-c2ccc(O)c(O)c2)oc2cc(O)cc(O)c12
REMARK SMILES IDX 4 1 3 2 2 3 1 4 21 5 19 6 18 7 16 8 15 9 14 10 13 11 5 12
REMARK SMILES IDX 6 13 7 14 8 15 12 16 10 17 9 18 11 20 20 22 17 24
REMARK H PARENT 9 19 11 21 20 23 17 25
REMARK Flexibility Score: inf
ROOT
ATOM      1  C   UNL     1     -29.968   6.945   0.981  1.00  0.00     0.138 A 
ATOM      2  C   UNL     1     -30.175   5.999  -0.032  1.00  0.00     0.100 A 
ATOM      3  C   UNL     1     -31.473   5.596  -0.346  1.00  0.00     0.197 A 
ATOM      4  O   UNL     1     -31.623   4.700  -1.217  1.00  0.00    -0.289 OA
ATOM      5  C   UNL     1     -32.572   6.168   0.338  1.00  0.00     0.107 A 
ATOM      6  C   UNL     1     -33.941   5.864   0.074  1.00  0.00     0.134 A 
ATOM      7  C   UNL     1     -34.938   6.405   0.895  1.00  0.00     0.093 A 
ATOM      8  C   UNL     1     -34.622   7.285   1.929  1.00  0.00     0.123 A 
ATOM      9  C   UNL     1     -33.291   7.631   2.162  1.00  0.00     0.094 A 
ATOM     10  C   UNL     1     -32.270   7.081   1.383  1.00  0.00     0.146 A 
ATOM     11  O   UNL     1     -31.014   7.425   1.646  1.00  0.00    -0.456 OA
ENDROOT
BRANCH   1  12
ATOM     12  C   UNL     1     -28.608   7.410   1.355  1.00  0.00     0.021 A 
ATOM     13  C   UNL     1     -28.411   8.557   2.147  1.00  0.00     0.016 A 
ATOM     14  C   UNL     1     -27.120   8.965   2.492  1.00  0.00     0.051 A 
ATOM     15  C   UNL     1     -26.008   8.237   2.063  1.00  0.00     0.157 A 
ATOM     16  C   UNL     1     -27.485   6.673   0.938  1.00  0.00     0.062 A 
ATOM     17  C   UNL     1     -26.189   7.084   1.283  1.00  0.00     0.158 A 
BRANCH  15  18
ATOM     18  O   UNL     1     -24.732   8.671   2.423  1.00  0.00    -0.504 OA
ATOM     19  H   UNL     1     -24.206   8.236   3.170  1.00  0.00     0.293 HD
ENDBRANCH  15  18
BRANCH  17  20
ATOM     20  O   UNL     1     -25.084   6.349   0.855  1.00  0.00    -0.504 OA
ATOM     21  H   UNL     1     -24.230   6.308   1.398  1.00  0.00     0.293 HD
ENDBRANCH  17  20
ENDBRANCH   1  12
BRANCH   6  22
ATOM     22  O   UNL     1     -34.373   5.063  -0.987  1.00  0.00    -0.507 OA
ATOM     23  H   UNL     1     -34.229   5.272  -1.964  1.00  0.00     0.293 HD
ENDBRANCH   6  22
BRANCH   8  24
ATOM     24  O   UNL     1     -35.642   7.815   2.716  1.00  0.00    -0.508 OA
ATOM     25  H   UNL     1     -35.470   8.139   3.660  1.00  0.00     0.293 HD
ENDBRANCH   8  24
TORSDOF 5
ENDMDL
MODEL 4
REMARK VINA RESULT:    -7.985      1.940      7.426
REMARK INTER + INTRA:          -9.702
REMARK INTER:                  -9.418
REMARK INTRA:                  -0.284
REMARK UNBOUND:                -0.317
REMARK SMILES O=c1cc(-c2ccc(O)c(O)c2)oc2cc(O)cc(O)c12
REMARK SMILES IDX 4 1 3 2 2 3 1 4 21 5 19 6 18 7 16 8 15 9 14 10 13 11 5 12
REMARK SMILES IDX 6 13 7 14 8 15 12 16 10 17 9 18 11 20 20 22 17 24
REMARK H PARENT 9 19 11 21 20 23 17 25
REMARK Flexibility Score: inf
ROOT
ATOM      1  C   UNL     1     -29.890   7.766   2.084  1.00  0.00     0.138 A 
ATOM      2  C   UNL     1     -30.404   8.083   3.349  1.00  0.00     0.100 A 
ATOM      3  C   UNL     1     -31.751   7.847   3.625  1.00  0.00     0.197 A 
ATOM      4  O   UNL     1     -32.197   8.200   4.747  1.00  0.00    -0.289 OA
ATOM      5  C   UNL     1     -32.579   7.260   2.640  1.00  0.00     0.107 A 
ATOM      6  C   UNL     1     -33.957   6.935   2.824  1.00  0.00     0.134 A 
ATOM      7  C   UNL     1     -34.705   6.464   1.738  1.00  0.00     0.093 A 
ATOM      8  C   UNL     1     -34.114   6.249   0.494  1.00  0.00     0.123 A 
ATOM      9  C   UNL     1     -32.755   6.512   0.317  1.00  0.00     0.094 A 
ATOM     10  C   UNL     1     -31.989   7.015   1.371  1.00  0.00     0.146 A 
ATOM     11  O   UNL     1     -30.702   7.266   1.158  1.00  0.00    -0.456 OA
ENDROOT
BRANCH   1  12
ATOM     12  C   UNL     1     -28.464   7.995   1.736  1.00  0.00     0.021 A 
ATOM     13  C   UNL     1     -27.849   9.247   1.929  1.00  0.00     0.016 A 
ATOM     14  C   UNL     1     -26.503   9.431   1.602  1.00  0.00     0.051 A 
ATOM     15  C   UNL     1     -25.747   8.375   1.088  1.00  0.00     0.157 A 
ATOM     16  C   UNL     1     -27.695   6.932   1.231  1.00  0.00     0.062 A 
ATOM     17  C   UNL     1     -26.344   7.118   0.902  1.00  0.00     0.158 A 
BRANCH  15  18
ATOM     18  O   UNL     1     -24.407   8.591   0.770  1.00  0.00    -0.504 OA
ATOM     19  H   UNL     1     -23.870   9.344   1.181  1.00  0.00     0.293 HD
ENDBRANCH  15  18
BRANCH  17  20
ATOM     20  O   UNL     1     -25.595   6.057   0.393  1.00  0.00    -0.504 OA
ATOM     21  H   UNL     1     -26.034   5.276  -0.080  1.00  0.00     0.293 HD
ENDBRANCH  17  20
ENDBRANCH   1  12
BRANCH   6  22
ATOM     22  O   UNL     1     -34.626   7.033   4.048  1.00  0.00    -0.507 OA
ATOM     23  H   UNL     1     -35.599   7.278   4.154  1.00  0.00     0.293 HD
ENDBRANCH   6  22
BRANCH   8  24
ATOM     24  O   UNL     1     -34.887   5.765  -0.559  1.00  0.00    -0.508 OA
ATOM     25  H   UNL     1     -35.712   6.259  -0.882  1.00  0.00     0.293 HD
ENDBRANCH   8  24
TORSDOF 5
ENDMDL
MODEL 5
REMARK VINA RESULT:    -7.944      1.915      2.927
REMARK INTER + INTRA:          -9.653
REMARK INTER:                  -9.390
REMARK INTRA:                  -0.264
REMARK UNBOUND:                -0.317
REMARK SMILES O=c1cc(-c2ccc(O)c(O)c2)oc2cc(O)cc(O)c12
REMARK SMILES IDX 4 1 3 2 2 3 1 4 21 5 19 6 18 7 16 8 15 9 14 10 13 11 5 12
REMARK SMILES IDX 6 13 7 14 8 15 12 16 10 17 9 18 11 20 20 22 17 24
REMARK H PARENT 9 19 11 21 20 23 17 25
REMARK Flexibility Score: inf
ROOT
ATOM      1  C   UNL     1     -32.736   7.025   2.482  1.00  0.00     0.138 A 
ATOM      2  C   UNL     1     -32.177   7.451   3.695  1.00  0.00     0.100 A 
ATOM      3  C   UNL     1     -30.854   7.893   3.728  1.00  0.00     0.197 A 
ATOM      4  O   UNL     1     -30.361   8.210   4.841  1.00  0.00    -0.289 OA
ATOM      5  C   UNL     1     -30.098   7.938   2.533  1.00  0.00     0.107 A 
ATOM      6  C   UNL     1     -28.754   8.409   2.440  1.00  0.00     0.134 A 
ATOM      7  C   UNL     1     -28.067   8.297   1.224  1.00  0.00     0.093 A 
ATOM      8  C   UNL     1     -28.692   7.790   0.086  1.00  0.00     0.123 A 
ATOM      9  C   UNL     1     -30.023   7.376   0.153  1.00  0.00     0.094 A 
ATOM     10  C   UNL     1     -30.725   7.442   1.359  1.00  0.00     0.146 A 
ATOM     11  O   UNL     1     -31.986   7.025   1.385  1.00  0.00    -0.456 OA
ENDROOT
BRANCH   1  12
ATOM     12  C   UNL     1     -34.139   6.545   2.390  1.00  0.00     0.021 A 
ATOM     13  C   UNL     1     -35.208   7.430   2.154  1.00  0.00     0.016 A 
ATOM     14  C   UNL     1     -36.517   6.950   2.062  1.00  0.00     0.051 A 
ATOM     15  C   UNL     1     -36.781   5.585   2.194  1.00  0.00     0.157 A 
ATOM     16  C   UNL     1     -34.409   5.171   2.508  1.00  0.00     0.062 A 
ATOM     17  C   UNL     1     -35.724   4.689   2.417  1.00  0.00     0.158 A 
BRANCH  15  18
ATOM     18  O   UNL     1     -38.098   5.136   2.098  1.00  0.00    -0.504 OA
ATOM     19  H   UNL     1     -38.465   4.717   1.253  1.00  0.00     0.293 HD
ENDBRANCH  15  18
BRANCH  17  20
ATOM     20  O   UNL     1     -35.979   3.324   2.546  1.00  0.00    -0.504 OA
ATOM     21  H   UNL     1     -35.743   2.816   3.390  1.00  0.00     0.293 HD
ENDBRANCH  17  20
ENDBRANCH   1  12
BRANCH   6  22
ATOM     22  O   UNL     1     -28.062   9.012   3.494  1.00  0.00    -0.507 OA
ATOM     23  H   UNL     1     -27.314   8.579   4.015  1.00  0.00     0.293 HD
ENDBRANCH   6  22
BRANCH   8  24
ATOM     24  O   UNL     1     -27.982   7.707  -1.109  1.00  0.00    -0.508 OA
ATOM     25  H   UNL     1     -28.447   7.531  -1.992  1.00  0.00     0.293 HD
ENDBRANCH   8  24
TORSDOF 5
ENDMDL
MODEL 6
REMARK VINA RESULT:    -7.680      1.136      1.662
REMARK INTER + INTRA:          -9.343
REMARK INTER:                  -9.065
REMARK INTRA:                  -0.278
REMARK UNBOUND:                -0.317
REMARK SMILES O=c1cc(-c2ccc(O)c(O)c2)oc2cc(O)cc(O)c12
REMARK SMILES IDX 4 1 3 2 2 3 1 4 21 5 19 6 18 7 16 8 15 9 14 10 13 11 5 12
REMARK SMILES IDX 6 13 7 14 8 15 12 16 10 17 9 18 11 20 20 22 17 24
REMARK H PARENT 9 19 11 21 20 23 17 25
REMARK Flexibility Score: inf
ROOT
ATOM      1  C   UNL     1     -31.213   6.774   1.417  1.00  0.00     0.138 A 
ATOM      2  C   UNL     1     -30.641   5.642   0.821  1.00  0.00     0.100 A 
ATOM      3  C   UNL     1     -29.268   5.612   0.573  1.00  0.00     0.197 A 
ATOM      4  O   UNL     1     -28.794   4.609  -0.021  1.00  0.00    -0.289 OA
ATOM      5  C   UNL     1     -28.460   6.709   0.954  1.00  0.00     0.107 A 
ATOM      6  C   UNL     1     -27.044   6.772   0.789  1.00  0.00     0.134 A 
ATOM      7  C   UNL     1     -26.365   7.957   1.097  1.00  0.00     0.093 A 
ATOM      8  C   UNL     1     -27.040   9.059   1.621  1.00  0.00     0.123 A 
ATOM      9  C   UNL     1     -28.417   8.990   1.838  1.00  0.00     0.094 A 
ATOM     10  C   UNL     1     -29.128   7.834   1.507  1.00  0.00     0.146 A 
ATOM     11  O   UNL     1     -30.440   7.813   1.716  1.00  0.00    -0.456 OA
ENDROOT
BRANCH   1  12
ATOM     12  C   UNL     1     -32.668   6.859   1.705  1.00  0.00     0.021 A 
ATOM     13  C   UNL     1     -33.155   7.450   2.886  1.00  0.00     0.016 A 
ATOM     14  C   UNL     1     -34.529   7.525   3.125  1.00  0.00     0.051 A 
ATOM     15  C   UNL     1     -35.439   7.023   2.192  1.00  0.00     0.157 A 
ATOM     16  C   UNL     1     -33.589   6.367   0.763  1.00  0.00     0.062 A 
ATOM     17  C   UNL     1     -34.969   6.442   1.004  1.00  0.00     0.158 A 
BRANCH  15  18
ATOM     18  O   UNL     1     -36.805   7.112   2.460  1.00  0.00    -0.504 OA
ATOM     19  H   UNL     1     -37.241   7.976   2.757  1.00  0.00     0.293 HD
ENDBRANCH  15  18
BRANCH  17  20
ATOM     20  O   UNL     1     -35.871   5.942   0.066  1.00  0.00    -0.504 OA
ATOM     21  H   UNL     1     -36.869   5.928   0.242  1.00  0.00     0.293 HD
ENDBRANCH  17  20
ENDBRANCH   1  12
BRANCH   6  22
ATOM     22  O   UNL     1     -26.260   5.700   0.352  1.00  0.00    -0.507 OA
ATOM     23  H   UNL     1     -25.281   5.760   0.116  1.00  0.00     0.293 HD
ENDBRANCH   6  22
BRANCH   8  24
ATOM     24  O   UNL     1     -26.329  10.217   1.930  1.00  0.00    -0.508 OA
ATOM     25  H   UNL     1     -26.765  10.993   2.414  1.00  0.00     0.293 HD
ENDBRANCH   8  24
TORSDOF 5
ENDMDL
MODEL 7
REMARK VINA RESULT:    -7.649      1.997      7.102
REMARK INTER + INTRA:          -9.307
REMARK INTER:                  -9.021
REMARK INTRA:                  -0.286
REMARK UNBOUND:                -0.317
REMARK SMILES O=c1cc(-c2ccc(O)c(O)c2)oc2cc(O)cc(O)c12
REMARK SMILES IDX 4 1 3 2 2 3 1 4 21 5 19 6 18 7 16 8 15 9 14 10 13 11 5 12
REMARK SMILES IDX 6 13 7 14 8 15 12 16 10 17 9 18 11 20 20 22 17 24
REMARK H PARENT 9 19 11 21 20 23 17 25
REMARK Flexibility Score: inf
ROOT
ATOM      1  C   UNL     1     -29.186   7.109   1.240  1.00  0.00     0.138 A 
ATOM      2  C   UNL     1     -29.260   5.815   0.706  1.00  0.00     0.100 A 
ATOM      3  C   UNL     1     -30.409   5.050   0.906  1.00  0.00     0.197 A 
ATOM      4  O   UNL     1     -30.421   3.870   0.468  1.00  0.00    -0.289 OA
ATOM      5  C   UNL     1     -31.503   5.597   1.617  1.00  0.00     0.107 A 
ATOM      6  C   UNL     1     -32.741   4.925   1.847  1.00  0.00     0.134 A 
ATOM      7  C   UNL     1     -33.709   5.521   2.665  1.00  0.00     0.093 A 
ATOM      8  C   UNL     1     -33.509   6.789   3.211  1.00  0.00     0.123 A 
ATOM      9  C   UNL     1     -32.324   7.478   2.949  1.00  0.00     0.094 A 
ATOM     10  C   UNL     1     -31.326   6.895   2.165  1.00  0.00     0.146 A 
ATOM     11  O   UNL     1     -30.206   7.578   1.951  1.00  0.00    -0.456 OA
ENDROOT
BRANCH   1  12
ATOM     12  C   UNL     1     -27.988   7.967   1.057  1.00  0.00     0.021 A 
ATOM     13  C   UNL     1     -27.610   8.924   2.017  1.00  0.00     0.016 A 
ATOM     14  C   UNL     1     -26.472   9.710   1.823  1.00  0.00     0.051 A 
ATOM     15  C   UNL     1     -25.687   9.552   0.678  1.00  0.00     0.157 A 
ATOM     16  C   UNL     1     -27.187   7.802  -0.088  1.00  0.00     0.062 A 
ATOM     17  C   UNL     1     -26.044   8.592  -0.283  1.00  0.00     0.158 A 
BRANCH  15  18
ATOM     18  O   UNL     1     -24.558  10.352   0.512  1.00  0.00    -0.504 OA
ATOM     19  H   UNL     1     -23.621  10.003   0.674  1.00  0.00     0.293 HD
ENDBRANCH  15  18
BRANCH  17  20
ATOM     20  O   UNL     1     -25.265   8.424  -1.427  1.00  0.00    -0.504 OA
ATOM     21  H   UNL     1     -24.253   8.465  -1.391  1.00  0.00     0.293 HD
ENDBRANCH  17  20
ENDBRANCH   1  12
BRANCH   6  22
ATOM     22  O   UNL     1     -33.078   3.692   1.280  1.00  0.00    -0.507 OA
ATOM     23  H   UNL     1     -32.486   3.163   0.657  1.00  0.00     0.293 HD
ENDBRANCH   6  22
BRANCH   8  24
ATOM     24  O   UNL     1     -34.500   7.357   4.008  1.00  0.00    -0.508 OA
ATOM     25  H   UNL     1     -34.571   7.146   4.997  1.00  0.00     0.293 HD
ENDBRANCH   8  24
TORSDOF 5
ENDMDL
MODEL 8
REMARK VINA RESULT:    -7.487      1.756      7.236
REMARK INTER + INTRA:          -9.116
REMARK INTER:                  -8.837
REMARK INTRA:                  -0.280
REMARK UNBOUND:                -0.317
REMARK SMILES O=c1cc(-c2ccc(O)c(O)c2)oc2cc(O)cc(O)c12
REMARK SMILES IDX 4 1 3 2 2 3 1 4 21 5 19 6 18 7 16 8 15 9 14 10 13 11 5 12
REMARK SMILES IDX 6 13 7 14 8 15 12 16 10 17 9 18 11 20 20 22 17 24
REMARK H PARENT 9 19 11 21 20 23 17 25
REMARK Flexibility Score: inf
ROOT
ATOM      1  C   UNL     1     -31.894   6.617   1.824  1.00  0.00     0.138 A 
ATOM      2  C   UNL     1     -32.866   7.625   1.888  1.00  0.00     0.100 A 
ATOM      3  C   UNL     1     -34.207   7.282   2.057  1.00  0.00     0.197 A 
ATOM      4  O   UNL     1     -35.062   8.205   2.048  1.00  0.00    -0.289 OA
ATOM      5  C   UNL     1     -34.573   5.922   2.195  1.00  0.00     0.107 A 
ATOM      6  C   UNL     1     -35.905   5.457   2.414  1.00  0.00     0.134 A 
ATOM      7  C   UNL     1     -36.162   4.080   2.418  1.00  0.00     0.093 A 
ATOM      8  C   UNL     1     -35.131   3.153   2.274  1.00  0.00     0.123 A 
ATOM      9  C   UNL     1     -33.817   3.596   2.113  1.00  0.00     0.094 A 
ATOM     10  C   UNL     1     -33.533   4.963   2.070  1.00  0.00     0.146 A 
ATOM     11  O   UNL     1     -32.271   5.345   1.902  1.00  0.00    -0.456 OA
ENDROOT
BRANCH   1  12
ATOM     12  C   UNL     1     -30.452   6.926   1.646  1.00  0.00     0.021 A 
ATOM     13  C   UNL     1     -29.630   6.157   0.802  1.00  0.00     0.016 A 
ATOM     14  C   UNL     1     -28.279   6.477   0.645  1.00  0.00     0.051 A 
ATOM     15  C   UNL     1     -27.728   7.570   1.318  1.00  0.00     0.157 A 
ATOM     16  C   UNL     1     -29.895   8.033   2.310  1.00  0.00     0.062 A 
ATOM     17  C   UNL     1     -28.538   8.354   2.154  1.00  0.00     0.158 A 
BRANCH  15  18
ATOM     18  O   UNL     1     -26.376   7.864   1.143  1.00  0.00    -0.504 OA
ATOM     19  H   UNL     1     -25.828   7.454   0.396  1.00  0.00     0.293 HD
ENDBRANCH  15  18
BRANCH  17  20
ATOM     20  O   UNL     1     -27.996   9.449   2.826  1.00  0.00    -0.504 OA
ATOM     21  H   UNL     1     -28.072  10.390   2.458  1.00  0.00     0.293 HD
ENDBRANCH  17  20
ENDBRANCH   1  12
BRANCH   6  22
ATOM     22  O   UNL     1     -36.996   6.296   2.653  1.00  0.00    -0.507 OA
ATOM     23  H   UNL     1     -37.528   6.320   3.510  1.00  0.00     0.293 HD
ENDBRANCH   6  22
BRANCH   8  24
ATOM     24  O   UNL     1     -35.423   1.791   2.298  1.00  0.00    -0.508 OA
ATOM     25  H   UNL     1     -34.827   1.113   1.838  1.00  0.00     0.293 HD
ENDBRANCH   8  24
TORSDOF 5
ENDMDL
MODEL 9
REMARK VINA RESULT:    -7.179      2.044      7.174
REMARK INTER + INTRA:          -8.754
REMARK INTER:                  -8.466
REMARK INTRA:                  -0.289
REMARK UNBOUND:                -0.317
REMARK SMILES O=c1cc(-c2ccc(O)c(O)c2)oc2cc(O)cc(O)c12
REMARK SMILES IDX 4 1 3 2 2 3 1 4 21 5 19 6 18 7 16 8 15 9 14 10 13 11 5 12
REMARK SMILES IDX 6 13 7 14 8 15 12 16 10 17 9 18 11 20 20 22 17 24
REMARK H PARENT 9 19 11 21 20 23 17 25
REMARK Flexibility Score: inf
ROOT
ATOM      1  C   UNL     1     -30.289   7.087   1.479  1.00  0.00     0.138 A 
ATOM      2  C   UNL     1     -31.026   7.723   2.487  1.00  0.00     0.100 A 
ATOM      3  C   UNL     1     -32.244   7.181   2.898  1.00  0.00     0.197 A 
ATOM      4  O   UNL     1     -32.913   7.808   3.760  1.00  0.00    -0.289 OA
ATOM      5  C   UNL     1     -32.711   5.978   2.316  1.00  0.00     0.107 A 
ATOM      6  C   UNL     1     -33.918   5.313   2.685  1.00  0.00     0.134 A 
ATOM      7  C   UNL     1     -34.337   4.190   1.958  1.00  0.00     0.093 A 
ATOM      8  C   UNL     1     -33.563   3.675   0.919  1.00  0.00     0.123 A 
ATOM      9  C   UNL     1     -32.354   4.287   0.585  1.00  0.00     0.094 A 
ATOM     10  C   UNL     1     -31.927   5.428   1.268  1.00  0.00     0.146 A 
ATOM     11  O   UNL     1     -30.776   5.989   0.911  1.00  0.00    -0.456 OA
ENDROOT
BRANCH   1  12
ATOM     12  C   UNL     1     -28.986   7.620   1.004  1.00  0.00     0.021 A 
ATOM     13  C   UNL     1     -28.499   7.340  -0.286  1.00  0.00     0.016 A 
ATOM     14  C   UNL     1     -27.274   7.863  -0.709  1.00  0.00     0.051 A 
ATOM     15  C   UNL     1     -26.521   8.678   0.139  1.00  0.00     0.157 A 
ATOM     16  C   UNL     1     -28.230   8.452   1.849  1.00  0.00     0.062 A 
ATOM     17  C   UNL     1     -27.000   8.976   1.424  1.00  0.00     0.158 A 
BRANCH  15  18
ATOM     18  O   UNL     1     -25.302   9.184  -0.312  1.00  0.00    -0.504 OA
ATOM     19  H   UNL     1     -24.620   8.605  -0.787  1.00  0.00     0.293 HD
ENDBRANCH  15  18
BRANCH  17  20
ATOM     20  O   UNL     1     -26.255   9.792   2.276  1.00  0.00    -0.504 OA
ATOM     21  H   UNL     1     -25.852  10.665   1.957  1.00  0.00     0.293 HD
ENDBRANCH  17  20
ENDBRANCH   1  12
BRANCH   6  22
ATOM     22  O   UNL     1     -34.724   5.694   3.762  1.00  0.00    -0.507 OA
ATOM     23  H   UNL     1     -34.815   5.179   4.624  1.00  0.00     0.293 HD
ENDBRANCH   6  22
BRANCH   8  24
ATOM     24  O   UNL     1     -34.004   2.549   0.228  1.00  0.00    -0.508 OA
ATOM     25  H   UNL     1     -33.919   2.478  -0.779  1.00  0.00     0.293 HD
ENDBRANCH   8  24
TORSDOF 5
ENDMDL
