MODEL 1
REMARK VINA RESULT:    -4.865      0.000      0.000
REMARK INTER + INTRA:          -5.149
REMARK INTER:                  -5.149
REMARK INTRA:                   0.000
REMARK UNBOUND:                 0.000
REMARK SMILES O=c1ccc2cc(O)c(O)cc2o1
REMARK SMILES IDX 4 1 3 2 2 3 1 4 13 5 12 6 11 7 9 8 7 9 6 10 5 11 8 12 10 14
REMARK H PARENT 8 13 10 15
REMARK Flexibility Score: inf
ROOT
ATOM      1  C   UNL     1      32.669  29.890  27.376  1.00  0.00     0.019 A 
ATOM      2  C   UNL     1      32.221  28.923  28.275  1.00  0.00     0.094 A 
ATOM      3  C   UNL     1      30.855  28.628  28.331  1.00  0.00     0.336 A 
ATOM      4  O   UNL     1      30.432  27.759  29.137  1.00  0.00    -0.246 OA
ATOM      5  O   UNL     1      29.996  29.262  27.536  1.00  0.00    -0.423 OA
ATOM      6  C   UNL     1      30.380  30.191  26.663  1.00  0.00     0.142 A 
ATOM      7  C   UNL     1      29.433  30.824  25.854  1.00  0.00     0.098 A 
ATOM      8  C   UNL     1      29.833  31.804  24.932  1.00  0.00     0.161 A 
ATOM      9  C   UNL     1      31.187  32.151  24.821  1.00  0.00     0.158 A 
ATOM     10  C   UNL     1      32.143  31.520  25.631  1.00  0.00     0.062 A 
ATOM     11  C   UNL     1      31.743  30.540  26.551  1.00  0.00     0.022 A 
ENDROOT
BRANCH   9  12
ATOM     12  O   UNL     1      31.575  33.125  23.903  1.00  0.00    -0.504 OA
ATOM     13  H   UNL     1      32.346  33.755  24.093  1.00  0.00     0.293 HD
ENDBRANCH   9  12
BRANCH   8  14
ATOM     14  O   UNL     1      28.890  32.437  24.123  1.00  0.00    -0.504 OA
ATOM     15  H   UNL     1      29.159  33.149  23.455  1.00  0.00     0.293 HD
ENDBRANCH   8  14
TORSDOF 2
ENDMDL
MODEL 2
REMARK VINA RESULT:    -4.453     13.954     15.881
REMARK INTER + INTRA:          -4.714
REMARK INTER:                  -4.714
REMARK INTRA:                   0.000
REMARK UNBOUND:                 0.000
REMARK SMILES O=c1ccc2cc(O)c(O)cc2o1
REMARK SMILES IDX 4 1 3 2 2 3 1 4 13 5 12 6 11 7 9 8 7 9 6 10 5 11 8 12 10 14
REMARK H PARENT 8 13 10 15
REMARK Flexibility Score: inf
ROOT
ATOM      1  C   UNL     1      44.116  30.169  26.410  1.00  0.00     0.019 A 
ATOM      2  C   UNL     1      44.631  30.995  25.411  1.00  0.00     0.094 A 
ATOM      3  C   UNL     1      46.018  31.122  25.284  1.00  0.00     0.336 A 
ATOM      4  O   UNL     1      46.503  31.863  24.389  1.00  0.00    -0.246 OA
ATOM      5  O   UNL     1      46.833  30.463  26.105  1.00  0.00    -0.423 OA
ATOM      6  C   UNL     1      46.383  29.665  27.071  1.00  0.00     0.142 A 
ATOM      7  C   UNL     1      47.287  28.999  27.904  1.00  0.00     0.098 A 
ATOM      8  C   UNL     1      46.818  28.156  28.924  1.00  0.00     0.161 A 
ATOM      9  C   UNL     1      45.439  27.981  29.110  1.00  0.00     0.158 A 
ATOM     10  C   UNL     1      44.527  28.647  28.277  1.00  0.00     0.062 A 
ATOM     11  C   UNL     1      44.996  29.488  27.258  1.00  0.00     0.022 A 
ENDROOT
BRANCH   9  12
ATOM     12  O   UNL     1      44.982  27.142  30.125  1.00  0.00    -0.504 OA
ATOM     13  H   UNL     1      45.619  26.717  30.789  1.00  0.00     0.293 HD
ENDBRANCH   9  12
BRANCH   8  14
ATOM     14  O   UNL     1      47.716  27.490  29.755  1.00  0.00    -0.504 OA
ATOM     15  H   UNL     1      48.041  26.554  29.543  1.00  0.00     0.293 HD
ENDBRANCH   8  14
TORSDOF 2
ENDMDL
MODEL 3
REMARK VINA RESULT:    -4.341     13.627     14.972
REMARK INTER + INTRA:          -4.595
REMARK INTER:                  -4.595
REMARK INTRA:                   0.000
REMARK UNBOUND:                 0.000
REMARK SMILES O=c1ccc2cc(O)c(O)cc2o1
REMARK SMILES IDX 4 1 3 2 2 3 1 4 13 5 12 6 11 7 9 8 7 9 6 10 5 11 8 12 10 14
REMARK H PARENT 8 13 10 15
REMARK Flexibility Score: inf
ROOT
ATOM      1  C   UNL     1      43.057  26.404  29.754  1.00  0.00     0.019 A 
ATOM      2  C   UNL     1      43.440  25.077  29.941  1.00  0.00     0.094 A 
ATOM      3  C   UNL     1      44.803  24.760  29.958  1.00  0.00     0.336 A 
ATOM      4  O   UNL     1      45.169  23.567  30.125  1.00  0.00    -0.246 OA
ATOM      5  O   UNL     1      45.718  25.713  29.800  1.00  0.00    -0.423 OA
ATOM      6  C   UNL     1      45.396  26.992  29.619  1.00  0.00     0.142 A 
ATOM      7  C   UNL     1      46.401  27.950  29.458  1.00  0.00     0.098 A 
ATOM      8  C   UNL     1      46.066  29.300  29.268  1.00  0.00     0.161 A 
ATOM      9  C   UNL     1      44.719  29.691  29.239  1.00  0.00     0.158 A 
ATOM     10  C   UNL     1      43.706  28.734  29.400  1.00  0.00     0.062 A 
ATOM     11  C   UNL     1      44.040  27.386  29.591  1.00  0.00     0.022 A 
ENDROOT
BRANCH   9  12
ATOM     12  O   UNL     1      44.395  31.033  29.050  1.00  0.00    -0.504 OA
ATOM     13  H   UNL     1      43.723  31.323  28.349  1.00  0.00     0.293 HD
ENDBRANCH   9  12
BRANCH   8  14
ATOM     14  O   UNL     1      47.065  30.257  29.107  1.00  0.00    -0.504 OA
ATOM     15  H   UNL     1      47.098  31.092  29.682  1.00  0.00     0.293 HD
ENDBRANCH   8  14
TORSDOF 2
ENDMDL
MODEL 4
REMARK VINA RESULT:    -4.337      2.352      4.512
REMARK INTER + INTRA:          -4.591
REMARK INTER:                  -4.591
REMARK INTRA:                   0.000
REMARK UNBOUND:                 0.000
REMARK SMILES O=c1ccc2cc(O)c(O)cc2o1
REMARK SMILES IDX 4 1 3 2 2 3 1 4 13 5 12 6 11 7 9 8 7 9 6 10 5 11 8 12 10 14
REMARK H PARENT 8 13 10 15
REMARK Flexibility Score: inf
ROOT
ATOM      1  C   UNL     1      34.098  32.549  26.697  1.00  0.00     0.019 A 
ATOM      2  C   UNL     1      35.118  32.801  25.779  1.00  0.00     0.094 A 
ATOM      3  C   UNL     1      34.806  32.859  24.417  1.00  0.00     0.336 A 
ATOM      4  O   UNL     1      35.713  33.085  23.573  1.00  0.00    -0.246 OA
ATOM      5  O   UNL     1      33.554  32.677  24.004  1.00  0.00    -0.423 OA
ATOM      6  C   UNL     1      32.551  32.435  24.845  1.00  0.00     0.142 A 
ATOM      7  C   UNL     1      31.255  32.252  24.354  1.00  0.00     0.098 A 
ATOM      8  C   UNL     1      30.195  31.996  25.236  1.00  0.00     0.161 A 
ATOM      9  C   UNL     1      30.433  31.924  26.616  1.00  0.00     0.158 A 
ATOM     10  C   UNL     1      31.731  32.107  27.116  1.00  0.00     0.062 A 
ATOM     11  C   UNL     1      32.791  32.363  26.234  1.00  0.00     0.022 A 
ENDROOT
BRANCH   9  12
ATOM     12  O   UNL     1      29.374  31.670  27.486  1.00  0.00    -0.504 OA
ATOM     13  H   UNL     1      29.524  31.537  28.479  1.00  0.00     0.293 HD
ENDBRANCH   9  12
BRANCH   8  14
ATOM     14  O   UNL     1      28.902  31.813  24.749  1.00  0.00    -0.504 OA
ATOM     15  H   UNL     1      28.731  31.540  23.788  1.00  0.00     0.293 HD
ENDBRANCH   8  14
TORSDOF 2
ENDMDL
MODEL 5
REMARK VINA RESULT:    -4.251     13.375     14.633
REMARK INTER + INTRA:          -4.499
REMARK INTER:                  -4.499
REMARK INTRA:                   0.000
REMARK UNBOUND:                 0.000
REMARK SMILES O=c1ccc2cc(O)c(O)cc2o1
REMARK SMILES IDX 4 1 3 2 2 3 1 4 13 5 12 6 11 7 9 8 7 9 6 10 5 11 8 12 10 14
REMARK H PARENT 8 13 10 15
REMARK Flexibility Score: inf
ROOT
ATOM      1  C   UNL     1      43.463  29.097  28.129  1.00  0.00     0.019 A 
ATOM      2  C   UNL     1      43.877  28.218  29.129  1.00  0.00     0.094 A 
ATOM      3  C   UNL     1      45.234  27.894  29.229  1.00  0.00     0.336 A 
ATOM      4  O   UNL     1      45.628  27.102  30.125  1.00  0.00    -0.246 OA
ATOM      5  O   UNL     1      46.116  28.419  28.381  1.00  0.00    -0.423 OA
ATOM      6  C   UNL     1      45.764  29.261  27.412  1.00  0.00     0.142 A 
ATOM      7  C   UNL     1      46.734  29.781  26.551  1.00  0.00     0.098 A 
ATOM      8  C   UNL     1      46.368  30.670  25.529  1.00  0.00     0.161 A 
ATOM      9  C   UNL     1      45.024  31.039  25.369  1.00  0.00     0.158 A 
ATOM     10  C   UNL     1      44.046  30.521  26.230  1.00  0.00     0.062 A 
ATOM     11  C   UNL     1      44.411  29.634  27.252  1.00  0.00     0.022 A 
ENDROOT
BRANCH   9  12
ATOM     12  O   UNL     1      44.669  31.923  24.351  1.00  0.00    -0.504 OA
ATOM     13  H   UNL     1      44.843  31.707  23.377  1.00  0.00     0.293 HD
ENDBRANCH   9  12
BRANCH   8  14
ATOM     14  O   UNL     1      47.333  31.190  24.668  1.00  0.00    -0.504 OA
ATOM     15  H   UNL     1      47.151  32.010  24.101  1.00  0.00     0.293 HD
ENDBRANCH   8  14
TORSDOF 2
ENDMDL
MODEL 6
REMARK VINA RESULT:    -4.251     13.662     15.260
REMARK INTER + INTRA:          -4.499
REMARK INTER:                  -4.499
REMARK INTRA:                   0.000
REMARK UNBOUND:                 0.000
REMARK SMILES O=c1ccc2cc(O)c(O)cc2o1
REMARK SMILES IDX 4 1 3 2 2 3 1 4 13 5 12 6 11 7 9 8 7 9 6 10 5 11 8 12 10 14
REMARK H PARENT 8 13 10 15
REMARK Flexibility Score: inf
ROOT
ATOM      1  C   UNL     1      44.874  30.268  26.716  1.00  0.00     0.019 A 
ATOM      2  C   UNL     1      43.503  30.135  26.499  1.00  0.00     0.094 A 
ATOM      3  C   UNL     1      42.821  29.073  27.102  1.00  0.00     0.336 A 
ATOM      4  O   UNL     1      41.583  28.935  26.918  1.00  0.00    -0.246 OA
ATOM      5  O   UNL     1      43.472  28.204  27.872  1.00  0.00    -0.423 OA
ATOM      6  C   UNL     1      44.780  28.295  28.105  1.00  0.00     0.142 A 
ATOM      7  C   UNL     1      45.411  27.353  28.923  1.00  0.00     0.098 A 
ATOM      8  C   UNL     1      46.789  27.444  29.172  1.00  0.00     0.161 A 
ATOM      9  C   UNL     1      47.538  28.483  28.600  1.00  0.00     0.158 A 
ATOM     10  C   UNL     1      46.910  29.432  27.779  1.00  0.00     0.062 A 
ATOM     11  C   UNL     1      45.533  29.341  27.530  1.00  0.00     0.022 A 
ENDROOT
BRANCH   9  12
ATOM     12  O   UNL     1      48.906  28.566  28.853  1.00  0.00    -0.504 OA
ATOM     13  H   UNL     1      49.506  27.753  28.795  1.00  0.00     0.293 HD
ENDBRANCH   9  12
BRANCH   8  14
ATOM     14  O   UNL     1      47.421  26.507  29.987  1.00  0.00    -0.504 OA
ATOM     15  H   UNL     1      48.393  26.255  29.849  1.00  0.00     0.293 HD
ENDBRANCH   8  14
TORSDOF 2
ENDMDL
MODEL 7
REMARK VINA RESULT:    -4.213      2.551      4.340
REMARK INTER + INTRA:          -4.459
REMARK INTER:                  -4.459
REMARK INTRA:                   0.000
REMARK UNBOUND:                 0.000
REMARK SMILES O=c1ccc2cc(O)c(O)cc2o1
REMARK SMILES IDX 4 1 3 2 2 3 1 4 13 5 12 6 11 7 9 8 7 9 6 10 5 11 8 12 10 14
REMARK H PARENT 8 13 10 15
REMARK Flexibility Score: inf
ROOT
ATOM      1  C   UNL     1      33.614  32.673  24.021  1.00  0.00     0.019 A 
ATOM      2  C   UNL     1      34.888  32.831  24.566  1.00  0.00     0.094 A 
ATOM      3  C   UNL     1      35.050  32.733  25.952  1.00  0.00     0.336 A 
ATOM      4  O   UNL     1      36.191  32.873  26.464  1.00  0.00    -0.246 OA
ATOM      5  O   UNL     1      34.002  32.491  26.737  1.00  0.00    -0.423 OA
ATOM      6  C   UNL     1      32.770  32.333  26.258  1.00  0.00     0.142 A 
ATOM      7  C   UNL     1      31.708  32.082  27.132  1.00  0.00     0.098 A 
ATOM      8  C   UNL     1      30.407  31.915  26.632  1.00  0.00     0.161 A 
ATOM      9  C   UNL     1      30.170  32.000  25.253  1.00  0.00     0.158 A 
ATOM     10  C   UNL     1      31.232  32.253  24.371  1.00  0.00     0.062 A 
ATOM     11  C   UNL     1      32.531  32.419  24.870  1.00  0.00     0.022 A 
ENDROOT
BRANCH   9  12
ATOM     12  O   UNL     1      28.875  31.833  24.765  1.00  0.00    -0.504 OA
ATOM     13  H   UNL     1      28.069  31.864  25.378  1.00  0.00     0.293 HD
ENDBRANCH   9  12
BRANCH   8  14
ATOM     14  O   UNL     1      29.346  31.663  27.500  1.00  0.00    -0.504 OA
ATOM     15  H   UNL     1      28.550  32.288  27.559  1.00  0.00     0.293 HD
ENDBRANCH   8  14
TORSDOF 2
ENDMDL
MODEL 8
REMARK VINA RESULT:    -4.153     13.559     15.010
REMARK INTER + INTRA:          -4.396
REMARK INTER:                  -4.396
REMARK INTRA:                   0.000
REMARK UNBOUND:                 0.000
REMARK SMILES O=c1ccc2cc(O)c(O)cc2o1
REMARK SMILES IDX 4 1 3 2 2 3 1 4 13 5 12 6 11 7 9 8 7 9 6 10 5 11 8 12 10 14
REMARK H PARENT 8 13 10 15
REMARK Flexibility Score: inf
ROOT
ATOM      1  C   UNL     1      44.670  26.201  30.125  1.00  0.00     0.019 A 
ATOM      2  C   UNL     1      43.285  26.088  30.015  1.00  0.00     0.094 A 
ATOM      3  C   UNL     1      42.586  27.022  29.244  1.00  0.00     0.336 A 
ATOM      4  O   UNL     1      41.335  26.938  29.133  1.00  0.00    -0.246 OA
ATOM      5  O   UNL     1      43.237  28.003  28.623  1.00  0.00    -0.423 OA
ATOM      6  C   UNL     1      44.558  28.148  28.700  1.00  0.00     0.142 A 
ATOM      7  C   UNL     1      45.187  29.199  28.026  1.00  0.00     0.098 A 
ATOM      8  C   UNL     1      46.579  29.355  28.105  1.00  0.00     0.161 A 
ATOM      9  C   UNL     1      47.345  28.456  28.861  1.00  0.00     0.158 A 
ATOM     10  C   UNL     1      46.719  27.399  29.540  1.00  0.00     0.062 A 
ATOM     11  C   UNL     1      45.328  27.242  29.461  1.00  0.00     0.022 A 
ENDROOT
BRANCH   9  12
ATOM     12  O   UNL     1      48.727  28.618  28.933  1.00  0.00    -0.504 OA
ATOM     13  H   UNL     1      49.234  29.159  28.243  1.00  0.00     0.293 HD
ENDBRANCH   9  12
BRANCH   8  14
ATOM     14  O   UNL     1      47.210  30.401  27.434  1.00  0.00    -0.504 OA
ATOM     15  H   UNL     1      46.707  30.992  26.781  1.00  0.00     0.293 HD
ENDBRANCH   8  14
TORSDOF 2
ENDMDL
MODEL 9
REMARK VINA RESULT:    -3.714     13.465     14.985
REMARK INTER + INTRA:          -3.932
REMARK INTER:                  -3.932
REMARK INTRA:                   0.000
REMARK UNBOUND:                 0.000
REMARK SMILES O=c1ccc2cc(O)c(O)cc2o1
REMARK SMILES IDX 4 1 3 2 2 3 1 4 13 5 12 6 11 7 9 8 7 9 6 10 5 11 8 12 10 14
REMARK H PARENT 8 13 10 15
REMARK Flexibility Score: inf
ROOT
ATOM      1  C   UNL     1      42.990  28.222  28.535  1.00  0.00     0.019 A 
ATOM      2  C   UNL     1      42.307  27.118  29.044  1.00  0.00     0.094 A 
ATOM      3  C   UNL     1      43.035  26.094  29.659  1.00  0.00     0.336 A 
ATOM      4  O   UNL     1      42.437  25.089  30.125  1.00  0.00    -0.246 OA
ATOM      5  O   UNL     1      44.360  26.176  29.758  1.00  0.00    -0.423 OA
ATOM      6  C   UNL     1      45.051  27.211  29.286  1.00  0.00     0.142 A 
ATOM      7  C   UNL     1      46.442  27.242  29.417  1.00  0.00     0.098 A 
ATOM      8  C   UNL     1      47.175  28.331  28.921  1.00  0.00     0.161 A 
ATOM      9  C   UNL     1      46.511  29.394  28.292  1.00  0.00     0.158 A 
ATOM     10  C   UNL     1      45.115  29.369  28.157  1.00  0.00     0.062 A 
ATOM     11  C   UNL     1      44.383  28.281  28.652  1.00  0.00     0.022 A 
ENDROOT
BRANCH   9  12
ATOM     12  O   UNL     1      47.246  30.472  27.803  1.00  0.00    -0.504 OA
ATOM     13  H   UNL     1      48.141  30.729  28.202  1.00  0.00     0.293 HD
ENDBRANCH   9  12
BRANCH   8  14
ATOM     14  O   UNL     1      48.562  28.364  29.051  1.00  0.00    -0.504 OA
ATOM     15  H   UNL     1      49.031  27.937  29.841  1.00  0.00     0.293 HD
ENDBRANCH   8  14
TORSDOF 2
ENDMDL
