MODEL 1
REMARK VINA RESULT:    -4.830      0.000      0.000
REMARK INTER + INTRA:          -5.131
REMARK INTER:                  -5.254
REMARK INTRA:                   0.123
REMARK UNBOUND:                 0.123
REMARK SMILES COc1cc2ccc(=O)oc2cc1O
REMARK SMILES IDX 3 1 13 2 12 3 11 4 5 5 4 6 6 7 7 8 8 9 9 10 10 11 2 12 1 13
REMARK SMILES IDX 14 14
REMARK H PARENT 14 15
REMARK Flexibility Score: inf
ROOT
ATOM      1  C   UNL     1      41.592  20.324  -1.452  1.00  0.00     0.161 A 
ATOM      2  C   UNL     1      41.940  18.973  -1.258  1.00  0.00     0.161 A 
ATOM      3  C   UNL     1      42.738  18.308  -2.197  1.00  0.00     0.098 A 
ATOM      4  C   UNL     1      43.197  18.977  -3.334  1.00  0.00     0.142 A 
ATOM      5  C   UNL     1      42.855  20.330  -3.537  1.00  0.00     0.022 A 
ATOM      6  C   UNL     1      42.056  20.999  -2.599  1.00  0.00     0.062 A 
ATOM      7  C   UNL     1      43.330  20.971  -4.686  1.00  0.00     0.019 A 
ATOM      8  C   UNL     1      44.121  20.263  -5.589  1.00  0.00     0.094 A 
ATOM      9  C   UNL     1      44.420  18.923  -5.322  1.00  0.00     0.336 A 
ATOM     10  O   UNL     1      45.133  18.266  -6.125  1.00  0.00    -0.246 OA
ATOM     11  O   UNL     1      43.956  18.336  -4.222  1.00  0.00    -0.423 OA
ENDROOT
BRANCH   1  12
ATOM     12  O   UNL     1      40.791  20.960  -0.491  1.00  0.00    -0.493 OA
ATOM     13  C   UNL     1      39.427  20.641  -0.236  1.00  0.00     0.278 C 
ENDBRANCH   1  12
BRANCH   2  14
ATOM     14  O   UNL     1      41.501  18.271  -0.136  1.00  0.00    -0.504 OA
ATOM     15  H   UNL     1      41.136  18.739   0.684  1.00  0.00     0.293 HD
ENDBRANCH   2  14
TORSDOF 2
ENDMDL
MODEL 2
REMARK VINA RESULT:    -4.472      1.123      1.241
REMARK INTER + INTRA:          -4.741
REMARK INTER:                  -4.678
REMARK INTRA:                  -0.063
REMARK UNBOUND:                 0.123
REMARK SMILES COc1cc2ccc(=O)oc2cc1O
REMARK SMILES IDX 3 1 13 2 12 3 11 4 5 5 4 6 6 7 7 8 8 9 9 10 10 11 2 12 1 13
REMARK SMILES IDX 14 14
REMARK H PARENT 14 15
REMARK Flexibility Score: inf
ROOT
ATOM      1  C   UNL     1      41.611  19.301  -2.273  1.00  0.00     0.161 A 
ATOM      2  C   UNL     1      42.078  18.022  -1.910  1.00  0.00     0.161 A 
ATOM      3  C   UNL     1      43.096  17.407  -2.648  1.00  0.00     0.098 A 
ATOM      4  C   UNL     1      43.659  18.053  -3.751  1.00  0.00     0.142 A 
ATOM      5  C   UNL     1      43.200  19.334  -4.123  1.00  0.00     0.022 A 
ATOM      6  C   UNL     1      42.180  19.953  -3.386  1.00  0.00     0.062 A 
ATOM      7  C   UNL     1      43.783  19.954  -5.232  1.00  0.00     0.019 A 
ATOM      8  C   UNL     1      44.794  19.297  -5.932  1.00  0.00     0.094 A 
ATOM      9  C   UNL     1      45.199  18.028  -5.505  1.00  0.00     0.336 A 
ATOM     10  O   UNL     1      46.110  17.418  -6.124  1.00  0.00    -0.246 OA
ATOM     11  O   UNL     1      44.627  17.459  -4.447  1.00  0.00    -0.423 OA
ENDROOT
BRANCH   1  12
ATOM     12  O   UNL     1      40.590  19.889  -1.512  1.00  0.00    -0.493 OA
ATOM     13  C   UNL     1      40.803  20.797  -0.437  1.00  0.00     0.278 C 
ENDBRANCH   1  12
BRANCH   2  14
ATOM     14  O   UNL     1      41.541  17.344  -0.816  1.00  0.00    -0.504 OA
ATOM     15  H   UNL     1      41.573  17.723   0.122  1.00  0.00     0.293 HD
ENDBRANCH   2  14
TORSDOF 2
ENDMDL
MODEL 3
REMARK VINA RESULT:    -4.446      6.952      9.407
REMARK INTER + INTRA:          -4.713
REMARK INTER:                  -4.664
REMARK INTRA:                  -0.049
REMARK UNBOUND:                 0.123
REMARK SMILES COc1cc2ccc(=O)oc2cc1O
REMARK SMILES IDX 3 1 13 2 12 3 11 4 5 5 4 6 6 7 7 8 8 9 9 10 10 11 2 12 1 13
REMARK SMILES IDX 14 14
REMARK H PARENT 14 15
REMARK Flexibility Score: inf
ROOT
ATOM      1  C   UNL     1      49.644  15.355  -4.717  1.00  0.00     0.161 A 
ATOM      2  C   UNL     1      48.461  16.028  -4.352  1.00  0.00     0.161 A 
ATOM      3  C   UNL     1      47.512  15.396  -3.541  1.00  0.00     0.098 A 
ATOM      4  C   UNL     1      47.726  14.092  -3.086  1.00  0.00     0.142 A 
ATOM      5  C   UNL     1      48.906  13.410  -3.446  1.00  0.00     0.022 A 
ATOM      6  C   UNL     1      49.860  14.040  -4.258  1.00  0.00     0.062 A 
ATOM      7  C   UNL     1      49.091  12.106  -2.975  1.00  0.00     0.019 A 
ATOM      8  C   UNL     1      48.114  11.523  -2.171  1.00  0.00     0.094 A 
ATOM      9  C   UNL     1      46.968  12.260  -1.855  1.00  0.00     0.336 A 
ATOM     10  O   UNL     1      46.073  11.751  -1.130  1.00  0.00    -0.246 OA
ATOM     11  O   UNL     1      46.816  13.499  -2.316  1.00  0.00    -0.423 OA
ENDROOT
BRANCH   1  12
ATOM     12  O   UNL     1      50.575  16.019  -5.531  1.00  0.00    -0.493 OA
ATOM     13  C   UNL     1      51.986  15.976  -5.346  1.00  0.00     0.278 C 
ENDBRANCH   1  12
BRANCH   2  14
ATOM     14  O   UNL     1      48.212  17.330  -4.786  1.00  0.00    -0.504 OA
ATOM     15  H   UNL     1      47.553  17.939  -4.316  1.00  0.00     0.293 HD
ENDBRANCH   2  14
TORSDOF 2
ENDMDL
MODEL 4
REMARK VINA RESULT:    -4.337      5.824      8.192
REMARK INTER + INTRA:          -4.594
REMARK INTER:                  -4.551
REMARK INTRA:                  -0.043
REMARK UNBOUND:                 0.123
REMARK SMILES COc1cc2ccc(=O)oc2cc1O
REMARK SMILES IDX 3 1 13 2 12 3 11 4 5 5 4 6 6 7 7 8 8 9 9 10 10 11 2 12 1 13
REMARK SMILES IDX 14 14
REMARK H PARENT 14 15
REMARK Flexibility Score: inf
ROOT
ATOM      1  C   UNL     1      49.079  13.937  -3.741  1.00  0.00     0.161 A 
ATOM      2  C   UNL     1      48.434  13.094  -2.814  1.00  0.00     0.161 A 
ATOM      3  C   UNL     1      47.150  13.405  -2.352  1.00  0.00     0.098 A 
ATOM      4  C   UNL     1      46.494  14.553  -2.805  1.00  0.00     0.142 A 
ATOM      5  C   UNL     1      47.131  15.403  -3.733  1.00  0.00     0.022 A 
ATOM      6  C   UNL     1      48.417  15.095  -4.197  1.00  0.00     0.062 A 
ATOM      7  C   UNL     1      46.449  16.545  -4.166  1.00  0.00     0.019 A 
ATOM      8  C   UNL     1      45.171  16.808  -3.674  1.00  0.00     0.094 A 
ATOM      9  C   UNL     1      44.603  15.920  -2.755  1.00  0.00     0.336 A 
ATOM     10  O   UNL     1      43.450  16.139  -2.299  1.00  0.00    -0.246 OA
ATOM     11  O   UNL     1      45.273  14.840  -2.359  1.00  0.00    -0.423 OA
ENDROOT
BRANCH   1  12
ATOM     12  O   UNL     1      50.366  13.596  -4.183  1.00  0.00    -0.493 OA
ATOM     13  C   UNL     1      51.098  14.313  -5.172  1.00  0.00     0.278 C 
ENDBRANCH   1  12
BRANCH   2  14
ATOM     14  O   UNL     1      49.056  11.940  -2.339  1.00  0.00    -0.504 OA
ATOM     15  H   UNL     1      48.543  11.207  -1.864  1.00  0.00     0.293 HD
ENDBRANCH   2  14
TORSDOF 2
ENDMDL
MODEL 5
REMARK VINA RESULT:    -4.232      7.333      9.021
REMARK INTER + INTRA:          -4.480
REMARK INTER:                  -4.417
REMARK INTRA:                  -0.063
REMARK UNBOUND:                 0.123
REMARK SMILES COc1cc2ccc(=O)oc2cc1O
REMARK SMILES IDX 3 1 13 2 12 3 11 4 5 5 4 6 6 7 7 8 8 9 9 10 10 11 2 12 1 13
REMARK SMILES IDX 14 14
REMARK H PARENT 14 15
REMARK Flexibility Score: inf
ROOT
ATOM      1  C   UNL     1      47.871  12.897  -2.879  1.00  0.00     0.161 A 
ATOM      2  C   UNL     1      47.484  14.251  -2.834  1.00  0.00     0.161 A 
ATOM      3  C   UNL     1      48.237  15.223  -3.502  1.00  0.00     0.098 A 
ATOM      4  C   UNL     1      49.380  14.862  -4.219  1.00  0.00     0.142 A 
ATOM      5  C   UNL     1      49.777  13.510  -4.271  1.00  0.00     0.022 A 
ATOM      6  C   UNL     1      49.025  12.533  -3.603  1.00  0.00     0.062 A 
ATOM      7  C   UNL     1      50.926  13.180  -4.997  1.00  0.00     0.019 A 
ATOM      8  C   UNL     1      51.641  14.188  -5.644  1.00  0.00     0.094 A 
ATOM      9  C   UNL     1      51.187  15.508  -5.548  1.00  0.00     0.336 A 
ATOM     10  O   UNL     1      51.818  16.432  -6.125  1.00  0.00    -0.246 OA
ATOM     11  O   UNL     1      50.091  15.794  -4.851  1.00  0.00    -0.423 OA
ENDROOT
BRANCH   1  12
ATOM     12  O   UNL     1      47.093  11.948  -2.198  1.00  0.00    -0.493 OA
ATOM     13  C   UNL     1      47.355  11.485  -0.878  1.00  0.00     0.278 C 
ENDBRANCH   1  12
BRANCH   2  14
ATOM     14  O   UNL     1      46.349  14.650  -2.128  1.00  0.00    -0.504 OA
ATOM     15  H   UNL     1      45.717  15.359  -2.479  1.00  0.00     0.293 HD
ENDBRANCH   2  14
TORSDOF 2
ENDMDL
MODEL 6
REMARK VINA RESULT:    -4.227      6.382      8.072
REMARK INTER + INTRA:          -4.475
REMARK INTER:                  -4.421
REMARK INTRA:                  -0.054
REMARK UNBOUND:                 0.123
REMARK SMILES COc1cc2ccc(=O)oc2cc1O
REMARK SMILES IDX 3 1 13 2 12 3 11 4 5 5 4 6 6 7 7 8 8 9 9 10 10 11 2 12 1 13
REMARK SMILES IDX 14 14
REMARK H PARENT 14 15
REMARK Flexibility Score: inf
ROOT
ATOM      1  C   UNL     1      47.239  12.630  -2.332  1.00  0.00     0.161 A 
ATOM      2  C   UNL     1      48.568  12.492  -2.776  1.00  0.00     0.161 A 
ATOM      3  C   UNL     1      49.157  13.489  -3.562  1.00  0.00     0.098 A 
ATOM      4  C   UNL     1      48.433  14.631  -3.915  1.00  0.00     0.142 A 
ATOM      5  C   UNL     1      47.101  14.779  -3.475  1.00  0.00     0.022 A 
ATOM      6  C   UNL     1      46.509  13.782  -2.687  1.00  0.00     0.062 A 
ATOM      7  C   UNL     1      46.403  15.933  -3.844  1.00  0.00     0.019 A 
ATOM      8  C   UNL     1      47.036  16.896  -4.629  1.00  0.00     0.094 A 
ATOM      9  C   UNL     1      48.360  16.681  -5.028  1.00  0.00     0.336 A 
ATOM     10  O   UNL     1      48.949  17.538  -5.737  1.00  0.00    -0.246 OA
ATOM     11  O   UNL     1      49.002  15.574  -4.663  1.00  0.00    -0.423 OA
ENDROOT
BRANCH   1  12
ATOM     12  O   UNL     1      46.679  11.611  -1.546  1.00  0.00    -0.493 OA
ATOM     13  C   UNL     1      46.724  11.570  -0.123  1.00  0.00     0.278 C 
ENDBRANCH   1  12
BRANCH   2  14
ATOM     14  O   UNL     1      49.323  11.366  -2.446  1.00  0.00    -0.504 OA
ATOM     15  H   UNL     1      50.306  11.426  -2.210  1.00  0.00     0.293 HD
ENDBRANCH   2  14
TORSDOF 2
ENDMDL
MODEL 7
REMARK VINA RESULT:    -4.185      1.987      4.918
REMARK INTER + INTRA:          -4.429
REMARK INTER:                  -4.365
REMARK INTRA:                  -0.064
REMARK UNBOUND:                 0.123
REMARK SMILES COc1cc2ccc(=O)oc2cc1O
REMARK SMILES IDX 3 1 13 2 12 3 11 4 5 5 4 6 6 7 7 8 8 9 9 10 10 11 2 12 1 13
REMARK SMILES IDX 14 14
REMARK H PARENT 14 15
REMARK Flexibility Score: inf
ROOT
ATOM      1  C   UNL     1      43.704  16.637  -3.842  1.00  0.00     0.161 A 
ATOM      2  C   UNL     1      42.927  16.058  -2.819  1.00  0.00     0.161 A 
ATOM      3  C   UNL     1      42.187  16.869  -1.951  1.00  0.00     0.098 A 
ATOM      4  C   UNL     1      42.211  18.259  -2.088  1.00  0.00     0.142 A 
ATOM      5  C   UNL     1      42.984  18.848  -3.109  1.00  0.00     0.022 A 
ATOM      6  C   UNL     1      43.727  18.040  -3.981  1.00  0.00     0.062 A 
ATOM      7  C   UNL     1      42.988  20.243  -3.221  1.00  0.00     0.019 A 
ATOM      8  C   UNL     1      42.232  21.003  -2.330  1.00  0.00     0.094 A 
ATOM      9  C   UNL     1      41.489  20.349  -1.342  1.00  0.00     0.336 A 
ATOM     10  O   UNL     1      40.801  21.018  -0.527  1.00  0.00    -0.246 OA
ATOM     11  O   UNL     1      41.503  19.021  -1.257  1.00  0.00    -0.423 OA
ENDROOT
BRANCH   1  12
ATOM     12  O   UNL     1      44.434  15.795  -4.696  1.00  0.00    -0.493 OA
ATOM     13  C   UNL     1      45.847  15.625  -4.649  1.00  0.00     0.278 C 
ENDBRANCH   1  12
BRANCH   2  14
ATOM     14  O   UNL     1      42.879  14.675  -2.649  1.00  0.00    -0.504 OA
ATOM     15  H   UNL     1      42.749  14.040  -3.427  1.00  0.00     0.293 HD
ENDBRANCH   2  14
TORSDOF 2
ENDMDL
MODEL 8
REMARK VINA RESULT:    -4.118      1.854      5.217
REMARK INTER + INTRA:          -4.356
REMARK INTER:                  -4.313
REMARK INTRA:                  -0.043
REMARK UNBOUND:                 0.123
REMARK SMILES COc1cc2ccc(=O)oc2cc1O
REMARK SMILES IDX 3 1 13 2 12 3 11 4 5 5 4 6 6 7 7 8 8 9 9 10 10 11 2 12 1 13
REMARK SMILES IDX 14 14
REMARK H PARENT 14 15
REMARK Flexibility Score: inf
ROOT
ATOM      1  C   UNL     1      42.573  17.816  -3.967  1.00  0.00     0.161 A 
ATOM      2  C   UNL     1      41.224  17.427  -4.076  1.00  0.00     0.161 A 
ATOM      3  C   UNL     1      40.256  17.991  -3.237  1.00  0.00     0.098 A 
ATOM      4  C   UNL     1      40.618  18.945  -2.283  1.00  0.00     0.142 A 
ATOM      5  C   UNL     1      41.966  19.342  -2.165  1.00  0.00     0.022 A 
ATOM      6  C   UNL     1      42.938  18.778  -3.004  1.00  0.00     0.062 A 
ATOM      7  C   UNL     1      42.297  20.298  -1.200  1.00  0.00     0.019 A 
ATOM      8  C   UNL     1      41.295  20.829  -0.389  1.00  0.00     0.094 A 
ATOM      9  C   UNL     1      39.978  20.387  -0.563  1.00  0.00     0.336 A 
ATOM     10  O   UNL     1      39.059  20.854   0.159  1.00  0.00    -0.246 OA
ATOM     11  O   UNL     1      39.691  19.476  -1.489  1.00  0.00    -0.423 OA
ENDROOT
BRANCH   1  12
ATOM     12  O   UNL     1      43.518  17.230  -4.824  1.00  0.00    -0.493 OA
ATOM     13  C   UNL     1      44.878  17.636  -4.928  1.00  0.00     0.278 C 
ENDBRANCH   1  12
BRANCH   2  14
ATOM     14  O   UNL     1      40.823  16.477  -5.016  1.00  0.00    -0.504 OA
ATOM     15  H   UNL     1      39.850  16.331  -5.255  1.00  0.00     0.293 HD
ENDBRANCH   2  14
TORSDOF 2
ENDMDL
MODEL 9
REMARK VINA RESULT:    -4.075      5.795      7.945
REMARK INTER + INTRA:          -4.309
REMARK INTER:                  -4.264
REMARK INTRA:                  -0.046
REMARK UNBOUND:                 0.123
REMARK SMILES COc1cc2ccc(=O)oc2cc1O
REMARK SMILES IDX 3 1 13 2 12 3 11 4 5 5 4 6 6 7 7 8 8 9 9 10 10 11 2 12 1 13
REMARK SMILES IDX 14 14
REMARK H PARENT 14 15
REMARK Flexibility Score: inf
ROOT
ATOM      1  C   UNL     1      48.071  13.010  -2.689  1.00  0.00     0.161 A 
ATOM      2  C   UNL     1      48.877  13.843  -3.491  1.00  0.00     0.161 A 
ATOM      3  C   UNL     1      48.354  15.024  -4.030  1.00  0.00     0.098 A 
ATOM      4  C   UNL     1      47.029  15.389  -3.780  1.00  0.00     0.142 A 
ATOM      5  C   UNL     1      46.214  14.563  -2.978  1.00  0.00     0.022 A 
ATOM      6  C   UNL     1      46.735  13.380  -2.436  1.00  0.00     0.062 A 
ATOM      7  C   UNL     1      44.891  14.955  -2.747  1.00  0.00     0.019 A 
ATOM      8  C   UNL     1      44.420  16.141  -3.308  1.00  0.00     0.094 A 
ATOM      9  C   UNL     1      45.287  16.910  -4.093  1.00  0.00     0.336 A 
ATOM     10  O   UNL     1      44.880  17.984  -4.609  1.00  0.00    -0.246 OA
ATOM     11  O   UNL     1      46.540  16.514  -4.298  1.00  0.00    -0.423 OA
ENDROOT
BRANCH   1  12
ATOM     12  O   UNL     1      48.628  11.834  -2.164  1.00  0.00    -0.493 OA
ATOM     13  C   UNL     1      48.242  11.237  -0.930  1.00  0.00     0.278 C 
ENDBRANCH   1  12
BRANCH   2  14
ATOM     14  O   UNL     1      50.204  13.512  -3.763  1.00  0.00    -0.504 OA
ATOM     15  H   UNL     1      50.981  13.997  -3.331  1.00  0.00     0.293 HD
ENDBRANCH   2  14
TORSDOF 2
ENDMDL
