MODEL 1
REMARK VINA RESULT:    -5.779      0.000      0.000
REMARK INTER + INTRA:          -6.913
REMARK INTER:                  -6.793
REMARK INTRA:                  -0.120
REMARK UNBOUND:                -0.120
REMARK SMILES O=C([O-])C=Cc1ccc(O)c(O)c1
REMARK SMILES IDX 6 1 13 2 7 3 11 4 8 5 9 6 5 7 4 8 2 9 1 10 3 11 12 12 10 14
REMARK H PARENT 12 13 10 15
REMARK Flexibility Score: inf
ROOT
ATOM      1  C   UNL     1     -14.221 -28.244 -11.596  1.00  0.00    -0.022 A 
ATOM      2  C   UNL     1     -13.940 -28.368 -12.971  1.00  0.00     0.058 A 
ATOM      3  C   UNL     1     -14.448 -26.966 -11.063  1.00  0.00     0.012 A 
ATOM      4  C   UNL     1     -13.912 -27.234 -13.798  1.00  0.00     0.157 A 
ATOM      5  C   UNL     1     -14.423 -25.837 -11.886  1.00  0.00     0.051 A 
ATOM      6  C   UNL     1     -14.159 -25.964 -13.252  1.00  0.00     0.157 A 
ENDROOT
BRANCH   1   7
ATOM      7  C   UNL     1     -14.249 -29.410 -10.679  1.00  0.00     0.010 C 
ATOM      8  C   UNL     1     -15.095 -30.442 -10.812  1.00  0.00     0.025 C 
BRANCH   8   9
ATOM      9  C   UNL     1     -15.102 -31.578  -9.876  1.00  0.00     0.064 C 
ATOM     10  O   UNL     1     -15.743 -31.525  -8.792  1.00  0.00    -0.545 OA
ATOM     11  O   UNL     1     -14.391 -32.728 -10.191  1.00  0.00    -0.545 OA
ENDBRANCH   8   9
ENDBRANCH   1   7
BRANCH   4  12
ATOM     12  O   UNL     1     -13.636 -27.367 -15.159  1.00  0.00    -0.504 OA
ATOM     13  H   UNL     1     -13.744 -26.591 -15.801  1.00  0.00     0.293 HD
ENDBRANCH   4  12
BRANCH   6  14
ATOM     14  O   UNL     1     -14.142 -24.820 -14.049  1.00  0.00    -0.504 OA
ATOM     15  H   UNL     1     -14.992 -24.337 -14.316  1.00  0.00     0.293 HD
ENDBRANCH   6  14
TORSDOF 4
ENDMDL
MODEL 2
REMARK VINA RESULT:    -5.629      1.272      2.004
REMARK INTER + INTRA:          -6.736
REMARK INTER:                  -6.605
REMARK INTRA:                  -0.132
REMARK UNBOUND:                -0.120
REMARK SMILES O=C([O-])C=Cc1ccc(O)c(O)c1
REMARK SMILES IDX 6 1 13 2 7 3 11 4 8 5 9 6 5 7 4 8 2 9 1 10 3 11 12 12 10 14
REMARK H PARENT 12 13 10 15
REMARK Flexibility Score: inf
ROOT
ATOM      1  C   UNL     1     -14.613 -28.088 -12.781  1.00  0.00    -0.022 A 
ATOM      2  C   UNL     1     -15.133 -26.788 -12.624  1.00  0.00     0.058 A 
ATOM      3  C   UNL     1     -13.523 -28.282 -13.645  1.00  0.00     0.012 A 
ATOM      4  C   UNL     1     -14.556 -25.702 -13.300  1.00  0.00     0.157 A 
ATOM      5  C   UNL     1     -12.947 -27.201 -14.316  1.00  0.00     0.051 A 
ATOM      6  C   UNL     1     -13.455 -25.911 -14.147  1.00  0.00     0.157 A 
ENDROOT
BRANCH   1   7
ATOM      7  C   UNL     1     -15.195 -29.269 -12.098  1.00  0.00     0.010 C 
ATOM      8  C   UNL     1     -14.543 -29.995 -11.179  1.00  0.00     0.025 C 
BRANCH   8   9
ATOM      9  C   UNL     1     -15.149 -31.169 -10.529  1.00  0.00     0.064 C 
ATOM     10  O   UNL     1     -15.948 -31.040  -9.563  1.00  0.00    -0.545 OA
ATOM     11  O   UNL     1     -14.834 -32.441 -10.988  1.00  0.00    -0.545 OA
ENDBRANCH   8   9
ENDBRANCH   1   7
BRANCH   4  12
ATOM     12  O   UNL     1     -15.076 -24.419 -13.136  1.00  0.00    -0.504 OA
ATOM     13  H   UNL     1     -15.953 -24.258 -12.655  1.00  0.00     0.293 HD
ENDBRANCH   4  12
BRANCH   6  14
ATOM     14  O   UNL     1     -12.858 -24.851 -14.830  1.00  0.00    -0.504 OA
ATOM     15  H   UNL     1     -11.853 -24.771 -14.926  1.00  0.00     0.293 HD
ENDBRANCH   6  14
TORSDOF 4
ENDMDL
MODEL 3
REMARK VINA RESULT:    -5.625      2.375      3.213
REMARK INTER + INTRA:          -6.731
REMARK INTER:                  -6.597
REMARK INTRA:                  -0.134
REMARK UNBOUND:                -0.120
REMARK SMILES O=C([O-])C=Cc1ccc(O)c(O)c1
REMARK SMILES IDX 6 1 13 2 7 3 11 4 8 5 9 6 5 7 4 8 2 9 1 10 3 11 12 12 10 14
REMARK H PARENT 12 13 10 15
REMARK Flexibility Score: inf
ROOT
ATOM      1  C   UNL     1     -14.201 -27.452 -11.014  1.00  0.00    -0.022 A 
ATOM      2  C   UNL     1     -14.399 -26.217 -11.663  1.00  0.00     0.058 A 
ATOM      3  C   UNL     1     -13.854 -28.574 -11.782  1.00  0.00     0.012 A 
ATOM      4  C   UNL     1     -14.227 -26.105 -13.051  1.00  0.00     0.157 A 
ATOM      5  C   UNL     1     -13.681 -28.462 -13.164  1.00  0.00     0.051 A 
ATOM      6  C   UNL     1     -13.863 -27.234 -13.803  1.00  0.00     0.157 A 
ENDROOT
BRANCH   1   7
ATOM      7  C   UNL     1     -14.383 -27.622  -9.551  1.00  0.00     0.010 C 
ATOM      8  C   UNL     1     -13.384 -27.913  -8.705  1.00  0.00     0.025 C 
BRANCH   8   9
ATOM      9  C   UNL     1     -13.603 -28.087  -7.260  1.00  0.00     0.064 C 
ATOM     10  O   UNL     1     -14.765 -28.110  -6.774  1.00  0.00    -0.545 OA
ATOM     11  O   UNL     1     -12.509 -28.227  -6.416  1.00  0.00    -0.545 OA
ENDBRANCH   8   9
ENDBRANCH   1   7
BRANCH   4  12
ATOM     12  O   UNL     1     -14.423 -24.878 -13.685  1.00  0.00    -0.504 OA
ATOM     13  H   UNL     1     -13.991 -24.666 -14.576  1.00  0.00     0.293 HD
ENDBRANCH   4  12
BRANCH   6  14
ATOM     14  O   UNL     1     -13.681 -27.154 -15.184  1.00  0.00    -0.504 OA
ATOM     15  H   UNL     1     -14.011 -27.876 -15.813  1.00  0.00     0.293 HD
ENDBRANCH   6  14
TORSDOF 4
ENDMDL
MODEL 4
REMARK VINA RESULT:    -5.614      1.221      6.067
REMARK INTER + INTRA:          -6.718
REMARK INTER:                  -6.595
REMARK INTRA:                  -0.123
REMARK UNBOUND:                -0.120
REMARK SMILES O=C([O-])C=Cc1ccc(O)c(O)c1
REMARK SMILES IDX 6 1 13 2 7 3 11 4 8 5 9 6 5 7 4 8 2 9 1 10 3 11 12 12 10 14
REMARK H PARENT 12 13 10 15
REMARK Flexibility Score: inf
ROOT
ATOM      1  C   UNL     1     -14.619 -29.018 -11.399  1.00  0.00    -0.022 A 
ATOM      2  C   UNL     1     -14.343 -28.744 -10.045  1.00  0.00     0.058 A 
ATOM      3  C   UNL     1     -15.152 -30.270 -11.742  1.00  0.00     0.012 A 
ATOM      4  C   UNL     1     -14.621 -29.698  -9.054  1.00  0.00     0.157 A 
ATOM      5  C   UNL     1     -15.430 -31.219 -10.756  1.00  0.00     0.051 A 
ATOM      6  C   UNL     1     -15.170 -30.939  -9.412  1.00  0.00     0.157 A 
ENDROOT
BRANCH   1   7
ATOM      7  C   UNL     1     -14.332 -28.047 -12.484  1.00  0.00     0.010 C 
ATOM      8  C   UNL     1     -14.666 -26.750 -12.431  1.00  0.00     0.025 C 
BRANCH   8   9
ATOM      9  C   UNL     1     -14.377 -25.818 -13.532  1.00  0.00     0.064 C 
ATOM     10  O   UNL     1     -13.634 -26.154 -14.493  1.00  0.00    -0.545 OA
ATOM     11  O   UNL     1     -14.930 -24.544 -13.512  1.00  0.00    -0.545 OA
ENDBRANCH   8   9
ENDBRANCH   1   7
BRANCH   4  12
ATOM     12  O   UNL     1     -14.347 -29.417  -7.715  1.00  0.00    -0.504 OA
ATOM     13  H   UNL     1     -15.061 -29.067  -7.088  1.00  0.00     0.293 HD
ENDBRANCH   4  12
BRANCH   6  14
ATOM     14  O   UNL     1     -15.460 -31.906  -8.449  1.00  0.00    -0.504 OA
ATOM     15  H   UNL     1     -14.744 -32.301  -7.851  1.00  0.00     0.293 HD
ENDBRANCH   6  14
TORSDOF 4
ENDMDL
MODEL 5
REMARK VINA RESULT:    -5.571      2.106      2.295
REMARK INTER + INTRA:          -6.669
REMARK INTER:                  -6.519
REMARK INTRA:                  -0.149
REMARK UNBOUND:                -0.120
REMARK SMILES O=C([O-])C=Cc1ccc(O)c(O)c1
REMARK SMILES IDX 6 1 13 2 7 3 11 4 8 5 9 6 5 7 4 8 2 9 1 10 3 11 12 12 10 14
REMARK H PARENT 12 13 10 15
REMARK Flexibility Score: inf
ROOT
ATOM      1  C   UNL     1     -14.036 -28.317 -13.236  1.00  0.00    -0.022 A 
ATOM      2  C   UNL     1     -13.187 -27.445 -13.945  1.00  0.00     0.058 A 
ATOM      3  C   UNL     1     -15.131 -27.781 -12.540  1.00  0.00     0.012 A 
ATOM      4  C   UNL     1     -13.444 -26.066 -13.974  1.00  0.00     0.157 A 
ATOM      5  C   UNL     1     -15.389 -26.408 -12.571  1.00  0.00     0.051 A 
ATOM      6  C   UNL     1     -14.554 -25.547 -13.287  1.00  0.00     0.157 A 
ENDROOT
BRANCH   1   7
ATOM      7  C   UNL     1     -13.799 -29.780 -13.165  1.00  0.00     0.010 C 
ATOM      8  C   UNL     1     -14.749 -30.675 -12.858  1.00  0.00     0.025 C 
BRANCH   8   9
ATOM      9  C   UNL     1     -14.474 -32.120 -12.786  1.00  0.00     0.064 C 
ATOM     10  O   UNL     1     -13.476 -32.563 -12.157  1.00  0.00    -0.545 OA
ATOM     11  O   UNL     1     -15.329 -33.010 -13.422  1.00  0.00    -0.545 OA
ENDBRANCH   8   9
ENDBRANCH   1   7
BRANCH   4  12
ATOM     12  O   UNL     1     -12.599 -25.211 -14.681  1.00  0.00    -0.504 OA
ATOM     13  H   UNL     1     -12.131 -25.507 -15.529  1.00  0.00     0.293 HD
ENDBRANCH   4  12
BRANCH   6  14
ATOM     14  O   UNL     1     -14.838 -24.182 -13.300  1.00  0.00    -0.504 OA
ATOM     15  H   UNL     1     -15.774 -23.825 -13.148  1.00  0.00     0.293 HD
ENDBRANCH   6  14
TORSDOF 4
ENDMDL
MODEL 6
REMARK VINA RESULT:    -5.508      2.311      5.889
REMARK INTER + INTRA:          -6.594
REMARK INTER:                  -6.469
REMARK INTRA:                  -0.125
REMARK UNBOUND:                -0.120
REMARK SMILES O=C([O-])C=Cc1ccc(O)c(O)c1
REMARK SMILES IDX 6 1 13 2 7 3 11 4 8 5 9 6 5 7 4 8 2 9 1 10 3 11 12 12 10 14
REMARK H PARENT 12 13 10 15
REMARK Flexibility Score: inf
ROOT
ATOM      1  C   UNL     1     -14.023 -26.935  -9.871  1.00  0.00    -0.022 A 
ATOM      2  C   UNL     1     -13.442 -28.205  -9.684  1.00  0.00     0.058 A 
ATOM      3  C   UNL     1     -14.735 -26.353  -8.810  1.00  0.00     0.012 A 
ATOM      4  C   UNL     1     -13.551 -28.866  -8.452  1.00  0.00     0.157 A 
ATOM      5  C   UNL     1     -14.841 -27.010  -7.581  1.00  0.00     0.051 A 
ATOM      6  C   UNL     1     -14.251 -28.262  -7.394  1.00  0.00     0.157 A 
ENDROOT
BRANCH   1   7
ATOM      7  C   UNL     1     -13.945 -26.203 -11.158  1.00  0.00     0.010 C 
ATOM      8  C   UNL     1     -14.483 -26.648 -12.303  1.00  0.00     0.025 C 
BRANCH   8   9
ATOM      9  C   UNL     1     -14.376 -25.899 -13.566  1.00  0.00     0.064 C 
ATOM     10  O   UNL     1     -14.786 -24.711 -13.657  1.00  0.00    -0.545 OA
ATOM     11  O   UNL     1     -13.813 -26.512 -14.677  1.00  0.00    -0.545 OA
ENDBRANCH   8   9
ENDBRANCH   1   7
BRANCH   4  12
ATOM     12  O   UNL     1     -12.970 -30.122  -8.276  1.00  0.00    -0.504 OA
ATOM     13  H   UNL     1     -12.343 -30.518  -8.966  1.00  0.00     0.293 HD
ENDBRANCH   4  12
BRANCH   6  14
ATOM     14  O   UNL     1     -14.374 -28.893  -6.156  1.00  0.00    -0.504 OA
ATOM     15  H   UNL     1     -13.762 -28.676  -5.379  1.00  0.00     0.293 HD
ENDBRANCH   6  14
TORSDOF 4
ENDMDL
MODEL 7
REMARK VINA RESULT:    -5.473      2.432      3.022
REMARK INTER + INTRA:          -6.552
REMARK INTER:                  -6.425
REMARK INTRA:                  -0.127
REMARK UNBOUND:                -0.120
REMARK SMILES O=C([O-])C=Cc1ccc(O)c(O)c1
REMARK SMILES IDX 6 1 13 2 7 3 11 4 8 5 9 6 5 7 4 8 2 9 1 10 3 11 12 12 10 14
REMARK H PARENT 12 13 10 15
REMARK Flexibility Score: inf
ROOT
ATOM      1  C   UNL     1     -14.181 -27.576 -10.997  1.00  0.00    -0.022 A 
ATOM      2  C   UNL     1     -13.973 -28.719 -11.795  1.00  0.00     0.058 A 
ATOM      3  C   UNL     1     -14.189 -26.314 -11.611  1.00  0.00     0.012 A 
ATOM      4  C   UNL     1     -13.802 -28.599 -13.183  1.00  0.00     0.157 A 
ATOM      5  C   UNL     1     -14.021 -26.194 -12.993  1.00  0.00     0.051 A 
ATOM      6  C   UNL     1     -13.830 -27.330 -13.783  1.00  0.00     0.157 A 
ENDROOT
BRANCH   1   7
ATOM      7  C   UNL     1     -14.354 -27.651  -9.526  1.00  0.00     0.010 C 
ATOM      8  C   UNL     1     -13.382 -28.015  -8.679  1.00  0.00     0.025 C 
BRANCH   8   9
ATOM      9  C   UNL     1     -13.594 -28.089  -7.223  1.00  0.00     0.064 C 
ATOM     10  O   UNL     1     -14.754 -28.132  -6.735  1.00  0.00    -0.545 OA
ATOM     11  O   UNL     1     -12.495 -28.112  -6.374  1.00  0.00    -0.545 OA
ENDBRANCH   8   9
ENDBRANCH   1   7
BRANCH   4  12
ATOM     12  O   UNL     1     -13.600 -29.736 -13.964  1.00  0.00    -0.504 OA
ATOM     13  H   UNL     1     -12.670 -30.065 -14.194  1.00  0.00     0.293 HD
ENDBRANCH   4  12
BRANCH   6  14
ATOM     14  O   UNL     1     -13.667 -27.179 -15.160  1.00  0.00    -0.504 OA
ATOM     15  H   UNL     1     -13.612 -27.974 -15.786  1.00  0.00     0.293 HD
ENDBRANCH   6  14
TORSDOF 4
ENDMDL
MODEL 8
REMARK VINA RESULT:    -5.153      3.315      4.676
REMARK INTER + INTRA:          -6.176
REMARK INTER:                  -6.053
REMARK INTRA:                  -0.123
REMARK UNBOUND:                -0.120
REMARK SMILES O=C([O-])C=Cc1ccc(O)c(O)c1
REMARK SMILES IDX 6 1 13 2 7 3 11 4 8 5 9 6 5 7 4 8 2 9 1 10 3 11 12 12 10 14
REMARK H PARENT 12 13 10 15
REMARK Flexibility Score: inf
ROOT
ATOM      1  C   UNL     1     -14.379 -29.263  -9.734  1.00  0.00    -0.022 A 
ATOM      2  C   UNL     1     -14.419 -28.518 -10.930  1.00  0.00     0.058 A 
ATOM      3  C   UNL     1     -14.906 -30.564  -9.728  1.00  0.00     0.012 A 
ATOM      4  C   UNL     1     -14.954 -29.077 -12.100  1.00  0.00     0.157 A 
ATOM      5  C   UNL     1     -15.436 -31.121 -10.894  1.00  0.00     0.051 A 
ATOM      6  C   UNL     1     -15.461 -30.387 -12.081  1.00  0.00     0.157 A 
ENDROOT
BRANCH   1   7
ATOM      7  C   UNL     1     -13.834 -28.712  -8.469  1.00  0.00     0.010 C 
ATOM      8  C   UNL     1     -12.930 -27.724  -8.414  1.00  0.00     0.025 C 
BRANCH   8   9
ATOM      9  C   UNL     1     -12.403 -27.209  -7.139  1.00  0.00     0.064 C 
ATOM     10  O   UNL     1     -12.085 -27.990  -6.203  1.00  0.00    -0.545 OA
ATOM     11  O   UNL     1     -12.254 -25.840  -6.965  1.00  0.00    -0.545 OA
ENDBRANCH   8   9
ENDBRANCH   1   7
BRANCH   4  12
ATOM     12  O   UNL     1     -14.987 -28.334 -13.280  1.00  0.00    -0.504 OA
ATOM     13  H   UNL     1     -14.184 -28.278 -13.896  1.00  0.00     0.293 HD
ENDBRANCH   4  12
BRANCH   6  14
ATOM     14  O   UNL     1     -15.996 -30.971 -13.229  1.00  0.00    -0.504 OA
ATOM     15  H   UNL     1     -15.424 -31.203 -14.032  1.00  0.00     0.293 HD
ENDBRANCH   6  14
TORSDOF 4
ENDMDL
MODEL 9
REMARK VINA RESULT:    -5.025      3.788      4.928
REMARK INTER + INTRA:          -6.026
REMARK INTER:                  -5.902
REMARK INTRA:                  -0.124
REMARK UNBOUND:                -0.120
REMARK SMILES O=C([O-])C=Cc1ccc(O)c(O)c1
REMARK SMILES IDX 6 1 13 2 7 3 11 4 8 5 9 6 5 7 4 8 2 9 1 10 3 11 12 12 10 14
REMARK H PARENT 12 13 10 15
REMARK Flexibility Score: inf
ROOT
ATOM      1  C   UNL     1     -14.564 -30.168 -10.902  1.00  0.00    -0.022 A 
ATOM      2  C   UNL     1     -13.623 -31.187 -11.151  1.00  0.00     0.058 A 
ATOM      3  C   UNL     1     -15.725 -30.111 -11.689  1.00  0.00     0.012 A 
ATOM      4  C   UNL     1     -13.854 -32.143 -12.152  1.00  0.00     0.157 A 
ATOM      5  C   UNL     1     -15.957 -31.064 -12.684  1.00  0.00     0.051 A 
ATOM      6  C   UNL     1     -15.029 -32.082 -12.918  1.00  0.00     0.157 A 
ENDROOT
BRANCH   1   7
ATOM      7  C   UNL     1     -14.359 -29.128  -9.864  1.00  0.00     0.010 C 
ATOM      8  C   UNL     1     -14.447 -29.362  -8.547  1.00  0.00     0.025 C 
BRANCH   8   9
ATOM      9  C   UNL     1     -14.249 -28.302  -7.545  1.00  0.00     0.064 C 
ATOM     10  O   UNL     1     -13.351 -28.394  -6.667  1.00  0.00    -0.545 OA
ATOM     11  O   UNL     1     -15.067 -27.180  -7.567  1.00  0.00    -0.545 OA
ENDBRANCH   8   9
ENDBRANCH   1   7
BRANCH   4  12
ATOM     12  O   UNL     1     -12.918 -33.149 -12.389  1.00  0.00    -0.504 OA
ATOM     13  H   UNL     1     -12.989 -33.762 -13.192  1.00  0.00     0.293 HD
ENDBRANCH   4  12
BRANCH   6  14
ATOM     14  O   UNL     1     -15.289 -33.020 -13.918  1.00  0.00    -0.504 OA
ATOM     15  H   UNL     1     -14.689 -33.821 -14.073  1.00  0.00     0.293 HD
ENDBRANCH   6  14
TORSDOF 4
ENDMDL
