MODEL 1
REMARK VINA RESULT:    -5.934      0.000      0.000
REMARK INTER + INTRA:         -19.300
REMARK INTER:                 -15.647
REMARK INTRA:                  -3.653
REMARK UNBOUND:                -3.653
REMARK SMILES CCCCCCCCCCCCCCCCCCCCCCCCCCCCCC(=O)[O-]
REMARK SMILES IDX 16 1 17 2 18 3 19 4 20 5 21 6 22 7 23 8 24 9 25 10 26 11
REMARK SMILES IDX 27 12 28 13 29 14 30 15 31 16 32 17 15 18 14 19 13 20 12 21
REMARK SMILES IDX 11 22 10 23 9 24 8 25 7 26 6 27 5 28 4 29 3 30 2 31 1 32
REMARK H PARENT
REMARK Flexibility Score: inf
ROOT
ATOM      1  C   UNL     1      87.415 320.606 199.218  1.00  0.00     0.000 C 
ENDROOT
BRANCH   1   2
ATOM      2  C   UNL     1      87.624 320.850 200.723  1.00  0.00     0.000 C 
BRANCH   2   3
ATOM      3  C   UNL     1      88.797 320.067 201.348  1.00  0.00     0.000 C 
BRANCH   3   4
ATOM      4  C   UNL     1      88.769 319.965 202.886  1.00  0.00     0.000 C 
BRANCH   4   5
ATOM      5  C   UNL     1      87.884 321.012 203.595  1.00  0.00     0.000 C 
BRANCH   5   6
ATOM      6  C   UNL     1      88.424 321.505 204.950  1.00  0.00     0.000 C 
BRANCH   6   7
ATOM      7  C   UNL     1      87.443 321.253 206.109  1.00  0.00     0.000 C 
BRANCH   7   8
ATOM      8  C   UNL     1      87.103 319.762 206.288  1.00  0.00     0.000 C 
BRANCH   8   9
ATOM      9  C   UNL     1      85.630 319.470 206.639  1.00  0.00     0.000 C 
BRANCH   9  10
ATOM     10  C   UNL     1      84.880 318.583 205.624  1.00  0.00     0.000 C 
BRANCH  10  11
ATOM     11  C   UNL     1      85.713 318.140 204.403  1.00  0.00     0.000 C 
BRANCH  11  12
ATOM     12  C   UNL     1      85.000 318.275 203.044  1.00  0.00     0.000 C 
BRANCH  12  13
ATOM     13  C   UNL     1      85.851 317.753 201.874  1.00  0.00     0.006 C 
BRANCH  13  14
ATOM     14  C   UNL     1      85.202 316.552 201.170  1.00  0.00     0.053 C 
BRANCH  14  15
ATOM     15  C   UNL     1      85.369 315.280 201.946  1.00  0.00     0.041 C 
ATOM     16  O   UNL     1      86.439 314.619 201.860  1.00  0.00    -0.550 OA
ATOM     17  O   UNL     1      84.338 314.819 202.758  1.00  0.00    -0.550 OA
ENDBRANCH  14  15
ENDBRANCH  13  14
ENDBRANCH  12  13
ENDBRANCH  11  12
ENDBRANCH  10  11
ENDBRANCH   9  10
ENDBRANCH   8   9
ENDBRANCH   7   8
ENDBRANCH   6   7
ENDBRANCH   5   6
ENDBRANCH   4   5
ENDBRANCH   3   4
ENDBRANCH   2   3
ENDBRANCH   1   2
BRANCH   1  18
ATOM     18  C   UNL     1      87.571 319.124 198.829  1.00  0.00     0.000 C 
BRANCH  18  19
ATOM     19  C   UNL     1      87.196 318.853 197.363  1.00  0.00     0.000 C 
BRANCH  19  20
ATOM     20  C   UNL     1      86.509 320.060 196.700  1.00  0.00     0.000 C 
BRANCH  20  21
ATOM     21  C   UNL     1      87.323 320.647 195.535  1.00  0.00     0.000 C 
BRANCH  21  22
ATOM     22  C   UNL     1      86.438 321.088 194.356  1.00  0.00     0.000 C 
BRANCH  22  23
ATOM     23  C   UNL     1      85.015 320.500 194.421  1.00  0.00     0.000 C 
BRANCH  23  24
ATOM     24  C   UNL     1      84.718 319.379 193.402  1.00  0.00    -0.000 C 
BRANCH  24  25
ATOM     25  C   UNL     1      85.947 318.822 192.662  1.00  0.00    -0.000 C 
BRANCH  25  26
ATOM     26  C   UNL     1      86.473 317.516 193.274  1.00  0.00    -0.000 C 
BRANCH  26  27
ATOM     27  C   UNL     1      85.312 316.594 193.679  1.00  0.00    -0.000 C 
BRANCH  27  28
ATOM     28  C   UNL     1      84.796 315.728 192.515  1.00  0.00    -0.000 C 
BRANCH  28  29
ATOM     29  C   UNL     1      85.752 315.616 191.313  1.00  0.00    -0.000 C 
BRANCH  29  30
ATOM     30  C   UNL     1      85.209 316.312 190.051  1.00  0.00    -0.000 C 
BRANCH  30  31
ATOM     31  C   UNL     1      86.288 317.120 189.313  1.00  0.00    -0.003 C 
ATOM     32  C   UNL     1      87.705 316.630 189.619  1.00  0.00     0.004 C 
ENDBRANCH  30  31
ENDBRANCH  29  30
ENDBRANCH  28  29
ENDBRANCH  27  28
ENDBRANCH  26  27
ENDBRANCH  25  26
ENDBRANCH  24  25
ENDBRANCH  23  24
ENDBRANCH  22  23
ENDBRANCH  21  22
ENDBRANCH  20  21
ENDBRANCH  19  20
ENDBRANCH  18  19
ENDBRANCH   1  18
TORSDOF 28
ENDMDL
MODEL 2
REMARK VINA RESULT:    -5.923      3.631     11.133
REMARK INTER + INTRA:         -19.272
REMARK INTER:                 -16.121
REMARK INTRA:                  -3.151
REMARK UNBOUND:                -3.653
REMARK SMILES CCCCCCCCCCCCCCCCCCCCCCCCCCCCCC(=O)[O-]
REMARK SMILES IDX 16 1 17 2 18 3 19 4 20 5 21 6 22 7 23 8 24 9 25 10 26 11
REMARK SMILES IDX 27 12 28 13 29 14 30 15 31 16 32 17 15 18 14 19 13 20 12 21
REMARK SMILES IDX 11 22 10 23 9 24 8 25 7 26 6 27 5 28 4 29 3 30 2 31 1 32
REMARK H PARENT
REMARK Flexibility Score: inf
ROOT
ATOM      1  C   UNL     1      88.356 318.480 199.978  1.00  0.00     0.000 C 
ENDROOT
BRANCH   1   2
ATOM      2  C   UNL     1      88.109 317.741 198.650  1.00  0.00     0.000 C 
BRANCH   2   3
ATOM      3  C   UNL     1      87.076 318.410 197.721  1.00  0.00     0.000 C 
BRANCH   3   4
ATOM      4  C   UNL     1      87.660 319.048 196.446  1.00  0.00     0.000 C 
BRANCH   4   5
ATOM      5  C   UNL     1      87.185 320.488 196.158  1.00  0.00     0.000 C 
BRANCH   5   6
ATOM      6  C   UNL     1      86.679 320.728 194.723  1.00  0.00     0.000 C 
BRANCH   6   7
ATOM      7  C   UNL     1      85.148 320.623 194.608  1.00  0.00     0.000 C 
BRANCH   7   8
ATOM      8  C   UNL     1      84.698 319.484 193.675  1.00  0.00     0.000 C 
BRANCH   8   9
ATOM      9  C   UNL     1      85.357 318.118 193.955  1.00  0.00     0.000 C 
BRANCH   9  10
ATOM     10  C   UNL     1      86.407 317.675 192.915  1.00  0.00     0.000 C 
BRANCH  10  11
ATOM     11  C   UNL     1      86.163 318.189 191.481  1.00  0.00     0.000 C 
BRANCH  11  12
ATOM     12  C   UNL     1      85.588 317.146 190.504  1.00  0.00     0.000 C 
BRANCH  12  13
ATOM     13  C   UNL     1      86.298 317.157 189.139  1.00  0.00     0.006 C 
BRANCH  13  14
ATOM     14  C   UNL     1      87.684 317.817 189.207  1.00  0.00     0.053 C 
BRANCH  14  15
ATOM     15  C   UNL     1      88.784 316.870 188.834  1.00  0.00     0.041 C 
ATOM     16  O   UNL     1      89.931 317.309 188.549  1.00  0.00    -0.550 OA
ATOM     17  O   UNL     1      88.541 315.500 188.794  1.00  0.00    -0.550 OA
ENDBRANCH  14  15
ENDBRANCH  13  14
ENDBRANCH  12  13
ENDBRANCH  11  12
ENDBRANCH  10  11
ENDBRANCH   9  10
ENDBRANCH   8   9
ENDBRANCH   7   8
ENDBRANCH   6   7
ENDBRANCH   5   6
ENDBRANCH   4   5
ENDBRANCH   3   4
ENDBRANCH   2   3
ENDBRANCH   1   2
BRANCH   1  18
ATOM     18  C   UNL     1      87.476 319.734 200.133  1.00  0.00     0.000 C 
BRANCH  18  19
ATOM     19  C   UNL     1      88.193 320.874 200.873  1.00  0.00     0.000 C 
BRANCH  19  20
ATOM     20  C   UNL     1      88.202 320.669 202.399  1.00  0.00     0.000 C 
BRANCH  20  21
ATOM     21  C   UNL     1      89.455 321.252 203.074  1.00  0.00     0.000 C 
BRANCH  21  22
ATOM     22  C   UNL     1      89.233 321.567 204.564  1.00  0.00     0.000 C 
BRANCH  22  23
ATOM     23  C   UNL     1      87.743 321.583 204.959  1.00  0.00     0.000 C 
BRANCH  23  24
ATOM     24  C   UNL     1      87.434 321.081 206.386  1.00  0.00    -0.000 C 
BRANCH  24  25
ATOM     25  C   UNL     1      87.675 319.578 206.619  1.00  0.00    -0.000 C 
BRANCH  25  26
ATOM     26  C   UNL     1      86.425 318.844 207.124  1.00  0.00    -0.000 C 
BRANCH  26  27
ATOM     27  C   UNL     1      85.228 319.093 206.193  1.00  0.00    -0.000 C 
BRANCH  27  28
ATOM     28  C   UNL     1      85.068 318.006 205.114  1.00  0.00    -0.000 C 
BRANCH  28  29
ATOM     29  C   UNL     1      85.810 318.285 203.794  1.00  0.00    -0.000 C 
BRANCH  29  30
ATOM     30  C   UNL     1      84.980 317.911 202.551  1.00  0.00    -0.000 C 
BRANCH  30  31
ATOM     31  C   UNL     1      85.399 316.561 201.947  1.00  0.00    -0.003 C 
ATOM     32  C   UNL     1      85.056 316.448 200.461  1.00  0.00     0.004 C 
ENDBRANCH  30  31
ENDBRANCH  29  30
ENDBRANCH  28  29
ENDBRANCH  27  28
ENDBRANCH  26  27
ENDBRANCH  25  26
ENDBRANCH  24  25
ENDBRANCH  23  24
ENDBRANCH  22  23
ENDBRANCH  21  22
ENDBRANCH  20  21
ENDBRANCH  19  20
ENDBRANCH  18  19
ENDBRANCH   1  18
TORSDOF 28
ENDMDL
MODEL 3
REMARK VINA RESULT:    -5.891      3.622     10.471
REMARK INTER + INTRA:         -19.186
REMARK INTER:                 -15.839
REMARK INTRA:                  -3.347
REMARK UNBOUND:                -3.653
REMARK SMILES CCCCCCCCCCCCCCCCCCCCCCCCCCCCCC(=O)[O-]
REMARK SMILES IDX 16 1 17 2 18 3 19 4 20 5 21 6 22 7 23 8 24 9 25 10 26 11
REMARK SMILES IDX 27 12 28 13 29 14 30 15 31 16 32 17 15 18 14 19 13 20 12 21
REMARK SMILES IDX 11 22 10 23 9 24 8 25 7 26 6 27 5 28 4 29 3 30 2 31 1 32
REMARK H PARENT
REMARK Flexibility Score: inf
ROOT
ATOM      1  C   UNL     1      87.164 320.532 201.672  1.00  0.00     0.000 C 
ENDROOT
BRANCH   1   2
ATOM      2  C   UNL     1      87.774 320.110 200.322  1.00  0.00     0.000 C 
BRANCH   2   3
ATOM      3  C   UNL     1      87.522 321.096 199.163  1.00  0.00     0.000 C 
BRANCH   3   4
ATOM      4  C   UNL     1      86.656 320.545 198.013  1.00  0.00     0.000 C 
BRANCH   4   5
ATOM      5  C   UNL     1      87.208 319.277 197.328  1.00  0.00     0.000 C 
BRANCH   5   6
ATOM      6  C   UNL     1      87.202 319.319 195.789  1.00  0.00     0.000 C 
BRANCH   6   7
ATOM      7  C   UNL     1      87.156 320.754 195.233  1.00  0.00     0.000 C 
BRANCH   7   8
ATOM      8  C   UNL     1      86.139 320.917 194.089  1.00  0.00     0.000 C 
BRANCH   8   9
ATOM      9  C   UNL     1      84.950 319.936 194.134  1.00  0.00     0.000 C 
BRANCH   9  10
ATOM     10  C   UNL     1      84.817 319.016 192.903  1.00  0.00     0.000 C 
BRANCH  10  11
ATOM     11  C   UNL     1      86.147 318.666 192.202  1.00  0.00     0.000 C 
BRANCH  11  12
ATOM     12  C   UNL     1      86.105 317.405 191.318  1.00  0.00     0.000 C 
BRANCH  12  13
ATOM     13  C   UNL     1      86.586 317.670 189.882  1.00  0.00     0.006 C 
BRANCH  13  14
ATOM     14  C   UNL     1      86.986 316.379 189.151  1.00  0.00     0.053 C 
BRANCH  14  15
ATOM     15  C   UNL     1      85.805 315.675 188.554  1.00  0.00     0.041 C 
ATOM     16  O   UNL     1      85.739 314.416 188.574  1.00  0.00    -0.550 OA
ATOM     17  O   UNL     1      84.780 316.409 187.966  1.00  0.00    -0.550 OA
ENDBRANCH  14  15
ENDBRANCH  13  14
ENDBRANCH  12  13
ENDBRANCH  11  12
ENDBRANCH  10  11
ENDBRANCH   9  10
ENDBRANCH   8   9
ENDBRANCH   7   8
ENDBRANCH   6   7
ENDBRANCH   5   6
ENDBRANCH   4   5
ENDBRANCH   3   4
ENDBRANCH   2   3
ENDBRANCH   1   2
BRANCH   1  18
ATOM     18  C   UNL     1      88.194 320.523 202.817  1.00  0.00     0.000 C 
BRANCH  18  19
ATOM     19  C   UNL     1      87.758 321.385 204.012  1.00  0.00     0.000 C 
BRANCH  19  20
ATOM     20  C   UNL     1      88.404 320.928 205.333  1.00  0.00     0.000 C 
BRANCH  20  21
ATOM     21  C   UNL     1      87.417 320.923 206.511  1.00  0.00     0.000 C 
BRANCH  21  22
ATOM     22  C   UNL     1      86.834 319.526 206.791  1.00  0.00     0.000 C 
BRANCH  22  23
ATOM     23  C   UNL     1      85.322 319.438 206.503  1.00  0.00     0.000 C 
BRANCH  23  24
ATOM     24  C   UNL     1      84.894 318.277 205.580  1.00  0.00    -0.000 C 
BRANCH  24  25
ATOM     25  C   UNL     1      85.759 318.086 204.321  1.00  0.00    -0.000 C 
BRANCH  25  26
ATOM     26  C   UNL     1      84.943 318.127 203.022  1.00  0.00    -0.000 C 
BRANCH  26  27
ATOM     27  C   UNL     1      84.700 316.710 202.480  1.00  0.00    -0.000 C 
BRANCH  27  28
ATOM     28  C   UNL     1      84.566 316.666 200.946  1.00  0.00    -0.000 C 
BRANCH  28  29
ATOM     29  C   UNL     1      85.652 315.850 200.221  1.00  0.00    -0.000 C 
BRANCH  29  30
ATOM     30  C   UNL     1      86.981 316.617 200.082  1.00  0.00    -0.000 C 
BRANCH  30  31
ATOM     31  C   UNL     1      88.118 315.978 200.896  1.00  0.00    -0.003 C 
ATOM     32  C   UNL     1      88.535 316.830 202.096  1.00  0.00     0.004 C 
ENDBRANCH  30  31
ENDBRANCH  29  30
ENDBRANCH  28  29
ENDBRANCH  27  28
ENDBRANCH  26  27
ENDBRANCH  25  26
ENDBRANCH  24  25
ENDBRANCH  23  24
ENDBRANCH  22  23
ENDBRANCH  21  22
ENDBRANCH  20  21
ENDBRANCH  19  20
ENDBRANCH  18  19
ENDBRANCH   1  18
TORSDOF 28
ENDMDL
MODEL 4
REMARK VINA RESULT:    -5.888      1.959      9.706
REMARK INTER + INTRA:         -19.178
REMARK INTER:                 -15.221
REMARK INTRA:                  -3.957
REMARK UNBOUND:                -3.653
REMARK SMILES CCCCCCCCCCCCCCCCCCCCCCCCCCCCCC(=O)[O-]
REMARK SMILES IDX 16 1 17 2 18 3 19 4 20 5 21 6 22 7 23 8 24 9 25 10 26 11
REMARK SMILES IDX 27 12 28 13 29 14 30 15 31 16 32 17 15 18 14 19 13 20 12 21
REMARK SMILES IDX 11 22 10 23 9 24 8 25 7 26 6 27 5 28 4 29 3 30 2 31 1 32
REMARK H PARENT
REMARK Flexibility Score: inf
ROOT
ATOM      1  C   UNL     1      87.414 320.073 199.322  1.00  0.00     0.000 C 
ENDROOT
BRANCH   1   2
ATOM      2  C   UNL     1      86.904 320.950 198.164  1.00  0.00     0.000 C 
BRANCH   2   3
ATOM      3  C   UNL     1      86.534 320.177 196.882  1.00  0.00     0.000 C 
BRANCH   3   4
ATOM      4  C   UNL     1      87.376 320.529 195.640  1.00  0.00     0.000 C 
BRANCH   4   5
ATOM      5  C   UNL     1      86.565 320.958 194.399  1.00  0.00     0.000 C 
BRANCH   5   6
ATOM      6  C   UNL     1      85.084 320.536 194.417  1.00  0.00     0.000 C 
BRANCH   6   7
ATOM      7  C   UNL     1      84.769 319.432 193.391  1.00  0.00     0.000 C 
BRANCH   7   8
ATOM      8  C   UNL     1      86.034 318.851 192.733  1.00  0.00     0.000 C 
BRANCH   8   9
ATOM      9  C   UNL     1      86.157 317.316 192.808  1.00  0.00     0.000 C 
BRANCH   9  10
ATOM     10  C   UNL     1      86.940 316.782 194.025  1.00  0.00     0.000 C 
BRANCH  10  11
ATOM     11  C   UNL     1      86.179 316.837 195.366  1.00  0.00     0.000 C 
BRANCH  11  12
ATOM     12  C   UNL     1      86.756 315.940 196.479  1.00  0.00     0.000 C 
BRANCH  12  13
ATOM     13  C   UNL     1      87.419 316.748 197.608  1.00  0.00     0.006 C 
BRANCH  13  14
ATOM     14  C   UNL     1      88.775 317.334 197.187  1.00  0.00     0.053 C 
BRANCH  14  15
ATOM     15  C   UNL     1      89.844 317.081 198.206  1.00  0.00     0.041 C 
ATOM     16  O   UNL     1      91.028 316.845 197.840  1.00  0.00    -0.550 OA
ATOM     17  O   UNL     1      89.533 317.096 199.562  1.00  0.00    -0.550 OA
ENDBRANCH  14  15
ENDBRANCH  13  14
ENDBRANCH  12  13
ENDBRANCH  11  12
ENDBRANCH  10  11
ENDBRANCH   9  10
ENDBRANCH   8   9
ENDBRANCH   7   8
ENDBRANCH   6   7
ENDBRANCH   5   6
ENDBRANCH   4   5
ENDBRANCH   3   4
ENDBRANCH   2   3
ENDBRANCH   1   2
BRANCH   1  18
ATOM     18  C   UNL     1      87.946 320.902 200.506  1.00  0.00     0.000 C 
BRANCH  18  19
ATOM     19  C   UNL     1      88.895 320.101 201.411  1.00  0.00     0.000 C 
BRANCH  19  20
ATOM     20  C   UNL     1      89.457 320.948 202.568  1.00  0.00     0.000 C 
BRANCH  20  21
ATOM     21  C   UNL     1      88.915 320.519 203.941  1.00  0.00     0.000 C 
BRANCH  21  22
ATOM     22  C   UNL     1      87.756 321.408 204.426  1.00  0.00     0.000 C 
BRANCH  22  23
ATOM     23  C   UNL     1      87.493 321.280 205.939  1.00  0.00     0.000 C 
BRANCH  23  24
ATOM     24  C   UNL     1      87.081 319.872 206.419  1.00  0.00    -0.000 C 
BRANCH  24  25
ATOM     25  C   UNL     1      85.576 319.684 206.684  1.00  0.00    -0.000 C 
BRANCH  25  26
ATOM     26  C   UNL     1      84.899 318.759 205.662  1.00  0.00    -0.000 C 
BRANCH  26  27
ATOM     27  C   UNL     1      85.945 318.000 204.832  1.00  0.00    -0.000 C 
BRANCH  27  28
ATOM     28  C   UNL     1      85.960 318.421 203.350  1.00  0.00    -0.000 C 
BRANCH  28  29
ATOM     29  C   UNL     1      84.676 318.089 202.566  1.00  0.00    -0.000 C 
BRANCH  29  30
ATOM     30  C   UNL     1      84.638 316.629 202.076  1.00  0.00    -0.000 C 
BRANCH  30  31
ATOM     31  C   UNL     1      85.451 316.418 200.789  1.00  0.00    -0.003 C 
ATOM     32  C   UNL     1      86.730 315.613 201.025  1.00  0.00     0.004 C 
ENDBRANCH  30  31
ENDBRANCH  29  30
ENDBRANCH  28  29
ENDBRANCH  27  28
ENDBRANCH  26  27
ENDBRANCH  25  26
ENDBRANCH  24  25
ENDBRANCH  23  24
ENDBRANCH  22  23
ENDBRANCH  21  22
ENDBRANCH  20  21
ENDBRANCH  19  20
ENDBRANCH  18  19
ENDBRANCH   1  18
TORSDOF 28
ENDMDL
MODEL 5
REMARK VINA RESULT:    -5.883      2.418      9.855
REMARK INTER + INTRA:         -19.167
REMARK INTER:                 -14.750
REMARK INTRA:                  -4.416
REMARK UNBOUND:                -3.653
REMARK SMILES CCCCCCCCCCCCCCCCCCCCCCCCCCCCCC(=O)[O-]
REMARK SMILES IDX 16 1 17 2 18 3 19 4 20 5 21 6 22 7 23 8 24 9 25 10 26 11
REMARK SMILES IDX 27 12 28 13 29 14 30 15 31 16 32 17 15 18 14 19 13 20 12 21
REMARK SMILES IDX 11 22 10 23 9 24 8 25 7 26 6 27 5 28 4 29 3 30 2 31 1 32
REMARK H PARENT
REMARK Flexibility Score: inf
ROOT
ATOM      1  C   UNL     1      86.575 320.286 197.121  1.00  0.00     0.000 C 
ENDROOT
BRANCH   1   2
ATOM      2  C   UNL     1      87.385 320.575 195.844  1.00  0.00     0.000 C 
BRANCH   2   3
ATOM      3  C   UNL     1      86.535 320.904 194.600  1.00  0.00     0.000 C 
BRANCH   3   4
ATOM      4  C   UNL     1      85.071 320.426 194.664  1.00  0.00     0.000 C 
BRANCH   4   5
ATOM      5  C   UNL     1      84.657 319.434 193.555  1.00  0.00     0.000 C 
BRANCH   5   6
ATOM      6  C   UNL     1      85.813 318.940 192.666  1.00  0.00     0.000 C 
BRANCH   6   7
ATOM      7  C   UNL     1      86.468 317.654 193.202  1.00  0.00     0.000 C 
BRANCH   7   8
ATOM      8  C   UNL     1      85.539 316.859 194.138  1.00  0.00     0.000 C 
BRANCH   8   9
ATOM      9  C   UNL     1      85.962 316.856 195.621  1.00  0.00     0.000 C 
BRANCH   9  10
ATOM     10  C   UNL     1      87.484 316.889 195.866  1.00  0.00     0.000 C 
BRANCH  10  11
ATOM     11  C   UNL     1      87.910 316.811 197.347  1.00  0.00     0.000 C 
BRANCH  11  12
ATOM     12  C   UNL     1      89.220 317.547 197.688  1.00  0.00     0.000 C 
BRANCH  12  13
ATOM     13  C   UNL     1      90.053 316.813 198.752  1.00  0.00     0.006 C 
BRANCH  13  14
ATOM     14  C   UNL     1      89.962 317.484 200.131  1.00  0.00     0.053 C 
BRANCH  14  15
ATOM     15  C   UNL     1      91.148 318.353 200.419  1.00  0.00     0.041 C 
ATOM     16  O   UNL     1      92.096 318.429 199.592  1.00  0.00    -0.550 OA
ATOM     17  O   UNL     1      91.211 319.075 201.607  1.00  0.00    -0.550 OA
ENDBRANCH  14  15
ENDBRANCH  13  14
ENDBRANCH  12  13
ENDBRANCH  11  12
ENDBRANCH  10  11
ENDBRANCH   9  10
ENDBRANCH   8   9
ENDBRANCH   7   8
ENDBRANCH   6   7
ENDBRANCH   5   6
ENDBRANCH   4   5
ENDBRANCH   3   4
ENDBRANCH   2   3
ENDBRANCH   1   2
BRANCH   1  18
ATOM     18  C   UNL     1      87.162 320.976 198.366  1.00  0.00     0.000 C 
BRANCH  18  19
ATOM     19  C   UNL     1      87.329 320.014 199.553  1.00  0.00     0.000 C 
BRANCH  19  20
ATOM     20  C   UNL     1      88.158 320.630 200.695  1.00  0.00     0.000 C 
BRANCH  20  21
ATOM     21  C   UNL     1      87.407 320.648 202.037  1.00  0.00     0.000 C 
BRANCH  21  22
ATOM     22  C   UNL     1      88.269 321.189 203.191  1.00  0.00     0.000 C 
BRANCH  22  23
ATOM     23  C   UNL     1      88.049 320.427 204.513  1.00  0.00     0.000 C 
BRANCH  23  24
ATOM     24  C   UNL     1      87.699 321.307 205.732  1.00  0.00    -0.000 C 
BRANCH  24  25
ATOM     25  C   UNL     1      86.952 320.586 206.869  1.00  0.00    -0.000 C 
BRANCH  25  26
ATOM     26  C   UNL     1      86.582 319.138 206.518  1.00  0.00    -0.000 C 
BRANCH  26  27
ATOM     27  C   UNL     1      85.069 318.998 206.289  1.00  0.00    -0.000 C 
BRANCH  27  28
ATOM     28  C   UNL     1      84.720 318.447 204.893  1.00  0.00    -0.000 C 
BRANCH  28  29
ATOM     29  C   UNL     1      85.462 317.156 204.499  1.00  0.00    -0.000 C 
BRANCH  29  30
ATOM     30  C   UNL     1      86.314 317.323 203.227  1.00  0.00    -0.000 C 
BRANCH  30  31
ATOM     31  C   UNL     1      85.464 317.350 201.947  1.00  0.00    -0.003 C 
ATOM     32  C   UNL     1      86.246 316.909 200.709  1.00  0.00     0.004 C 
ENDBRANCH  30  31
ENDBRANCH  29  30
ENDBRANCH  28  29
ENDBRANCH  27  28
ENDBRANCH  26  27
ENDBRANCH  25  26
ENDBRANCH  24  25
ENDBRANCH  23  24
ENDBRANCH  22  23
ENDBRANCH  21  22
ENDBRANCH  20  21
ENDBRANCH  19  20
ENDBRANCH  18  19
ENDBRANCH   1  18
TORSDOF 28
ENDMDL
MODEL 6
REMARK VINA RESULT:    -5.807      1.459      2.534
REMARK INTER + INTRA:         -18.966
REMARK INTER:                 -16.164
REMARK INTRA:                  -2.802
REMARK UNBOUND:                -3.653
REMARK SMILES CCCCCCCCCCCCCCCCCCCCCCCCCCCCCC(=O)[O-]
REMARK SMILES IDX 16 1 17 2 18 3 19 4 20 5 21 6 22 7 23 8 24 9 25 10 26 11
REMARK SMILES IDX 27 12 28 13 29 14 30 15 31 16 32 17 15 18 14 19 13 20 12 21
REMARK SMILES IDX 11 22 10 23 9 24 8 25 7 26 6 27 5 28 4 29 3 30 2 31 1 32
REMARK H PARENT
REMARK Flexibility Score: inf
ROOT
ATOM      1  C   UNL     1      87.047 320.327 202.112  1.00  0.00     0.000 C 
ENDROOT
BRANCH   1   2
ATOM      2  C   UNL     1      87.785 320.127 203.448  1.00  0.00     0.000 C 
BRANCH   2   3
ATOM      3  C   UNL     1      87.655 321.301 204.440  1.00  0.00     0.000 C 
BRANCH   3   4
ATOM      4  C   UNL     1      88.714 321.330 205.560  1.00  0.00     0.000 C 
BRANCH   4   5
ATOM      5  C   UNL     1      88.291 320.650 206.879  1.00  0.00     0.000 C 
BRANCH   5   6
ATOM      6  C   UNL     1      86.770 320.517 207.079  1.00  0.00     0.000 C 
BRANCH   6   7
ATOM      7  C   UNL     1      86.269 319.074 206.884  1.00  0.00     0.000 C 
BRANCH   7   8
ATOM      8  C   UNL     1      84.961 319.002 206.076  1.00  0.00     0.000 C 
BRANCH   8   9
ATOM      9  C   UNL     1      85.055 318.205 204.759  1.00  0.00     0.000 C 
BRANCH   9  10
ATOM     10  C   UNL     1      85.492 316.734 204.917  1.00  0.00     0.000 C 
BRANCH  10  11
ATOM     11  C   UNL     1      85.453 315.898 203.621  1.00  0.00     0.000 C 
BRANCH  11  12
ATOM     12  C   UNL     1      86.373 316.403 202.492  1.00  0.00     0.000 C 
BRANCH  12  13
ATOM     13  C   UNL     1      85.589 316.997 201.309  1.00  0.00     0.006 C 
BRANCH  13  14
ATOM     14  C   UNL     1      85.631 316.093 200.068  1.00  0.00     0.053 C 
BRANCH  14  15
ATOM     15  C   UNL     1      86.855 316.328 199.236  1.00  0.00     0.041 C 
ATOM     16  O   UNL     1      87.979 315.911 199.627  1.00  0.00    -0.550 OA
ATOM     17  O   UNL     1      86.757 317.015 198.030  1.00  0.00    -0.550 OA
ENDBRANCH  14  15
ENDBRANCH  13  14
ENDBRANCH  12  13
ENDBRANCH  11  12
ENDBRANCH  10  11
ENDBRANCH   9  10
ENDBRANCH   8   9
ENDBRANCH   7   8
ENDBRANCH   6   7
ENDBRANCH   5   6
ENDBRANCH   4   5
ENDBRANCH   3   4
ENDBRANCH   2   3
ENDBRANCH   1   2
BRANCH   1  18
ATOM     18  C   UNL     1      88.000 320.675 200.953  1.00  0.00     0.000 C 
BRANCH  18  19
ATOM     19  C   UNL     1      87.596 320.003 199.631  1.00  0.00     0.000 C 
BRANCH  19  20
ATOM     20  C   UNL     1      87.218 321.025 198.544  1.00  0.00     0.000 C 
BRANCH  20  21
ATOM     21  C   UNL     1      86.469 320.391 197.361  1.00  0.00     0.000 C 
BRANCH  21  22
ATOM     22  C   UNL     1      87.383 320.130 196.150  1.00  0.00     0.000 C 
BRANCH  22  23
ATOM     23  C   UNL     1      86.889 320.821 194.865  1.00  0.00     0.000 C 
BRANCH  23  24
ATOM     24  C   UNL     1      85.362 320.779 194.639  1.00  0.00    -0.000 C 
BRANCH  24  25
ATOM     25  C   UNL     1      84.865 319.642 193.727  1.00  0.00    -0.000 C 
BRANCH  25  26
ATOM     26  C   UNL     1      85.967 319.078 192.819  1.00  0.00    -0.000 C 
BRANCH  26  27
ATOM     27  C   UNL     1      86.127 317.564 193.025  1.00  0.00    -0.000 C 
BRANCH  27  28
ATOM     28  C   UNL     1      86.528 316.820 191.737  1.00  0.00    -0.000 C 
BRANCH  28  29
ATOM     29  C   UNL     1      85.720 317.206 190.484  1.00  0.00    -0.000 C 
BRANCH  29  30
ATOM     30  C   UNL     1      86.498 316.970 189.176  1.00  0.00    -0.000 C 
BRANCH  30  31
ATOM     31  C   UNL     1      87.727 317.885 189.049  1.00  0.00    -0.003 C 
ATOM     32  C   UNL     1      88.992 317.121 188.654  1.00  0.00     0.004 C 
ENDBRANCH  30  31
ENDBRANCH  29  30
ENDBRANCH  28  29
ENDBRANCH  27  28
ENDBRANCH  26  27
ENDBRANCH  25  26
ENDBRANCH  24  25
ENDBRANCH  23  24
ENDBRANCH  22  23
ENDBRANCH  21  22
ENDBRANCH  20  21
ENDBRANCH  19  20
ENDBRANCH  18  19
ENDBRANCH   1  18
TORSDOF 28
ENDMDL
MODEL 7
REMARK VINA RESULT:    -5.784      2.284      4.353
REMARK INTER + INTRA:         -18.904
REMARK INTER:                 -15.428
REMARK INTRA:                  -3.475
REMARK UNBOUND:                -3.653
REMARK SMILES CCCCCCCCCCCCCCCCCCCCCCCCCCCCCC(=O)[O-]
REMARK SMILES IDX 16 1 17 2 18 3 19 4 20 5 21 6 22 7 23 8 24 9 25 10 26 11
REMARK SMILES IDX 27 12 28 13 29 14 30 15 31 16 32 17 15 18 14 19 13 20 12 21
REMARK SMILES IDX 11 22 10 23 9 24 8 25 7 26 6 27 5 28 4 29 3 30 2 31 1 32
REMARK H PARENT
REMARK Flexibility Score: inf
ROOT
ATOM      1  C   UNL     1      87.672 319.120 198.786  1.00  0.00     0.000 C 
ENDROOT
BRANCH   1   2
ATOM      2  C   UNL     1      87.510 320.545 199.348  1.00  0.00     0.000 C 
BRANCH   2   3
ATOM      3  C   UNL     1      88.054 320.741 200.778  1.00  0.00     0.000 C 
BRANCH   3   4
ATOM      4  C   UNL     1      87.029 320.504 201.905  1.00  0.00     0.000 C 
BRANCH   4   5
ATOM      5  C   UNL     1      87.052 319.089 202.522  1.00  0.00     0.000 C 
BRANCH   5   6
ATOM      6  C   UNL     1      85.740 318.297 202.371  1.00  0.00     0.000 C 
BRANCH   6   7
ATOM      7  C   UNL     1      85.403 317.462 203.619  1.00  0.00     0.000 C 
BRANCH   7   8
ATOM      8  C   UNL     1      84.762 318.300 204.741  1.00  0.00     0.000 C 
BRANCH   8   9
ATOM      9  C   UNL     1      85.605 318.417 206.026  1.00  0.00     0.000 C 
BRANCH   9  10
ATOM     10  C   UNL     1      85.450 319.748 206.790  1.00  0.00     0.000 C 
BRANCH  10  11
ATOM     11  C   UNL     1      86.751 320.559 206.962  1.00  0.00     0.000 C 
BRANCH  11  12
ATOM     12  C   UNL     1      87.339 321.130 205.657  1.00  0.00     0.000 C 
BRANCH  12  13
ATOM     13  C   UNL     1      88.831 320.797 205.483  1.00  0.00     0.006 C 
BRANCH  13  14
ATOM     14  C   UNL     1      89.499 321.657 204.399  1.00  0.00     0.053 C 
BRANCH  14  15
ATOM     15  C   UNL     1      90.458 320.869 203.559  1.00  0.00     0.041 C 
ATOM     16  O   UNL     1      91.330 321.460 202.867  1.00  0.00    -0.550 OA
ATOM     17  O   UNL     1      90.383 319.480 203.533  1.00  0.00    -0.550 OA
ENDBRANCH  14  15
ENDBRANCH  13  14
ENDBRANCH  12  13
ENDBRANCH  11  12
ENDBRANCH  10  11
ENDBRANCH   9  10
ENDBRANCH   8   9
ENDBRANCH   7   8
ENDBRANCH   6   7
ENDBRANCH   5   6
ENDBRANCH   4   5
ENDBRANCH   3   4
ENDBRANCH   2   3
ENDBRANCH   1   2
BRANCH   1  18
ATOM     18  C   UNL     1      86.889 318.906 197.478  1.00  0.00     0.000 C 
BRANCH  18  19
ATOM     19  C   UNL     1      86.448 320.227 196.827  1.00  0.00     0.000 C 
BRANCH  19  20
ATOM     20  C   UNL     1      87.354 320.632 195.650  1.00  0.00     0.000 C 
BRANCH  20  21
ATOM     21  C   UNL     1      86.561 321.067 194.407  1.00  0.00     0.000 C 
BRANCH  21  22
ATOM     22  C   UNL     1      85.109 320.555 194.420  1.00  0.00     0.000 C 
BRANCH  22  23
ATOM     23  C   UNL     1      84.852 319.454 193.373  1.00  0.00     0.000 C 
BRANCH  23  24
ATOM     24  C   UNL     1      86.117 318.837 192.740  1.00  0.00    -0.000 C 
BRANCH  24  25
ATOM     25  C   UNL     1      85.869 317.957 191.502  1.00  0.00    -0.000 C 
BRANCH  25  26
ATOM     26  C   UNL     1      86.275 316.492 191.718  1.00  0.00    -0.000 C 
BRANCH  26  27
ATOM     27  C   UNL     1      85.054 315.631 192.076  1.00  0.00    -0.000 C 
BRANCH  27  28
ATOM     28  C   UNL     1      85.168 314.971 193.463  1.00  0.00    -0.000 C 
BRANCH  28  29
ATOM     29  C   UNL     1      84.959 315.922 194.656  1.00  0.00    -0.000 C 
BRANCH  29  30
ATOM     30  C   UNL     1      85.996 315.713 195.775  1.00  0.00    -0.000 C 
BRANCH  30  31
ATOM     31  C   UNL     1      85.454 314.856 196.930  1.00  0.00    -0.003 C 
ATOM     32  C   UNL     1      85.790 315.437 198.304  1.00  0.00     0.004 C 
ENDBRANCH  30  31
ENDBRANCH  29  30
ENDBRANCH  28  29
ENDBRANCH  27  28
ENDBRANCH  26  27
ENDBRANCH  25  26
ENDBRANCH  24  25
ENDBRANCH  23  24
ENDBRANCH  22  23
ENDBRANCH  21  22
ENDBRANCH  20  21
ENDBRANCH  19  20
ENDBRANCH  18  19
ENDBRANCH   1  18
TORSDOF 28
ENDMDL
MODEL 8
REMARK VINA RESULT:    -5.730      2.119     10.104
REMARK INTER + INTRA:         -18.762
REMARK INTER:                 -14.941
REMARK INTRA:                  -3.821
REMARK UNBOUND:                -3.653
REMARK SMILES CCCCCCCCCCCCCCCCCCCCCCCCCCCCCC(=O)[O-]
REMARK SMILES IDX 16 1 17 2 18 3 19 4 20 5 21 6 22 7 23 8 24 9 25 10 26 11
REMARK SMILES IDX 27 12 28 13 29 14 30 15 31 16 32 17 15 18 14 19 13 20 12 21
REMARK SMILES IDX 11 22 10 23 9 24 8 25 7 26 6 27 5 28 4 29 3 30 2 31 1 32
REMARK H PARENT
REMARK Flexibility Score: inf
ROOT
ATOM      1  C   UNL     1      88.668 318.687 199.649  1.00  0.00     0.000 C 
ENDROOT
BRANCH   1   2
ATOM      2  C   UNL     1      88.460 317.741 198.453  1.00  0.00     0.000 C 
BRANCH   2   3
ATOM      3  C   UNL     1      87.231 318.064 197.580  1.00  0.00     0.000 C 
BRANCH   3   4
ATOM      4  C   UNL     1      87.540 318.805 196.264  1.00  0.00     0.000 C 
BRANCH   4   5
ATOM      5  C   UNL     1      87.043 320.265 196.202  1.00  0.00     0.000 C 
BRANCH   5   6
ATOM      6  C   UNL     1      86.464 320.694 194.842  1.00  0.00     0.000 C 
BRANCH   6   7
ATOM      7  C   UNL     1      85.020 320.204 194.630  1.00  0.00     0.000 C 
BRANCH   7   8
ATOM      8  C   UNL     1      84.858 319.360 193.352  1.00  0.00     0.000 C 
BRANCH   8   9
ATOM      9  C   UNL     1      86.148 318.672 192.863  1.00  0.00     0.000 C 
BRANCH   9  10
ATOM     10  C   UNL     1      86.109 318.175 191.403  1.00  0.00     0.000 C 
BRANCH  10  11
ATOM     11  C   UNL     1      84.965 317.193 191.077  1.00  0.00     0.000 C 
BRANCH  11  12
ATOM     12  C   UNL     1      85.231 315.729 191.477  1.00  0.00     0.000 C 
BRANCH  12  13
ATOM     13  C   UNL     1      84.305 315.245 192.606  1.00  0.00     0.006 C 
BRANCH  13  14
ATOM     14  C   UNL     1      85.079 314.565 193.745  1.00  0.00     0.053 C 
BRANCH  14  15
ATOM     15  C   UNL     1      85.702 315.557 194.680  1.00  0.00     0.041 C 
ATOM     16  O   UNL     1      84.983 316.391 195.292  1.00  0.00    -0.550 OA
ATOM     17  O   UNL     1      87.081 315.566 194.869  1.00  0.00    -0.550 OA
ENDBRANCH  14  15
ENDBRANCH  13  14
ENDBRANCH  12  13
ENDBRANCH  11  12
ENDBRANCH  10  11
ENDBRANCH   9  10
ENDBRANCH   8   9
ENDBRANCH   7   8
ENDBRANCH   6   7
ENDBRANCH   5   6
ENDBRANCH   4   5
ENDBRANCH   3   4
ENDBRANCH   2   3
ENDBRANCH   1   2
BRANCH   1  18
ATOM     18  C   UNL     1      87.467 319.620 199.884  1.00  0.00     0.000 C 
BRANCH  18  19
ATOM     19  C   UNL     1      87.841 320.878 200.685  1.00  0.00     0.000 C 
BRANCH  19  20
ATOM     20  C   UNL     1      87.818 320.635 202.205  1.00  0.00     0.000 C 
BRANCH  20  21
ATOM     21  C   UNL     1      89.181 320.883 202.872  1.00  0.00     0.000 C 
BRANCH  21  22
ATOM     22  C   UNL     1      89.055 321.580 204.238  1.00  0.00     0.000 C 
BRANCH  22  23
ATOM     23  C   UNL     1      87.602 321.644 204.747  1.00  0.00     0.000 C 
BRANCH  23  24
ATOM     24  C   UNL     1      87.340 320.922 206.087  1.00  0.00    -0.000 C 
BRANCH  24  25
ATOM     25  C   UNL     1      86.952 319.437 205.967  1.00  0.00    -0.000 C 
BRANCH  25  26
ATOM     26  C   UNL     1      85.468 319.180 206.264  1.00  0.00    -0.000 C 
BRANCH  26  27
ATOM     27  C   UNL     1      84.851 318.245 205.213  1.00  0.00    -0.000 C 
BRANCH  27  28
ATOM     28  C   UNL     1      85.671 318.179 203.910  1.00  0.00    -0.000 C 
BRANCH  28  29
ATOM     29  C   UNL     1      84.844 318.291 202.616  1.00  0.00    -0.000 C 
BRANCH  29  30
ATOM     30  C   UNL     1      84.564 316.923 201.967  1.00  0.00    -0.000 C 
BRANCH  30  31
ATOM     31  C   UNL     1      85.491 316.634 200.775  1.00  0.00    -0.003 C 
ATOM     32  C   UNL     1      86.721 315.815 201.169  1.00  0.00     0.004 C 
ENDBRANCH  30  31
ENDBRANCH  29  30
ENDBRANCH  28  29
ENDBRANCH  27  28
ENDBRANCH  26  27
ENDBRANCH  25  26
ENDBRANCH  24  25
ENDBRANCH  23  24
ENDBRANCH  22  23
ENDBRANCH  21  22
ENDBRANCH  20  21
ENDBRANCH  19  20
ENDBRANCH  18  19
ENDBRANCH   1  18
TORSDOF 28
ENDMDL
MODEL 9
REMARK VINA RESULT:    -5.704      2.218      9.613
REMARK INTER + INTRA:         -18.694
REMARK INTER:                 -15.006
REMARK INTRA:                  -3.688
REMARK UNBOUND:                -3.653
REMARK SMILES CCCCCCCCCCCCCCCCCCCCCCCCCCCCCC(=O)[O-]
REMARK SMILES IDX 16 1 17 2 18 3 19 4 20 5 21 6 22 7 23 8 24 9 25 10 26 11
REMARK SMILES IDX 27 12 28 13 29 14 30 15 31 16 32 17 15 18 14 19 13 20 12 21
REMARK SMILES IDX 11 22 10 23 9 24 8 25 7 26 6 27 5 28 4 29 3 30 2 31 1 32
REMARK H PARENT
REMARK Flexibility Score: inf
ROOT
ATOM      1  C   UNL     1      87.636 320.429 200.497  1.00  0.00     0.000 C 
ENDROOT
BRANCH   1   2
ATOM      2  C   UNL     1      88.133 319.041 200.056  1.00  0.00     0.000 C 
BRANCH   2   3
ATOM      3  C   UNL     1      87.250 318.341 199.004  1.00  0.00     0.000 C 
BRANCH   3   4
ATOM      4  C   UNL     1      87.953 318.020 197.670  1.00  0.00     0.000 C 
BRANCH   4   5
ATOM      5  C   UNL     1      87.257 318.582 196.412  1.00  0.00     0.000 C 
BRANCH   5   6
ATOM      6  C   UNL     1      87.296 320.116 196.283  1.00  0.00     0.000 C 
BRANCH   6   7
ATOM      7  C   UNL     1      86.047 320.793 196.876  1.00  0.00     0.000 C 
BRANCH   7   8
ATOM      8  C   UNL     1      84.881 320.875 195.874  1.00  0.00     0.000 C 
BRANCH   8   9
ATOM      9  C   UNL     1      85.303 320.970 194.394  1.00  0.00     0.000 C 
BRANCH   9  10
ATOM     10  C   UNL     1      84.936 319.745 193.531  1.00  0.00     0.000 C 
BRANCH  10  11
ATOM     11  C   UNL     1      86.125 319.064 192.823  1.00  0.00     0.000 C 
BRANCH  11  12
ATOM     12  C   UNL     1      85.738 318.030 191.748  1.00  0.00     0.000 C 
BRANCH  12  13
ATOM     13  C   UNL     1      86.391 316.657 191.983  1.00  0.00     0.006 C 
BRANCH  13  14
ATOM     14  C   UNL     1      86.593 316.355 193.476  1.00  0.00     0.053 C 
BRANCH  14  15
ATOM     15  C   UNL     1      85.401 315.682 194.085  1.00  0.00     0.041 C 
ATOM     16  O   UNL     1      84.819 314.744 193.475  1.00  0.00    -0.550 OA
ATOM     17  O   UNL     1      84.925 316.095 195.326  1.00  0.00    -0.550 OA
ENDBRANCH  14  15
ENDBRANCH  13  14
ENDBRANCH  12  13
ENDBRANCH  11  12
ENDBRANCH  10  11
ENDBRANCH   9  10
ENDBRANCH   8   9
ENDBRANCH   7   8
ENDBRANCH   6   7
ENDBRANCH   5   6
ENDBRANCH   4   5
ENDBRANCH   3   4
ENDBRANCH   2   3
ENDBRANCH   1   2
BRANCH   1  18
ATOM     18  C   UNL     1      87.666 320.614 202.025  1.00  0.00     0.000 C 
BRANCH  18  19
ATOM     19  C   UNL     1      88.995 321.203 202.525  1.00  0.00     0.000 C 
BRANCH  19  20
ATOM     20  C   UNL     1      88.951 321.564 204.021  1.00  0.00     0.000 C 
BRANCH  20  21
ATOM     21  C   UNL     1      87.614 321.198 204.686  1.00  0.00     0.000 C 
BRANCH  21  22
ATOM     22  C   UNL     1      87.791 320.276 205.906  1.00  0.00     0.000 C 
BRANCH  22  23
ATOM     23  C   UNL     1      86.714 320.497 206.986  1.00  0.00     0.000 C 
BRANCH  23  24
ATOM     24  C   UNL     1      85.383 319.750 206.752  1.00  0.00    -0.000 C 
BRANCH  24  25
ATOM     25  C   UNL     1      85.516 318.365 206.093  1.00  0.00    -0.000 C 
BRANCH  25  26
ATOM     26  C   UNL     1      84.735 318.252 204.776  1.00  0.00    -0.000 C 
BRANCH  26  27
ATOM     27  C   UNL     1      85.678 317.935 203.605  1.00  0.00    -0.000 C 
BRANCH  27  28
ATOM     28  C   UNL     1      84.960 317.913 202.242  1.00  0.00    -0.000 C 
BRANCH  28  29
ATOM     29  C   UNL     1      84.975 316.552 201.521  1.00  0.00    -0.000 C 
BRANCH  29  30
ATOM     30  C   UNL     1      86.320 315.816 201.665  1.00  0.00    -0.000 C 
BRANCH  30  31
ATOM     31  C   UNL     1      86.652 314.950 200.439  1.00  0.00    -0.003 C 
ATOM     32  C   UNL     1      85.749 315.252 199.242  1.00  0.00     0.004 C 
ENDBRANCH  30  31
ENDBRANCH  29  30
ENDBRANCH  28  29
ENDBRANCH  27  28
ENDBRANCH  26  27
ENDBRANCH  25  26
ENDBRANCH  24  25
ENDBRANCH  23  24
ENDBRANCH  22  23
ENDBRANCH  21  22
ENDBRANCH  20  21
ENDBRANCH  19  20
ENDBRANCH  18  19
ENDBRANCH   1  18
TORSDOF 28
ENDMDL
