MODEL 1
REMARK VINA RESULT:    -7.829      0.000      0.000
REMARK INTER + INTRA:         -10.611
REMARK INTER:                 -10.346
REMARK INTRA:                  -0.265
REMARK UNBOUND:                -0.265
REMARK SMILES CC[C@@H](C=C[C@H](C)[C@H]1CC[C@@H]2[C@H]3CC=C4C[C@@H](O)CC[C@@]4(C)[C@@H]3CC[C@@]21C)C(C)C
REMARK SMILES IDX 6 1 7 2 5 3 4 4 3 5 2 6 1 7 28 8 29 9 30 10 8 11 9 12 26 13
REMARK SMILES IDX 10 14 11 15 25 16 27 17 12 18 24 19 23 20 13 21 21 22 14 23
REMARK SMILES IDX 15 24 20 25 22 26 16 27 19 28 17 29 18 30
REMARK H PARENT 18 31
REMARK Flexibility Score: inf
ROOT
ATOM      1  C   UNL     1      17.628  27.108  42.431  1.00  0.00     0.012 C 
ATOM      2  C   UNL     1      18.575  26.762  43.602  1.00  0.00     0.012 C 
ENDROOT
BRANCH   1   3
ATOM      3  C   UNL     1      18.317  26.955  41.084  1.00  0.00    -0.028 C 
ATOM      4  C   UNL     1      19.430  26.225  40.884  1.00  0.00    -0.027 C 
BRANCH   4   5
ATOM      5  C   UNL     1      20.054  26.088  39.507  1.00  0.00     0.014 C 
BRANCH   5   6
ATOM      6  C   UNL     1      19.789  27.352  38.644  1.00  0.00     0.004 C 
ATOM      7  C   UNL     1      20.547  28.613  39.066  1.00  0.00     0.004 C 
ENDBRANCH   5   6
BRANCH   5   8
ATOM      8  C   UNL     1      19.735  24.709  38.838  1.00  0.00    -0.011 C 
ATOM      9  C   UNL     1      19.796  23.495  39.785  1.00  0.00     0.008 C 
ATOM     10  C   UNL     1      18.411  24.724  38.061  1.00  0.00     0.008 C 
ENDBRANCH   5   8
ENDBRANCH   4   5
ENDBRANCH   1   3
BRANCH   1  11
ATOM     11  C   UNL     1      16.232  26.378  42.420  1.00  0.00     0.002 C 
ATOM     12  C   UNL     1      15.834  25.863  41.027  1.00  0.00     0.005 C 
ATOM     13  C   UNL     1      16.037  25.135  43.356  1.00  0.00    -0.026 C 
ATOM     14  C   UNL     1      16.029  24.346  41.036  1.00  0.00     0.005 C 
ATOM     15  C   UNL     1      16.470  23.949  42.456  1.00  0.00    -0.001 C 
ATOM     16  C   UNL     1      14.511  25.039  43.772  1.00  0.00     0.007 C 
ATOM     17  C   UNL     1      16.899  25.214  44.644  1.00  0.00     0.012 C 
ATOM     18  C   UNL     1      15.966  22.522  42.872  1.00  0.00     0.000 C 
ATOM     19  C   UNL     1      13.848  23.664  43.575  1.00  0.00     0.005 C 
ATOM     20  C   UNL     1      14.827  22.531  43.915  1.00  0.00     0.003 C 
ATOM     21  C   UNL     1      17.106  21.641  43.398  1.00  0.00     0.031 C 
ATOM     22  C   UNL     1      14.202  21.091  44.070  1.00  0.00    -0.008 C 
ATOM     23  C   UNL     1      16.615  20.317  43.930  1.00  0.00    -0.027 C 
ATOM     24  C   UNL     1      15.337  20.080  44.315  1.00  0.00    -0.065 C 
ATOM     25  C   UNL     1      13.270  21.060  45.318  1.00  0.00     0.014 C 
ATOM     26  C   UNL     1      13.394  20.693  42.803  1.00  0.00     0.016 C 
ATOM     27  C   UNL     1      15.089  18.826  45.131  1.00  0.00     0.063 C 
ATOM     28  C   UNL     1      12.738  19.663  45.714  1.00  0.00     0.033 C 
ATOM     29  C   UNL     1      13.605  18.469  45.263  1.00  0.00     0.118 C 
BRANCH  29  30
ATOM     30  O   UNL     1      13.452  17.418  46.184  1.00  0.00    -0.393 OA
ATOM     31  H   UNL     1      12.576  17.551  46.633  1.00  0.00     0.210 HD
ENDBRANCH  29  30
ENDBRANCH   1  11
TORSDOF 6
ENDMDL
MODEL 2
REMARK VINA RESULT:    -7.402      3.502      6.655
REMARK INTER + INTRA:         -10.047
REMARK INTER:                  -9.762
REMARK INTRA:                  -0.285
REMARK UNBOUND:                -0.265
REMARK SMILES CC[C@@H](C=C[C@H](C)[C@H]1CC[C@@H]2[C@H]3CC=C4C[C@@H](O)CC[C@@]4(C)[C@@H]3CC[C@@]21C)C(C)C
REMARK SMILES IDX 6 1 7 2 5 3 4 4 3 5 2 6 1 7 28 8 29 9 30 10 8 11 9 12 26 13
REMARK SMILES IDX 10 14 11 15 25 16 27 17 12 18 24 19 23 20 13 21 21 22 14 23
REMARK SMILES IDX 15 24 20 25 22 26 16 27 19 28 17 29 18 30
REMARK H PARENT 18 31
REMARK Flexibility Score: inf
ROOT
ATOM      1  C   UNL     1      19.753  22.926  36.823  1.00  0.00     0.012 C 
ATOM      2  C   UNL     1      20.111  21.714  37.712  1.00  0.00     0.012 C 
ENDROOT
BRANCH   1   3
ATOM      3  C   UNL     1      18.496  22.674  36.004  1.00  0.00    -0.028 C 
ATOM      4  C   UNL     1      17.496  21.859  36.388  1.00  0.00    -0.027 C 
BRANCH   4   5
ATOM      5  C   UNL     1      16.253  21.671  35.538  1.00  0.00     0.014 C 
BRANCH   5   6
ATOM      6  C   UNL     1      15.519  23.021  35.313  1.00  0.00     0.004 C 
ATOM      7  C   UNL     1      14.608  23.478  36.454  1.00  0.00     0.004 C 
ENDBRANCH   5   6
BRANCH   5   8
ATOM      8  C   UNL     1      15.370  20.471  36.022  1.00  0.00    -0.011 C 
ATOM      9  C   UNL     1      14.245  20.059  35.054  1.00  0.00     0.008 C 
ATOM     10  C   UNL     1      16.208  19.252  36.430  1.00  0.00     0.008 C 
ENDBRANCH   5   8
ENDBRANCH   4   5
ENDBRANCH   1   3
BRANCH   1  11
ATOM     11  C   UNL     1      19.666  24.323  37.545  1.00  0.00     0.002 C 
ATOM     12  C   UNL     1      18.576  25.236  36.959  1.00  0.00     0.005 C 
ATOM     13  C   UNL     1      19.391  24.345  39.089  1.00  0.00    -0.026 C 
ATOM     14  C   UNL     1      17.414  25.247  37.954  1.00  0.00     0.005 C 
ATOM     15  C   UNL     1      17.843  24.402  39.168  1.00  0.00    -0.001 C 
ATOM     16  C   UNL     1      20.065  25.636  39.713  1.00  0.00     0.007 C 
ATOM     17  C   UNL     1      19.949  23.093  39.815  1.00  0.00     0.012 C 
ATOM     18  C   UNL     1      17.219  24.913  40.514  1.00  0.00     0.000 C 
ATOM     19  C   UNL     1      19.159  26.497  40.611  1.00  0.00     0.005 C 
ATOM     20  C   UNL     1      18.225  25.615  41.453  1.00  0.00     0.003 C 
ATOM     21  C   UNL     1      16.529  23.785  41.292  1.00  0.00     0.031 C 
ATOM     22  C   UNL     1      17.473  26.330  42.641  1.00  0.00    -0.008 C 
ATOM     23  C   UNL     1      16.046  24.231  42.650  1.00  0.00    -0.027 C 
ATOM     24  C   UNL     1      16.519  25.320  43.305  1.00  0.00    -0.065 C 
ATOM     25  C   UNL     1      18.507  26.774  43.718  1.00  0.00     0.014 C 
ATOM     26  C   UNL     1      16.677  27.566  42.137  1.00  0.00     0.016 C 
ATOM     27  C   UNL     1      16.181  25.433  44.779  1.00  0.00     0.063 C 
ATOM     28  C   UNL     1      17.902  27.315  45.035  1.00  0.00     0.033 C 
ATOM     29  C   UNL     1      16.480  26.815  45.367  1.00  0.00     0.118 C 
BRANCH  29  30
ATOM     30  O   UNL     1      16.322  26.778  46.764  1.00  0.00    -0.393 OA
ATOM     31  H   UNL     1      15.505  27.301  46.978  1.00  0.00     0.210 HD
ENDBRANCH  29  30
ENDBRANCH   1  11
TORSDOF 6
ENDMDL
MODEL 3
REMARK VINA RESULT:    -7.334      3.033      7.917
REMARK INTER + INTRA:          -9.958
REMARK INTER:                  -9.593
REMARK INTRA:                  -0.365
REMARK UNBOUND:                -0.265
REMARK SMILES CC[C@@H](C=C[C@H](C)[C@H]1CC[C@@H]2[C@H]3CC=C4C[C@@H](O)CC[C@@]4(C)[C@@H]3CC[C@@]21C)C(C)C
REMARK SMILES IDX 6 1 7 2 5 3 4 4 3 5 2 6 1 7 28 8 29 9 30 10 8 11 9 12 26 13
REMARK SMILES IDX 10 14 11 15 25 16 27 17 12 18 24 19 23 20 13 21 21 22 14 23
REMARK SMILES IDX 15 24 20 25 22 26 16 27 19 28 17 29 18 30
REMARK H PARENT 18 31
REMARK Flexibility Score: inf
ROOT
ATOM      1  C   UNL     1      13.669  22.999  45.457  1.00  0.00     0.012 C 
ATOM      2  C   UNL     1      12.359  22.261  45.099  1.00  0.00     0.012 C 
ENDROOT
BRANCH   1   3
ATOM      3  C   UNL     1      14.844  22.040  45.573  1.00  0.00    -0.028 C 
ATOM      4  C   UNL     1      14.719  20.715  45.781  1.00  0.00    -0.027 C 
BRANCH   4   5
ATOM      5  C   UNL     1      15.931  19.805  45.858  1.00  0.00     0.014 C 
BRANCH   5   6
ATOM      6  C   UNL     1      16.327  19.279  44.451  1.00  0.00     0.004 C 
ATOM      7  C   UNL     1      16.731  17.805  44.385  1.00  0.00     0.004 C 
ENDBRANCH   5   6
BRANCH   5   8
ATOM      8  C   UNL     1      15.805  18.733  46.992  1.00  0.00    -0.011 C 
ATOM      9  C   UNL     1      16.793  18.903  48.162  1.00  0.00     0.008 C 
ATOM     10  C   UNL     1      14.368  18.592  47.512  1.00  0.00     0.008 C 
ENDBRANCH   5   8
ENDBRANCH   4   5
ENDBRANCH   1   3
BRANCH   1  11
ATOM     11  C   UNL     1      14.052  24.227  44.549  1.00  0.00     0.002 C 
ATOM     12  C   UNL     1      14.992  25.223  45.249  1.00  0.00     0.005 C 
ATOM     13  C   UNL     1      14.752  23.945  43.174  1.00  0.00    -0.026 C 
ATOM     14  C   UNL     1      16.384  25.026  44.649  1.00  0.00     0.005 C 
ATOM     15  C   UNL     1      16.259  23.966  43.539  1.00  0.00    -0.001 C 
ATOM     16  C   UNL     1      14.371  25.098  42.157  1.00  0.00     0.007 C 
ATOM     17  C   UNL     1      14.337  22.582  42.560  1.00  0.00     0.012 C 
ATOM     18  C   UNL     1      17.271  24.197  42.362  1.00  0.00     0.000 C 
ATOM     19  C   UNL     1      15.550  25.757  41.418  1.00  0.00     0.005 C 
ATOM     20  C   UNL     1      16.621  24.716  41.060  1.00  0.00     0.003 C 
ATOM     21  C   UNL     1      18.074  22.932  42.038  1.00  0.00     0.031 C 
ATOM     22  C   UNL     1      17.725  25.176  40.031  1.00  0.00    -0.008 C 
ATOM     23  C   UNL     1      18.950  23.098  40.820  1.00  0.00    -0.027 C 
ATOM     24  C   UNL     1      18.757  24.045  39.869  1.00  0.00    -0.065 C 
ATOM     25  C   UNL     1      17.070  25.416  38.639  1.00  0.00     0.014 C 
ATOM     26  C   UNL     1      18.429  26.477  40.510  1.00  0.00     0.016 C 
ATOM     27  C   UNL     1      19.504  23.864  38.562  1.00  0.00     0.063 C 
ATOM     28  C   UNL     1      18.058  25.682  37.478  1.00  0.00     0.033 C 
ATOM     29  C   UNL     1      19.478  25.109  37.670  1.00  0.00     0.118 C 
BRANCH  29  30
ATOM     30  O   UNL     1      20.021  24.799  36.411  1.00  0.00    -0.393 OA
ATOM     31  H   UNL     1      19.969  25.625  35.861  1.00  0.00     0.210 HD
ENDBRANCH  29  30
ENDBRANCH   1  11
TORSDOF 6
ENDMDL
MODEL 4
REMARK VINA RESULT:    -7.216      1.414      1.850
REMARK INTER + INTRA:          -9.801
REMARK INTER:                  -9.563
REMARK INTRA:                  -0.238
REMARK UNBOUND:                -0.265
REMARK SMILES CC[C@@H](C=C[C@H](C)[C@H]1CC[C@@H]2[C@H]3CC=C4C[C@@H](O)CC[C@@]4(C)[C@@H]3CC[C@@]21C)C(C)C
REMARK SMILES IDX 6 1 7 2 5 3 4 4 3 5 2 6 1 7 28 8 29 9 30 10 8 11 9 12 26 13
REMARK SMILES IDX 10 14 11 15 25 16 27 17 12 18 24 19 23 20 13 21 21 22 14 23
REMARK SMILES IDX 15 24 20 25 22 26 16 27 19 28 17 29 18 30
REMARK H PARENT 18 31
REMARK Flexibility Score: inf
ROOT
ATOM      1  C   UNL     1      17.069  26.542  41.739  1.00  0.00     0.012 C 
ATOM      2  C   UNL     1      18.092  26.721  42.884  1.00  0.00     0.012 C 
ENDROOT
BRANCH   1   3
ATOM      3  C   UNL     1      17.641  25.716  40.596  1.00  0.00    -0.028 C 
ATOM      4  C   UNL     1      18.460  24.661  40.764  1.00  0.00    -0.027 C 
BRANCH   4   5
ATOM      5  C   UNL     1      18.974  23.859  39.582  1.00  0.00     0.014 C 
BRANCH   5   6
ATOM      6  C   UNL     1      20.484  23.530  39.743  1.00  0.00     0.004 C 
ATOM      7  C   UNL     1      20.835  22.043  39.811  1.00  0.00     0.004 C 
ENDBRANCH   5   6
BRANCH   5   8
ATOM      8  C   UNL     1      18.537  24.467  38.208  1.00  0.00    -0.011 C 
ATOM      9  C   UNL     1      19.673  24.641  37.181  1.00  0.00     0.008 C 
ATOM     10  C   UNL     1      17.352  23.719  37.583  1.00  0.00     0.008 C 
ENDBRANCH   5   8
ENDBRANCH   4   5
ENDBRANCH   1   3
BRANCH   1  11
ATOM     11  C   UNL     1      15.648  26.001  42.148  1.00  0.00     0.002 C 
ATOM     12  C   UNL     1      14.824  25.506  40.948  1.00  0.00     0.005 C 
ATOM     13  C   UNL     1      15.570  24.820  43.177  1.00  0.00    -0.026 C 
ATOM     14  C   UNL     1      14.831  23.977  40.997  1.00  0.00     0.005 C 
ATOM     15  C   UNL     1      15.595  23.563  42.268  1.00  0.00    -0.001 C 
ATOM     16  C   UNL     1      14.217  24.936  43.992  1.00  0.00     0.007 C 
ATOM     17  C   UNL     1      16.755  24.819  44.178  1.00  0.00     0.012 C 
ATOM     18  C   UNL     1      15.058  22.227  42.891  1.00  0.00     0.000 C 
ATOM     19  C   UNL     1      13.367  23.655  44.066  1.00  0.00     0.005 C 
ATOM     20  C   UNL     1      14.259  22.413  44.200  1.00  0.00     0.003 C 
ATOM     21  C   UNL     1      16.185  21.217  43.145  1.00  0.00     0.031 C 
ATOM     22  C   UNL     1      13.533  21.072  44.605  1.00  0.00    -0.008 C 
ATOM     23  C   UNL     1      15.705  19.984  43.869  1.00  0.00    -0.027 C 
ATOM     24  C   UNL     1      14.563  19.927  44.597  1.00  0.00    -0.065 C 
ATOM     25  C   UNL     1      12.983  21.197  46.057  1.00  0.00     0.014 C 
ATOM     26  C   UNL     1      12.367  20.750  43.629  1.00  0.00     0.016 C 
ATOM     27  C   UNL     1      14.401  18.739  45.526  1.00  0.00     0.063 C 
ATOM     28  C   UNL     1      12.418  19.893  46.667  1.00  0.00     0.033 C 
ATOM     29  C   UNL     1      12.979  18.584  46.073  1.00  0.00     0.118 C 
BRANCH  29  30
ATOM     30  O   UNL     1      12.961  17.587  47.064  1.00  0.00    -0.393 OA
ATOM     31  H   UNL     1      12.053  17.182  47.052  1.00  0.00     0.210 HD
ENDBRANCH  29  30
ENDBRANCH   1  11
TORSDOF 6
ENDMDL
MODEL 5
REMARK VINA RESULT:    -7.091      1.847      3.356
REMARK INTER + INTRA:          -9.637
REMARK INTER:                  -9.370
REMARK INTRA:                  -0.267
REMARK UNBOUND:                -0.265
REMARK SMILES CC[C@@H](C=C[C@H](C)[C@H]1CC[C@@H]2[C@H]3CC=C4C[C@@H](O)CC[C@@]4(C)[C@@H]3CC[C@@]21C)C(C)C
REMARK SMILES IDX 6 1 7 2 5 3 4 4 3 5 2 6 1 7 28 8 29 9 30 10 8 11 9 12 26 13
REMARK SMILES IDX 10 14 11 15 25 16 27 17 12 18 24 19 23 20 13 21 21 22 14 23
REMARK SMILES IDX 15 24 20 25 22 26 16 27 19 28 17 29 18 30
REMARK H PARENT 18 31
REMARK Flexibility Score: inf
ROOT
ATOM      1  C   UNL     1      15.191  24.824  40.974  1.00  0.00     0.012 C 
ATOM      2  C   UNL     1      14.492  25.218  39.653  1.00  0.00     0.012 C 
ENDROOT
BRANCH   1   3
ATOM      3  C   UNL     1      16.120  25.920  41.470  1.00  0.00    -0.028 C 
ATOM      4  C   UNL     1      17.451  25.933  41.264  1.00  0.00    -0.027 C 
BRANCH   4   5
ATOM      5  C   UNL     1      18.321  27.073  41.761  1.00  0.00     0.014 C 
BRANCH   5   6
ATOM      6  C   UNL     1      19.498  27.346  40.785  1.00  0.00     0.004 C 
ATOM      7  C   UNL     1      20.111  26.109  40.124  1.00  0.00     0.004 C 
ENDBRANCH   5   6
BRANCH   5   8
ATOM      8  C   UNL     1      18.692  26.929  43.275  1.00  0.00    -0.011 C 
ATOM      9  C   UNL     1      20.080  27.474  43.661  1.00  0.00     0.008 C 
ATOM     10  C   UNL     1      17.610  27.499  44.203  1.00  0.00     0.008 C 
ENDBRANCH   5   8
ENDBRANCH   4   5
ENDBRANCH   1   3
BRANCH   1  11
ATOM     11  C   UNL     1      14.256  24.327  42.140  1.00  0.00     0.002 C 
ATOM     12  C   UNL     1      13.128  23.401  41.653  1.00  0.00     0.005 C 
ATOM     13  C   UNL     1      14.907  23.540  43.330  1.00  0.00    -0.026 C 
ATOM     14  C   UNL     1      13.505  21.977  42.065  1.00  0.00     0.005 C 
ATOM     15  C   UNL     1      14.819  22.064  42.863  1.00  0.00    -0.001 C 
ATOM     16  C   UNL     1      14.060  23.799  44.643  1.00  0.00     0.007 C 
ATOM     17  C   UNL     1      16.376  23.964  43.595  1.00  0.00     0.012 C 
ATOM     18  C   UNL     1      14.929  20.960  43.973  1.00  0.00     0.000 C 
ATOM     19  C   UNL     1      13.644  22.544  45.431  1.00  0.00     0.005 C 
ATOM     20  C   UNL     1      14.763  21.492  45.414  1.00  0.00     0.003 C 
ATOM     21  C   UNL     1      16.251  20.187  43.886  1.00  0.00     0.031 C 
ATOM     22  C   UNL     1      14.615  20.299  46.435  1.00  0.00    -0.008 C 
ATOM     23  C   UNL     1      16.432  19.219  45.029  1.00  0.00    -0.027 C 
ATOM     24  C   UNL     1      15.768  19.305  46.209  1.00  0.00    -0.065 C 
ATOM     25  C   UNL     1      14.741  20.840  47.890  1.00  0.00     0.014 C 
ATOM     26  C   UNL     1      13.247  19.580  46.260  1.00  0.00     0.016 C 
ATOM     27  C   UNL     1      16.304  18.472  47.358  1.00  0.00     0.063 C 
ATOM     28  C   UNL     1      14.813  19.761  48.995  1.00  0.00     0.033 C 
ATOM     29  C   UNL     1      15.341  18.382  48.545  1.00  0.00     0.118 C 
BRANCH  29  30
ATOM     30  O   UNL     1      15.986  17.763  49.630  1.00  0.00    -0.393 OA
ATOM     31  H   UNL     1      16.683  17.165  49.250  1.00  0.00     0.210 HD
ENDBRANCH  29  30
ENDBRANCH   1  11
TORSDOF 6
ENDMDL
MODEL 6
REMARK VINA RESULT:    -6.981      6.819      9.467
REMARK INTER + INTRA:          -9.490
REMARK INTER:                  -8.598
REMARK INTRA:                  -0.892
REMARK UNBOUND:                -0.265
REMARK SMILES CC[C@@H](C=C[C@H](C)[C@H]1CC[C@@H]2[C@H]3CC=C4C[C@@H](O)CC[C@@]4(C)[C@@H]3CC[C@@]21C)C(C)C
REMARK SMILES IDX 6 1 7 2 5 3 4 4 3 5 2 6 1 7 28 8 29 9 30 10 8 11 9 12 26 13
REMARK SMILES IDX 10 14 11 15 25 16 27 17 12 18 24 19 23 20 13 21 21 22 14 23
REMARK SMILES IDX 15 24 20 25 22 26 16 27 19 28 17 29 18 30
REMARK H PARENT 18 31
REMARK Flexibility Score: inf
ROOT
ATOM      1  C   UNL     1      13.335  24.844  46.809  1.00  0.00     0.012 C 
ATOM      2  C   UNL     1      12.237  23.757  46.794  1.00  0.00     0.012 C 
ENDROOT
BRANCH   1   3
ATOM      3  C   UNL     1      13.735  25.261  45.402  1.00  0.00    -0.028 C 
ATOM      4  C   UNL     1      14.843  24.826  44.773  1.00  0.00    -0.027 C 
BRANCH   4   5
ATOM      5  C   UNL     1      15.173  25.257  43.355  1.00  0.00     0.014 C 
BRANCH   5   6
ATOM      6  C   UNL     1      14.778  24.159  42.330  1.00  0.00     0.004 C 
ATOM      7  C   UNL     1      15.610  22.876  42.381  1.00  0.00     0.004 C 
ENDBRANCH   5   6
BRANCH   5   8
ATOM      8  C   UNL     1      16.619  25.842  43.226  1.00  0.00    -0.011 C 
ATOM      9  C   UNL     1      16.735  27.110  42.359  1.00  0.00     0.008 C 
ATOM     10  C   UNL     1      17.292  26.055  44.590  1.00  0.00     0.008 C 
ENDBRANCH   5   8
ENDBRANCH   4   5
ENDBRANCH   1   3
BRANCH   1  11
ATOM     11  C   UNL     1      13.052  26.113  47.697  1.00  0.00     0.002 C 
ATOM     12  C   UNL     1      11.978  25.868  48.771  1.00  0.00     0.005 C 
ATOM     13  C   UNL     1      14.248  26.745  48.492  1.00  0.00    -0.026 C 
ATOM     14  C   UNL     1      12.702  25.748  50.113  1.00  0.00     0.005 C 
ATOM     15  C   UNL     1      14.199  25.997  49.850  1.00  0.00    -0.001 C 
ATOM     16  C   UNL     1      13.990  28.298  48.661  1.00  0.00     0.007 C 
ATOM     17  C   UNL     1      15.612  26.541  47.782  1.00  0.00     0.012 C 
ATOM     18  C   UNL     1      14.923  26.680  51.063  1.00  0.00     0.000 C 
ATOM     19  C   UNL     1      14.132  28.850  50.090  1.00  0.00     0.005 C 
ATOM     20  C   UNL     1      15.288  28.163  50.829  1.00  0.00     0.003 C 
ATOM     21  C   UNL     1      16.191  25.922  51.476  1.00  0.00     0.031 C 
ATOM     22  C   UNL     1      15.758  28.839  52.175  1.00  0.00    -0.008 C 
ATOM     23  C   UNL     1      16.972  26.641  52.548  1.00  0.00    -0.027 C 
ATOM     24  C   UNL     1      16.851  27.965  52.817  1.00  0.00    -0.065 C 
ATOM     25  C   UNL     1      16.391  30.228  51.865  1.00  0.00     0.014 C 
ATOM     26  C   UNL     1      14.567  29.013  53.159  1.00  0.00     0.016 C 
ATOM     27  C   UNL     1      17.933  28.591  53.676  1.00  0.00     0.063 C 
ATOM     28  C   UNL     1      17.075  30.927  53.064  1.00  0.00     0.033 C 
ATOM     29  C   UNL     1      17.572  29.990  54.184  1.00  0.00     0.118 C 
BRANCH  29  30
ATOM     30  O   UNL     1      18.693  30.570  54.804  1.00  0.00    -0.393 OA
ATOM     31  H   UNL     1      18.813  30.111  55.677  1.00  0.00     0.210 HD
ENDBRANCH  29  30
ENDBRANCH   1  11
TORSDOF 6
ENDMDL
MODEL 7
REMARK VINA RESULT:    -6.929      3.076      8.519
REMARK INTER + INTRA:          -9.422
REMARK INTER:                  -8.393
REMARK INTRA:                  -1.029
REMARK UNBOUND:                -0.265
REMARK SMILES CC[C@@H](C=C[C@H](C)[C@H]1CC[C@@H]2[C@H]3CC=C4C[C@@H](O)CC[C@@]4(C)[C@@H]3CC[C@@]21C)C(C)C
REMARK SMILES IDX 6 1 7 2 5 3 4 4 3 5 2 6 1 7 28 8 29 9 30 10 8 11 9 12 26 13
REMARK SMILES IDX 10 14 11 15 25 16 27 17 12 18 24 19 23 20 13 21 21 22 14 23
REMARK SMILES IDX 15 24 20 25 22 26 16 27 19 28 17 29 18 30
REMARK H PARENT 18 31
REMARK Flexibility Score: inf
ROOT
ATOM      1  C   UNL     1      13.377  22.175  44.321  1.00  0.00     0.012 C 
ATOM      2  C   UNL     1      11.915  22.539  44.667  1.00  0.00     0.012 C 
ENDROOT
BRANCH   1   3
ATOM      3  C   UNL     1      13.603  20.671  44.337  1.00  0.00    -0.028 C 
ATOM      4  C   UNL     1      14.025  19.983  45.415  1.00  0.00    -0.027 C 
BRANCH   4   5
ATOM      5  C   UNL     1      14.204  18.477  45.376  1.00  0.00     0.014 C 
BRANCH   5   6
ATOM      6  C   UNL     1      13.142  17.764  46.257  1.00  0.00     0.004 C 
ATOM      7  C   UNL     1      12.626  18.567  47.452  1.00  0.00     0.004 C 
ENDBRANCH   5   6
BRANCH   5   8
ATOM      8  C   UNL     1      15.693  18.043  45.592  1.00  0.00    -0.011 C 
ATOM      9  C   UNL     1      16.580  18.109  44.334  1.00  0.00     0.008 C 
ATOM     10  C   UNL     1      16.356  18.780  46.763  1.00  0.00     0.008 C 
ENDBRANCH   5   8
ENDBRANCH   4   5
ENDBRANCH   1   3
BRANCH   1  11
ATOM     11  C   UNL     1      13.962  22.804  43.001  1.00  0.00     0.002 C 
ATOM     12  C   UNL     1      13.158  24.018  42.505  1.00  0.00     0.005 C 
ATOM     13  C   UNL     1      15.446  23.309  43.012  1.00  0.00    -0.026 C 
ATOM     14  C   UNL     1      13.981  25.265  42.831  1.00  0.00     0.005 C 
ATOM     15  C   UNL     1      15.308  24.790  43.451  1.00  0.00    -0.001 C 
ATOM     16  C   UNL     1      16.047  23.175  41.553  1.00  0.00     0.007 C 
ATOM     17  C   UNL     1      16.343  22.509  43.994  1.00  0.00     0.012 C 
ATOM     18  C   UNL     1      16.509  25.743  43.119  1.00  0.00     0.000 C 
ATOM     19  C   UNL     1      16.738  24.432  40.995  1.00  0.00     0.005 C 
ATOM     20  C   UNL     1      17.515  25.165  42.098  1.00  0.00     0.003 C 
ATOM     21  C   UNL     1      17.277  26.161  44.379  1.00  0.00     0.031 C 
ATOM     22  C   UNL     1      18.526  26.277  41.620  1.00  0.00    -0.008 C 
ATOM     23  C   UNL     1      18.515  26.964  44.064  1.00  0.00    -0.027 C 
ATOM     24  C   UNL     1      19.135  26.961  42.858  1.00  0.00    -0.065 C 
ATOM     25  C   UNL     1      19.693  25.614  40.830  1.00  0.00     0.014 C 
ATOM     26  C   UNL     1      17.817  27.329  40.722  1.00  0.00     0.016 C 
ATOM     27  C   UNL     1      20.535  27.543  42.806  1.00  0.00     0.063 C 
ATOM     28  C   UNL     1      20.866  26.554  40.465  1.00  0.00     0.033 C 
ATOM     29  C   UNL     1      21.041  27.784  41.381  1.00  0.00     0.118 C 
BRANCH  29  30
ATOM     30  O   UNL     1      22.401  28.138  41.417  1.00  0.00    -0.393 OA
ATOM     31  H   UNL     1      22.575  28.704  40.619  1.00  0.00     0.210 HD
ENDBRANCH  29  30
ENDBRANCH   1  11
TORSDOF 6
ENDMDL
MODEL 8
REMARK VINA RESULT:    -6.519      1.710      3.187
REMARK INTER + INTRA:          -8.880
REMARK INTER:                  -7.876
REMARK INTRA:                  -1.004
REMARK UNBOUND:                -0.265
REMARK SMILES CC[C@@H](C=C[C@H](C)[C@H]1CC[C@@H]2[C@H]3CC=C4C[C@@H](O)CC[C@@]4(C)[C@@H]3CC[C@@]21C)C(C)C
REMARK SMILES IDX 6 1 7 2 5 3 4 4 3 5 2 6 1 7 28 8 29 9 30 10 8 11 9 12 26 13
REMARK SMILES IDX 10 14 11 15 25 16 27 17 12 18 24 19 23 20 13 21 21 22 14 23
REMARK SMILES IDX 15 24 20 25 22 26 16 27 19 28 17 29 18 30
REMARK H PARENT 18 31
REMARK Flexibility Score: inf
ROOT
ATOM      1  C   UNL     1      15.732  24.928  39.471  1.00  0.00     0.012 C 
ATOM      2  C   UNL     1      14.844  25.168  38.230  1.00  0.00     0.012 C 
ENDROOT
BRANCH   1   3
ATOM      3  C   UNL     1      17.084  25.612  39.339  1.00  0.00    -0.028 C 
ATOM      4  C   UNL     1      18.122  25.399  40.171  1.00  0.00    -0.027 C 
BRANCH   4   5
ATOM      5  C   UNL     1      19.457  26.092  39.968  1.00  0.00     0.014 C 
BRANCH   5   6
ATOM      6  C   UNL     1      20.593  25.059  39.734  1.00  0.00     0.004 C 
ATOM      7  C   UNL     1      20.152  23.596  39.650  1.00  0.00     0.004 C 
ENDBRANCH   5   6
BRANCH   5   8
ATOM      8  C   UNL     1      19.731  27.195  41.045  1.00  0.00    -0.011 C 
ATOM      9  C   UNL     1      19.049  26.960  42.406  1.00  0.00     0.008 C 
ATOM     10  C   UNL     1      21.228  27.478  41.230  1.00  0.00     0.008 C 
ENDBRANCH   5   8
ENDBRANCH   4   5
ENDBRANCH   1   3
BRANCH   1  11
ATOM     11  C   UNL     1      15.085  25.257  40.869  1.00  0.00     0.002 C 
ATOM     12  C   UNL     1      13.586  25.588  40.775  1.00  0.00     0.005 C 
ATOM     13  C   UNL     1      15.165  24.173  41.999  1.00  0.00    -0.026 C 
ATOM     14  C   UNL     1      12.823  24.373  41.305  1.00  0.00     0.005 C 
ATOM     15  C   UNL     1      13.868  23.350  41.787  1.00  0.00    -0.001 C 
ATOM     16  C   UNL     1      15.185  24.898  43.407  1.00  0.00     0.007 C 
ATOM     17  C   UNL     1      16.428  23.279  41.882  1.00  0.00     0.012 C 
ATOM     18  C   UNL     1      13.364  22.493  43.000  1.00  0.00     0.000 C 
ATOM     19  C   UNL     1      14.173  24.376  44.443  1.00  0.00     0.005 C 
ATOM     20  C   UNL     1      14.029  22.851  44.348  1.00  0.00     0.003 C 
ATOM     21  C   UNL     1      13.538  20.989  42.753  1.00  0.00     0.031 C 
ATOM     22  C   UNL     1      13.281  22.144  45.544  1.00  0.00    -0.008 C 
ATOM     23  C   UNL     1      13.187  20.159  43.964  1.00  0.00    -0.027 C 
ATOM     24  C   UNL     1      13.151  20.642  45.230  1.00  0.00    -0.065 C 
ATOM     25  C   UNL     1      14.131  22.279  46.842  1.00  0.00     0.014 C 
ATOM     26  C   UNL     1      11.875  22.767  45.770  1.00  0.00     0.016 C 
ATOM     27  C   UNL     1      13.117  19.621  46.351  1.00  0.00     0.063 C 
ATOM     28  C   UNL     1      13.622  21.466  48.056  1.00  0.00     0.033 C 
ATOM     29  C   UNL     1      12.770  20.226  47.715  1.00  0.00     0.118 C 
BRANCH  29  30
ATOM     30  O   UNL     1      12.948  19.258  48.719  1.00  0.00    -0.393 OA
ATOM     31  H   UNL     1      12.053  19.082  49.114  1.00  0.00     0.210 HD
ENDBRANCH  29  30
ENDBRANCH   1  11
TORSDOF 6
ENDMDL
