MODEL 1
REMARK VINA RESULT:    -7.787      0.000      0.000
REMARK INTER + INTRA:          -9.722
REMARK INTER:                  -9.380
REMARK INTRA:                  -0.342
REMARK UNBOUND:                -0.342
REMARK SMILES O=c1c(O)c(-c2ccc(O)cc2O)oc2cc(O)cc(O)c12
REMARK SMILES IDX 5 1 3 2 2 3 1 4 22 5 20 6 19 7 17 8 16 9 15 10 14 11 6 12
REMARK SMILES IDX 8 13 7 14 9 15 11 16 12 17 10 18 13 20 4 22 21 24 18 26
REMARK H PARENT 10 19 13 21 4 23 21 25 18 27
REMARK Flexibility Score: inf
ROOT
ATOM      1  C   UNL     1      18.170  18.204  35.152  1.00  0.00     0.184 A 
ATOM      2  C   UNL     1      17.237  17.174  35.347  1.00  0.00     0.208 A 
ATOM      3  C   UNL     1      16.584  16.628  34.231  1.00  0.00     0.238 A 
ATOM      4  O   UNL     1      15.704  15.747  34.419  1.00  0.00    -0.285 OA
ATOM      5  C   UNL     1      16.894  17.100  32.933  1.00  0.00     0.111 A 
ATOM      6  C   UNL     1      16.323  16.592  31.727  1.00  0.00     0.134 A 
ATOM      7  C   UNL     1      16.612  17.218  30.509  1.00  0.00     0.093 A 
ATOM      8  C   UNL     1      17.501  18.290  30.443  1.00  0.00     0.123 A 
ATOM      9  C   UNL     1      18.111  18.758  31.607  1.00  0.00     0.094 A 
ATOM     10  C   UNL     1      17.813  18.179  32.844  1.00  0.00     0.146 A 
ATOM     11  O   UNL     1      18.404  18.662  33.929  1.00  0.00    -0.451 OA
ENDROOT
BRANCH   1  12
ATOM     12  C   UNL     1      18.906  18.801  36.288  1.00  0.00     0.063 A 
ATOM     13  C   UNL     1      21.017  19.168  37.441  1.00  0.00     0.047 A 
ATOM     14  C   UNL     1      20.287  18.572  36.411  1.00  0.00     0.020 A 
ATOM     15  C   UNL     1      20.381  20.009  38.357  1.00  0.00     0.119 A 
ATOM     16  C   UNL     1      19.005  20.246  38.244  1.00  0.00     0.093 A 
ATOM     17  C   UNL     1      18.261  19.645  37.221  1.00  0.00     0.130 A 
BRANCH  15  18
ATOM     18  O   UNL     1      21.123  20.601  39.377  1.00  0.00    -0.508 OA
ATOM     19  H   UNL     1      20.973  21.565  39.649  1.00  0.00     0.293 HD
ENDBRANCH  15  18
BRANCH  17  20
ATOM     20  O   UNL     1      16.886  19.889  37.177  1.00  0.00    -0.507 OA
ATOM     21  H   UNL     1      16.197  19.223  37.503  1.00  0.00     0.293 HD
ENDBRANCH  17  20
ENDBRANCH   1  12
BRANCH   2  22
ATOM     22  O   UNL     1      16.953  16.725  36.640  1.00  0.00    -0.502 OA
ATOM     23  H   UNL     1      16.905  15.742  36.874  1.00  0.00     0.293 HD
ENDBRANCH   2  22
BRANCH   6  24
ATOM     24  O   UNL     1      15.493  15.469  31.669  1.00  0.00    -0.507 OA
ATOM     25  H   UNL     1      15.121  15.071  30.820  1.00  0.00     0.293 HD
ENDBRANCH   6  24
BRANCH   8  26
ATOM     26  O   UNL     1      17.778  18.878  29.211  1.00  0.00    -0.508 OA
ATOM     27  H   UNL     1      18.339  18.405  28.512  1.00  0.00     0.293 HD
ENDBRANCH   8  26
TORSDOF 6
ENDMDL
MODEL 2
REMARK VINA RESULT:    -7.284      1.730      1.843
REMARK INTER + INTRA:          -9.116
REMARK INTER:                  -8.713
REMARK INTRA:                  -0.403
REMARK UNBOUND:                -0.342
REMARK SMILES O=c1c(O)c(-c2ccc(O)cc2O)oc2cc(O)cc(O)c12
REMARK SMILES IDX 5 1 3 2 2 3 1 4 22 5 20 6 19 7 17 8 16 9 15 10 14 11 6 12
REMARK SMILES IDX 8 13 7 14 9 15 11 16 12 17 10 18 13 20 4 22 21 24 18 26
REMARK H PARENT 10 19 13 21 4 23 21 25 18 27
REMARK Flexibility Score: inf
ROOT
ATOM      1  C   UNL     1      18.034  18.078  34.660  1.00  0.00     0.184 A 
ATOM      2  C   UNL     1      18.422  16.758  34.392  1.00  0.00     0.208 A 
ATOM      3  C   UNL     1      17.789  16.058  33.353  1.00  0.00     0.238 A 
ATOM      4  O   UNL     1      18.100  14.854  33.158  1.00  0.00    -0.285 OA
ATOM      5  C   UNL     1      16.794  16.701  32.576  1.00  0.00     0.111 A 
ATOM      6  C   UNL     1      16.115  16.103  31.473  1.00  0.00     0.134 A 
ATOM      7  C   UNL     1      15.062  16.790  30.856  1.00  0.00     0.093 A 
ATOM      8  C   UNL     1      14.709  18.077  31.257  1.00  0.00     0.123 A 
ATOM      9  C   UNL     1      15.405  18.695  32.296  1.00  0.00     0.094 A 
ATOM     10  C   UNL     1      16.435  18.021  32.957  1.00  0.00     0.146 A 
ATOM     11  O   UNL     1      17.063  18.639  33.949  1.00  0.00    -0.451 OA
ENDROOT
BRANCH   1  12
ATOM     12  C   UNL     1      18.682  18.871  35.727  1.00  0.00     0.063 A 
ATOM     13  C   UNL     1      20.582  20.192  36.480  1.00  0.00     0.047 A 
ATOM     14  C   UNL     1      19.969  19.394  35.512  1.00  0.00     0.020 A 
ATOM     15  C   UNL     1      19.917  20.487  37.671  1.00  0.00     0.119 A 
ATOM     16  C   UNL     1      18.633  19.973  37.897  1.00  0.00     0.093 A 
ATOM     17  C   UNL     1      18.012  19.162  36.938  1.00  0.00     0.130 A 
BRANCH  15  18
ATOM     18  O   UNL     1      20.539  21.288  38.626  1.00  0.00    -0.508 OA
ATOM     19  H   UNL     1      20.087  22.113  39.001  1.00  0.00     0.293 HD
ENDBRANCH  15  18
BRANCH  17  20
ATOM     20  O   UNL     1      16.747  18.648  37.231  1.00  0.00    -0.507 OA
ATOM     21  H   UNL     1      16.452  18.411  38.169  1.00  0.00     0.293 HD
ENDBRANCH  17  20
ENDBRANCH   1  12
BRANCH   2  22
ATOM     22  O   UNL     1      19.410  16.149  35.173  1.00  0.00    -0.502 OA
ATOM     23  H   UNL     1      20.181  16.668  35.573  1.00  0.00     0.293 HD
ENDBRANCH   2  22
BRANCH   6  24
ATOM     24  O   UNL     1      16.447  14.857  30.933  1.00  0.00    -0.507 OA
ATOM     25  H   UNL     1      16.321  14.596  29.967  1.00  0.00     0.293 HD
ENDBRANCH   6  24
BRANCH   8  26
ATOM     26  O   UNL     1      13.667  18.738  30.608  1.00  0.00    -0.508 OA
ATOM     27  H   UNL     1      12.818  18.254  30.341  1.00  0.00     0.293 HD
ENDBRANCH   8  26
TORSDOF 6
ENDMDL
MODEL 3
REMARK VINA RESULT:    -6.927     15.258     18.053
REMARK INTER + INTRA:          -8.687
REMARK INTER:                  -8.287
REMARK INTRA:                  -0.399
REMARK UNBOUND:                -0.342
REMARK SMILES O=c1c(O)c(-c2ccc(O)cc2O)oc2cc(O)cc(O)c12
REMARK SMILES IDX 5 1 3 2 2 3 1 4 22 5 20 6 19 7 17 8 16 9 15 10 14 11 6 12
REMARK SMILES IDX 8 13 7 14 9 15 11 16 12 17 10 18 13 20 4 22 21 24 18 26
REMARK H PARENT 10 19 13 21 4 23 21 25 18 27
REMARK Flexibility Score: inf
ROOT
ATOM      1  C   UNL     1       7.865  29.468  26.858  1.00  0.00     0.184 A 
ATOM      2  C   UNL     1       7.788  30.859  26.699  1.00  0.00     0.208 A 
ATOM      3  C   UNL     1       8.178  31.689  27.762  1.00  0.00     0.238 A 
ATOM      4  O   UNL     1       8.050  32.934  27.634  1.00  0.00    -0.285 OA
ATOM      5  C   UNL     1       8.667  31.114  28.960  1.00  0.00     0.111 A 
ATOM      6  C   UNL     1       9.128  31.858  30.087  1.00  0.00     0.134 A 
ATOM      7  C   UNL     1       9.474  31.184  31.265  1.00  0.00     0.093 A 
ATOM      8  C   UNL     1       9.439  29.792  31.335  1.00  0.00     0.123 A 
ATOM      9  C   UNL     1       9.046  29.051  30.220  1.00  0.00     0.094 A 
ATOM     10  C   UNL     1       8.658  29.696  29.043  1.00  0.00     0.146 A 
ATOM     11  O   UNL     1       8.278  28.955  28.010  1.00  0.00    -0.451 OA
ENDROOT
BRANCH   1  12
ATOM     12  C   UNL     1       7.489  28.546  25.764  1.00  0.00     0.063 A 
ATOM     13  C   UNL     1       8.034  27.515  23.628  1.00  0.00     0.047 A 
ATOM     14  C   UNL     1       8.336  28.418  24.649  1.00  0.00     0.020 A 
ATOM     15  C   UNL     1       6.890  26.720  23.709  1.00  0.00     0.119 A 
ATOM     16  C   UNL     1       6.039  26.836  24.816  1.00  0.00     0.093 A 
ATOM     17  C   UNL     1       6.325  27.747  25.841  1.00  0.00     0.130 A 
BRANCH  15  18
ATOM     18  O   UNL     1       6.604  25.819  22.685  1.00  0.00    -0.508 OA
ATOM     19  H   UNL     1       7.309  25.538  22.015  1.00  0.00     0.293 HD
ENDBRANCH  15  18
BRANCH  17  20
ATOM     20  O   UNL     1       5.424  27.846  26.904  1.00  0.00    -0.507 OA
ATOM     21  H   UNL     1       5.599  27.442  27.815  1.00  0.00     0.293 HD
ENDBRANCH  17  20
ENDBRANCH   1  12
BRANCH   2  22
ATOM     22  O   UNL     1       7.305  31.400  25.504  1.00  0.00    -0.502 OA
ATOM     23  H   UNL     1       7.272  32.397  25.333  1.00  0.00     0.293 HD
ENDBRANCH   2  22
BRANCH   6  24
ATOM     24  O   UNL     1       9.287  33.247  30.095  1.00  0.00    -0.507 OA
ATOM     25  H   UNL     1       8.658  33.901  29.656  1.00  0.00     0.293 HD
ENDBRANCH   6  24
BRANCH   8  26
ATOM     26  O   UNL     1       9.806  29.154  32.518  1.00  0.00    -0.508 OA
ATOM     27  H   UNL     1       9.478  29.480  33.420  1.00  0.00     0.293 HD
ENDBRANCH   8  26
TORSDOF 6
ENDMDL
MODEL 4
REMARK VINA RESULT:    -6.885      3.286      4.555
REMARK INTER + INTRA:          -8.636
REMARK INTER:                  -8.234
REMARK INTRA:                  -0.401
REMARK UNBOUND:                -0.342
REMARK SMILES O=c1c(O)c(-c2ccc(O)cc2O)oc2cc(O)cc(O)c12
REMARK SMILES IDX 5 1 3 2 2 3 1 4 22 5 20 6 19 7 17 8 16 9 15 10 14 11 6 12
REMARK SMILES IDX 8 13 7 14 9 15 11 16 12 17 10 18 13 20 4 22 21 24 18 26
REMARK H PARENT 10 19 13 21 4 23 21 25 18 27
REMARK Flexibility Score: inf
ROOT
ATOM      1  C   UNL     1      16.311  15.967  33.788  1.00  0.00     0.184 A 
ATOM      2  C   UNL     1      17.595  15.678  33.302  1.00  0.00     0.208 A 
ATOM      3  C   UNL     1      17.947  16.105  32.012  1.00  0.00     0.238 A 
ATOM      4  O   UNL     1      19.078  15.789  31.559  1.00  0.00    -0.285 OA
ATOM      5  C   UNL     1      17.017  16.840  31.236  1.00  0.00     0.111 A 
ATOM      6  C   UNL     1      17.280  17.357  29.932  1.00  0.00     0.134 A 
ATOM      7  C   UNL     1      16.245  17.963  29.209  1.00  0.00     0.093 A 
ATOM      8  C   UNL     1      14.978  18.130  29.766  1.00  0.00     0.123 A 
ATOM      9  C   UNL     1      14.726  17.681  31.062  1.00  0.00     0.094 A 
ATOM     10  C   UNL     1      15.727  17.038  31.795  1.00  0.00     0.146 A 
ATOM     11  O   UNL     1      15.443  16.613  33.020  1.00  0.00    -0.451 OA
ENDROOT
BRANCH   1  12
ATOM     12  C   UNL     1      15.894  15.563  35.148  1.00  0.00     0.063 A 
ATOM     13  C   UNL     1      14.943  13.875  36.620  1.00  0.00     0.047 A 
ATOM     14  C   UNL     1      15.296  14.305  35.340  1.00  0.00     0.020 A 
ATOM     15  C   UNL     1      15.189  14.689  37.728  1.00  0.00     0.119 A 
ATOM     16  C   UNL     1      15.786  15.944  37.549  1.00  0.00     0.093 A 
ATOM     17  C   UNL     1      16.134  16.391  36.269  1.00  0.00     0.130 A 
BRANCH  15  18
ATOM     18  O   UNL     1      14.835  14.245  39.000  1.00  0.00    -0.508 OA
ATOM     19  H   UNL     1      13.877  14.015  39.233  1.00  0.00     0.293 HD
ENDBRANCH  15  18
BRANCH  17  20
ATOM     20  O   UNL     1      16.694  17.665  36.146  1.00  0.00    -0.507 OA
ATOM     21  H   UNL     1      17.689  17.838  36.204  1.00  0.00     0.293 HD
ENDBRANCH  17  20
ENDBRANCH   1  12
BRANCH   2  22
ATOM     22  O   UNL     1      18.493  14.954  34.091  1.00  0.00    -0.502 OA
ATOM     23  H   UNL     1      18.217  14.129  34.609  1.00  0.00     0.293 HD
ENDBRANCH   2  22
BRANCH   6  24
ATOM     24  O   UNL     1      18.534  17.324  29.316  1.00  0.00    -0.507 OA
ATOM     25  H   UNL     1      19.113  18.132  29.144  1.00  0.00     0.293 HD
ENDBRANCH   6  24
BRANCH   8  26
ATOM     26  O   UNL     1      13.977  18.753  29.023  1.00  0.00    -0.508 OA
ATOM     27  H   UNL     1      13.474  19.556  29.381  1.00  0.00     0.293 HD
ENDBRANCH   8  26
TORSDOF 6
ENDMDL
MODEL 5
REMARK VINA RESULT:    -6.659      2.078      2.934
REMARK INTER + INTRA:          -8.364
REMARK INTER:                  -7.975
REMARK INTRA:                  -0.389
REMARK UNBOUND:                -0.342
REMARK SMILES O=c1c(O)c(-c2ccc(O)cc2O)oc2cc(O)cc(O)c12
REMARK SMILES IDX 5 1 3 2 2 3 1 4 22 5 20 6 19 7 17 8 16 9 15 10 14 11 6 12
REMARK SMILES IDX 8 13 7 14 9 15 11 16 12 17 10 18 13 20 4 22 21 24 18 26
REMARK H PARENT 10 19 13 21 4 23 21 25 18 27
REMARK Flexibility Score: inf
ROOT
ATOM      1  C   UNL     1      17.245  18.199  32.723  1.00  0.00     0.184 A 
ATOM      2  C   UNL     1      15.943  17.704  32.884  1.00  0.00     0.208 A 
ATOM      3  C   UNL     1      15.072  17.707  31.783  1.00  0.00     0.238 A 
ATOM      4  O   UNL     1      13.887  17.318  31.951  1.00  0.00    -0.285 OA
ATOM      5  C   UNL     1      15.525  18.181  30.528  1.00  0.00     0.111 A 
ATOM      6  C   UNL     1      14.742  18.193  29.335  1.00  0.00     0.134 A 
ATOM      7  C   UNL     1      15.253  18.798  28.180  1.00  0.00     0.093 A 
ATOM      8  C   UNL     1      16.542  19.331  28.156  1.00  0.00     0.123 A 
ATOM      9  C   UNL     1      17.338  19.271  29.299  1.00  0.00     0.094 A 
ATOM     10  C   UNL     1      16.843  18.709  30.478  1.00  0.00     0.146 A 
ATOM     11  O   UNL     1      17.628  18.684  31.548  1.00  0.00    -0.451 OA
ENDROOT
BRANCH   1  12
ATOM     12  C   UNL     1      18.213  18.199  33.841  1.00  0.00     0.063 A 
ATOM     13  C   UNL     1      20.136  17.183  34.932  1.00  0.00     0.047 A 
ATOM     14  C   UNL     1      19.175  17.177  33.919  1.00  0.00     0.020 A 
ATOM     15  C   UNL     1      20.156  18.212  35.876  1.00  0.00     0.119 A 
ATOM     16  C   UNL     1      19.204  19.237  35.807  1.00  0.00     0.093 A 
ATOM     17  C   UNL     1      18.229  19.236  34.802  1.00  0.00     0.130 A 
BRANCH  15  18
ATOM     18  O   UNL     1      21.124  18.207  36.878  1.00  0.00    -0.508 OA
ATOM     19  H   UNL     1      21.762  17.428  36.994  1.00  0.00     0.293 HD
ENDBRANCH  15  18
BRANCH  17  20
ATOM     20  O   UNL     1      17.282  20.264  34.803  1.00  0.00    -0.507 OA
ATOM     21  H   UNL     1      17.513  21.225  35.017  1.00  0.00     0.293 HD
ENDBRANCH  17  20
ENDBRANCH   1  12
BRANCH   2  22
ATOM     22  O   UNL     1      15.523  17.240  34.134  1.00  0.00    -0.502 OA
ATOM     23  H   UNL     1      16.175  16.972  34.860  1.00  0.00     0.293 HD
ENDBRANCH   2  22
BRANCH   6  24
ATOM     24  O   UNL     1      13.478  17.609  29.224  1.00  0.00    -0.507 OA
ATOM     25  H   UNL     1      12.605  18.088  29.387  1.00  0.00     0.293 HD
ENDBRANCH   6  24
BRANCH   8  26
ATOM     26  O   UNL     1      17.024  19.910  26.984  1.00  0.00    -0.508 OA
ATOM     27  H   UNL     1      17.937  19.674  26.612  1.00  0.00     0.293 HD
ENDBRANCH   8  26
TORSDOF 6
ENDMDL
MODEL 6
REMARK VINA RESULT:    -6.653      2.702      6.366
REMARK INTER + INTRA:          -8.355
REMARK INTER:                  -7.959
REMARK INTRA:                  -0.397
REMARK UNBOUND:                -0.342
REMARK SMILES O=c1c(O)c(-c2ccc(O)cc2O)oc2cc(O)cc(O)c12
REMARK SMILES IDX 5 1 3 2 2 3 1 4 22 5 20 6 19 7 17 8 16 9 15 10 14 11 6 12
REMARK SMILES IDX 8 13 7 14 9 15 11 16 12 17 10 18 13 20 4 22 21 24 18 26
REMARK H PARENT 10 19 13 21 4 23 21 25 18 27
REMARK Flexibility Score: inf
ROOT
ATOM      1  C   UNL     1      18.924  16.756  34.202  1.00  0.00     0.184 A 
ATOM      2  C   UNL     1      17.623  16.587  34.697  1.00  0.00     0.208 A 
ATOM      3  C   UNL     1      17.196  17.377  35.775  1.00  0.00     0.238 A 
ATOM      4  O   UNL     1      16.049  17.178  36.254  1.00  0.00    -0.285 OA
ATOM      5  C   UNL     1      18.069  18.347  36.326  1.00  0.00     0.111 A 
ATOM      6  C   UNL     1      17.730  19.231  37.394  1.00  0.00     0.134 A 
ATOM      7  C   UNL     1      18.713  20.065  37.938  1.00  0.00     0.093 A 
ATOM      8  C   UNL     1      20.005  20.096  37.413  1.00  0.00     0.123 A 
ATOM      9  C   UNL     1      20.332  19.279  36.331  1.00  0.00     0.094 A 
ATOM     10  C   UNL     1      19.383  18.407  35.789  1.00  0.00     0.146 A 
ATOM     11  O   UNL     1      19.739  17.636  34.769  1.00  0.00    -0.451 OA
ENDROOT
BRANCH   1  12
ATOM     12  C   UNL     1      19.419  15.968  33.053  1.00  0.00     0.063 A 
ATOM     13  C   UNL     1      19.914  15.836  30.674  1.00  0.00     0.047 A 
ATOM     14  C   UNL     1      19.402  16.536  31.768  1.00  0.00     0.020 A 
ATOM     15  C   UNL     1      20.459  14.563  30.848  1.00  0.00     0.119 A 
ATOM     16  C   UNL     1      20.484  13.986  32.124  1.00  0.00     0.093 A 
ATOM     17  C   UNL     1      19.963  14.674  33.227  1.00  0.00     0.130 A 
BRANCH  15  18
ATOM     18  O   UNL     1      20.971  13.878  29.748  1.00  0.00    -0.508 OA
ATOM     19  H   UNL     1      20.512  13.054  29.376  1.00  0.00     0.293 HD
ENDBRANCH  15  18
BRANCH  17  20
ATOM     20  O   UNL     1      19.982  14.036  34.469  1.00  0.00    -0.507 OA
ATOM     21  H   UNL     1      19.355  13.280  34.711  1.00  0.00     0.293 HD
ENDBRANCH  17  20
ENDBRANCH   1  12
BRANCH   2  22
ATOM     22  O   UNL     1      16.781  15.625  34.132  1.00  0.00    -0.502 OA
ATOM     23  H   UNL     1      16.521  14.777  34.621  1.00  0.00     0.293 HD
ENDBRANCH   2  22
BRANCH   6  24
ATOM     24  O   UNL     1      16.446  19.346  37.934  1.00  0.00    -0.507 OA
ATOM     25  H   UNL     1      16.135  20.103  38.525  1.00  0.00     0.293 HD
ENDBRANCH   6  24
BRANCH   8  26
ATOM     26  O   UNL     1      20.954  20.951  37.970  1.00  0.00    -0.508 OA
ATOM     27  H   UNL     1      21.009  21.927  37.703  1.00  0.00     0.293 HD
ENDBRANCH   8  26
TORSDOF 6
ENDMDL
MODEL 7
REMARK VINA RESULT:    -6.513     15.196     16.512
REMARK INTER + INTRA:          -8.187
REMARK INTER:                  -7.817
REMARK INTRA:                  -0.370
REMARK UNBOUND:                -0.342
REMARK SMILES O=c1c(O)c(-c2ccc(O)cc2O)oc2cc(O)cc(O)c12
REMARK SMILES IDX 5 1 3 2 2 3 1 4 22 5 20 6 19 7 17 8 16 9 15 10 14 11 6 12
REMARK SMILES IDX 8 13 7 14 9 15 11 16 12 17 10 18 13 20 4 22 21 24 18 26
REMARK H PARENT 10 19 13 21 4 23 21 25 18 27
REMARK Flexibility Score: inf
ROOT
ATOM      1  C   UNL     1       8.707  29.619  28.260  1.00  0.00     0.184 A 
ATOM      2  C   UNL     1       9.774  29.564  27.351  1.00  0.00     0.208 A 
ATOM      3  C   UNL     1       9.566  28.987  26.089  1.00  0.00     0.238 A 
ATOM      4  O   UNL     1      10.543  28.887  25.302  1.00  0.00    -0.285 OA
ATOM      5  C   UNL     1       8.283  28.497  25.743  1.00  0.00     0.111 A 
ATOM      6  C   UNL     1       7.946  27.929  24.477  1.00  0.00     0.134 A 
ATOM      7  C   UNL     1       6.679  27.366  24.289  1.00  0.00     0.093 A 
ATOM      8  C   UNL     1       5.714  27.409  25.295  1.00  0.00     0.123 A 
ATOM      9  C   UNL     1       6.012  28.014  26.516  1.00  0.00     0.094 A 
ATOM     10  C   UNL     1       7.281  28.551  26.748  1.00  0.00     0.146 A 
ATOM     11  O   UNL     1       7.529  29.106  27.928  1.00  0.00    -0.451 OA
ENDROOT
BRANCH   1  12
ATOM     12  C   UNL     1       8.862  30.236  29.595  1.00  0.00     0.063 A 
ATOM     13  C   UNL     1       9.779  30.128  31.847  1.00  0.00     0.047 A 
ATOM     14  C   UNL     1       9.569  29.546  30.595  1.00  0.00     0.020 A 
ATOM     15  C   UNL     1       9.295  31.410  32.115  1.00  0.00     0.119 A 
ATOM     16  C   UNL     1       8.590  32.108  31.126  1.00  0.00     0.093 A 
ATOM     17  C   UNL     1       8.364  31.530  29.870  1.00  0.00     0.130 A 
BRANCH  15  18
ATOM     18  O   UNL     1       9.516  31.980  33.367  1.00  0.00    -0.508 OA
ATOM     19  H   UNL     1       9.978  31.468  34.108  1.00  0.00     0.293 HD
ENDBRANCH  15  18
BRANCH  17  20
ATOM     20  O   UNL     1       7.625  32.258  28.934  1.00  0.00    -0.507 OA
ATOM     21  H   UNL     1       7.426  31.916  28.003  1.00  0.00     0.293 HD
ENDBRANCH  17  20
ENDBRANCH   1  12
BRANCH   2  22
ATOM     22  O   UNL     1      11.029  30.059  27.719  1.00  0.00    -0.502 OA
ATOM     23  H   UNL     1      11.844  29.464  27.800  1.00  0.00     0.293 HD
ENDBRANCH   2  22
BRANCH   6  24
ATOM     24  O   UNL     1       8.805  27.915  23.374  1.00  0.00    -0.507 OA
ATOM     25  H   UNL     1       8.949  27.123  22.766  1.00  0.00     0.293 HD
ENDBRANCH   6  24
BRANCH   8  26
ATOM     26  O   UNL     1       4.457  26.853  25.066  1.00  0.00    -0.508 OA
ATOM     27  H   UNL     1       4.269  25.874  25.250  1.00  0.00     0.293 HD
ENDBRANCH   8  26
TORSDOF 6
ENDMDL
MODEL 8
REMARK VINA RESULT:    -6.489      2.504      6.570
REMARK INTER + INTRA:          -8.158
REMARK INTER:                  -7.925
REMARK INTRA:                  -0.233
REMARK UNBOUND:                -0.342
REMARK SMILES O=c1c(O)c(-c2ccc(O)cc2O)oc2cc(O)cc(O)c12
REMARK SMILES IDX 5 1 3 2 2 3 1 4 22 5 20 6 19 7 17 8 16 9 15 10 14 11 6 12
REMARK SMILES IDX 8 13 7 14 9 15 11 16 12 17 10 18 13 20 4 22 21 24 18 26
REMARK H PARENT 10 19 13 21 4 23 21 25 18 27
REMARK Flexibility Score: inf
ROOT
ATOM      1  C   UNL     1      17.432  18.284  32.869  1.00  0.00     0.184 A 
ATOM      2  C   UNL     1      17.531  19.254  33.878  1.00  0.00     0.208 A 
ATOM      3  C   UNL     1      18.391  19.023  34.963  1.00  0.00     0.238 A 
ATOM      4  O   UNL     1      18.429  19.869  35.894  1.00  0.00    -0.285 OA
ATOM      5  C   UNL     1      19.162  17.836  35.009  1.00  0.00     0.111 A 
ATOM      6  C   UNL     1      20.097  17.516  36.039  1.00  0.00     0.134 A 
ATOM      7  C   UNL     1      20.713  16.259  36.046  1.00  0.00     0.093 A 
ATOM      8  C   UNL     1      20.481  15.337  35.026  1.00  0.00     0.123 A 
ATOM      9  C   UNL     1      19.615  15.662  33.982  1.00  0.00     0.094 A 
ATOM     10  C   UNL     1      18.955  16.894  33.967  1.00  0.00     0.146 A 
ATOM     11  O   UNL     1      18.128  17.158  32.963  1.00  0.00    -0.451 OA
ENDROOT
BRANCH   1  12
ATOM     12  C   UNL     1      16.560  18.484  31.692  1.00  0.00     0.063 A 
ATOM     13  C   UNL     1      16.324  18.635  29.274  1.00  0.00     0.047 A 
ATOM     14  C   UNL     1      17.130  18.504  30.407  1.00  0.00     0.020 A 
ATOM     15  C   UNL     1      14.939  18.739  29.406  1.00  0.00     0.119 A 
ATOM     16  C   UNL     1      14.358  18.719  30.681  1.00  0.00     0.093 A 
ATOM     17  C   UNL     1      15.156  18.599  31.825  1.00  0.00     0.130 A 
BRANCH  15  18
ATOM     18  O   UNL     1      14.146  18.865  28.267  1.00  0.00    -0.508 OA
ATOM     19  H   UNL     1      13.566  18.103  27.939  1.00  0.00     0.293 HD
ENDBRANCH  15  18
BRANCH  17  20
ATOM     20  O   UNL     1      14.527  18.619  33.072  1.00  0.00    -0.507 OA
ATOM     21  H   UNL     1      13.530  18.744  33.184  1.00  0.00     0.293 HD
ENDBRANCH  17  20
ENDBRANCH   1  12
BRANCH   2  22
ATOM     22  O   UNL     1      16.760  20.418  33.805  1.00  0.00    -0.502 OA
ATOM     23  H   UNL     1      16.897  21.200  34.432  1.00  0.00     0.293 HD
ENDBRANCH   2  22
BRANCH   6  24
ATOM     24  O   UNL     1      20.470  18.399  37.057  1.00  0.00    -0.507 OA
ATOM     25  H   UNL     1      21.048  18.155  37.847  1.00  0.00     0.293 HD
ENDBRANCH   6  24
BRANCH   8  26
ATOM     26  O   UNL     1      21.125  14.102  35.056  1.00  0.00    -0.508 OA
ATOM     27  H   UNL     1      22.128  14.030  35.179  1.00  0.00     0.293 HD
ENDBRANCH   8  26
TORSDOF 6
ENDMDL
MODEL 9
REMARK VINA RESULT:    -6.486      2.127      6.556
REMARK INTER + INTRA:          -8.155
REMARK INTER:                  -7.787
REMARK INTRA:                  -0.367
REMARK UNBOUND:                -0.342
REMARK SMILES O=c1c(O)c(-c2ccc(O)cc2O)oc2cc(O)cc(O)c12
REMARK SMILES IDX 5 1 3 2 2 3 1 4 22 5 20 6 19 7 17 8 16 9 15 10 14 11 6 12
REMARK SMILES IDX 8 13 7 14 9 15 11 16 12 17 10 18 13 20 4 22 21 24 18 26
REMARK H PARENT 10 19 13 21 4 23 21 25 18 27
REMARK Flexibility Score: inf
ROOT
ATOM      1  C   UNL     1      17.952  18.030  32.767  1.00  0.00     0.184 A 
ATOM      2  C   UNL     1      18.577  16.781  32.900  1.00  0.00     0.208 A 
ATOM      3  C   UNL     1      19.459  16.571  33.971  1.00  0.00     0.238 A 
ATOM      4  O   UNL     1      20.062  15.469  34.049  1.00  0.00    -0.285 OA
ATOM      5  C   UNL     1      19.683  17.606  34.912  1.00  0.00     0.111 A 
ATOM      6  C   UNL     1      20.524  17.491  36.059  1.00  0.00     0.134 A 
ATOM      7  C   UNL     1      20.767  18.619  36.853  1.00  0.00     0.093 A 
ATOM      8  C   UNL     1      20.147  19.838  36.581  1.00  0.00     0.123 A 
ATOM      9  C   UNL     1      19.276  19.946  35.497  1.00  0.00     0.094 A 
ATOM     10  C   UNL     1      19.044  18.849  34.663  1.00  0.00     0.146 A 
ATOM     11  O   UNL     1      18.218  18.998  33.634  1.00  0.00    -0.451 OA
ENDROOT
BRANCH   1  12
ATOM     12  C   UNL     1      16.996  18.300  31.672  1.00  0.00     0.063 A 
ATOM     13  C   UNL     1      16.602  18.764  29.316  1.00  0.00     0.047 A 
ATOM     14  C   UNL     1      17.483  18.560  30.380  1.00  0.00     0.020 A 
ATOM     15  C   UNL     1      15.223  18.701  29.524  1.00  0.00     0.119 A 
ATOM     16  C   UNL     1      14.725  18.441  30.808  1.00  0.00     0.093 A 
ATOM     17  C   UNL     1      15.598  18.246  31.884  1.00  0.00     0.130 A 
BRANCH  15  18
ATOM     18  O   UNL     1      14.356  18.902  28.452  1.00  0.00    -0.508 OA
ATOM     19  H   UNL     1      14.015  19.825  28.213  1.00  0.00     0.293 HD
ENDBRANCH  15  18
BRANCH  17  20
ATOM     20  O   UNL     1      15.046  18.025  33.148  1.00  0.00    -0.507 OA
ATOM     21  H   UNL     1      15.488  17.444  33.849  1.00  0.00     0.293 HD
ENDBRANCH  17  20
ENDBRANCH   1  12
BRANCH   2  22
ATOM     22  O   UNL     1      18.335  15.776  31.959  1.00  0.00    -0.502 OA
ATOM     23  H   UNL     1      18.832  14.894  31.966  1.00  0.00     0.293 HD
ENDBRANCH   2  22
BRANCH   6  24
ATOM     24  O   UNL     1      21.122  16.298  36.473  1.00  0.00    -0.507 OA
ATOM     25  H   UNL     1      20.848  15.378  36.163  1.00  0.00     0.293 HD
ENDBRANCH   6  24
BRANCH   8  26
ATOM     26  O   UNL     1      20.399  20.935  37.402  1.00  0.00    -0.508 OA
ATOM     27  H   UNL     1      19.650  21.423  37.880  1.00  0.00     0.293 HD
ENDBRANCH   8  26
TORSDOF 6
ENDMDL
