MODEL 1
REMARK VINA RESULT:    -8.103      0.000      0.000
REMARK INTER + INTRA:         -12.466
REMARK INTER:                 -11.418
REMARK INTRA:                  -1.048
REMARK UNBOUND:                -1.048
REMARK SMILES O=c1cc(-c2ccc(O)c(O)c2)oc2cc(O)c([C@H]3O[C@@H](CO)[C@H](O)[C@@H](O)[C@@H]3O)c(O)c12
REMARK SMILES IDX 4 1 3 2 2 3 1 4 32 5 14 6 13 7 15 8 16 9 18 10 30 11 5 12
REMARK SMILES IDX 6 13 7 14 8 15 12 16 10 17 9 18 11 20 31 22 17 24 19 26
REMARK SMILES IDX 28 27 20 28 26 29 21 30 24 31 29 32 27 34 22 36 23 37 25 39
REMARK H PARENT 9 19 11 21 31 23 17 25 29 33 27 35 23 38 25 40
REMARK Flexibility Score: inf
ROOT
ATOM      1  C   UNL     1     -25.634  29.079 -18.769  1.00  0.00     0.138 A 
ATOM      2  C   UNL     1     -25.031  30.184 -19.383  1.00  0.00     0.100 A 
ATOM      3  C   UNL     1     -24.113  30.954 -18.668  1.00  0.00     0.197 A 
ATOM      4  O   UNL     1     -23.528  31.892 -19.270  1.00  0.00    -0.289 OA
ATOM      5  C   UNL     1     -23.832  30.640 -17.315  1.00  0.00     0.107 A 
ATOM      6  C   UNL     1     -24.439  29.471 -16.794  1.00  0.00     0.146 A 
ATOM      7  O   UNL     1     -25.300  28.766 -17.521  1.00  0.00    -0.456 OA
ATOM      8  C   UNL     1     -24.134  29.028 -15.511  1.00  0.00     0.094 A 
ATOM      9  C   UNL     1     -23.219  29.717 -14.716  1.00  0.00     0.128 A 
ATOM     10  C   UNL     1     -22.632  30.913 -15.181  1.00  0.00     0.068 A 
ATOM     11  C   UNL     1     -22.957  31.393 -16.476  1.00  0.00     0.140 A 
ENDROOT
BRANCH   1  12
ATOM     12  C   UNL     1     -26.618  28.226 -19.480  1.00  0.00     0.021 A 
ATOM     13  C   UNL     1     -27.887  28.012 -18.913  1.00  0.00     0.016 A 
ATOM     14  C   UNL     1     -28.834  27.218 -19.566  1.00  0.00     0.051 A 
ATOM     15  C   UNL     1     -28.533  26.634 -20.803  1.00  0.00     0.157 A 
ATOM     16  C   UNL     1     -26.328  27.645 -20.731  1.00  0.00     0.062 A 
ATOM     17  C   UNL     1     -27.280  26.849 -21.387  1.00  0.00     0.158 A 
BRANCH  15  18
ATOM     18  O   UNL     1     -29.473  25.841 -21.457  1.00  0.00    -0.504 OA
ATOM     19  H   UNL     1     -29.784  26.055 -22.397  1.00  0.00     0.293 HD
ENDBRANCH  15  18
BRANCH  17  20
ATOM     20  O   UNL     1     -26.986  26.275 -22.622  1.00  0.00    -0.504 OA
ATOM     21  H   UNL     1     -27.634  25.647 -23.083  1.00  0.00     0.293 HD
ENDBRANCH  17  20
ENDBRANCH   1  12
BRANCH  11  22
ATOM     22  O   UNL     1     -22.415  32.621 -16.872  1.00  0.00    -0.506 OA
ATOM     23  H   UNL     1     -21.477  32.926 -16.659  1.00  0.00     0.293 HD
ENDBRANCH  11  22
BRANCH   9  24
ATOM     24  O   UNL     1     -22.894  29.214 -13.455  1.00  0.00    -0.507 OA
ATOM     25  H   UNL     1     -22.656  28.238 -13.315  1.00  0.00     0.293 HD
ENDBRANCH   9  24
BRANCH  10  26
ATOM     26  C   UNL     1     -21.636  31.666 -14.305  1.00  0.00     0.188 C 
ATOM     27  C   UNL     1     -22.353  32.808 -13.544  1.00  0.00     0.179 C 
ATOM     28  O   UNL     1     -20.598  32.188 -15.118  1.00  0.00    -0.362 OA
ATOM     29  C   UNL     1     -21.339  33.603 -12.704  1.00  0.00     0.177 C 
ATOM     30  C   UNL     1     -19.583  32.789 -14.328  1.00  0.00     0.176 C 
ATOM     31  C   UNL     1     -20.143  34.023 -13.580  1.00  0.00     0.177 C 
BRANCH  27  32
ATOM     32  O   UNL     1     -23.387  32.308 -12.732  1.00  0.00    -0.387 OA
ATOM     33  H   UNL     1     -24.247  32.470 -13.202  1.00  0.00     0.211 HD
ENDBRANCH  27  32
BRANCH  29  34
ATOM     34  O   UNL     1     -21.972  34.737 -12.171  1.00  0.00    -0.387 OA
ATOM     35  H   UNL     1     -22.579  35.087 -12.874  1.00  0.00     0.211 HD
ENDBRANCH  29  34
BRANCH  30  36
ATOM     36  C   UNL     1     -18.429  33.178 -15.264  1.00  0.00     0.191 C 
BRANCH  36  37
ATOM     37  O   UNL     1     -17.208  33.140 -14.581  1.00  0.00    -0.394 OA
ATOM     38  H   UNL     1     -16.998  34.079 -14.337  1.00  0.00     0.210 HD
ENDBRANCH  36  37
ENDBRANCH  30  36
BRANCH  31  39
ATOM     39  O   UNL     1     -19.142  34.582 -12.766  1.00  0.00    -0.388 OA
ATOM     40  H   UNL     1     -18.304  34.583 -13.297  1.00  0.00     0.211 HD
ENDBRANCH  31  39
ENDBRANCH  10  26
TORSDOF 11
ENDMDL
MODEL 2
REMARK VINA RESULT:    -7.454      0.982      2.140
REMARK INTER + INTRA:         -11.552
REMARK INTER:                 -10.537
REMARK INTRA:                  -1.015
REMARK UNBOUND:                -1.048
REMARK SMILES O=c1cc(-c2ccc(O)c(O)c2)oc2cc(O)c([C@H]3O[C@@H](CO)[C@H](O)[C@@H](O)[C@@H]3O)c(O)c12
REMARK SMILES IDX 4 1 3 2 2 3 1 4 32 5 14 6 13 7 15 8 16 9 18 10 30 11 5 12
REMARK SMILES IDX 6 13 7 14 8 15 12 16 10 17 9 18 11 20 31 22 17 24 19 26
REMARK SMILES IDX 28 27 20 28 26 29 21 30 24 31 29 32 27 34 22 36 23 37 25 39
REMARK H PARENT 9 19 11 21 31 23 17 25 29 33 27 35 23 38 25 40
REMARK Flexibility Score: inf
ROOT
ATOM      1  C   UNL     1     -26.066  28.668 -18.244  1.00  0.00     0.138 A 
ATOM      2  C   UNL     1     -26.345  28.302 -16.921  1.00  0.00     0.100 A 
ATOM      3  C   UNL     1     -25.579  28.835 -15.883  1.00  0.00     0.197 A 
ATOM      4  O   UNL     1     -25.903  28.552 -14.701  1.00  0.00    -0.289 OA
ATOM      5  C   UNL     1     -24.501  29.705 -16.179  1.00  0.00     0.107 A 
ATOM      6  C   UNL     1     -24.331  30.070 -17.536  1.00  0.00     0.146 A 
ATOM      7  O   UNL     1     -25.094  29.540 -18.487  1.00  0.00    -0.456 OA
ATOM      8  C   UNL     1     -23.366  31.004 -17.902  1.00  0.00     0.094 A 
ATOM      9  C   UNL     1     -22.556  31.608 -16.942  1.00  0.00     0.128 A 
ATOM     10  C   UNL     1     -22.662  31.234 -15.585  1.00  0.00     0.068 A 
ATOM     11  C   UNL     1     -23.620  30.260 -15.202  1.00  0.00     0.140 A 
ENDROOT
BRANCH   1  12
ATOM     12  C   UNL     1     -26.846  28.130 -19.388  1.00  0.00     0.021 A 
ATOM     13  C   UNL     1     -28.240  28.312 -19.421  1.00  0.00     0.016 A 
ATOM     14  C   UNL     1     -28.995  27.821 -20.490  1.00  0.00     0.051 A 
ATOM     15  C   UNL     1     -28.370  27.150 -21.547  1.00  0.00     0.157 A 
ATOM     16  C   UNL     1     -26.222  27.465 -20.462  1.00  0.00     0.062 A 
ATOM     17  C   UNL     1     -26.982  26.974 -21.535  1.00  0.00     0.158 A 
BRANCH  15  18
ATOM     18  O   UNL     1     -29.120  26.658 -22.614  1.00  0.00    -0.504 OA
ATOM     19  H   UNL     1     -29.606  27.279 -23.250  1.00  0.00     0.293 HD
ENDBRANCH  15  18
BRANCH  17  20
ATOM     20  O   UNL     1     -26.360  26.315 -22.594  1.00  0.00    -0.504 OA
ATOM     21  H   UNL     1     -25.402  25.993 -22.530  1.00  0.00     0.293 HD
ENDBRANCH  17  20
ENDBRANCH   1  12
BRANCH  11  22
ATOM     22  O   UNL     1     -23.645  29.860 -13.860  1.00  0.00    -0.506 OA
ATOM     23  H   UNL     1     -24.471  29.544 -13.375  1.00  0.00     0.293 HD
ENDBRANCH  11  22
BRANCH   9  24
ATOM     24  O   UNL     1     -21.637  32.581 -17.337  1.00  0.00    -0.507 OA
ATOM     25  H   UNL     1     -21.934  33.484 -17.688  1.00  0.00     0.293 HD
ENDBRANCH   9  24
BRANCH  10  26
ATOM     26  C   UNL     1     -21.770  31.893 -14.539  1.00  0.00     0.188 C 
ATOM     27  C   UNL     1     -22.441  33.180 -14.000  1.00  0.00     0.179 C 
ATOM     28  O   UNL     1     -20.512  32.197 -15.120  1.00  0.00    -0.362 OA
ATOM     29  C   UNL     1     -21.517  33.875 -12.987  1.00  0.00     0.177 C 
ATOM     30  C   UNL     1     -19.607  32.697 -14.148  1.00  0.00     0.176 C 
ATOM     31  C   UNL     1     -20.111  34.052 -13.590  1.00  0.00     0.177 C 
BRANCH  27  32
ATOM     32  O   UNL     1     -23.692  32.897 -13.419  1.00  0.00    -0.387 OA
ATOM     33  H   UNL     1     -24.055  33.747 -13.057  1.00  0.00     0.211 HD
ENDBRANCH  27  32
BRANCH  29  34
ATOM     34  O   UNL     1     -22.060  35.126 -12.651  1.00  0.00    -0.387 OA
ATOM     35  H   UNL     1     -22.081  35.177 -11.660  1.00  0.00     0.211 HD
ENDBRANCH  29  34
BRANCH  30  36
ATOM     36  C   UNL     1     -18.233  32.844 -14.818  1.00  0.00     0.191 C 
BRANCH  36  37
ATOM     37  O   UNL     1     -17.214  32.839 -13.858  1.00  0.00    -0.394 OA
ATOM     38  H   UNL     1     -16.461  32.330 -14.256  1.00  0.00     0.210 HD
ENDBRANCH  36  37
ENDBRANCH  30  36
BRANCH  31  39
ATOM     39  O   UNL     1     -19.231  34.514 -12.596  1.00  0.00    -0.388 OA
ATOM     40  H   UNL     1     -19.623  34.259 -11.720  1.00  0.00     0.211 HD
ENDBRANCH  31  39
ENDBRANCH  10  26
TORSDOF 11
ENDMDL
MODEL 3
REMARK VINA RESULT:    -7.103      1.255      3.055
REMARK INTER + INTRA:         -11.057
REMARK INTER:                 -10.173
REMARK INTRA:                  -0.884
REMARK UNBOUND:                -1.048
REMARK SMILES O=c1cc(-c2ccc(O)c(O)c2)oc2cc(O)c([C@H]3O[C@@H](CO)[C@H](O)[C@@H](O)[C@@H]3O)c(O)c12
REMARK SMILES IDX 4 1 3 2 2 3 1 4 32 5 14 6 13 7 15 8 16 9 18 10 30 11 5 12
REMARK SMILES IDX 6 13 7 14 8 15 12 16 10 17 9 18 11 20 31 22 17 24 19 26
REMARK SMILES IDX 28 27 20 28 26 29 21 30 24 31 29 32 27 34 22 36 23 37 25 39
REMARK H PARENT 9 19 11 21 31 23 17 25 29 33 27 35 23 38 25 40
REMARK Flexibility Score: inf
ROOT
ATOM      1  C   UNL     1     -25.699  28.813 -18.610  1.00  0.00     0.138 A 
ATOM      2  C   UNL     1     -25.356  28.199 -17.399  1.00  0.00     0.100 A 
ATOM      3  C   UNL     1     -24.483  28.845 -16.522  1.00  0.00     0.197 A 
ATOM      4  O   UNL     1     -24.255  28.307 -15.407  1.00  0.00    -0.289 OA
ATOM      5  C   UNL     1     -23.919  30.093 -16.883  1.00  0.00     0.107 A 
ATOM      6  C   UNL     1     -24.369  30.669 -18.095  1.00  0.00     0.146 A 
ATOM      7  O   UNL     1     -25.209  30.016 -18.892  1.00  0.00    -0.456 OA
ATOM      8  C   UNL     1     -23.950  31.941 -18.473  1.00  0.00     0.094 A 
ATOM      9  C   UNL     1     -23.089  32.679 -17.662  1.00  0.00     0.128 A 
ATOM     10  C   UNL     1     -22.579  32.120 -16.471  1.00  0.00     0.068 A 
ATOM     11  C   UNL     1     -22.973  30.812 -16.089  1.00  0.00     0.140 A 
ENDROOT
BRANCH   1  12
ATOM     12  C   UNL     1     -26.620  28.171 -19.582  1.00  0.00     0.021 A 
ATOM     13  C   UNL     1     -28.010  28.288 -19.400  1.00  0.00     0.016 A 
ATOM     14  C   UNL     1     -28.897  27.699 -20.304  1.00  0.00     0.051 A 
ATOM     15  C   UNL     1     -28.413  26.992 -21.411  1.00  0.00     0.157 A 
ATOM     16  C   UNL     1     -26.140  27.469 -20.706  1.00  0.00     0.062 A 
ATOM     17  C   UNL     1     -27.032  26.879 -21.613  1.00  0.00     0.158 A 
BRANCH  15  18
ATOM     18  O   UNL     1     -29.294  26.402 -22.314  1.00  0.00    -0.504 OA
ATOM     19  H   UNL     1     -30.130  26.881 -22.628  1.00  0.00     0.293 HD
ENDBRANCH  15  18
BRANCH  17  20
ATOM     20  O   UNL     1     -26.552  26.184 -22.722  1.00  0.00    -0.504 OA
ATOM     21  H   UNL     1     -27.007  26.245 -23.625  1.00  0.00     0.293 HD
ENDBRANCH  17  20
ENDBRANCH   1  12
BRANCH  11  22
ATOM     22  O   UNL     1     -22.389  30.261 -14.943  1.00  0.00    -0.506 OA
ATOM     23  H   UNL     1     -21.395  30.198 -14.784  1.00  0.00     0.293 HD
ENDBRANCH  11  22
BRANCH   9  24
ATOM     24  O   UNL     1     -22.732  33.974 -18.045  1.00  0.00    -0.507 OA
ATOM     25  H   UNL     1     -21.863  34.399 -17.743  1.00  0.00     0.293 HD
ENDBRANCH   9  24
BRANCH  10  26
ATOM     26  C   UNL     1     -21.632  32.929 -15.591  1.00  0.00     0.188 C 
ATOM     27  C   UNL     1     -20.162  32.577 -15.925  1.00  0.00     0.179 C 
ATOM     28  O   UNL     1     -21.909  32.654 -14.227  1.00  0.00    -0.362 OA
ATOM     29  C   UNL     1     -19.208  33.351 -15.000  1.00  0.00     0.177 C 
ATOM     30  C   UNL     1     -21.136  33.481 -13.371  1.00  0.00     0.176 C 
ATOM     31  C   UNL     1     -19.629  33.160 -13.530  1.00  0.00     0.177 C 
BRANCH  27  32
ATOM     32  O   UNL     1     -19.869  32.844 -17.276  1.00  0.00    -0.387 OA
ATOM     33  H   UNL     1     -20.299  33.706 -17.513  1.00  0.00     0.211 HD
ENDBRANCH  27  32
BRANCH  29  34
ATOM     34  O   UNL     1     -17.899  32.883 -15.193  1.00  0.00    -0.387 OA
ATOM     35  H   UNL     1     -17.713  32.234 -14.465  1.00  0.00     0.211 HD
ENDBRANCH  29  34
BRANCH  30  36
ATOM     36  C   UNL     1     -21.612  33.240 -11.931  1.00  0.00     0.191 C 
BRANCH  36  37
ATOM     37  O   UNL     1     -22.488  32.149 -11.879  1.00  0.00    -0.394 OA
ATOM     38  H   UNL     1     -22.749  32.049 -10.927  1.00  0.00     0.210 HD
ENDBRANCH  36  37
ENDBRANCH  30  36
BRANCH  31  39
ATOM     39  O   UNL     1     -18.872  34.017 -12.713  1.00  0.00    -0.388 OA
ATOM     40  H   UNL     1     -19.273  33.982 -11.806  1.00  0.00     0.211 HD
ENDBRANCH  31  39
ENDBRANCH  10  26
TORSDOF 11
ENDMDL
MODEL 4
REMARK VINA RESULT:    -6.607      1.859      9.401
REMARK INTER + INTRA:         -10.359
REMARK INTER:                  -9.423
REMARK INTRA:                  -0.937
REMARK UNBOUND:                -1.048
REMARK SMILES O=c1cc(-c2ccc(O)c(O)c2)oc2cc(O)c([C@H]3O[C@@H](CO)[C@H](O)[C@@H](O)[C@@H]3O)c(O)c12
REMARK SMILES IDX 4 1 3 2 2 3 1 4 32 5 14 6 13 7 15 8 16 9 18 10 30 11 5 12
REMARK SMILES IDX 6 13 7 14 8 15 12 16 10 17 9 18 11 20 31 22 17 24 19 26
REMARK SMILES IDX 28 27 20 28 26 29 21 30 24 31 29 32 27 34 22 36 23 37 25 39
REMARK H PARENT 9 19 11 21 31 23 17 25 29 33 27 35 23 38 25 40
REMARK Flexibility Score: inf
ROOT
ATOM      1  C   UNL     1     -21.480  32.230 -15.175  1.00  0.00     0.138 A 
ATOM      2  C   UNL     1     -21.997  33.229 -16.009  1.00  0.00     0.100 A 
ATOM      3  C   UNL     1     -23.125  32.962 -16.787  1.00  0.00     0.197 A 
ATOM      4  O   UNL     1     -23.615  33.902 -17.465  1.00  0.00    -0.289 OA
ATOM      5  C   UNL     1     -23.710  31.672 -16.759  1.00  0.00     0.107 A 
ATOM      6  C   UNL     1     -23.161  30.744 -15.842  1.00  0.00     0.146 A 
ATOM      7  O   UNL     1     -22.090  31.051 -15.116  1.00  0.00    -0.456 OA
ATOM      8  C   UNL     1     -23.742  29.491 -15.670  1.00  0.00     0.094 A 
ATOM      9  C   UNL     1     -24.880  29.127 -16.387  1.00  0.00     0.128 A 
ATOM     10  C   UNL     1     -25.427  30.006 -17.347  1.00  0.00     0.068 A 
ATOM     11  C   UNL     1     -24.827  31.274 -17.554  1.00  0.00     0.140 A 
ENDROOT
BRANCH   1  12
ATOM     12  C   UNL     1     -20.282  32.458 -14.328  1.00  0.00     0.021 A 
ATOM     13  C   UNL     1     -20.294  32.044 -12.984  1.00  0.00     0.016 A 
ATOM     14  C   UNL     1     -19.177  32.240 -12.170  1.00  0.00     0.051 A 
ATOM     15  C   UNL     1     -18.024  32.844 -12.685  1.00  0.00     0.157 A 
ATOM     16  C   UNL     1     -19.113  33.053 -14.844  1.00  0.00     0.062 A 
ATOM     17  C   UNL     1     -17.991  33.249 -14.025  1.00  0.00     0.158 A 
BRANCH  15  18
ATOM     18  O   UNL     1     -16.908  33.043 -11.875  1.00  0.00    -0.504 OA
ATOM     19  H   UNL     1     -16.805  32.564 -10.989  1.00  0.00     0.293 HD
ENDBRANCH  15  18
BRANCH  17  20
ATOM     20  O   UNL     1     -16.838  33.840 -14.538  1.00  0.00    -0.504 OA
ATOM     21  H   UNL     1     -16.862  34.748 -14.988  1.00  0.00     0.293 HD
ENDBRANCH  17  20
ENDBRANCH   1  12
BRANCH  11  22
ATOM     22  O   UNL     1     -25.351  32.087 -18.567  1.00  0.00    -0.506 OA
ATOM     23  H   UNL     1     -24.924  32.217 -19.472  1.00  0.00     0.293 HD
ENDBRANCH  11  22
BRANCH   9  24
ATOM     24  O   UNL     1     -25.469  27.884 -16.150  1.00  0.00    -0.507 OA
ATOM     25  H   UNL     1     -25.373  27.409 -15.260  1.00  0.00     0.293 HD
ENDBRANCH   9  24
BRANCH  10  26
ATOM     26  C   UNL     1     -26.669  29.600 -18.133  1.00  0.00     0.188 C 
ATOM     27  C   UNL     1     -27.866  29.396 -17.172  1.00  0.00     0.179 C 
ATOM     28  O   UNL     1     -26.401  28.406 -18.851  1.00  0.00    -0.362 OA
ATOM     29  C   UNL     1     -29.104  28.934 -17.958  1.00  0.00     0.177 C 
ATOM     30  C   UNL     1     -27.488  28.062 -19.696  1.00  0.00     0.176 C 
ATOM     31  C   UNL     1     -28.743  27.730 -18.850  1.00  0.00     0.177 C 
BRANCH  27  32
ATOM     32  O   UNL     1     -28.146  30.572 -16.452  1.00  0.00    -0.387 OA
ATOM     33  H   UNL     1     -28.055  31.338 -17.077  1.00  0.00     0.211 HD
ENDBRANCH  27  32
BRANCH  29  34
ATOM     34  O   UNL     1     -30.117  28.579 -17.054  1.00  0.00    -0.387 OA
ATOM     35  H   UNL     1     -30.933  28.398 -17.589  1.00  0.00     0.211 HD
ENDBRANCH  29  34
BRANCH  30  36
ATOM     36  C   UNL     1     -27.056  26.863 -20.551  1.00  0.00     0.191 C 
BRANCH  36  37
ATOM     37  O   UNL     1     -28.023  26.577 -21.522  1.00  0.00    -0.394 OA
ATOM     38  H   UNL     1     -28.871  26.422 -21.031  1.00  0.00     0.210 HD
ENDBRANCH  36  37
ENDBRANCH  30  36
BRANCH  31  39
ATOM     39  O   UNL     1     -29.824  27.436 -19.698  1.00  0.00    -0.388 OA
ATOM     40  H   UNL     1     -29.777  26.465 -19.902  1.00  0.00     0.211 HD
ENDBRANCH  31  39
ENDBRANCH  10  26
TORSDOF 11
ENDMDL
MODEL 5
REMARK VINA RESULT:    -6.575      1.515      2.641
REMARK INTER + INTRA:         -10.313
REMARK INTER:                  -9.383
REMARK INTRA:                  -0.930
REMARK UNBOUND:                -1.048
REMARK SMILES O=c1cc(-c2ccc(O)c(O)c2)oc2cc(O)c([C@H]3O[C@@H](CO)[C@H](O)[C@@H](O)[C@@H]3O)c(O)c12
REMARK SMILES IDX 4 1 3 2 2 3 1 4 32 5 14 6 13 7 15 8 16 9 18 10 30 11 5 12
REMARK SMILES IDX 6 13 7 14 8 15 12 16 10 17 9 18 11 20 31 22 17 24 19 26
REMARK SMILES IDX 28 27 20 28 26 29 21 30 24 31 29 32 27 34 22 36 23 37 25 39
REMARK H PARENT 9 19 11 21 31 23 17 25 29 33 27 35 23 38 25 40
REMARK Flexibility Score: inf
ROOT
ATOM      1  C   UNL     1     -25.001  29.533 -19.574  1.00  0.00     0.138 A 
ATOM      2  C   UNL     1     -24.188  30.138 -20.541  1.00  0.00     0.100 A 
ATOM      3  C   UNL     1     -23.212  31.053 -20.146  1.00  0.00     0.197 A 
ATOM      4  O   UNL     1     -22.445  31.521 -21.028  1.00  0.00    -0.289 OA
ATOM      5  C   UNL     1     -23.078  31.394 -18.778  1.00  0.00     0.107 A 
ATOM      6  C   UNL     1     -23.897  30.689 -17.863  1.00  0.00     0.146 A 
ATOM      7  O   UNL     1     -24.807  29.819 -18.291  1.00  0.00    -0.456 OA
ATOM      8  C   UNL     1     -23.756  30.881 -16.492  1.00  0.00     0.094 A 
ATOM      9  C   UNL     1     -22.800  31.763 -15.990  1.00  0.00     0.128 A 
ATOM     10  C   UNL     1     -22.000  32.522 -16.871  1.00  0.00     0.068 A 
ATOM     11  C   UNL     1     -22.154  32.358 -18.272  1.00  0.00     0.140 A 
ENDROOT
BRANCH   1  12
ATOM     12  C   UNL     1     -26.057  28.555 -19.937  1.00  0.00     0.021 A 
ATOM     13  C   UNL     1     -27.177  28.402 -19.099  1.00  0.00     0.016 A 
ATOM     14  C   UNL     1     -28.187  27.493 -19.423  1.00  0.00     0.051 A 
ATOM     15  C   UNL     1     -28.103  26.729 -20.593  1.00  0.00     0.157 A 
ATOM     16  C   UNL     1     -25.985  27.791 -21.120  1.00  0.00     0.062 A 
ATOM     17  C   UNL     1     -27.002  26.880 -21.443  1.00  0.00     0.158 A 
BRANCH  15  18
ATOM     18  O   UNL     1     -29.108  25.821 -20.918  1.00  0.00    -0.504 OA
ATOM     19  H   UNL     1     -30.045  26.128 -21.149  1.00  0.00     0.293 HD
ENDBRANCH  15  18
BRANCH  17  20
ATOM     20  O   UNL     1     -26.925  26.126 -22.613  1.00  0.00    -0.504 OA
ATOM     21  H   UNL     1     -26.326  26.399 -23.383  1.00  0.00     0.293 HD
ENDBRANCH  17  20
ENDBRANCH   1  12
BRANCH  11  22
ATOM     22  O   UNL     1     -21.398  33.181 -19.114  1.00  0.00    -0.506 OA
ATOM     23  H   UNL     1     -21.680  33.461 -20.041  1.00  0.00     0.293 HD
ENDBRANCH  11  22
BRANCH   9  24
ATOM     24  O   UNL     1     -22.648  31.891 -14.609  1.00  0.00    -0.507 OA
ATOM     25  H   UNL     1     -22.337  32.758 -14.184  1.00  0.00     0.293 HD
ENDBRANCH   9  24
BRANCH  10  26
ATOM     26  C   UNL     1     -20.960  33.489 -16.317  1.00  0.00     0.188 C 
ATOM     27  C   UNL     1     -19.665  32.725 -15.947  1.00  0.00     0.179 C 
ATOM     28  O   UNL     1     -21.490  34.145 -15.176  1.00  0.00    -0.362 OA
ATOM     29  C   UNL     1     -18.636  33.692 -15.336  1.00  0.00     0.177 C 
ATOM     30  C   UNL     1     -20.603  35.147 -14.703  1.00  0.00     0.176 C 
ATOM     31  C   UNL     1     -19.286  34.505 -14.200  1.00  0.00     0.177 C 
BRANCH  27  32
ATOM     32  O   UNL     1     -19.123  32.068 -17.067  1.00  0.00    -0.387 OA
ATOM     33  H   UNL     1     -18.884  32.761 -17.737  1.00  0.00     0.211 HD
ENDBRANCH  27  32
BRANCH  29  34
ATOM     34  O   UNL     1     -17.549  32.954 -14.842  1.00  0.00    -0.387 OA
ATOM     35  H   UNL     1     -17.652  32.025 -15.177  1.00  0.00     0.211 HD
ENDBRANCH  29  34
BRANCH  30  36
ATOM     36  C   UNL     1     -21.317  35.913 -13.581  1.00  0.00     0.191 C 
BRANCH  36  37
ATOM     37  O   UNL     1     -21.948  35.025 -12.702  1.00  0.00    -0.394 OA
ATOM     38  H   UNL     1     -22.904  35.007 -12.965  1.00  0.00     0.210 HD
ENDBRANCH  36  37
ENDBRANCH  30  36
BRANCH  31  39
ATOM     39  O   UNL     1     -18.398  35.509 -13.777  1.00  0.00    -0.388 OA
ATOM     40  H   UNL     1     -18.382  35.484 -12.785  1.00  0.00     0.211 HD
ENDBRANCH  31  39
ENDBRANCH  10  26
TORSDOF 11
ENDMDL
MODEL 6
REMARK VINA RESULT:    -6.550      1.575      2.099
REMARK INTER + INTRA:         -10.279
REMARK INTER:                  -9.196
REMARK INTRA:                  -1.082
REMARK UNBOUND:                -1.048
REMARK SMILES O=c1cc(-c2ccc(O)c(O)c2)oc2cc(O)c([C@H]3O[C@@H](CO)[C@H](O)[C@@H](O)[C@@H]3O)c(O)c12
REMARK SMILES IDX 4 1 3 2 2 3 1 4 32 5 14 6 13 7 15 8 16 9 18 10 30 11 5 12
REMARK SMILES IDX 6 13 7 14 8 15 12 16 10 17 9 18 11 20 31 22 17 24 19 26
REMARK SMILES IDX 28 27 20 28 26 29 21 30 24 31 29 32 27 34 22 36 23 37 25 39
REMARK H PARENT 9 19 11 21 31 23 17 25 29 33 27 35 23 38 25 40
REMARK Flexibility Score: inf
ROOT
ATOM      1  C   UNL     1     -24.076  29.353 -19.949  1.00  0.00     0.138 A 
ATOM      2  C   UNL     1     -23.060  30.181 -20.443  1.00  0.00     0.100 A 
ATOM      3  C   UNL     1     -22.371  31.023 -19.569  1.00  0.00     0.197 A 
ATOM      4  O   UNL     1     -21.411  31.696 -20.027  1.00  0.00    -0.289 OA
ATOM      5  C   UNL     1     -22.733  31.065 -18.200  1.00  0.00     0.107 A 
ATOM      6  C   UNL     1     -23.727  30.151 -17.776  1.00  0.00     0.146 A 
ATOM      7  O   UNL     1     -24.347  29.363 -18.649  1.00  0.00    -0.456 OA
ATOM      8  C   UNL     1     -24.066  30.048 -16.431  1.00  0.00     0.094 A 
ATOM      9  C   UNL     1     -23.429  30.834 -15.472  1.00  0.00     0.128 A 
ATOM     10  C   UNL     1     -22.468  31.792 -15.861  1.00  0.00     0.068 A 
ATOM     11  C   UNL     1     -22.135  31.929 -17.233  1.00  0.00     0.140 A 
ENDROOT
BRANCH   1  12
ATOM     12  C   UNL     1     -24.843  28.440 -20.833  1.00  0.00     0.021 A 
ATOM     13  C   UNL     1     -24.318  28.090 -22.090  1.00  0.00     0.016 A 
ATOM     14  C   UNL     1     -25.018  27.227 -22.937  1.00  0.00     0.051 A 
ATOM     15  C   UNL     1     -26.249  26.691 -22.540  1.00  0.00     0.157 A 
ATOM     16  C   UNL     1     -26.077  27.887 -20.435  1.00  0.00     0.062 A 
ATOM     17  C   UNL     1     -26.778  27.019 -21.286  1.00  0.00     0.158 A 
BRANCH  15  18
ATOM     18  O   UNL     1     -26.951  25.832 -23.382  1.00  0.00    -0.504 OA
ATOM     19  H   UNL     1     -27.071  24.851 -23.157  1.00  0.00     0.293 HD
ENDBRANCH  15  18
BRANCH  17  20
ATOM     20  O   UNL     1     -27.998  26.477 -20.889  1.00  0.00    -0.504 OA
ATOM     21  H   UNL     1     -28.073  25.522 -20.557  1.00  0.00     0.293 HD
ENDBRANCH  17  20
ENDBRANCH   1  12
BRANCH  11  22
ATOM     22  O   UNL     1     -21.235  32.940 -17.589  1.00  0.00    -0.506 OA
ATOM     23  H   UNL     1     -21.460  33.924 -17.605  1.00  0.00     0.293 HD
ENDBRANCH  11  22
BRANCH   9  24
ATOM     24  O   UNL     1     -23.754  30.666 -14.125  1.00  0.00    -0.507 OA
ATOM     25  H   UNL     1     -23.135  30.187 -13.482  1.00  0.00     0.293 HD
ENDBRANCH   9  24
BRANCH  10  26
ATOM     26  C   UNL     1     -21.778  32.653 -14.809  1.00  0.00     0.188 C 
ATOM     27  C   UNL     1     -22.220  34.130 -14.955  1.00  0.00     0.179 C 
ATOM     28  O   UNL     1     -20.372  32.540 -14.958  1.00  0.00    -0.362 OA
ATOM     29  C   UNL     1     -21.482  35.008 -13.930  1.00  0.00     0.177 C 
ATOM     30  C   UNL     1     -19.690  33.225 -13.919  1.00  0.00     0.176 C 
ATOM     31  C   UNL     1     -19.965  34.747 -14.008  1.00  0.00     0.177 C 
BRANCH  27  32
ATOM     32  O   UNL     1     -23.613  34.262 -14.809  1.00  0.00    -0.387 OA
ATOM     33  H   UNL     1     -23.945  33.454 -14.338  1.00  0.00     0.211 HD
ENDBRANCH  27  32
BRANCH  29  34
ATOM     34  O   UNL     1     -21.755  36.358 -14.200  1.00  0.00    -0.387 OA
ATOM     35  H   UNL     1     -22.511  36.623 -13.613  1.00  0.00     0.211 HD
ENDBRANCH  29  34
BRANCH  30  36
ATOM     36  C   UNL     1     -18.193  32.918 -14.059  1.00  0.00     0.191 C 
BRANCH  36  37
ATOM     37  O   UNL     1     -17.546  33.933 -14.775  1.00  0.00    -0.394 OA
ATOM     38  H   UNL     1     -16.936  34.379 -14.132  1.00  0.00     0.210 HD
ENDBRANCH  36  37
ENDBRANCH  30  36
BRANCH  31  39
ATOM     39  O   UNL     1     -19.323  35.410 -12.948  1.00  0.00    -0.388 OA
ATOM     40  H   UNL     1     -19.503  36.379 -13.060  1.00  0.00     0.211 HD
ENDBRANCH  31  39
ENDBRANCH  10  26
TORSDOF 11
ENDMDL
MODEL 7
REMARK VINA RESULT:    -6.536      1.682      2.914
REMARK INTER + INTRA:         -10.258
REMARK INTER:                  -9.594
REMARK INTRA:                  -0.664
REMARK UNBOUND:                -1.048
REMARK SMILES O=c1cc(-c2ccc(O)c(O)c2)oc2cc(O)c([C@H]3O[C@@H](CO)[C@H](O)[C@@H](O)[C@@H]3O)c(O)c12
REMARK SMILES IDX 4 1 3 2 2 3 1 4 32 5 14 6 13 7 15 8 16 9 18 10 30 11 5 12
REMARK SMILES IDX 6 13 7 14 8 15 12 16 10 17 9 18 11 20 31 22 17 24 19 26
REMARK SMILES IDX 28 27 20 28 26 29 21 30 24 31 29 32 27 34 22 36 23 37 25 39
REMARK H PARENT 9 19 11 21 31 23 17 25 29 33 27 35 23 38 25 40
REMARK Flexibility Score: inf
ROOT
ATOM      1  C   UNL     1     -26.608  28.776 -19.113  1.00  0.00     0.138 A 
ATOM      2  C   UNL     1     -27.076  28.902 -17.799  1.00  0.00     0.100 A 
ATOM      3  C   UNL     1     -26.295  29.564 -16.850  1.00  0.00     0.197 A 
ATOM      4  O   UNL     1     -26.775  29.731 -15.699  1.00  0.00    -0.289 OA
ATOM      5  C   UNL     1     -25.021  30.065 -17.212  1.00  0.00     0.107 A 
ATOM      6  C   UNL     1     -24.655  29.950 -18.575  1.00  0.00     0.146 A 
ATOM      7  O   UNL     1     -25.439  29.317 -19.442  1.00  0.00    -0.456 OA
ATOM      8  C   UNL     1     -23.470  30.512 -19.040  1.00  0.00     0.094 A 
ATOM      9  C   UNL     1     -22.623  31.207 -18.178  1.00  0.00     0.128 A 
ATOM     10  C   UNL     1     -22.929  31.300 -16.803  1.00  0.00     0.068 A 
ATOM     11  C   UNL     1     -24.119  30.706 -16.310  1.00  0.00     0.140 A 
ENDROOT
BRANCH   1  12
ATOM     12  C   UNL     1     -27.394  28.080 -20.163  1.00  0.00     0.021 A 
ATOM     13  C   UNL     1     -28.797  28.176 -20.156  1.00  0.00     0.016 A 
ATOM     14  C   UNL     1     -29.558  27.536 -21.136  1.00  0.00     0.051 A 
ATOM     15  C   UNL     1     -28.932  26.796 -22.147  1.00  0.00     0.157 A 
ATOM     16  C   UNL     1     -26.769  27.345 -21.191  1.00  0.00     0.062 A 
ATOM     17  C   UNL     1     -27.535  26.703 -22.175  1.00  0.00     0.158 A 
BRANCH  15  18
ATOM     18  O   UNL     1     -29.687  26.155 -23.126  1.00  0.00    -0.504 OA
ATOM     19  H   UNL     1     -30.361  25.436 -22.888  1.00  0.00     0.293 HD
ENDBRANCH  15  18
BRANCH  17  20
ATOM     20  O   UNL     1     -26.913  25.975 -23.188  1.00  0.00    -0.504 OA
ATOM     21  H   UNL     1     -26.050  26.290 -23.615  1.00  0.00     0.293 HD
ENDBRANCH  17  20
ENDBRANCH   1  12
BRANCH  11  22
ATOM     22  O   UNL     1     -24.350  30.753 -14.930  1.00  0.00    -0.506 OA
ATOM     23  H   UNL     1     -25.164  31.169 -14.502  1.00  0.00     0.293 HD
ENDBRANCH  11  22
BRANCH   9  24
ATOM     24  O   UNL     1     -21.470  31.805 -18.688  1.00  0.00    -0.507 OA
ATOM     25  H   UNL     1     -21.450  32.782 -18.959  1.00  0.00     0.293 HD
ENDBRANCH   9  24
BRANCH  10  26
ATOM     26  C   UNL     1     -21.997  32.058 -15.863  1.00  0.00     0.188 C 
ATOM     27  C   UNL     1     -21.514  31.124 -14.725  1.00  0.00     0.179 C 
ATOM     28  O   UNL     1     -22.680  33.179 -15.327  1.00  0.00    -0.362 OA
ATOM     29  C   UNL     1     -20.618  31.903 -13.747  1.00  0.00     0.177 C 
ATOM     30  C   UNL     1     -21.811  33.983 -14.545  1.00  0.00     0.176 C 
ATOM     31  C   UNL     1     -21.325  33.197 -13.301  1.00  0.00     0.177 C 
BRANCH  27  32
ATOM     32  O   UNL     1     -20.832  30.006 -15.239  1.00  0.00    -0.387 OA
ATOM     33  H   UNL     1     -20.092  29.789 -14.613  1.00  0.00     0.211 HD
ENDBRANCH  27  32
BRANCH  29  34
ATOM     34  O   UNL     1     -20.344  31.093 -12.633  1.00  0.00    -0.387 OA
ATOM     35  H   UNL     1     -20.167  31.702 -11.869  1.00  0.00     0.211 HD
ENDBRANCH  29  34
BRANCH  30  36
ATOM     36  C   UNL     1     -22.579  35.250 -14.142  1.00  0.00     0.191 C 
BRANCH  36  37
ATOM     37  O   UNL     1     -22.210  36.328 -14.956  1.00  0.00    -0.394 OA
ATOM     38  H   UNL     1     -21.901  35.935 -15.813  1.00  0.00     0.210 HD
ENDBRANCH  36  37
ENDBRANCH  30  36
BRANCH  31  39
ATOM     39  O   UNL     1     -20.428  33.987 -12.560  1.00  0.00    -0.388 OA
ATOM     40  H   UNL     1     -19.602  34.076 -13.104  1.00  0.00     0.211 HD
ENDBRANCH  31  39
ENDBRANCH  10  26
TORSDOF 11
ENDMDL
MODEL 8
REMARK VINA RESULT:    -6.469      3.974      5.524
REMARK INTER + INTRA:         -10.164
REMARK INTER:                  -9.241
REMARK INTRA:                  -0.923
REMARK UNBOUND:                -1.048
REMARK SMILES O=c1cc(-c2ccc(O)c(O)c2)oc2cc(O)c([C@H]3O[C@@H](CO)[C@H](O)[C@@H](O)[C@@H]3O)c(O)c12
REMARK SMILES IDX 4 1 3 2 2 3 1 4 32 5 14 6 13 7 15 8 16 9 18 10 30 11 5 12
REMARK SMILES IDX 6 13 7 14 8 15 12 16 10 17 9 18 11 20 31 22 17 24 19 26
REMARK SMILES IDX 28 27 20 28 26 29 21 30 24 31 29 32 27 34 22 36 23 37 25 39
REMARK H PARENT 9 19 11 21 31 23 17 25 29 33 27 35 23 38 25 40
REMARK Flexibility Score: inf
ROOT
ATOM      1  C   UNL     1     -26.087  34.214 -18.987  1.00  0.00     0.138 A 
ATOM      2  C   UNL     1     -25.915  32.860 -18.670  1.00  0.00     0.100 A 
ATOM      3  C   UNL     1     -24.930  32.487 -17.754  1.00  0.00     0.197 A 
ATOM      4  O   UNL     1     -24.851  31.274 -17.429  1.00  0.00    -0.289 OA
ATOM      5  C   UNL     1     -24.086  33.473 -17.187  1.00  0.00     0.107 A 
ATOM      6  C   UNL     1     -24.371  34.821 -17.515  1.00  0.00     0.146 A 
ATOM      7  O   UNL     1     -25.328  35.124 -18.387  1.00  0.00    -0.456 OA
ATOM      8  C   UNL     1     -23.663  35.859 -16.918  1.00  0.00     0.094 A 
ATOM      9  C   UNL     1     -22.667  35.597 -15.979  1.00  0.00     0.128 A 
ATOM     10  C   UNL     1     -22.320  34.266 -15.663  1.00  0.00     0.068 A 
ATOM     11  C   UNL     1     -23.013  33.197 -16.287  1.00  0.00     0.140 A 
ENDROOT
BRANCH   1  12
ATOM     12  C   UNL     1     -27.117  34.668 -19.956  1.00  0.00     0.021 A 
ATOM     13  C   UNL     1     -27.501  36.021 -19.974  1.00  0.00     0.016 A 
ATOM     14  C   UNL     1     -28.462  36.474 -20.881  1.00  0.00     0.051 A 
ATOM     15  C   UNL     1     -29.049  35.587 -21.791  1.00  0.00     0.157 A 
ATOM     16  C   UNL     1     -27.702  33.783 -20.883  1.00  0.00     0.062 A 
ATOM     17  C   UNL     1     -28.667  34.240 -21.794  1.00  0.00     0.158 A 
BRANCH  15  18
ATOM     18  O   UNL     1     -30.009  36.034 -22.696  1.00  0.00    -0.504 OA
ATOM     19  H   UNL     1     -30.474  36.927 -22.576  1.00  0.00     0.293 HD
ENDBRANCH  15  18
BRANCH  17  20
ATOM     20  O   UNL     1     -29.245  33.361 -22.708  1.00  0.00    -0.504 OA
ATOM     21  H   UNL     1     -29.384  33.618 -23.678  1.00  0.00     0.293 HD
ENDBRANCH  17  20
ENDBRANCH   1  12
BRANCH  11  22
ATOM     22  O   UNL     1     -22.590  31.892 -16.006  1.00  0.00    -0.506 OA
ATOM     23  H   UNL     1     -21.861  31.658 -15.349  1.00  0.00     0.293 HD
ENDBRANCH  11  22
BRANCH   9  24
ATOM     24  O   UNL     1     -22.014  36.664 -15.359  1.00  0.00    -0.507 OA
ATOM     25  H   UNL     1     -22.168  37.623 -15.647  1.00  0.00     0.293 HD
ENDBRANCH   9  24
BRANCH  10  26
ATOM     26  C   UNL     1     -21.225  33.984 -14.639  1.00  0.00     0.188 C 
ATOM     27  C   UNL     1     -19.881  33.713 -15.357  1.00  0.00     0.179 C 
ATOM     28  O   UNL     1     -21.599  32.867 -13.848  1.00  0.00    -0.362 OA
ATOM     29  C   UNL     1     -18.790  33.374 -14.328  1.00  0.00     0.177 C 
ATOM     30  C   UNL     1     -20.667  32.648 -12.800  1.00  0.00     0.176 C 
ATOM     31  C   UNL     1     -19.284  32.263 -13.381  1.00  0.00     0.177 C 
BRANCH  27  32
ATOM     32  O   UNL     1     -19.494  34.811 -16.147  1.00  0.00    -0.387 OA
ATOM     33  H   UNL     1     -19.098  35.493 -15.542  1.00  0.00     0.211 HD
ENDBRANCH  27  32
BRANCH  29  34
ATOM     34  O   UNL     1     -17.634  32.954 -15.004  1.00  0.00    -0.387 OA
ATOM     35  H   UNL     1     -16.857  33.238 -14.455  1.00  0.00     0.211 HD
ENDBRANCH  29  34
BRANCH  30  36
ATOM     36  C   UNL     1     -21.227  31.536 -11.901  1.00  0.00     0.191 C 
BRANCH  36  37
ATOM     37  O   UNL     1     -21.698  30.469 -12.675  1.00  0.00    -0.394 OA
ATOM     38  H   UNL     1     -21.563  29.651 -12.130  1.00  0.00     0.210 HD
ENDBRANCH  36  37
ENDBRANCH  30  36
BRANCH  31  39
ATOM     39  O   UNL     1     -18.359  32.094 -12.336  1.00  0.00    -0.388 OA
ATOM     40  H   UNL     1     -18.822  32.346 -11.495  1.00  0.00     0.211 HD
ENDBRANCH  31  39
ENDBRANCH  10  26
TORSDOF 11
ENDMDL
MODEL 9
REMARK VINA RESULT:    -6.456      2.038      9.574
REMARK INTER + INTRA:         -10.145
REMARK INTER:                  -9.038
REMARK INTRA:                  -1.107
REMARK UNBOUND:                -1.048
REMARK SMILES O=c1cc(-c2ccc(O)c(O)c2)oc2cc(O)c([C@H]3O[C@@H](CO)[C@H](O)[C@@H](O)[C@@H]3O)c(O)c12
REMARK SMILES IDX 4 1 3 2 2 3 1 4 32 5 14 6 13 7 15 8 16 9 18 10 30 11 5 12
REMARK SMILES IDX 6 13 7 14 8 15 12 16 10 17 9 18 11 20 31 22 17 24 19 26
REMARK SMILES IDX 28 27 20 28 26 29 21 30 24 31 29 32 27 34 22 36 23 37 25 39
REMARK H PARENT 9 19 11 21 31 23 17 25 29 33 27 35 23 38 25 40
REMARK Flexibility Score: inf
ROOT
ATOM      1  C   UNL     1     -21.764  31.520 -14.708  1.00  0.00     0.138 A 
ATOM      2  C   UNL     1     -22.855  30.948 -14.040  1.00  0.00     0.100 A 
ATOM      3  C   UNL     1     -23.982  30.561 -14.767  1.00  0.00     0.197 A 
ATOM      4  O   UNL     1     -24.913  29.978 -14.153  1.00  0.00    -0.289 OA
ATOM      5  C   UNL     1     -24.031  30.789 -16.164  1.00  0.00     0.107 A 
ATOM      6  C   UNL     1     -22.861  31.313 -16.766  1.00  0.00     0.146 A 
ATOM      7  O   UNL     1     -21.810  31.658 -16.029  1.00  0.00    -0.456 OA
ATOM      8  C   UNL     1     -22.783  31.466 -18.146  1.00  0.00     0.094 A 
ATOM      9  C   UNL     1     -23.848  31.098 -18.967  1.00  0.00     0.128 A 
ATOM     10  C   UNL     1     -25.049  30.618 -18.401  1.00  0.00     0.068 A 
ATOM     11  C   UNL     1     -25.154  30.485 -16.993  1.00  0.00     0.140 A 
ENDROOT
BRANCH   1  12
ATOM     12  C   UNL     1     -20.541  31.952 -13.986  1.00  0.00     0.021 A 
ATOM     13  C   UNL     1     -20.444  31.740 -12.599  1.00  0.00     0.016 A 
ATOM     14  C   UNL     1     -19.301  32.132 -11.898  1.00  0.00     0.051 A 
ATOM     15  C   UNL     1     -18.231  32.733 -12.571  1.00  0.00     0.157 A 
ATOM     16  C   UNL     1     -19.455  32.547 -14.659  1.00  0.00     0.062 A 
ATOM     17  C   UNL     1     -18.307  32.939 -13.953  1.00  0.00     0.158 A 
BRANCH  15  18
ATOM     18  O   UNL     1     -17.090  33.127 -11.875  1.00  0.00    -0.504 OA
ATOM     19  H   UNL     1     -16.762  34.086 -11.896  1.00  0.00     0.293 HD
ENDBRANCH  15  18
BRANCH  17  20
ATOM     20  O   UNL     1     -17.236  33.529 -14.623  1.00  0.00    -0.504 OA
ATOM     21  H   UNL     1     -17.226  34.518 -14.842  1.00  0.00     0.293 HD
ENDBRANCH  17  20
ENDBRANCH   1  12
BRANCH  11  22
ATOM     22  O   UNL     1     -26.384  30.079 -16.464  1.00  0.00    -0.506 OA
ATOM     23  H   UNL     1     -27.281  30.316 -16.861  1.00  0.00     0.293 HD
ENDBRANCH  11  22
BRANCH   9  24
ATOM     24  O   UNL     1     -23.715  31.213 -20.352  1.00  0.00    -0.507 OA
ATOM     25  H   UNL     1     -23.634  32.115 -20.806  1.00  0.00     0.293 HD
ENDBRANCH   9  24
BRANCH  10  26
ATOM     26  C   UNL     1     -26.213  30.221 -19.303  1.00  0.00     0.188 C 
ATOM     27  C   UNL     1     -27.339  31.281 -19.218  1.00  0.00     0.179 C 
ATOM     28  O   UNL     1     -26.700  28.949 -18.908  1.00  0.00    -0.362 OA
ATOM     29  C   UNL     1     -28.535  30.854 -20.084  1.00  0.00     0.177 C 
ATOM     30  C   UNL     1     -27.702  28.485 -19.800  1.00  0.00     0.176 C 
ATOM     31  C   UNL     1     -28.944  29.408 -19.742  1.00  0.00     0.177 C 
BRANCH  27  32
ATOM     32  O   UNL     1     -26.873  32.551 -19.607  1.00  0.00    -0.387 OA
ATOM     33  H   UNL     1     -26.622  32.500 -20.566  1.00  0.00     0.211 HD
ENDBRANCH  27  32
BRANCH  29  34
ATOM     34  O   UNL     1     -29.608  31.729 -19.849  1.00  0.00    -0.387 OA
ATOM     35  H   UNL     1     -30.412  31.167 -19.697  1.00  0.00     0.211 HD
ENDBRANCH  29  34
BRANCH  30  36
ATOM     36  C   UNL     1     -28.054  27.045 -19.401  1.00  0.00     0.191 C 
BRANCH  36  37
ATOM     37  O   UNL     1     -28.531  26.331 -20.507  1.00  0.00    -0.394 OA
ATOM     38  H   UNL     1     -29.105  26.960 -21.016  1.00  0.00     0.210 HD
ENDBRANCH  36  37
ENDBRANCH  30  36
BRANCH  31  39
ATOM     39  O   UNL     1     -29.910  28.966 -20.663  1.00  0.00    -0.388 OA
ATOM     40  H   UNL     1     -30.361  29.774 -21.021  1.00  0.00     0.211 HD
ENDBRANCH  31  39
ENDBRANCH  10  26
TORSDOF 11
ENDMDL
