MODEL 1
REMARK VINA RESULT:    -5.605      0.000      0.000
REMARK INTER + INTRA:          -6.751
REMARK INTER:                  -6.588
REMARK INTRA:                  -0.163
REMARK UNBOUND:                -0.163
REMARK SMILES O=C([O-])C=Cc1ccc(O)c(O)c1
REMARK SMILES IDX 6 1 13 2 7 3 11 4 8 5 9 6 5 7 4 8 2 9 1 10 3 11 12 12 10 14
REMARK H PARENT 12 13 10 15
REMARK Flexibility Score: inf
ROOT
ATOM      1  C   UNL     1      28.203 -32.110  23.234  1.00  0.00    -0.022 A 
ATOM      2  C   UNL     1      29.101 -32.326  24.292  1.00  0.00     0.058 A 
ATOM      3  C   UNL     1      28.475 -31.105  22.296  1.00  0.00     0.012 A 
ATOM      4  C   UNL     1      30.286 -31.581  24.382  1.00  0.00     0.157 A 
ATOM      5  C   UNL     1      29.655 -30.361  22.382  1.00  0.00     0.051 A 
ATOM      6  C   UNL     1      30.566 -30.596  23.419  1.00  0.00     0.157 A 
ENDROOT
BRANCH   1   7
ATOM      7  C   UNL     1      26.925 -32.849  23.150  1.00  0.00     0.010 C 
ATOM      8  C   UNL     1      26.667 -33.861  22.309  1.00  0.00     0.025 C 
BRANCH   8   9
ATOM      9  C   UNL     1      27.534 -34.290  21.195  1.00  0.00     0.064 C 
ATOM     10  O   UNL     1      28.127 -35.397  21.268  1.00  0.00    -0.545 OA
ATOM     11  O   UNL     1      27.652 -33.534  20.035  1.00  0.00    -0.545 OA
ENDBRANCH   8   9
ENDBRANCH   1   7
BRANCH   4  12
ATOM     12  O   UNL     1      31.181 -31.812  25.424  1.00  0.00    -0.504 OA
ATOM     13  H   UNL     1      31.974 -32.435  25.316  1.00  0.00     0.293 HD
ENDBRANCH   4  12
BRANCH   6  14
ATOM     14  O   UNL     1      31.736 -29.840  23.478  1.00  0.00    -0.504 OA
ATOM     15  H   UNL     1      31.728 -28.853  23.701  1.00  0.00     0.293 HD
ENDBRANCH   6  14
TORSDOF 4
ENDMDL
MODEL 2
REMARK VINA RESULT:    -5.409      9.239     10.701
REMARK INTER + INTRA:          -6.521
REMARK INTER:                  -6.252
REMARK INTRA:                  -0.269
REMARK UNBOUND:                -0.163
REMARK SMILES O=C([O-])C=Cc1ccc(O)c(O)c1
REMARK SMILES IDX 6 1 13 2 7 3 11 4 8 5 9 6 5 7 4 8 2 9 1 10 3 11 12 12 10 14
REMARK H PARENT 12 13 10 15
REMARK Flexibility Score: inf
ROOT
ATOM      1  C   UNL     1      23.200 -23.634  25.181  1.00  0.00    -0.022 A 
ATOM      2  C   UNL     1      22.911 -25.009  25.157  1.00  0.00     0.058 A 
ATOM      3  C   UNL     1      23.696 -23.016  24.025  1.00  0.00     0.012 A 
ATOM      4  C   UNL     1      23.065 -25.747  23.975  1.00  0.00     0.157 A 
ATOM      5  C   UNL     1      23.850 -23.749  22.845  1.00  0.00     0.051 A 
ATOM      6  C   UNL     1      23.533 -25.112  22.812  1.00  0.00     0.157 A 
ENDROOT
BRANCH   1   7
ATOM      7  C   UNL     1      23.093 -22.850  26.429  1.00  0.00     0.010 C 
ATOM      8  C   UNL     1      24.073 -22.689  27.332  1.00  0.00     0.025 C 
BRANCH   8   9
ATOM      9  C   UNL     1      25.358 -23.413  27.338  1.00  0.00     0.064 C 
ATOM     10  O   UNL     1      26.331 -22.946  26.690  1.00  0.00    -0.545 OA
ATOM     11  O   UNL     1      25.541 -24.560  28.101  1.00  0.00    -0.545 OA
ENDBRANCH   8   9
ENDBRANCH   1   7
BRANCH   4  12
ATOM     12  O   UNL     1      22.760 -27.107  23.954  1.00  0.00    -0.504 OA
ATOM     13  H   UNL     1      23.351 -27.776  23.475  1.00  0.00     0.293 HD
ENDBRANCH   4  12
BRANCH   6  14
ATOM     14  O   UNL     1      23.694 -25.818  21.620  1.00  0.00    -0.504 OA
ATOM     15  H   UNL     1      24.521 -25.719  21.044  1.00  0.00     0.293 HD
ENDBRANCH   6  14
TORSDOF 4
ENDMDL
MODEL 3
REMARK VINA RESULT:    -5.361      1.869      4.935
REMARK INTER + INTRA:          -6.465
REMARK INTER:                  -6.189
REMARK INTRA:                  -0.275
REMARK UNBOUND:                -0.163
REMARK SMILES O=C([O-])C=Cc1ccc(O)c(O)c1
REMARK SMILES IDX 6 1 13 2 7 3 11 4 8 5 9 6 5 7 4 8 2 9 1 10 3 11 12 12 10 14
REMARK H PARENT 12 13 10 15
REMARK Flexibility Score: inf
ROOT
ATOM      1  C   UNL     1      28.788 -30.815  21.543  1.00  0.00    -0.022 A 
ATOM      2  C   UNL     1      28.157 -31.707  20.659  1.00  0.00     0.058 A 
ATOM      3  C   UNL     1      28.862 -31.136  22.905  1.00  0.00     0.012 A 
ATOM      4  C   UNL     1      27.653 -32.931  21.123  1.00  0.00     0.157 A 
ATOM      5  C   UNL     1      28.362 -32.355  23.371  1.00  0.00     0.051 A 
ATOM      6  C   UNL     1      27.761 -33.257  22.486  1.00  0.00     0.157 A 
ENDROOT
BRANCH   1   7
ATOM      7  C   UNL     1      29.279 -29.500  21.083  1.00  0.00     0.010 C 
ATOM      8  C   UNL     1      30.528 -29.238  20.667  1.00  0.00     0.025 C 
BRANCH   8   9
ATOM      9  C   UNL     1      31.675 -30.160  20.773  1.00  0.00     0.064 C 
ATOM     10  O   UNL     1      32.475 -30.038  21.737  1.00  0.00    -0.545 OA
ATOM     11  O   UNL     1      31.851 -31.205  19.875  1.00  0.00    -0.545 OA
ENDBRANCH   8   9
ENDBRANCH   1   7
BRANCH   4  12
ATOM     12  O   UNL     1      27.044 -33.818  20.238  1.00  0.00    -0.504 OA
ATOM     13  H   UNL     1      26.799 -33.543  19.294  1.00  0.00     0.293 HD
ENDBRANCH   4  12
BRANCH   6  14
ATOM     14  O   UNL     1      27.272 -34.468  22.979  1.00  0.00    -0.504 OA
ATOM     15  H   UNL     1      27.263 -35.311  22.419  1.00  0.00     0.293 HD
ENDBRANCH   6  14
TORSDOF 4
ENDMDL
MODEL 4
REMARK VINA RESULT:    -5.347      9.198     10.654
REMARK INTER + INTRA:          -6.447
REMARK INTER:                  -6.171
REMARK INTRA:                  -0.277
REMARK UNBOUND:                -0.163
REMARK SMILES O=C([O-])C=Cc1ccc(O)c(O)c1
REMARK SMILES IDX 6 1 13 2 7 3 11 4 8 5 9 6 5 7 4 8 2 9 1 10 3 11 12 12 10 14
REMARK H PARENT 12 13 10 15
REMARK Flexibility Score: inf
ROOT
ATOM      1  C   UNL     1      23.093 -24.342  25.607  1.00  0.00    -0.022 A 
ATOM      2  C   UNL     1      23.250 -23.469  24.518  1.00  0.00     0.058 A 
ATOM      3  C   UNL     1      23.048 -25.724  25.378  1.00  0.00     0.012 A 
ATOM      4  C   UNL     1      23.414 -23.973  23.220  1.00  0.00     0.157 A 
ATOM      5  C   UNL     1      23.211 -26.230  24.086  1.00  0.00     0.051 A 
ATOM      6  C   UNL     1      23.399 -25.362  23.005  1.00  0.00     0.157 A 
ENDROOT
BRANCH   1   7
ATOM      7  C   UNL     1      22.868 -23.829  26.975  1.00  0.00     0.010 C 
ATOM      8  C   UNL     1      23.821 -23.634  27.898  1.00  0.00     0.025 C 
BRANCH   8   9
ATOM      9  C   UNL     1      25.225 -24.072  27.784  1.00  0.00     0.064 C 
ATOM     10  O   UNL     1      25.535 -25.243  28.125  1.00  0.00    -0.545 OA
ATOM     11  O   UNL     1      26.201 -23.245  27.239  1.00  0.00    -0.545 OA
ENDBRANCH   8   9
ENDBRANCH   1   7
BRANCH   4  12
ATOM     12  O   UNL     1      23.586 -23.102  22.146  1.00  0.00    -0.504 OA
ATOM     13  H   UNL     1      24.344 -22.429  22.124  1.00  0.00     0.293 HD
ENDBRANCH   4  12
BRANCH   6  14
ATOM     14  O   UNL     1      23.562 -25.896  21.726  1.00  0.00    -0.504 OA
ATOM     15  H   UNL     1      22.813 -26.379  21.246  1.00  0.00     0.293 HD
ENDBRANCH   6  14
TORSDOF 4
ENDMDL
MODEL 5
REMARK VINA RESULT:    -5.306      9.515     10.143
REMARK INTER + INTRA:          -6.400
REMARK INTER:                  -6.159
REMARK INTRA:                  -0.240
REMARK UNBOUND:                -0.163
REMARK SMILES O=C([O-])C=Cc1ccc(O)c(O)c1
REMARK SMILES IDX 6 1 13 2 7 3 11 4 8 5 9 6 5 7 4 8 2 9 1 10 3 11 12 12 10 14
REMARK H PARENT 12 13 10 15
REMARK Flexibility Score: inf
ROOT
ATOM      1  C   UNL     1      24.079 -24.813  24.650  1.00  0.00    -0.022 A 
ATOM      2  C   UNL     1      24.808 -24.730  25.849  1.00  0.00     0.058 A 
ATOM      3  C   UNL     1      24.448 -24.006  23.565  1.00  0.00     0.012 A 
ATOM      4  C   UNL     1      25.926 -23.889  25.945  1.00  0.00     0.157 A 
ATOM      5  C   UNL     1      25.562 -23.168  23.657  1.00  0.00     0.051 A 
ATOM      6  C   UNL     1      26.307 -23.107  24.840  1.00  0.00     0.157 A 
ENDROOT
BRANCH   1   7
ATOM      7  C   UNL     1      22.868 -25.654  24.546  1.00  0.00     0.010 C 
ATOM      8  C   UNL     1      21.646 -25.312  24.980  1.00  0.00     0.025 C 
BRANCH   8   9
ATOM      9  C   UNL     1      21.329 -24.129  25.802  1.00  0.00     0.064 C 
ATOM     10  O   UNL     1      21.375 -24.221  27.056  1.00  0.00    -0.545 OA
ATOM     11  O   UNL     1      21.053 -22.896  25.223  1.00  0.00    -0.545 OA
ENDBRANCH   8   9
ENDBRANCH   1   7
BRANCH   4  12
ATOM     12  O   UNL     1      26.654 -23.825  27.131  1.00  0.00    -0.504 OA
ATOM     13  H   UNL     1      26.801 -22.947  27.617  1.00  0.00     0.293 HD
ENDBRANCH   4  12
BRANCH   6  14
ATOM     14  O   UNL     1      27.415 -22.263  24.902  1.00  0.00    -0.504 OA
ATOM     15  H   UNL     1      27.323 -21.255  24.940  1.00  0.00     0.293 HD
ENDBRANCH   6  14
TORSDOF 4
ENDMDL
MODEL 6
REMARK VINA RESULT:    -5.277      9.060     10.156
REMARK INTER + INTRA:          -6.365
REMARK INTER:                  -6.088
REMARK INTRA:                  -0.278
REMARK UNBOUND:                -0.163
REMARK SMILES O=C([O-])C=Cc1ccc(O)c(O)c1
REMARK SMILES IDX 6 1 13 2 7 3 11 4 8 5 9 6 5 7 4 8 2 9 1 10 3 11 12 12 10 14
REMARK H PARENT 12 13 10 15
REMARK Flexibility Score: inf
ROOT
ATOM      1  C   UNL     1      22.569 -25.096  25.805  1.00  0.00    -0.022 A 
ATOM      2  C   UNL     1      22.864 -25.902  24.692  1.00  0.00     0.058 A 
ATOM      3  C   UNL     1      22.677 -23.703  25.692  1.00  0.00     0.012 A 
ATOM      4  C   UNL     1      23.211 -25.320  23.465  1.00  0.00     0.157 A 
ATOM      5  C   UNL     1      23.023 -23.120  24.470  1.00  0.00     0.051 A 
ATOM      6  C   UNL     1      23.287 -23.921  23.353  1.00  0.00     0.157 A 
ENDROOT
BRANCH   1   7
ATOM      7  C   UNL     1      22.251 -25.691  27.120  1.00  0.00     0.010 C 
ATOM      8  C   UNL     1      23.150 -26.048  28.049  1.00  0.00     0.025 C 
BRANCH   8   9
ATOM      9  C   UNL     1      24.612 -26.088  27.854  1.00  0.00     0.064 C 
ATOM     10  O   UNL     1      25.142 -27.129  27.386  1.00  0.00    -0.545 OA
ATOM     11  O   UNL     1      25.408 -24.977  28.105  1.00  0.00    -0.545 OA
ENDBRANCH   8   9
ENDBRANCH   1   7
BRANCH   4  12
ATOM     12  O   UNL     1      23.485 -26.124  22.361  1.00  0.00    -0.504 OA
ATOM     13  H   UNL     1      22.948 -26.962  22.167  1.00  0.00     0.293 HD
ENDBRANCH   4  12
BRANCH   6  14
ATOM     14  O   UNL     1      23.627 -23.311  22.145  1.00  0.00    -0.504 OA
ATOM     15  H   UNL     1      23.831 -22.321  22.082  1.00  0.00     0.293 HD
ENDBRANCH   6  14
TORSDOF 4
ENDMDL
MODEL 7
REMARK VINA RESULT:    -5.215      9.729     11.258
REMARK INTER + INTRA:          -6.293
REMARK INTER:                  -6.035
REMARK INTRA:                  -0.257
REMARK UNBOUND:                -0.163
REMARK SMILES O=C([O-])C=Cc1ccc(O)c(O)c1
REMARK SMILES IDX 6 1 13 2 7 3 11 4 8 5 9 6 5 7 4 8 2 9 1 10 3 11 12 12 10 14
REMARK H PARENT 12 13 10 15
REMARK Flexibility Score: inf
ROOT
ATOM      1  C   UNL     1      23.924 -23.691  25.271  1.00  0.00    -0.022 A 
ATOM      2  C   UNL     1      23.853 -24.928  24.607  1.00  0.00     0.058 A 
ATOM      3  C   UNL     1      22.740 -23.061  25.678  1.00  0.00     0.012 A 
ATOM      4  C   UNL     1      22.615 -25.553  24.399  1.00  0.00     0.157 A 
ATOM      5  C   UNL     1      21.505 -23.682  25.472  1.00  0.00     0.051 A 
ATOM      6  C   UNL     1      21.435 -24.928  24.839  1.00  0.00     0.157 A 
ENDROOT
BRANCH   1   7
ATOM      7  C   UNL     1      25.213 -22.993  25.454  1.00  0.00     0.010 C 
ATOM      8  C   UNL     1      25.953 -23.008  26.573  1.00  0.00     0.025 C 
BRANCH   8   9
ATOM      9  C   UNL     1      25.528 -23.561  27.872  1.00  0.00     0.064 C 
ATOM     10  O   UNL     1      24.972 -22.805  28.711  1.00  0.00    -0.545 OA
ATOM     11  O   UNL     1      25.660 -24.914  28.164  1.00  0.00    -0.545 OA
ENDBRANCH   8   9
ENDBRANCH   1   7
BRANCH   4  12
ATOM     12  O   UNL     1      22.553 -26.787  23.755  1.00  0.00    -0.504 OA
ATOM     13  H   UNL     1      22.050 -27.571  24.157  1.00  0.00     0.293 HD
ENDBRANCH   4  12
BRANCH   6  14
ATOM     14  O   UNL     1      20.189 -25.525  24.650  1.00  0.00    -0.504 OA
ATOM     15  H   UNL     1      19.353 -24.981  24.472  1.00  0.00     0.293 HD
ENDBRANCH   6  14
TORSDOF 4
ENDMDL
MODEL 8
REMARK VINA RESULT:    -5.197      9.642     10.296
REMARK INTER + INTRA:          -6.272
REMARK INTER:                  -6.053
REMARK INTRA:                  -0.219
REMARK UNBOUND:                -0.163
REMARK SMILES O=C([O-])C=Cc1ccc(O)c(O)c1
REMARK SMILES IDX 6 1 13 2 7 3 11 4 8 5 9 6 5 7 4 8 2 9 1 10 3 11 12 12 10 14
REMARK H PARENT 12 13 10 15
REMARK Flexibility Score: inf
ROOT
ATOM      1  C   UNL     1      22.906 -24.437  27.274  1.00  0.00    -0.022 A 
ATOM      2  C   UNL     1      24.190 -23.885  27.121  1.00  0.00     0.058 A 
ATOM      3  C   UNL     1      22.771 -25.715  27.832  1.00  0.00     0.012 A 
ATOM      4  C   UNL     1      25.321 -24.581  27.571  1.00  0.00     0.157 A 
ATOM      5  C   UNL     1      23.896 -26.411  28.281  1.00  0.00     0.051 A 
ATOM      6  C   UNL     1      25.172 -25.849  28.158  1.00  0.00     0.157 A 
ENDROOT
BRANCH   1   7
ATOM      7  C   UNL     1      21.707 -23.742  26.761  1.00  0.00     0.010 C 
ATOM      8  C   UNL     1      21.256 -23.801  25.499  1.00  0.00     0.025 C 
BRANCH   8   9
ATOM      9  C   UNL     1      21.972 -24.409  24.362  1.00  0.00     0.064 C 
ATOM     10  O   UNL     1      22.498 -23.663  23.496  1.00  0.00    -0.545 OA
ATOM     11  O   UNL     1      22.142 -25.785  24.263  1.00  0.00    -0.545 OA
ENDBRANCH   8   9
ENDBRANCH   1   7
BRANCH   4  12
ATOM     12  O   UNL     1      26.589 -24.020  27.432  1.00  0.00    -0.504 OA
ATOM     13  H   UNL     1      27.103 -23.663  28.230  1.00  0.00     0.293 HD
ENDBRANCH   4  12
BRANCH   6  14
ATOM     14  O   UNL     1      26.277 -26.566  28.617  1.00  0.00    -0.504 OA
ATOM     15  H   UNL     1      26.180 -27.396  29.189  1.00  0.00     0.293 HD
ENDBRANCH   6  14
TORSDOF 4
ENDMDL
MODEL 9
REMARK VINA RESULT:    -5.156      1.652      4.746
REMARK INTER + INTRA:          -6.223
REMARK INTER:                  -5.947
REMARK INTRA:                  -0.276
REMARK UNBOUND:                -0.163
REMARK SMILES O=C([O-])C=Cc1ccc(O)c(O)c1
REMARK SMILES IDX 6 1 13 2 7 3 11 4 8 5 9 6 5 7 4 8 2 9 1 10 3 11 12 12 10 14
REMARK H PARENT 12 13 10 15
REMARK Flexibility Score: inf
ROOT
ATOM      1  C   UNL     1      29.187 -30.478  22.449  1.00  0.00    -0.022 A 
ATOM      2  C   UNL     1      28.796 -31.532  23.292  1.00  0.00     0.058 A 
ATOM      3  C   UNL     1      28.868 -30.536  21.085  1.00  0.00     0.012 A 
ATOM      4  C   UNL     1      28.049 -32.606  22.788  1.00  0.00     0.157 A 
ATOM      5  C   UNL     1      28.123 -31.604  20.580  1.00  0.00     0.051 A 
ATOM      6  C   UNL     1      27.707 -32.639  21.425  1.00  0.00     0.157 A 
ENDROOT
BRANCH   1   7
ATOM      7  C   UNL     1      30.018 -29.364  22.950  1.00  0.00     0.010 C 
ATOM      8  C   UNL     1      31.359 -29.342  22.967  1.00  0.00     0.025 C 
BRANCH   8   9
ATOM      9  C   UNL     1      32.238 -30.490  22.670  1.00  0.00     0.064 C 
ATOM     10  O   UNL     1      32.804 -30.558  21.549  1.00  0.00    -0.545 OA
ATOM     11  O   UNL     1      32.512 -31.460  23.627  1.00  0.00    -0.545 OA
ENDBRANCH   8   9
ENDBRANCH   1   7
BRANCH   4  12
ATOM     12  O   UNL     1      27.650 -33.640  23.634  1.00  0.00    -0.504 OA
ATOM     13  H   UNL     1      26.780 -34.140  23.487  1.00  0.00     0.293 HD
ENDBRANCH   4  12
BRANCH   6  14
ATOM     14  O   UNL     1      26.962 -33.692  20.894  1.00  0.00    -0.504 OA
ATOM     15  H   UNL     1      27.153 -34.077  19.977  1.00  0.00     0.293 HD
ENDBRANCH   6  14
TORSDOF 4
ENDMDL
