MODEL 1
REMARK VINA RESULT:    -6.957      0.000      0.000
REMARK INTER + INTRA:         -14.029
REMARK INTER:                 -11.431
REMARK INTRA:                  -2.598
REMARK UNBOUND:                -2.598
REMARK SMILES C[C@@H]1O[C@H](OC[C@H]2O[C@@H](Oc3c(-c4ccc(O)c(O)c4)oc4cc(O)cc(O)c4c3=O)[C@H](O)[C@@H](O)[C@@H]2O)[C@@H](O)[C@H](O)[C@H]1O
REMARK SMILES IDX 7 1 36 2 34 3 32 4 9 5 8 6 6 7 5 8 4 9 1 10 2 11 42 12 3 13
REMARK SMILES IDX 40 14 38 15 43 16 41 18 39 20 37 22 35 24 10 26 11 27 12 28
REMARK SMILES IDX 30 29 21 30 29 31 31 32 22 33 27 34 23 35 26 36 24 37 13 38
REMARK SMILES IDX 20 39 14 40 18 41 15 42 16 43 19 44 17 46 28 48 25 50 33 52
REMARK H PARENT 43 17 41 19 39 21 37 23 35 25 19 45 17 47 28 49 25 51 33 53
REMARK Flexibility Score: inf
ROOT
ATOM      1  C   UNL     1      71.350  47.778   6.433  1.00  0.00     0.180 C 
ATOM      2  C   UNL     1      72.009  49.068   7.017  1.00  0.00     0.177 C 
ATOM      3  C   UNL     1      72.688  48.801   8.370  1.00  0.00     0.180 C 
ATOM      4  C   UNL     1      71.759  48.020   9.337  1.00  0.00     0.214 C 
ATOM      5  C   UNL     1      70.856  47.007   8.593  1.00  0.00     0.339 C 
ATOM      6  O   UNL     1      71.406  46.684   7.330  1.00  0.00    -0.332 OA
ENDROOT
BRANCH   1   7
ATOM      7  C   UNL     1      72.030  47.336   5.127  1.00  0.00     0.198 C 
BRANCH   7   8
ATOM      8  O   UNL     1      73.395  47.054   5.381  1.00  0.00    -0.347 OA
BRANCH   8   9
ATOM      9  C   UNL     1      73.765  45.732   5.010  1.00  0.00     0.281 C 
ATOM     10  C   UNL     1      74.998  42.866   6.943  1.00  0.00     0.041 C 
ATOM     11  C   UNL     1      74.537  43.654   5.710  1.00  0.00     0.150 C 
ATOM     12  C   UNL     1      73.482  42.841   4.898  1.00  0.00     0.174 C 
ATOM     13  O   UNL     1      74.018  44.899   6.138  1.00  0.00    -0.344 OA
ATOM     14  C   UNL     1      72.265  43.717   4.514  1.00  0.00     0.179 C 
ATOM     15  C   UNL     1      72.696  45.126   4.062  1.00  0.00     0.202 C 
BRANCH  12  16
ATOM     16  O   UNL     1      74.092  42.327   3.741  1.00  0.00    -0.388 OA
ATOM     17  H   UNL     1      73.585  41.512   3.480  1.00  0.00     0.211 HD
ENDBRANCH  12  16
BRANCH  14  18
ATOM     18  O   UNL     1      71.403  43.837   5.618  1.00  0.00    -0.387 OA
ATOM     19  H   UNL     1      71.454  44.781   5.927  1.00  0.00     0.211 HD
ENDBRANCH  14  18
BRANCH  15  20
ATOM     20  O   UNL     1      73.210  45.071   2.754  1.00  0.00    -0.385 OA
ATOM     21  H   UNL     1      72.551  45.526   2.161  1.00  0.00     0.211 HD
ENDBRANCH  15  20
ENDBRANCH   8   9
ENDBRANCH   7   8
ENDBRANCH   1   7
BRANCH   2  22
ATOM     22  O   UNL     1      71.015  50.052   7.183  1.00  0.00    -0.387 OA
ATOM     23  H   UNL     1      70.541  50.151   6.317  1.00  0.00     0.211 HD
ENDBRANCH   2  22
BRANCH   3  24
ATOM     24  O   UNL     1      73.868  48.068   8.146  1.00  0.00    -0.387 OA
ATOM     25  H   UNL     1      74.616  48.720   8.124  1.00  0.00     0.211 HD
ENDBRANCH   3  24
BRANCH   5  26
ATOM     26  O   UNL     1      70.732  45.819   9.384  1.00  0.00    -0.454 OA
BRANCH  26  27
ATOM     27  C   UNL     1      70.215  44.627   8.854  1.00  0.00     0.214 A 
ATOM     28  C   UNL     1      68.837  44.470   8.638  1.00  0.00     0.180 A 
ATOM     29  C   UNL     1      71.069  43.539   8.623  1.00  0.00     0.239 A 
ATOM     30  O   UNL     1      68.354  43.273   8.331  1.00  0.00    -0.452 OA
ATOM     31  C   UNL     1      70.523  42.265   8.333  1.00  0.00     0.111 A 
ATOM     32  O   UNL     1      72.310  43.734   8.691  1.00  0.00    -0.285 OA
ATOM     33  C   UNL     1      69.113  42.194   8.186  1.00  0.00     0.146 A 
ATOM     34  C   UNL     1      71.285  41.064   8.203  1.00  0.00     0.134 A 
ATOM     35  C   UNL     1      68.491  40.979   7.883  1.00  0.00     0.094 A 
ATOM     36  C   UNL     1      70.634  39.870   7.877  1.00  0.00     0.093 A 
ATOM     37  C   UNL     1      69.249  39.820   7.727  1.00  0.00     0.123 A 
BRANCH  28  38
ATOM     38  C   UNL     1      67.891  45.595   8.770  1.00  0.00     0.025 A 
ATOM     39  C   UNL     1      67.321  46.162   7.618  1.00  0.00     0.062 A 
ATOM     40  C   UNL     1      67.594  46.147  10.025  1.00  0.00     0.016 A 
ATOM     41  C   UNL     1      66.472  47.273   7.708  1.00  0.00     0.158 A 
ATOM     42  C   UNL     1      66.746  47.252  10.125  1.00  0.00     0.051 A 
ATOM     43  C   UNL     1      66.181  47.825   8.979  1.00  0.00     0.157 A 
BRANCH  41  44
ATOM     44  O   UNL     1      65.936  47.784   6.522  1.00  0.00    -0.504 OA
ATOM     45  H   UNL     1      64.954  47.783   6.307  1.00  0.00     0.293 HD
ENDBRANCH  41  44
BRANCH  43  46
ATOM     46  O   UNL     1      65.353  48.937   9.146  1.00  0.00    -0.504 OA
ATOM     47  H   UNL     1      65.241  49.435  10.019  1.00  0.00     0.293 HD
ENDBRANCH  43  46
ENDBRANCH  28  38
BRANCH  34  48
ATOM     48  O   UNL     1      72.670  40.984   8.406  1.00  0.00    -0.507 OA
ATOM     49  H   UNL     1      73.360  40.925   7.677  1.00  0.00     0.293 HD
ENDBRANCH  34  48
BRANCH  37  50
ATOM     50  O   UNL     1      68.634  38.604   7.427  1.00  0.00    -0.508 OA
ATOM     51  H   UNL     1      67.703  38.381   7.764  1.00  0.00     0.293 HD
ENDBRANCH  37  50
ENDBRANCH  26  27
ENDBRANCH   5  26
BRANCH   4  52
ATOM     52  O   UNL     1      70.988  48.892  10.125  1.00  0.00    -0.384 OA
ATOM     53  H   UNL     1      70.621  48.372  10.886  1.00  0.00     0.211 HD
ENDBRANCH   4  52
TORSDOF 16
ENDMDL
MODEL 2
REMARK VINA RESULT:    -6.743      2.095      4.869
REMARK INTER + INTRA:         -13.677
REMARK INTER:                 -11.974
REMARK INTRA:                  -1.703
REMARK UNBOUND:                -2.598
REMARK SMILES C[C@@H]1O[C@H](OC[C@H]2O[C@@H](Oc3c(-c4ccc(O)c(O)c4)oc4cc(O)cc(O)c4c3=O)[C@H](O)[C@@H](O)[C@@H]2O)[C@@H](O)[C@H](O)[C@H]1O
REMARK SMILES IDX 7 1 36 2 34 3 32 4 9 5 8 6 6 7 5 8 4 9 1 10 2 11 42 12 3 13
REMARK SMILES IDX 40 14 38 15 43 16 41 18 39 20 37 22 35 24 10 26 11 27 12 28
REMARK SMILES IDX 30 29 21 30 29 31 31 32 22 33 27 34 23 35 26 36 24 37 13 38
REMARK SMILES IDX 20 39 14 40 18 41 15 42 16 43 19 44 17 46 28 48 25 50 33 52
REMARK H PARENT 43 17 41 19 39 21 37 23 35 25 19 45 17 47 28 49 25 51 33 53
REMARK Flexibility Score: inf
ROOT
ATOM      1  C   UNL     1      71.411  47.417   6.244  1.00  0.00     0.180 C 
ATOM      2  C   UNL     1      70.778  48.833   6.060  1.00  0.00     0.177 C 
ATOM      3  C   UNL     1      69.947  49.251   7.284  1.00  0.00     0.180 C 
ATOM      4  C   UNL     1      68.974  48.128   7.731  1.00  0.00     0.214 C 
ATOM      5  C   UNL     1      69.568  46.716   7.515  1.00  0.00     0.339 C 
ATOM      6  O   UNL     1      70.979  46.777   7.431  1.00  0.00    -0.332 OA
ENDROOT
BRANCH   1   7
ATOM      7  C   UNL     1      72.947  47.485   6.292  1.00  0.00     0.198 C 
BRANCH   7   8
ATOM      8  O   UNL     1      73.467  47.276   4.992  1.00  0.00    -0.347 OA
BRANCH   8   9
ATOM      9  C   UNL     1      73.782  45.913   4.735  1.00  0.00     0.281 C 
ATOM     10  C   UNL     1      74.859  43.161   6.912  1.00  0.00     0.041 C 
ATOM     11  C   UNL     1      74.451  43.866   5.612  1.00  0.00     0.150 C 
ATOM     12  C   UNL     1      73.371  43.037   4.850  1.00  0.00     0.174 C 
ATOM     13  O   UNL     1      73.982  45.164   5.930  1.00  0.00    -0.344 OA
ATOM     14  C   UNL     1      72.200  43.933   4.377  1.00  0.00     0.179 C 
ATOM     15  C   UNL     1      72.700  45.280   3.821  1.00  0.00     0.202 C 
BRANCH  12  16
ATOM     16  O   UNL     1      73.972  42.406   3.748  1.00  0.00    -0.388 OA
ATOM     17  H   UNL     1      73.920  43.039   2.984  1.00  0.00     0.211 HD
ENDBRANCH  12  16
BRANCH  14  18
ATOM     18  O   UNL     1      71.329  44.179   5.453  1.00  0.00    -0.387 OA
ATOM     19  H   UNL     1      70.830  45.012   5.240  1.00  0.00     0.211 HD
ENDBRANCH  14  18
BRANCH  15  20
ATOM     20  O   UNL     1      73.228  45.097   2.530  1.00  0.00    -0.385 OA
ATOM     21  H   UNL     1      74.095  45.587   2.496  1.00  0.00     0.211 HD
ENDBRANCH  15  20
ENDBRANCH   8   9
ENDBRANCH   7   8
ENDBRANCH   1   7
BRANCH   2  22
ATOM     22  O   UNL     1      69.949  48.817   4.921  1.00  0.00    -0.387 OA
ATOM     23  H   UNL     1      69.078  49.216   5.177  1.00  0.00     0.211 HD
ENDBRANCH   2  22
BRANCH   3  24
ATOM     24  O   UNL     1      70.825  49.570   8.337  1.00  0.00    -0.387 OA
ATOM     25  H   UNL     1      71.586  50.069   7.941  1.00  0.00     0.211 HD
ENDBRANCH   3  24
BRANCH   5  26
ATOM     26  O   UNL     1      69.186  45.873   8.608  1.00  0.00    -0.454 OA
BRANCH  26  27
ATOM     27  C   UNL     1      67.965  45.182   8.620  1.00  0.00     0.214 A 
ATOM     28  C   UNL     1      67.887  43.845   8.203  1.00  0.00     0.180 A 
ATOM     29  C   UNL     1      66.785  45.859   8.962  1.00  0.00     0.239 A 
ATOM     30  O   UNL     1      66.699  43.279   8.031  1.00  0.00    -0.452 OA
ATOM     31  C   UNL     1      65.531  45.245   8.733  1.00  0.00     0.111 A 
ATOM     32  O   UNL     1      66.885  47.010   9.461  1.00  0.00    -0.285 OA
ATOM     33  C   UNL     1      65.552  43.906   8.259  1.00  0.00     0.146 A 
ATOM     34  C   UNL     1      64.266  45.881   8.925  1.00  0.00     0.134 A 
ATOM     35  C   UNL     1      64.359  43.217   8.022  1.00  0.00     0.094 A 
ATOM     36  C   UNL     1      63.092  45.156   8.700  1.00  0.00     0.093 A 
ATOM     37  C   UNL     1      63.131  43.840   8.243  1.00  0.00     0.123 A 
BRANCH  28  38
ATOM     38  C   UNL     1      69.093  43.042   7.917  1.00  0.00     0.025 A 
ATOM     39  C   UNL     1      69.084  42.134   6.845  1.00  0.00     0.062 A 
ATOM     40  C   UNL     1      70.230  43.129   8.734  1.00  0.00     0.016 A 
ATOM     41  C   UNL     1      70.190  41.311   6.592  1.00  0.00     0.158 A 
ATOM     42  C   UNL     1      71.338  42.316   8.487  1.00  0.00     0.051 A 
ATOM     43  C   UNL     1      71.331  41.404   7.424  1.00  0.00     0.157 A 
BRANCH  41  44
ATOM     44  O   UNL     1      70.116  40.432   5.507  1.00  0.00    -0.504 OA
ATOM     45  H   UNL     1      70.921  40.035   5.054  1.00  0.00     0.293 HD
ENDBRANCH  41  44
BRANCH  43  46
ATOM     46  O   UNL     1      72.466  40.609   7.239  1.00  0.00    -0.504 OA
ATOM     47  H   UNL     1      73.000  40.201   7.994  1.00  0.00     0.293 HD
ENDBRANCH  43  46
ENDBRANCH  28  38
BRANCH  34  48
ATOM     48  O   UNL     1      64.109  47.220   9.308  1.00  0.00    -0.507 OA
ATOM     49  H   UNL     1      64.025  47.998   8.677  1.00  0.00     0.293 HD
ENDBRANCH  34  48
BRANCH  37  50
ATOM     50  O   UNL     1      61.937  43.159   8.006  1.00  0.00    -0.508 OA
ATOM     51  H   UNL     1      61.121  43.294   8.594  1.00  0.00     0.293 HD
ENDBRANCH  37  50
ENDBRANCH  26  27
ENDBRANCH   5  26
BRANCH   4  52
ATOM     52  O   UNL     1      67.726  48.248   7.097  1.00  0.00    -0.384 OA
ATOM     53  H   UNL     1      67.222  47.408   7.253  1.00  0.00     0.211 HD
ENDBRANCH   4  52
TORSDOF 16
ENDMDL
MODEL 3
REMARK VINA RESULT:    -6.654      2.041      5.764
REMARK INTER + INTRA:         -13.531
REMARK INTER:                 -11.423
REMARK INTRA:                  -2.108
REMARK UNBOUND:                -2.598
REMARK SMILES C[C@@H]1O[C@H](OC[C@H]2O[C@@H](Oc3c(-c4ccc(O)c(O)c4)oc4cc(O)cc(O)c4c3=O)[C@H](O)[C@@H](O)[C@@H]2O)[C@@H](O)[C@H](O)[C@H]1O
REMARK SMILES IDX 7 1 36 2 34 3 32 4 9 5 8 6 6 7 5 8 4 9 1 10 2 11 42 12 3 13
REMARK SMILES IDX 40 14 38 15 43 16 41 18 39 20 37 22 35 24 10 26 11 27 12 28
REMARK SMILES IDX 30 29 21 30 29 31 31 32 22 33 27 34 23 35 26 36 24 37 13 38
REMARK SMILES IDX 20 39 14 40 18 41 15 42 16 43 19 44 17 46 28 48 25 50 33 52
REMARK H PARENT 43 17 41 19 39 21 37 23 35 25 19 45 17 47 28 49 25 51 33 53
REMARK Flexibility Score: inf
ROOT
ATOM      1  C   UNL     1      72.387  42.784   5.276  1.00  0.00     0.180 C 
ATOM      2  C   UNL     1      73.391  43.756   4.578  1.00  0.00     0.177 C 
ATOM      3  C   UNL     1      73.761  44.942   5.482  1.00  0.00     0.180 C 
ATOM      4  C   UNL     1      72.505  45.603   6.109  1.00  0.00     0.214 C 
ATOM      5  C   UNL     1      71.395  44.573   6.424  1.00  0.00     0.339 C 
ATOM      6  O   UNL     1      71.940  43.271   6.528  1.00  0.00    -0.332 OA
ENDROOT
BRANCH   1   7
ATOM      7  C   UNL     1      73.015  41.401   5.519  1.00  0.00     0.198 C 
BRANCH   7   8
ATOM      8  O   UNL     1      72.642  40.525   4.471  1.00  0.00    -0.347 OA
BRANCH   8   9
ATOM      9  C   UNL     1      71.691  39.549   4.877  1.00  0.00     0.281 C 
ATOM     10  C   UNL     1      71.525  37.302   7.775  1.00  0.00     0.041 C 
ATOM     11  C   UNL     1      71.080  37.963   6.464  1.00  0.00     0.150 C 
ATOM     12  C   UNL     1      69.597  38.438   6.560  1.00  0.00     0.174 C 
ATOM     13  O   UNL     1      71.954  39.041   6.182  1.00  0.00    -0.344 OA
ATOM     14  C   UNL     1      69.430  39.882   6.029  1.00  0.00     0.179 C 
ATOM     15  C   UNL     1      70.254  40.120   4.749  1.00  0.00     0.202 C 
BRANCH  12  16
ATOM     16  O   UNL     1      68.786  37.557   5.826  1.00  0.00    -0.388 OA
ATOM     17  H   UNL     1      68.810  37.856   4.878  1.00  0.00     0.211 HD
ENDBRANCH  12  16
BRANCH  14  18
ATOM     18  O   UNL     1      69.843  40.798   7.013  1.00  0.00    -0.387 OA
ATOM     19  H   UNL     1      69.797  41.704   6.607  1.00  0.00     0.211 HD
ENDBRANCH  14  18
BRANCH  15  20
ATOM     20  O   UNL     1      69.610  39.523   3.650  1.00  0.00    -0.385 OA
ATOM     21  H   UNL     1      70.321  39.124   3.076  1.00  0.00     0.211 HD
ENDBRANCH  15  20
ENDBRANCH   8   9
ENDBRANCH   7   8
ENDBRANCH   1   7
BRANCH   2  22
ATOM     22  O   UNL     1      72.804  44.242   3.393  1.00  0.00    -0.387 OA
ATOM     23  H   UNL     1      72.607  43.462   2.812  1.00  0.00     0.211 HD
ENDBRANCH   2  22
BRANCH   3  24
ATOM     24  O   UNL     1      74.618  44.483   6.500  1.00  0.00    -0.387 OA
ATOM     25  H   UNL     1      74.720  43.503   6.374  1.00  0.00     0.211 HD
ENDBRANCH   3  24
BRANCH   5  26
ATOM     26  O   UNL     1      70.760  44.929   7.658  1.00  0.00    -0.454 OA
BRANCH  26  27
ATOM     27  C   UNL     1      69.449  45.428   7.699  1.00  0.00     0.214 A 
ATOM     28  C   UNL     1      69.200  46.783   7.965  1.00  0.00     0.180 A 
ATOM     29  C   UNL     1      68.365  44.548   7.567  1.00  0.00     0.239 A 
ATOM     30  O   UNL     1      67.958  47.188   8.199  1.00  0.00    -0.452 OA
ATOM     31  C   UNL     1      67.055  44.999   7.859  1.00  0.00     0.111 A 
ATOM     32  O   UNL     1      68.599  43.369   7.197  1.00  0.00    -0.285 OA
ATOM     33  C   UNL     1      66.907  46.376   8.170  1.00  0.00     0.146 A 
ATOM     34  C   UNL     1      65.894  44.166   7.881  1.00  0.00     0.134 A 
ATOM     35  C   UNL     1      65.647  46.911   8.455  1.00  0.00     0.094 A 
ATOM     36  C   UNL     1      64.645  44.737   8.146  1.00  0.00     0.093 A 
ATOM     37  C   UNL     1      64.518  46.093   8.441  1.00  0.00     0.123 A 
BRANCH  28  38
ATOM     38  C   UNL     1      70.285  47.782   8.024  1.00  0.00     0.025 A 
ATOM     39  C   UNL     1      71.284  47.665   9.005  1.00  0.00     0.062 A 
ATOM     40  C   UNL     1      70.304  48.881   7.152  1.00  0.00     0.016 A 
ATOM     41  C   UNL     1      72.288  48.635   9.127  1.00  0.00     0.158 A 
ATOM     42  C   UNL     1      71.303  49.850   7.264  1.00  0.00     0.051 A 
ATOM     43  C   UNL     1      72.297  49.742   8.245  1.00  0.00     0.157 A 
BRANCH  41  44
ATOM     44  O   UNL     1      73.253  48.455  10.122  1.00  0.00    -0.504 OA
ATOM     45  H   UNL     1      73.038  48.186  11.067  1.00  0.00     0.293 HD
ENDBRANCH  41  44
BRANCH  43  46
ATOM     46  O   UNL     1      73.259  50.753   8.313  1.00  0.00    -0.504 OA
ATOM     47  H   UNL     1      73.075  51.725   8.103  1.00  0.00     0.293 HD
ENDBRANCH  43  46
ENDBRANCH  28  38
BRANCH  34  48
ATOM     48  O   UNL     1      65.915  42.781   7.673  1.00  0.00    -0.507 OA
ATOM     49  H   UNL     1      65.760  42.085   8.383  1.00  0.00     0.293 HD
ENDBRANCH  34  48
BRANCH  37  50
ATOM     50  O   UNL     1      63.258  46.619   8.727  1.00  0.00    -0.508 OA
ATOM     51  H   UNL     1      63.044  47.599   8.578  1.00  0.00     0.293 HD
ENDBRANCH  37  50
ENDBRANCH  26  27
ENDBRANCH   5  26
BRANCH   4  52
ATOM     52  O   UNL     1      72.011  46.638   5.298  1.00  0.00    -0.384 OA
ATOM     53  H   UNL     1      72.141  46.373   4.351  1.00  0.00     0.211 HD
ENDBRANCH   4  52
TORSDOF 16
ENDMDL
MODEL 4
REMARK VINA RESULT:    -6.387      2.441      6.434
REMARK INTER + INTRA:         -13.092
REMARK INTER:                 -10.750
REMARK INTRA:                  -2.342
REMARK UNBOUND:                -2.598
REMARK SMILES C[C@@H]1O[C@H](OC[C@H]2O[C@@H](Oc3c(-c4ccc(O)c(O)c4)oc4cc(O)cc(O)c4c3=O)[C@H](O)[C@@H](O)[C@@H]2O)[C@@H](O)[C@H](O)[C@H]1O
REMARK SMILES IDX 7 1 36 2 34 3 32 4 9 5 8 6 6 7 5 8 4 9 1 10 2 11 42 12 3 13
REMARK SMILES IDX 40 14 38 15 43 16 41 18 39 20 37 22 35 24 10 26 11 27 12 28
REMARK SMILES IDX 30 29 21 30 29 31 31 32 22 33 27 34 23 35 26 36 24 37 13 38
REMARK SMILES IDX 20 39 14 40 18 41 15 42 16 43 19 44 17 46 28 48 25 50 33 52
REMARK H PARENT 43 17 41 19 39 21 37 23 35 25 19 45 17 47 28 49 25 51 33 53
REMARK Flexibility Score: inf
ROOT
ATOM      1  C   UNL     1      67.648  47.336   8.436  1.00  0.00     0.180 C 
ATOM      2  C   UNL     1      67.907  48.871   8.309  1.00  0.00     0.177 C 
ATOM      3  C   UNL     1      69.352  49.173   7.877  1.00  0.00     0.180 C 
ATOM      4  C   UNL     1      70.384  48.380   8.722  1.00  0.00     0.214 C 
ATOM      5  C   UNL     1      69.863  46.979   9.123  1.00  0.00     0.339 C 
ATOM      6  O   UNL     1      68.824  46.568   8.255  1.00  0.00    -0.332 OA
ENDROOT
BRANCH   1   7
ATOM      7  C   UNL     1      66.618  46.849   7.403  1.00  0.00     0.198 C 
BRANCH   7   8
ATOM      8  O   UNL     1      65.318  46.941   7.956  1.00  0.00    -0.347 OA
BRANCH   8   9
ATOM      9  C   UNL     1      64.937  45.773   8.671  1.00  0.00     0.281 C 
ATOM     10  C   UNL     1      61.666  44.357   9.550  1.00  0.00     0.041 C 
ATOM     11  C   UNL     1      63.195  44.456   9.471  1.00  0.00     0.150 C 
ATOM     12  C   UNL     1      63.811  43.110   8.978  1.00  0.00     0.174 C 
ATOM     13  O   UNL     1      63.534  45.529   8.612  1.00  0.00    -0.344 OA
ATOM     14  C   UNL     1      64.866  43.343   7.870  1.00  0.00     0.179 C 
ATOM     15  C   UNL     1      65.765  44.555   8.182  1.00  0.00     0.202 C 
BRANCH  12  16
ATOM     16  O   UNL     1      64.395  42.447  10.070  1.00  0.00    -0.388 OA
ATOM     17  H   UNL     1      63.734  42.464  10.812  1.00  0.00     0.211 HD
ENDBRANCH  12  16
BRANCH  14  18
ATOM     18  O   UNL     1      64.220  43.560   6.640  1.00  0.00    -0.387 OA
ATOM     19  H   UNL     1      63.253  43.378   6.782  1.00  0.00     0.211 HD
ENDBRANCH  14  18
BRANCH  15  20
ATOM     20  O   UNL     1      66.710  44.208   9.164  1.00  0.00    -0.385 OA
ATOM     21  H   UNL     1      66.916  43.241   9.043  1.00  0.00     0.211 HD
ENDBRANCH  15  20
ENDBRANCH   8   9
ENDBRANCH   7   8
ENDBRANCH   1   7
BRANCH   2  22
ATOM     22  O   UNL     1      67.660  49.479   9.555  1.00  0.00    -0.387 OA
ATOM     23  H   UNL     1      68.149  50.342   9.572  1.00  0.00     0.211 HD
ENDBRANCH   2  22
BRANCH   3  24
ATOM     24  O   UNL     1      69.493  48.843   6.517  1.00  0.00    -0.387 OA
ATOM     25  H   UNL     1      70.449  48.616   6.370  1.00  0.00     0.211 HD
ENDBRANCH   3  24
BRANCH   5  26
ATOM     26  O   UNL     1      70.943  46.041   9.061  1.00  0.00    -0.454 OA
BRANCH  26  27
ATOM     27  C   UNL     1      70.830  44.826   8.368  1.00  0.00     0.214 A 
ATOM     28  C   UNL     1      71.371  44.675   7.082  1.00  0.00     0.180 A 
ATOM     29  C   UNL     1      70.087  43.774   8.924  1.00  0.00     0.239 A 
ATOM     30  O   UNL     1      71.078  43.593   6.371  1.00  0.00    -0.452 OA
ATOM     31  C   UNL     1      69.759  42.649   8.130  1.00  0.00     0.111 A 
ATOM     32  O   UNL     1      69.726  43.873  10.125  1.00  0.00    -0.285 OA
ATOM     33  C   UNL     1      70.308  42.609   6.821  1.00  0.00     0.146 A 
ATOM     34  C   UNL     1      68.907  41.581   8.546  1.00  0.00     0.134 A 
ATOM     35  C   UNL     1      70.050  41.527   5.974  1.00  0.00     0.094 A 
ATOM     36  C   UNL     1      68.688  40.503   7.682  1.00  0.00     0.093 A 
ATOM     37  C   UNL     1      69.242  40.475   6.404  1.00  0.00     0.123 A 
BRANCH  28  38
ATOM     38  C   UNL     1      72.240  45.700   6.472  1.00  0.00     0.025 A 
ATOM     39  C   UNL     1      71.777  46.436   5.369  1.00  0.00     0.062 A 
ATOM     40  C   UNL     1      73.546  45.912   6.940  1.00  0.00     0.016 A 
ATOM     41  C   UNL     1      72.604  47.367   4.728  1.00  0.00     0.158 A 
ATOM     42  C   UNL     1      74.376  46.841   6.310  1.00  0.00     0.051 A 
ATOM     43  C   UNL     1      73.921  47.572   5.205  1.00  0.00     0.157 A 
BRANCH  41  44
ATOM     44  O   UNL     1      72.079  48.068   3.638  1.00  0.00    -0.504 OA
ATOM     45  H   UNL     1      71.809  49.036   3.674  1.00  0.00     0.293 HD
ENDBRANCH  41  44
BRANCH  43  46
ATOM     46  O   UNL     1      74.807  48.475   4.611  1.00  0.00    -0.504 OA
ATOM     47  H   UNL     1      75.483  48.224   3.903  1.00  0.00     0.293 HD
ENDBRANCH  43  46
ENDBRANCH  28  38
BRANCH  34  48
ATOM     48  O   UNL     1      68.238  41.540   9.776  1.00  0.00    -0.507 OA
ATOM     49  H   UNL     1      67.967  42.344  10.316  1.00  0.00     0.293 HD
ENDBRANCH  34  48
BRANCH  37  50
ATOM     50  O   UNL     1      68.978  39.394   5.563  1.00  0.00    -0.508 OA
ATOM     51  H   UNL     1      68.465  38.581   5.887  1.00  0.00     0.293 HD
ENDBRANCH  37  50
ENDBRANCH  26  27
ENDBRANCH   5  26
BRANCH   4  52
ATOM     52  O   UNL     1      70.786  49.107   9.855  1.00  0.00    -0.384 OA
ATOM     53  H   UNL     1      69.972  49.471  10.290  1.00  0.00     0.211 HD
ENDBRANCH   4  52
TORSDOF 16
ENDMDL
MODEL 5
REMARK VINA RESULT:    -6.301      2.405      4.154
REMARK INTER + INTRA:         -12.951
REMARK INTER:                  -9.966
REMARK INTRA:                  -2.984
REMARK UNBOUND:                -2.598
REMARK SMILES C[C@@H]1O[C@H](OC[C@H]2O[C@@H](Oc3c(-c4ccc(O)c(O)c4)oc4cc(O)cc(O)c4c3=O)[C@H](O)[C@@H](O)[C@@H]2O)[C@@H](O)[C@H](O)[C@H]1O
REMARK SMILES IDX 7 1 36 2 34 3 32 4 9 5 8 6 6 7 5 8 4 9 1 10 2 11 42 12 3 13
REMARK SMILES IDX 40 14 38 15 43 16 41 18 39 20 37 22 35 24 10 26 11 27 12 28
REMARK SMILES IDX 30 29 21 30 29 31 31 32 22 33 27 34 23 35 26 36 24 37 13 38
REMARK SMILES IDX 20 39 14 40 18 41 15 42 16 43 19 44 17 46 28 48 25 50 33 52
REMARK H PARENT 43 17 41 19 39 21 37 23 35 25 19 45 17 47 28 49 25 51 33 53
REMARK Flexibility Score: inf
ROOT
ATOM      1  C   UNL     1      68.089  47.619   7.144  1.00  0.00     0.180 C 
ATOM      2  C   UNL     1      67.177  48.451   8.101  1.00  0.00     0.177 C 
ATOM      3  C   UNL     1      67.426  48.099   9.577  1.00  0.00     0.180 C 
ATOM      4  C   UNL     1      67.430  46.565   9.811  1.00  0.00     0.214 C 
ATOM      5  C   UNL     1      68.025  45.789   8.612  1.00  0.00     0.339 C 
ATOM      6  O   UNL     1      68.845  46.637   7.830  1.00  0.00    -0.332 OA
ENDROOT
BRANCH   1   7
ATOM      7  C   UNL     1      69.082  48.516   6.386  1.00  0.00     0.198 C 
BRANCH   7   8
ATOM      8  O   UNL     1      70.130  48.897   7.259  1.00  0.00    -0.347 OA
BRANCH   8   9
ATOM      9  C   UNL     1      71.160  47.920   7.346  1.00  0.00     0.281 C 
ATOM     10  C   UNL     1      74.011  47.117   5.179  1.00  0.00     0.041 C 
ATOM     11  C   UNL     1      73.071  47.009   6.387  1.00  0.00     0.150 C 
ATOM     12  C   UNL     1      73.884  46.976   7.718  1.00  0.00     0.174 C 
ATOM     13  O   UNL     1      72.168  48.098   6.355  1.00  0.00    -0.344 OA
ATOM     14  C   UNL     1      73.288  47.943   8.769  1.00  0.00     0.179 C 
ATOM     15  C   UNL     1      71.747  47.893   8.782  1.00  0.00     0.202 C 
BRANCH  12  16
ATOM     16  O   UNL     1      73.890  45.663   8.219  1.00  0.00    -0.388 OA
ATOM     17  H   UNL     1      73.250  45.137   7.669  1.00  0.00     0.211 HD
ENDBRANCH  12  16
BRANCH  14  18
ATOM     18  O   UNL     1      73.698  49.258   8.488  1.00  0.00    -0.387 OA
ATOM     19  H   UNL     1      74.610  49.367   8.869  1.00  0.00     0.211 HD
ENDBRANCH  14  18
BRANCH  15  20
ATOM     20  O   UNL     1      71.313  46.730   9.443  1.00  0.00    -0.385 OA
ATOM     21  H   UNL     1      70.574  47.000  10.055  1.00  0.00     0.211 HD
ENDBRANCH  15  20
ENDBRANCH   8   9
ENDBRANCH   7   8
ENDBRANCH   1   7
BRANCH   2  22
ATOM     22  O   UNL     1      65.829  48.193   7.784  1.00  0.00    -0.387 OA
ATOM     23  H   UNL     1      65.796  47.882   6.843  1.00  0.00     0.211 HD
ENDBRANCH   2  22
BRANCH   3  24
ATOM     24  O   UNL     1      68.662  48.645   9.969  1.00  0.00    -0.387 OA
ATOM     25  H   UNL     1      68.649  48.715  10.959  1.00  0.00     0.211 HD
ENDBRANCH   3  24
BRANCH   5  26
ATOM     26  O   UNL     1      68.799  44.688   9.102  1.00  0.00    -0.454 OA
BRANCH  26  27
ATOM     27  C   UNL     1      69.117  43.587   8.293  1.00  0.00     0.214 A 
ATOM     28  C   UNL     1      68.172  42.583   8.034  1.00  0.00     0.180 A 
ATOM     29  C   UNL     1      70.424  43.433   7.809  1.00  0.00     0.239 A 
ATOM     30  O   UNL     1      68.553  41.460   7.439  1.00  0.00    -0.452 OA
ATOM     31  C   UNL     1      70.813  42.210   7.211  1.00  0.00     0.111 A 
ATOM     32  O   UNL     1      71.221  44.399   7.932  1.00  0.00    -0.285 OA
ATOM     33  C   UNL     1      69.799  41.232   7.040  1.00  0.00     0.146 A 
ATOM     34  C   UNL     1      72.143  41.894   6.797  1.00  0.00     0.134 A 
ATOM     35  C   UNL     1      70.090  40.002   6.444  1.00  0.00     0.094 A 
ATOM     36  C   UNL     1      72.397  40.664   6.183  1.00  0.00     0.093 A 
ATOM     37  C   UNL     1      71.386  39.718   6.014  1.00  0.00     0.123 A 
BRANCH  28  38
ATOM     38  C   UNL     1      66.756  42.720   8.431  1.00  0.00     0.025 A 
ATOM     39  C   UNL     1      65.811  43.161   7.489  1.00  0.00     0.062 A 
ATOM     40  C   UNL     1      66.347  42.471   9.750  1.00  0.00     0.016 A 
ATOM     41  C   UNL     1      64.474  43.364   7.855  1.00  0.00     0.158 A 
ATOM     42  C   UNL     1      65.016  42.667  10.122  1.00  0.00     0.051 A 
ATOM     43  C   UNL     1      64.072  43.114   9.189  1.00  0.00     0.157 A 
BRANCH  41  44
ATOM     44  O   UNL     1      63.585  43.800   6.868  1.00  0.00    -0.504 OA
ATOM     45  H   UNL     1      62.751  44.327   7.061  1.00  0.00     0.293 HD
ENDBRANCH  41  44
BRANCH  43  46
ATOM     46  O   UNL     1      62.759  43.303   9.629  1.00  0.00    -0.504 OA
ATOM     47  H   UNL     1      61.969  43.443   9.014  1.00  0.00     0.293 HD
ENDBRANCH  43  46
ENDBRANCH  28  38
BRANCH  34  48
ATOM     48  O   UNL     1      73.248  42.736   6.984  1.00  0.00    -0.507 OA
ATOM     49  H   UNL     1      73.844  43.083   6.252  1.00  0.00     0.293 HD
ENDBRANCH  34  48
BRANCH  37  50
ATOM     50  O   UNL     1      71.685  38.492   5.421  1.00  0.00    -0.508 OA
ATOM     51  H   UNL     1      71.848  37.657   5.976  1.00  0.00     0.293 HD
ENDBRANCH  37  50
ENDBRANCH  26  27
ENDBRANCH   5  26
BRANCH   4  52
ATOM     52  O   UNL     1      66.145  46.090  10.125  1.00  0.00    -0.384 OA
ATOM     53  H   UNL     1      66.073  45.159   9.791  1.00  0.00     0.211 HD
ENDBRANCH   4  52
TORSDOF 16
ENDMDL
MODEL 6
REMARK VINA RESULT:    -6.283      2.217      6.721
REMARK INTER + INTRA:         -12.922
REMARK INTER:                 -10.047
REMARK INTRA:                  -2.875
REMARK UNBOUND:                -2.598
REMARK SMILES C[C@@H]1O[C@H](OC[C@H]2O[C@@H](Oc3c(-c4ccc(O)c(O)c4)oc4cc(O)cc(O)c4c3=O)[C@H](O)[C@@H](O)[C@@H]2O)[C@@H](O)[C@H](O)[C@H]1O
REMARK SMILES IDX 7 1 36 2 34 3 32 4 9 5 8 6 6 7 5 8 4 9 1 10 2 11 42 12 3 13
REMARK SMILES IDX 40 14 38 15 43 16 41 18 39 20 37 22 35 24 10 26 11 27 12 28
REMARK SMILES IDX 30 29 21 30 29 31 31 32 22 33 27 34 23 35 26 36 24 37 13 38
REMARK SMILES IDX 20 39 14 40 18 41 15 42 16 43 19 44 17 46 28 48 25 50 33 52
REMARK H PARENT 43 17 41 19 39 21 37 23 35 25 19 45 17 47 28 49 25 51 33 53
REMARK Flexibility Score: inf
ROOT
ATOM      1  C   UNL     1      74.408  45.381   6.888  1.00  0.00     0.180 C 
ATOM      2  C   UNL     1      73.868  45.791   5.481  1.00  0.00     0.177 C 
ATOM      3  C   UNL     1      72.517  45.126   5.171  1.00  0.00     0.180 C 
ATOM      4  C   UNL     1      72.542  43.604   5.467  1.00  0.00     0.214 C 
ATOM      5  C   UNL     1      73.431  43.257   6.686  1.00  0.00     0.339 C 
ATOM      6  O   UNL     1      73.607  44.393   7.512  1.00  0.00    -0.332 OA
ENDROOT
BRANCH   1   7
ATOM      7  C   UNL     1      74.475  46.585   7.842  1.00  0.00     0.198 C 
BRANCH   7   8
ATOM      8  O   UNL     1      74.206  47.773   7.119  1.00  0.00    -0.347 OA
BRANCH   8   9
ATOM      9  C   UNL     1      73.100  48.499   7.640  1.00  0.00     0.281 C 
ATOM     10  C   UNL     1      69.901  49.541   6.173  1.00  0.00     0.041 C 
ATOM     11  C   UNL     1      70.985  49.381   7.246  1.00  0.00     0.150 C 
ATOM     12  C   UNL     1      70.370  48.846   8.576  1.00  0.00     0.174 C 
ATOM     13  O   UNL     1      71.987  48.512   6.751  1.00  0.00    -0.344 OA
ATOM     14  C   UNL     1      71.209  47.685   9.162  1.00  0.00     0.179 C 
ATOM     15  C   UNL     1      72.722  47.958   9.044  1.00  0.00     0.202 C 
BRANCH  12  16
ATOM     16  O   UNL     1      70.293  49.901   9.502  1.00  0.00    -0.388 OA
ATOM     17  H   UNL     1      69.464  49.765  10.033  1.00  0.00     0.211 HD
ENDBRANCH  12  16
BRANCH  14  18
ATOM     18  O   UNL     1      70.907  46.493   8.480  1.00  0.00    -0.387 OA
ATOM     19  H   UNL     1      71.046  45.747   9.122  1.00  0.00     0.211 HD
ENDBRANCH  14  18
BRANCH  15  20
ATOM     20  O   UNL     1      73.117  48.885  10.025  1.00  0.00    -0.385 OA
ATOM     21  H   UNL     1      73.724  48.406  10.653  1.00  0.00     0.211 HD
ENDBRANCH  15  20
ENDBRANCH   8   9
ENDBRANCH   7   8
ENDBRANCH   1   7
BRANCH   2  22
ATOM     22  O   UNL     1      74.808  45.409   4.504  1.00  0.00    -0.387 OA
ATOM     23  H   UNL     1      74.910  44.423   4.554  1.00  0.00     0.211 HD
ENDBRANCH   2  22
BRANCH   3  24
ATOM     24  O   UNL     1      71.521  45.748   5.946  1.00  0.00    -0.387 OA
ATOM     25  H   UNL     1      71.256  45.102   6.652  1.00  0.00     0.211 HD
ENDBRANCH   3  24
BRANCH   5  26
ATOM     26  O   UNL     1      72.811  42.207   7.436  1.00  0.00    -0.454 OA
BRANCH  26  27
ATOM     27  C   UNL     1      71.416  42.105   7.555  1.00  0.00     0.214 A 
ATOM     28  C   UNL     1      70.686  41.216   6.752  1.00  0.00     0.180 A 
ATOM     29  C   UNL     1      70.726  42.967   8.419  1.00  0.00     0.239 A 
ATOM     30  O   UNL     1      69.360  41.282   6.738  1.00  0.00    -0.452 OA
ATOM     31  C   UNL     1      69.314  43.043   8.356  1.00  0.00     0.111 A 
ATOM     32  O   UNL     1      71.397  43.660   9.227  1.00  0.00    -0.285 OA
ATOM     33  C   UNL     1      68.664  42.140   7.474  1.00  0.00     0.146 A 
ATOM     34  C   UNL     1      68.515  43.969   9.095  1.00  0.00     0.134 A 
ATOM     35  C   UNL     1      67.271  42.134   7.361  1.00  0.00     0.094 A 
ATOM     36  C   UNL     1      67.123  43.921   8.976  1.00  0.00     0.093 A 
ATOM     37  C   UNL     1      66.501  43.022   8.112  1.00  0.00     0.123 A 
BRANCH  28  38
ATOM     38  C   UNL     1      71.346  40.216   5.889  1.00  0.00     0.025 A 
ATOM     39  C   UNL     1      72.340  39.383   6.428  1.00  0.00     0.062 A 
ATOM     40  C   UNL     1      71.038  40.124   4.523  1.00  0.00     0.016 A 
ATOM     41  C   UNL     1      73.031  38.472   5.617  1.00  0.00     0.158 A 
ATOM     42  C   UNL     1      71.719  39.217   3.709  1.00  0.00     0.051 A 
ATOM     43  C   UNL     1      72.716  38.389   4.240  1.00  0.00     0.157 A 
BRANCH  41  44
ATOM     44  O   UNL     1      74.006  37.670   6.218  1.00  0.00    -0.504 OA
ATOM     45  H   UNL     1      74.344  36.810   5.822  1.00  0.00     0.293 HD
ENDBRANCH  41  44
BRANCH  43  46
ATOM     46  O   UNL     1      73.368  37.513   3.368  1.00  0.00    -0.504 OA
ATOM     47  H   UNL     1      72.997  37.222   2.474  1.00  0.00     0.293 HD
ENDBRANCH  43  46
ENDBRANCH  28  38
BRANCH  34  48
ATOM     48  O   UNL     1      69.036  44.963   9.934  1.00  0.00    -0.507 OA
ATOM     49  H   UNL     1      68.744  45.926   9.944  1.00  0.00     0.293 HD
ENDBRANCH  34  48
BRANCH  37  50
ATOM     50  O   UNL     1      65.110  43.023   8.002  1.00  0.00    -0.508 OA
ATOM     51  H   UNL     1      64.541  42.305   8.437  1.00  0.00     0.293 HD
ENDBRANCH  37  50
ENDBRANCH  26  27
ENDBRANCH   5  26
BRANCH   4  52
ATOM     52  O   UNL     1      72.935  42.867   4.337  1.00  0.00    -0.384 OA
ATOM     53  H   UNL     1      72.550  43.308   3.536  1.00  0.00     0.211 HD
ENDBRANCH   4  52
TORSDOF 16
ENDMDL
MODEL 7
REMARK VINA RESULT:    -6.256      2.217      5.603
REMARK INTER + INTRA:         -12.876
REMARK INTER:                 -10.800
REMARK INTRA:                  -2.077
REMARK UNBOUND:                -2.598
REMARK SMILES C[C@@H]1O[C@H](OC[C@H]2O[C@@H](Oc3c(-c4ccc(O)c(O)c4)oc4cc(O)cc(O)c4c3=O)[C@H](O)[C@@H](O)[C@@H]2O)[C@@H](O)[C@H](O)[C@H]1O
REMARK SMILES IDX 7 1 36 2 34 3 32 4 9 5 8 6 6 7 5 8 4 9 1 10 2 11 42 12 3 13
REMARK SMILES IDX 40 14 38 15 43 16 41 18 39 20 37 22 35 24 10 26 11 27 12 28
REMARK SMILES IDX 30 29 21 30 29 31 31 32 22 33 27 34 23 35 26 36 24 37 13 38
REMARK SMILES IDX 20 39 14 40 18 41 15 42 16 43 19 44 17 46 28 48 25 50 33 52
REMARK H PARENT 43 17 41 19 39 21 37 23 35 25 19 45 17 47 28 49 25 51 33 53
REMARK Flexibility Score: inf
ROOT
ATOM      1  C   UNL     1      72.680  44.918   4.645  1.00  0.00     0.180 C 
ATOM      2  C   UNL     1      73.055  45.946   3.531  1.00  0.00     0.177 C 
ATOM      3  C   UNL     1      73.227  47.365   4.096  1.00  0.00     0.180 C 
ATOM      4  C   UNL     1      72.044  47.767   5.016  1.00  0.00     0.214 C 
ATOM      5  C   UNL     1      71.489  46.565   5.817  1.00  0.00     0.339 C 
ATOM      6  O   UNL     1      72.454  45.534   5.900  1.00  0.00    -0.332 OA
ENDROOT
BRANCH   1   7
ATOM      7  C   UNL     1      73.786  43.868   4.842  1.00  0.00     0.198 C 
BRANCH   7   8
ATOM      8  O   UNL     1      73.305  42.829   5.675  1.00  0.00    -0.347 OA
BRANCH   8   9
ATOM      9  C   UNL     1      72.500  41.888   4.976  1.00  0.00     0.281 C 
ATOM     10  C   UNL     1      73.185  38.535   3.650  1.00  0.00     0.041 C 
ATOM     11  C   UNL     1      72.370  39.793   3.977  1.00  0.00     0.150 C 
ATOM     12  C   UNL     1      71.011  39.413   4.644  1.00  0.00     0.174 C 
ATOM     13  O   UNL     1      73.145  40.629   4.816  1.00  0.00    -0.344 OA
ATOM     14  C   UNL     1      70.734  40.279   5.896  1.00  0.00     0.179 C 
ATOM     15  C   UNL     1      71.116  41.754   5.667  1.00  0.00     0.202 C 
BRANCH  12  16
ATOM     16  O   UNL     1      69.979  39.577   3.705  1.00  0.00    -0.388 OA
ATOM     17  H   UNL     1      69.122  39.411   4.180  1.00  0.00     0.211 HD
ENDBRANCH  12  16
BRANCH  14  18
ATOM     18  O   UNL     1      71.470  39.782   6.986  1.00  0.00    -0.387 OA
ATOM     19  H   UNL     1      72.137  40.478   7.230  1.00  0.00     0.211 HD
ENDBRANCH  14  18
BRANCH  15  20
ATOM     20  O   UNL     1      70.137  42.384   4.878  1.00  0.00    -0.385 OA
ATOM     21  H   UNL     1      69.699  43.072   5.450  1.00  0.00     0.211 HD
ENDBRANCH  15  20
ENDBRANCH   8   9
ENDBRANCH   7   8
ENDBRANCH   1   7
BRANCH   2  22
ATOM     22  O   UNL     1      72.035  45.956   2.559  1.00  0.00    -0.387 OA
ATOM     23  H   UNL     1      71.950  46.885   2.221  1.00  0.00     0.211 HD
ENDBRANCH   2  22
BRANCH   3  24
ATOM     24  O   UNL     1      74.434  47.419   4.818  1.00  0.00    -0.387 OA
ATOM     25  H   UNL     1      74.480  46.595   5.371  1.00  0.00     0.211 HD
ENDBRANCH   3  24
BRANCH   5  26
ATOM     26  O   UNL     1      71.134  47.001   7.134  1.00  0.00    -0.454 OA
BRANCH  26  27
ATOM     27  C   UNL     1      69.995  46.516   7.794  1.00  0.00     0.214 A 
ATOM     28  C   UNL     1      70.075  45.415   8.660  1.00  0.00     0.180 A 
ATOM     29  C   UNL     1      68.739  47.076   7.517  1.00  0.00     0.239 A 
ATOM     30  O   UNL     1      68.961  44.852   9.110  1.00  0.00    -0.452 OA
ATOM     31  C   UNL     1      67.566  46.433   7.980  1.00  0.00     0.111 A 
ATOM     32  O   UNL     1      68.698  48.141   6.850  1.00  0.00    -0.285 OA
ATOM     33  C   UNL     1      67.746  45.293   8.807  1.00  0.00     0.146 A 
ATOM     34  C   UNL     1      66.235  46.838   7.656  1.00  0.00     0.134 A 
ATOM     35  C   UNL     1      66.642  44.607   9.322  1.00  0.00     0.094 A 
ATOM     36  C   UNL     1      65.153  46.144   8.207  1.00  0.00     0.093 A 
ATOM     37  C   UNL     1      65.348  45.032   9.024  1.00  0.00     0.123 A 
BRANCH  28  38
ATOM     38  C   UNL     1      71.369  44.833   9.070  1.00  0.00     0.025 A 
ATOM     39  C   UNL     1      72.430  45.683   9.426  1.00  0.00     0.062 A 
ATOM     40  C   UNL     1      71.575  43.446   9.055  1.00  0.00     0.016 A 
ATOM     41  C   UNL     1      73.688  45.161   9.754  1.00  0.00     0.158 A 
ATOM     42  C   UNL     1      72.824  42.917   9.385  1.00  0.00     0.051 A 
ATOM     43  C   UNL     1      73.887  43.760   9.733  1.00  0.00     0.157 A 
BRANCH  41  44
ATOM     44  O   UNL     1      74.698  46.062  10.103  1.00  0.00    -0.504 OA
ATOM     45  H   UNL     1      75.564  46.153   9.599  1.00  0.00     0.293 HD
ENDBRANCH  41  44
BRANCH  43  46
ATOM     46  O   UNL     1      75.116  43.168  10.039  1.00  0.00    -0.504 OA
ATOM     47  H   UNL     1      75.779  42.850   9.345  1.00  0.00     0.293 HD
ENDBRANCH  43  46
ENDBRANCH  28  38
BRANCH  34  48
ATOM     48  O   UNL     1      65.922  47.893   6.788  1.00  0.00    -0.507 OA
ATOM     49  H   UNL     1      65.938  47.841   5.783  1.00  0.00     0.293 HD
ENDBRANCH  34  48
BRANCH  37  50
ATOM     50  O   UNL     1      64.243  44.350   9.532  1.00  0.00    -0.508 OA
ATOM     51  H   UNL     1      63.346  44.358   9.055  1.00  0.00     0.293 HD
ENDBRANCH  37  50
ENDBRANCH  26  27
ENDBRANCH   5  26
BRANCH   4  52
ATOM     52  O   UNL     1      71.021  48.400   4.290  1.00  0.00    -0.384 OA
ATOM     53  H   UNL     1      70.336  48.712   4.936  1.00  0.00     0.211 HD
ENDBRANCH   4  52
TORSDOF 16
ENDMDL
MODEL 8
REMARK VINA RESULT:    -6.192      1.958      5.444
REMARK INTER + INTRA:         -12.771
REMARK INTER:                  -9.824
REMARK INTRA:                  -2.947
REMARK UNBOUND:                -2.598
REMARK SMILES C[C@@H]1O[C@H](OC[C@H]2O[C@@H](Oc3c(-c4ccc(O)c(O)c4)oc4cc(O)cc(O)c4c3=O)[C@H](O)[C@@H](O)[C@@H]2O)[C@@H](O)[C@H](O)[C@H]1O
REMARK SMILES IDX 7 1 36 2 34 3 32 4 9 5 8 6 6 7 5 8 4 9 1 10 2 11 42 12 3 13
REMARK SMILES IDX 40 14 38 15 43 16 41 18 39 20 37 22 35 24 10 26 11 27 12 28
REMARK SMILES IDX 30 29 21 30 29 31 31 32 22 33 27 34 23 35 26 36 24 37 13 38
REMARK SMILES IDX 20 39 14 40 18 41 15 42 16 43 19 44 17 46 28 48 25 50 33 52
REMARK H PARENT 43 17 41 19 39 21 37 23 35 25 19 45 17 47 28 49 25 51 33 53
REMARK Flexibility Score: inf
ROOT
ATOM      1  C   UNL     1      72.570  45.396   5.535  1.00  0.00     0.180 C 
ATOM      2  C   UNL     1      72.986  46.708   4.796  1.00  0.00     0.177 C 
ATOM      3  C   UNL     1      73.202  47.872   5.776  1.00  0.00     0.180 C 
ATOM      4  C   UNL     1      72.028  48.005   6.782  1.00  0.00     0.214 C 
ATOM      5  C   UNL     1      71.428  46.633   7.169  1.00  0.00     0.339 C 
ATOM      6  O   UNL     1      72.358  45.595   6.921  1.00  0.00    -0.332 OA
ENDROOT
BRANCH   1   7
ATOM      7  C   UNL     1      73.640  44.301   5.387  1.00  0.00     0.198 C 
BRANCH   7   8
ATOM      8  O   UNL     1      73.346  43.236   6.274  1.00  0.00    -0.347 OA
BRANCH   8   9
ATOM      9  C   UNL     1      73.940  42.006   5.877  1.00  0.00     0.281 C 
ATOM     10  C   UNL     1      74.529  38.847   7.651  1.00  0.00     0.041 C 
ATOM     11  C   UNL     1      74.536  39.842   6.483  1.00  0.00     0.150 C 
ATOM     12  C   UNL     1      73.964  39.181   5.191  1.00  0.00     0.174 C 
ATOM     13  O   UNL     1      73.789  40.985   6.858  1.00  0.00    -0.344 OA
ATOM     14  C   UNL     1      72.934  40.102   4.492  1.00  0.00     0.179 C 
ATOM     15  C   UNL     1      73.393  41.574   4.491  1.00  0.00     0.202 C 
BRANCH  12  16
ATOM     16  O   UNL     1      75.025  38.892   4.316  1.00  0.00    -0.388 OA
ATOM     17  H   UNL     1      75.867  39.128   4.788  1.00  0.00     0.211 HD
ENDBRANCH  12  16
BRANCH  14  18
ATOM     18  O   UNL     1      71.696  40.012   5.152  1.00  0.00    -0.387 OA
ATOM     19  H   UNL     1      71.888  39.805   6.106  1.00  0.00     0.211 HD
ENDBRANCH  14  18
BRANCH  15  20
ATOM     20  O   UNL     1      74.389  41.762   3.516  1.00  0.00    -0.385 OA
ATOM     21  H   UNL     1      73.927  42.029   2.674  1.00  0.00     0.211 HD
ENDBRANCH  15  20
ENDBRANCH   8   9
ENDBRANCH   7   8
ENDBRANCH   1   7
BRANCH   2  22
ATOM     22  O   UNL     1      71.972  47.055   3.881  1.00  0.00    -0.387 OA
ATOM     23  H   UNL     1      72.081  48.016   3.662  1.00  0.00     0.211 HD
ENDBRANCH   2  22
BRANCH   3  24
ATOM     24  O   UNL     1      74.406  47.657   6.472  1.00  0.00    -0.387 OA
ATOM     25  H   UNL     1      74.800  48.549   6.656  1.00  0.00     0.211 HD
ENDBRANCH   3  24
BRANCH   5  26
ATOM     26  O   UNL     1      71.081  46.647   8.559  1.00  0.00    -0.454 OA
BRANCH  26  27
ATOM     27  C   UNL     1      69.746  46.640   8.989  1.00  0.00     0.214 A 
ATOM     28  C   UNL     1      68.984  45.462   8.961  1.00  0.00     0.180 A 
ATOM     29  C   UNL     1      69.130  47.842   9.366  1.00  0.00     0.239 A 
ATOM     30  O   UNL     1      67.676  45.522   9.178  1.00  0.00    -0.452 OA
ATOM     31  C   UNL     1      67.728  47.884   9.556  1.00  0.00     0.111 A 
ATOM     32  O   UNL     1      69.855  48.859   9.517  1.00  0.00    -0.285 OA
ATOM     33  C   UNL     1      67.032  46.650   9.454  1.00  0.00     0.146 A 
ATOM     34  C   UNL     1      66.977  49.071   9.817  1.00  0.00     0.134 A 
ATOM     35  C   UNL     1      65.648  46.596   9.644  1.00  0.00     0.094 A 
ATOM     36  C   UNL     1      65.598  48.979  10.025  1.00  0.00     0.093 A 
ATOM     37  C   UNL     1      64.932  47.758   9.930  1.00  0.00     0.123 A 
BRANCH  28  38
ATOM     38  C   UNL     1      69.585  44.146   8.665  1.00  0.00     0.025 A 
ATOM     39  C   UNL     1      69.312  43.519   7.438  1.00  0.00     0.062 A 
ATOM     40  C   UNL     1      70.380  43.485   9.613  1.00  0.00     0.016 A 
ATOM     41  C   UNL     1      69.814  42.241   7.158  1.00  0.00     0.158 A 
ATOM     42  C   UNL     1      70.887  42.213   9.340  1.00  0.00     0.051 A 
ATOM     43  C   UNL     1      70.612  41.580   8.122  1.00  0.00     0.157 A 
BRANCH  41  44
ATOM     44  O   UNL     1      69.506  41.675   5.917  1.00  0.00    -0.504 OA
ATOM     45  H   UNL     1      68.906  40.877   5.800  1.00  0.00     0.293 HD
ENDBRANCH  41  44
BRANCH  43  46
ATOM     46  O   UNL     1      71.138  40.302   7.918  1.00  0.00    -0.504 OA
ATOM     47  H   UNL     1      72.127  40.092   7.903  1.00  0.00     0.293 HD
ENDBRANCH  43  46
ENDBRANCH  28  38
BRANCH  34  48
ATOM     48  O   UNL     1      67.530  50.358   9.860  1.00  0.00    -0.507 OA
ATOM     49  H   UNL     1      68.085  50.776   9.134  1.00  0.00     0.293 HD
ENDBRANCH  34  48
BRANCH  37  50
ATOM     50  O   UNL     1      63.551  47.711  10.117  1.00  0.00    -0.508 OA
ATOM     51  H   UNL     1      63.087  48.296  10.805  1.00  0.00     0.293 HD
ENDBRANCH  37  50
ENDBRANCH  26  27
ENDBRANCH   5  26
BRANCH   4  52
ATOM     52  O   UNL     1      71.031  48.867   6.295  1.00  0.00    -0.384 OA
ATOM     53  H   UNL     1      70.166  48.590   6.694  1.00  0.00     0.211 HD
ENDBRANCH   4  52
TORSDOF 16
ENDMDL
MODEL 9
REMARK VINA RESULT:    -6.068      2.710      6.969
REMARK INTER + INTRA:         -12.568
REMARK INTER:                 -10.209
REMARK INTRA:                  -2.360
REMARK UNBOUND:                -2.598
REMARK SMILES C[C@@H]1O[C@H](OC[C@H]2O[C@@H](Oc3c(-c4ccc(O)c(O)c4)oc4cc(O)cc(O)c4c3=O)[C@H](O)[C@@H](O)[C@@H]2O)[C@@H](O)[C@H](O)[C@H]1O
REMARK SMILES IDX 7 1 36 2 34 3 32 4 9 5 8 6 6 7 5 8 4 9 1 10 2 11 42 12 3 13
REMARK SMILES IDX 40 14 38 15 43 16 41 18 39 20 37 22 35 24 10 26 11 27 12 28
REMARK SMILES IDX 30 29 21 30 29 31 31 32 22 33 27 34 23 35 26 36 24 37 13 38
REMARK SMILES IDX 20 39 14 40 18 41 15 42 16 43 19 44 17 46 28 48 25 50 33 52
REMARK H PARENT 43 17 41 19 39 21 37 23 35 25 19 45 17 47 28 49 25 51 33 53
REMARK Flexibility Score: inf
ROOT
ATOM      1  C   UNL     1      67.877  46.942   9.393  1.00  0.00     0.180 C 
ATOM      2  C   UNL     1      67.890  48.309   8.637  1.00  0.00     0.177 C 
ATOM      3  C   UNL     1      68.093  48.124   7.125  1.00  0.00     0.180 C 
ATOM      4  C   UNL     1      69.276  47.169   6.814  1.00  0.00     0.214 C 
ATOM      5  C   UNL     1      69.407  46.037   7.862  1.00  0.00     0.339 C 
ATOM      6  O   UNL     1      68.183  45.849   8.546  1.00  0.00    -0.332 OA
ENDROOT
BRANCH   1   7
ATOM      7  C   UNL     1      66.506  46.660  10.029  1.00  0.00     0.198 C 
BRANCH   7   8
ATOM      8  O   UNL     1      65.582  46.308   9.015  1.00  0.00    -0.347 OA
BRANCH   8   9
ATOM      9  C   UNL     1      64.824  45.149   9.335  1.00  0.00     0.281 C 
ATOM     10  C   UNL     1      61.218  44.462   9.336  1.00  0.00     0.041 C 
ATOM     11  C   UNL     1      62.717  44.180   9.504  1.00  0.00     0.150 C 
ATOM     12  C   UNL     1      63.117  42.865   8.766  1.00  0.00     0.174 C 
ATOM     13  O   UNL     1      63.443  45.292   9.015  1.00  0.00    -0.344 OA
ATOM     14  C   UNL     1      64.399  43.058   7.920  1.00  0.00     0.179 C 
ATOM     15  C   UNL     1      65.454  43.899   8.666  1.00  0.00     0.202 C 
BRANCH  12  16
ATOM     16  O   UNL     1      63.314  41.849   9.717  1.00  0.00    -0.388 OA
ATOM     17  H   UNL     1      64.296  41.714   9.802  1.00  0.00     0.211 HD
ENDBRANCH  12  16
BRANCH  14  18
ATOM     18  O   UNL     1      64.075  43.700   6.712  1.00  0.00    -0.387 OA
ATOM     19  H   UNL     1      64.777  44.385   6.549  1.00  0.00     0.211 HD
ENDBRANCH  14  18
BRANCH  15  20
ATOM     20  O   UNL     1      66.086  43.112   9.645  1.00  0.00    -0.385 OA
ATOM     21  H   UNL     1      65.652  42.215   9.625  1.00  0.00     0.211 HD
ENDBRANCH  15  20
ENDBRANCH   8   9
ENDBRANCH   7   8
ENDBRANCH   1   7
BRANCH   2  22
ATOM     22  O   UNL     1      68.934  49.103   9.151  1.00  0.00    -0.387 OA
ATOM     23  H   UNL     1      69.450  48.546   9.789  1.00  0.00     0.211 HD
ENDBRANCH   2  22
BRANCH   3  24
ATOM     24  O   UNL     1      66.906  47.611   6.570  1.00  0.00    -0.387 OA
ATOM     25  H   UNL     1      66.175  47.807   7.213  1.00  0.00     0.211 HD
ENDBRANCH   3  24
BRANCH   5  26
ATOM     26  O   UNL     1      69.780  44.824   7.198  1.00  0.00    -0.454 OA
BRANCH  26  27
ATOM     27  C   UNL     1      70.672  43.908   7.776  1.00  0.00     0.214 A 
ATOM     28  C   UNL     1      72.039  43.932   7.461  1.00  0.00     0.180 A 
ATOM     29  C   UNL     1      70.183  42.891   8.609  1.00  0.00     0.239 A 
ATOM     30  O   UNL     1      72.822  42.937   7.858  1.00  0.00    -0.452 OA
ATOM     31  C   UNL     1      71.031  41.823   8.987  1.00  0.00     0.111 A 
ATOM     32  O   UNL     1      68.986  42.960   8.990  1.00  0.00    -0.285 OA
ATOM     33  C   UNL     1      72.387  41.907   8.576  1.00  0.00     0.146 A 
ATOM     34  C   UNL     1      70.612  40.673   9.725  1.00  0.00     0.134 A 
ATOM     35  C   UNL     1      73.299  40.905   8.919  1.00  0.00     0.094 A 
ATOM     36  C   UNL     1      71.554  39.700  10.072  1.00  0.00     0.093 A 
ATOM     37  C   UNL     1      72.884  39.804   9.667  1.00  0.00     0.123 A 
BRANCH  28  38
ATOM     38  C   UNL     1      72.641  45.023   6.668  1.00  0.00     0.025 A 
ATOM     39  C   UNL     1      72.637  44.945   5.265  1.00  0.00     0.062 A 
ATOM     40  C   UNL     1      73.268  46.110   7.294  1.00  0.00     0.016 A 
ATOM     41  C   UNL     1      73.260  45.931   4.490  1.00  0.00     0.158 A 
ATOM     42  C   UNL     1      73.887  47.100   6.529  1.00  0.00     0.051 A 
ATOM     43  C   UNL     1      73.893  47.023   5.131  1.00  0.00     0.157 A 
BRANCH  41  44
ATOM     44  O   UNL     1      73.217  45.794   3.099  1.00  0.00    -0.504 OA
ATOM     45  H   UNL     1      73.929  46.142   2.481  1.00  0.00     0.293 HD
ENDBRANCH  41  44
BRANCH  43  46
ATOM     46  O   UNL     1      74.543  48.039   4.424  1.00  0.00    -0.504 OA
ATOM     47  H   UNL     1      75.204  48.683   4.837  1.00  0.00     0.293 HD
ENDBRANCH  43  46
ENDBRANCH  28  38
BRANCH  34  48
ATOM     48  O   UNL     1      69.290  40.429  10.118  1.00  0.00    -0.507 OA
ATOM     49  H   UNL     1      68.982  40.290  11.066  1.00  0.00     0.293 HD
ENDBRANCH  34  48
BRANCH  37  50
ATOM     50  O   UNL     1      73.788  38.798  10.010  1.00  0.00    -0.508 OA
ATOM     51  H   UNL     1      74.536  38.960  10.677  1.00  0.00     0.293 HD
ENDBRANCH  37  50
ENDBRANCH  26  27
ENDBRANCH   5  26
BRANCH   4  52
ATOM     52  O   UNL     1      70.485  47.873   6.685  1.00  0.00    -0.384 OA
ATOM     53  H   UNL     1      70.328  48.638   6.073  1.00  0.00     0.211 HD
ENDBRANCH   4  52
TORSDOF 16
ENDMDL
