MODEL 1
REMARK VINA RESULT:    -2.940      0.000      0.000
REMARK INTER + INTRA:          -6.132
REMARK INTER:                  -5.003
REMARK INTRA:                  -1.130
REMARK UNBOUND:                -1.130
REMARK SMILES CCCCCCCCCCCCCC(=O)[O-]
REMARK SMILES IDX 8 1 9 2 10 3 11 4 12 5 13 6 14 7 15 8 16 9 7 10 6 11 5 12
REMARK SMILES IDX 4 13 3 14 2 15 1 16
REMARK H PARENT
REMARK Flexibility Score: inf
ROOT
ATOM      1  C   UNL     1      -7.190 -23.077  19.526  1.00  0.00     0.000 C 
ENDROOT
BRANCH   1   2
ATOM      2  C   UNL     1      -8.535 -22.716  18.870  1.00  0.00     0.000 C 
BRANCH   2   3
ATOM      3  C   UNL     1      -8.728 -21.221  18.541  1.00  0.00     0.000 C 
BRANCH   3   4
ATOM      4  C   UNL     1     -10.161 -20.686  18.727  1.00  0.00     0.000 C 
BRANCH   4   5
ATOM      5  C   UNL     1     -11.097 -20.880  17.518  1.00  0.00     0.006 C 
BRANCH   5   6
ATOM      6  C   UNL     1     -10.976 -19.775  16.452  1.00  0.00     0.053 C 
BRANCH   6   7
ATOM      7  C   UNL     1     -10.361 -20.272  15.179  1.00  0.00     0.041 C 
ATOM      8  O   UNL     1      -9.143 -20.589  15.143  1.00  0.00    -0.550 OA
ATOM      9  O   UNL     1     -11.125 -20.351  14.021  1.00  0.00    -0.550 OA
ENDBRANCH   6   7
ENDBRANCH   5   6
ENDBRANCH   4   5
ENDBRANCH   3   4
ENDBRANCH   2   3
ENDBRANCH   1   2
BRANCH   1  10
ATOM     10  C   UNL     1      -7.266 -23.120  21.062  1.00  0.00     0.000 C 
BRANCH  10  11
ATOM     11  C   UNL     1      -8.676 -22.815  21.601  1.00  0.00    -0.000 C 
BRANCH  11  12
ATOM     12  C   UNL     1      -8.726 -21.863  22.810  1.00  0.00    -0.000 C 
BRANCH  12  13
ATOM     13  C   UNL     1     -10.149 -21.392  23.145  1.00  0.00    -0.000 C 
BRANCH  13  14
ATOM     14  C   UNL     1     -10.573 -20.232  22.232  1.00  0.00    -0.000 C 
BRANCH  14  15
ATOM     15  C   UNL     1      -9.659 -19.005  22.373  1.00  0.00    -0.003 C 
ATOM     16  C   UNL     1      -9.838 -17.999  21.235  1.00  0.00     0.004 C 
ENDBRANCH  14  15
ENDBRANCH  13  14
ENDBRANCH  12  13
ENDBRANCH  11  12
ENDBRANCH  10  11
ENDBRANCH   1  10
TORSDOF 12
ENDMDL
MODEL 2
REMARK VINA RESULT:    -2.773      1.052      1.852
REMARK INTER + INTRA:          -5.848
REMARK INTER:                  -4.960
REMARK INTRA:                  -0.888
REMARK UNBOUND:                -1.130
REMARK SMILES CCCCCCCCCCCCCC(=O)[O-]
REMARK SMILES IDX 8 1 9 2 10 3 11 4 12 5 13 6 14 7 15 8 16 9 7 10 6 11 5 12
REMARK SMILES IDX 4 13 3 14 2 15 1 16
REMARK H PARENT
REMARK Flexibility Score: inf
ROOT
ATOM      1  C   UNL     1      -8.290 -23.112  21.432  1.00  0.00     0.000 C 
ENDROOT
BRANCH   1   2
ATOM      2  C   UNL     1      -9.401 -23.069  20.367  1.00  0.00     0.000 C 
BRANCH   2   3
ATOM      3  C   UNL     1      -9.342 -21.868  19.401  1.00  0.00     0.000 C 
BRANCH   3   4
ATOM      4  C   UNL     1      -9.145 -22.227  17.916  1.00  0.00     0.000 C 
BRANCH   4   5
ATOM      5  C   UNL     1     -10.348 -21.927  17.001  1.00  0.00     0.006 C 
BRANCH   5   6
ATOM      6  C   UNL     1     -10.403 -20.472  16.501  1.00  0.00     0.053 C 
BRANCH   6   7
ATOM      7  C   UNL     1     -10.058 -20.350  15.047  1.00  0.00     0.041 C 
ATOM      8  O   UNL     1     -10.966 -20.185  14.192  1.00  0.00    -0.550 OA
ATOM      9  O   UNL     1      -8.736 -20.454  14.634  1.00  0.00    -0.550 OA
ENDBRANCH   6   7
ENDBRANCH   5   6
ENDBRANCH   4   5
ENDBRANCH   3   4
ENDBRANCH   2   3
ENDBRANCH   1   2
BRANCH   1  10
ATOM     10  C   UNL     1      -8.766 -22.625  22.812  1.00  0.00     0.000 C 
BRANCH  10  11
ATOM     11  C   UNL     1     -10.237 -22.169  22.812  1.00  0.00    -0.000 C 
BRANCH  11  12
ATOM     12  C   UNL     1     -10.458 -20.661  23.028  1.00  0.00    -0.000 C 
BRANCH  12  13
ATOM     13  C   UNL     1      -9.290 -19.803  22.520  1.00  0.00    -0.000 C 
BRANCH  13  14
ATOM     14  C   UNL     1      -9.673 -18.315  22.488  1.00  0.00    -0.000 C 
BRANCH  14  15
ATOM     15  C   UNL     1      -9.651 -17.731  21.067  1.00  0.00    -0.003 C 
ATOM     16  C   UNL     1     -10.220 -18.692  20.022  1.00  0.00     0.004 C 
ENDBRANCH  14  15
ENDBRANCH  13  14
ENDBRANCH  12  13
ENDBRANCH  11  12
ENDBRANCH  10  11
ENDBRANCH   1  10
TORSDOF 12
ENDMDL
MODEL 3
REMARK VINA RESULT:    -2.670      2.250      3.266
REMARK INTER + INTRA:          -5.672
REMARK INTER:                  -4.730
REMARK INTRA:                  -0.942
REMARK UNBOUND:                -1.130
REMARK SMILES CCCCCCCCCCCCCC(=O)[O-]
REMARK SMILES IDX 8 1 9 2 10 3 11 4 12 5 13 6 14 7 15 8 16 9 7 10 6 11 5 12
REMARK SMILES IDX 4 13 3 14 2 15 1 16
REMARK H PARENT
REMARK Flexibility Score: inf
ROOT
ATOM      1  C   UNL     1      -8.900 -22.582  21.336  1.00  0.00     0.000 C 
ENDROOT
BRANCH   1   2
ATOM      2  C   UNL     1     -10.001 -23.069  20.376  1.00  0.00     0.000 C 
BRANCH   2   3
ATOM      3  C   UNL     1     -10.310 -22.126  19.195  1.00  0.00     0.000 C 
BRANCH   3   4
ATOM      4  C   UNL     1      -9.097 -21.373  18.618  1.00  0.00     0.000 C 
BRANCH   4   5
ATOM      5  C   UNL     1      -8.548 -21.930  17.290  1.00  0.00     0.006 C 
BRANCH   5   6
ATOM      6  C   UNL     1      -7.360 -22.893  17.461  1.00  0.00     0.053 C 
BRANCH   6   7
ATOM      7  C   UNL     1      -6.137 -22.433  16.726  1.00  0.00     0.041 C 
ATOM      8  O   UNL     1      -6.195 -21.438  15.958  1.00  0.00    -0.550 OA
ATOM      9  O   UNL     1      -4.940 -23.124  16.865  1.00  0.00    -0.550 OA
ENDBRANCH   6   7
ENDBRANCH   5   6
ENDBRANCH   4   5
ENDBRANCH   3   4
ENDBRANCH   2   3
ENDBRANCH   1   2
BRANCH   1  10
ATOM     10  C   UNL     1      -9.304 -22.696  22.815  1.00  0.00     0.000 C 
BRANCH  10  11
ATOM     11  C   UNL     1     -10.757 -22.258  23.076  1.00  0.00    -0.000 C 
BRANCH  11  12
ATOM     12  C   UNL     1     -11.007 -20.740  23.024  1.00  0.00    -0.000 C 
BRANCH  12  13
ATOM     13  C   UNL     1      -9.791 -19.947  22.524  1.00  0.00    -0.000 C 
BRANCH  13  14
ATOM     14  C   UNL     1     -10.197 -18.527  22.101  1.00  0.00    -0.000 C 
BRANCH  14  15
ATOM     15  C   UNL     1      -9.831 -18.219  20.641  1.00  0.00    -0.003 C 
ATOM     16  C   UNL     1     -11.054 -18.141  19.727  1.00  0.00     0.004 C 
ENDBRANCH  14  15
ENDBRANCH  13  14
ENDBRANCH  12  13
ENDBRANCH  11  12
ENDBRANCH  10  11
ENDBRANCH   1  10
TORSDOF 12
ENDMDL
MODEL 4
REMARK VINA RESULT:    -2.407      2.962      6.420
REMARK INTER + INTRA:          -5.225
REMARK INTER:                  -4.388
REMARK INTRA:                  -0.837
REMARK UNBOUND:                -1.130
REMARK SMILES CCCCCCCCCCCCCC(=O)[O-]
REMARK SMILES IDX 8 1 9 2 10 3 11 4 12 5 13 6 14 7 15 8 16 9 7 10 6 11 5 12
REMARK SMILES IDX 4 13 3 14 2 15 1 16
REMARK H PARENT
REMARK Flexibility Score: inf
ROOT
ATOM      1  C   UNL     1     -10.692 -20.707  18.293  1.00  0.00     0.000 C 
ENDROOT
BRANCH   1   2
ATOM      2  C   UNL     1     -10.609 -22.006  19.115  1.00  0.00     0.000 C 
BRANCH   2   3
ATOM      3  C   UNL     1      -9.489 -22.046  20.175  1.00  0.00     0.000 C 
BRANCH   3   4
ATOM      4  C   UNL     1      -9.902 -21.589  21.587  1.00  0.00     0.000 C 
BRANCH   4   5
ATOM      5  C   UNL     1     -10.838 -20.365  21.634  1.00  0.00     0.006 C 
BRANCH   5   6
ATOM      6  C   UNL     1     -10.429 -19.308  22.675  1.00  0.00     0.053 C 
BRANCH   6   7
ATOM      7  C   UNL     1      -9.620 -18.196  22.077  1.00  0.00     0.041 C 
ATOM      8  O   UNL     1      -8.847 -17.514  22.799  1.00  0.00    -0.550 OA
ATOM      9  O   UNL     1      -9.746 -17.892  20.728  1.00  0.00    -0.550 OA
ENDBRANCH   6   7
ENDBRANCH   5   6
ENDBRANCH   4   5
ENDBRANCH   3   4
ENDBRANCH   2   3
ENDBRANCH   1   2
BRANCH   1  10
ATOM     10  C   UNL     1     -11.111 -20.949  16.833  1.00  0.00     0.000 C 
BRANCH  10  11
ATOM     11  C   UNL     1     -10.769 -19.767  15.907  1.00  0.00    -0.000 C 
BRANCH  11  12
ATOM     12  C   UNL     1     -10.578 -20.128  14.423  1.00  0.00    -0.000 C 
BRANCH  12  13
ATOM     13  C   UNL     1      -9.240 -20.827  14.141  1.00  0.00    -0.000 C 
BRANCH  13  14
ATOM     14  C   UNL     1      -8.234 -20.565  15.271  1.00  0.00    -0.000 C 
BRANCH  14  15
ATOM     15  C   UNL     1      -7.474 -21.833  15.692  1.00  0.00    -0.003 C 
ATOM     16  C   UNL     1      -7.240 -21.910  17.201  1.00  0.00     0.004 C 
ENDBRANCH  14  15
ENDBRANCH  13  14
ENDBRANCH  12  13
ENDBRANCH  11  12
ENDBRANCH  10  11
ENDBRANCH   1  10
TORSDOF 12
ENDMDL
MODEL 5
REMARK VINA RESULT:    -2.366      2.862      5.688
REMARK INTER + INTRA:          -5.155
REMARK INTER:                  -4.101
REMARK INTRA:                  -1.054
REMARK UNBOUND:                -1.130
REMARK SMILES CCCCCCCCCCCCCC(=O)[O-]
REMARK SMILES IDX 8 1 9 2 10 3 11 4 12 5 13 6 14 7 15 8 16 9 7 10 6 11 5 12
REMARK SMILES IDX 4 13 3 14 2 15 1 16
REMARK H PARENT
REMARK Flexibility Score: inf
ROOT
ATOM      1  C   UNL     1      -6.354 -22.323  17.985  1.00  0.00     0.000 C 
ENDROOT
BRANCH   1   2
ATOM      2  C   UNL     1      -7.709 -23.018  18.210  1.00  0.00     0.000 C 
BRANCH   2   3
ATOM      3  C   UNL     1      -8.465 -22.594  19.487  1.00  0.00     0.000 C 
BRANCH   3   4
ATOM      4  C   UNL     1      -9.809 -21.880  19.249  1.00  0.00     0.000 C 
BRANCH   4   5
ATOM      5  C   UNL     1      -9.755 -20.341  19.309  1.00  0.00     0.006 C 
BRANCH   5   6
ATOM      6  C   UNL     1     -10.269 -19.750  20.634  1.00  0.00     0.053 C 
BRANCH   6   7
ATOM      7  C   UNL     1     -10.274 -18.251  20.630  1.00  0.00     0.041 C 
ATOM      8  O   UNL     1     -11.008 -17.620  19.825  1.00  0.00    -0.550 OA
ATOM      9  O   UNL     1      -9.442 -17.550  21.494  1.00  0.00    -0.550 OA
ENDBRANCH   6   7
ENDBRANCH   5   6
ENDBRANCH   4   5
ENDBRANCH   3   4
ENDBRANCH   2   3
ENDBRANCH   1   2
BRANCH   1  10
ATOM     10  C   UNL     1      -6.064 -22.046  16.501  1.00  0.00     0.000 C 
BRANCH  10  11
ATOM     11  C   UNL     1      -7.329 -22.087  15.624  1.00  0.00    -0.000 C 
BRANCH  11  12
ATOM     12  C   UNL     1      -7.855 -20.716  15.162  1.00  0.00    -0.000 C 
BRANCH  12  13
ATOM     13  C   UNL     1      -9.034 -20.822  14.184  1.00  0.00    -0.000 C 
BRANCH  13  14
ATOM     14  C   UNL     1     -10.085 -19.739  14.470  1.00  0.00    -0.000 C 
BRANCH  14  15
ATOM     15  C   UNL     1     -10.818 -19.964  15.802  1.00  0.00    -0.003 C 
ATOM     16  C   UNL     1     -11.119 -21.439  16.070  1.00  0.00     0.004 C 
ENDBRANCH  14  15
ENDBRANCH  13  14
ENDBRANCH  12  13
ENDBRANCH  11  12
ENDBRANCH  10  11
ENDBRANCH   1  10
TORSDOF 12
ENDMDL
MODEL 6
REMARK VINA RESULT:    -1.865      3.398      6.473
REMARK INTER + INTRA:          -4.303
REMARK INTER:                  -3.583
REMARK INTRA:                  -0.720
REMARK UNBOUND:                -1.130
REMARK SMILES CCCCCCCCCCCCCC(=O)[O-]
REMARK SMILES IDX 8 1 9 2 10 3 11 4 12 5 13 6 14 7 15 8 16 9 7 10 6 11 5 12
REMARK SMILES IDX 4 13 3 14 2 15 1 16
REMARK H PARENT
REMARK Flexibility Score: inf
ROOT
ATOM      1  C   UNL     1     -11.123 -21.642  16.783  1.00  0.00     0.000 C 
ENDROOT
BRANCH   1   2
ATOM      2  C   UNL     1     -11.112 -21.965  18.288  1.00  0.00     0.000 C 
BRANCH   2   3
ATOM      3  C   UNL     1      -9.910 -21.403  19.075  1.00  0.00     0.000 C 
BRANCH   3   4
ATOM      4  C   UNL     1     -10.049 -19.939  19.533  1.00  0.00     0.000 C 
BRANCH   4   5
ATOM      5  C   UNL     1     -10.947 -19.718  20.766  1.00  0.00     0.006 C 
BRANCH   5   6
ATOM      6  C   UNL     1     -10.169 -19.568  22.085  1.00  0.00     0.053 C 
BRANCH   6   7
ATOM      7  C   UNL     1      -9.820 -20.890  22.700  1.00  0.00     0.041 C 
ATOM      8  O   UNL     1      -8.659 -21.101  23.136  1.00  0.00    -0.550 OA
ATOM      9  O   UNL     1     -10.769 -21.902  22.759  1.00  0.00    -0.550 OA
ENDBRANCH   6   7
ENDBRANCH   5   6
ENDBRANCH   4   5
ENDBRANCH   3   4
ENDBRANCH   2   3
ENDBRANCH   1   2
BRANCH   1  10
ATOM     10  C   UNL     1     -10.711 -20.192  16.480  1.00  0.00     0.000 C 
BRANCH  10  11
ATOM     11  C   UNL     1     -10.238 -19.994  15.028  1.00  0.00    -0.000 C 
BRANCH  11  12
ATOM     12  C   UNL     1      -9.068 -20.893  14.588  1.00  0.00    -0.000 C 
BRANCH  12  13
ATOM     13  C   UNL     1      -7.885 -20.862  15.566  1.00  0.00    -0.000 C 
BRANCH  13  14
ATOM     14  C   UNL     1      -7.701 -22.225  16.250  1.00  0.00    -0.000 C 
BRANCH  14  15
ATOM     15  C   UNL     1      -6.292 -22.406  16.836  1.00  0.00    -0.003 C 
ATOM     16  C   UNL     1      -5.218 -21.669  16.035  1.00  0.00     0.004 C 
ENDBRANCH  14  15
ENDBRANCH  13  14
ENDBRANCH  12  13
ENDBRANCH  11  12
ENDBRANCH  10  11
ENDBRANCH   1  10
TORSDOF 12
ENDMDL
