MODEL 1
REMARK VINA RESULT:    -5.050      0.000      0.000
REMARK INTER + INTRA:         -14.870
REMARK INTER:                 -11.544
REMARK INTRA:                  -3.325
REMARK UNBOUND:                -3.325
REMARK SMILES CCCCCCCCCCCCCCCCCCCCCCCC(=O)[O-]
REMARK SMILES IDX 13 1 14 2 15 3 16 4 17 5 18 6 19 7 20 8 21 9 22 10 23 11
REMARK SMILES IDX 24 12 25 13 26 14 12 15 11 16 10 17 9 18 8 19 7 20 6 21 5 22
REMARK SMILES IDX 4 23 3 24 2 25 1 26
REMARK H PARENT
REMARK Flexibility Score: inf
ROOT
ATOM      1  C   UNL     1      13.144  15.727  67.017  1.00  0.00     0.000 C 
ENDROOT
BRANCH   1   2
ATOM      2  C   UNL     1      11.906  16.642  67.035  1.00  0.00     0.000 C 
BRANCH   2   3
ATOM      3  C   UNL     1      10.660  15.941  67.601  1.00  0.00     0.000 C 
BRANCH   3   4
ATOM      4  C   UNL     1       9.904  16.816  68.615  1.00  0.00     0.000 C 
BRANCH   4   5
ATOM      5  C   UNL     1      10.511  18.222  68.747  1.00  0.00     0.000 C 
BRANCH   5   6
ATOM      6  C   UNL     1       9.990  18.978  69.982  1.00  0.00     0.000 C 
BRANCH   6   7
ATOM      7  C   UNL     1       9.215  18.067  70.951  1.00  0.00     0.000 C 
BRANCH   7   8
ATOM      8  C   UNL     1       8.676  18.776  72.211  1.00  0.00     0.000 C 
BRANCH   8   9
ATOM      9  C   UNL     1       7.171  18.579  72.482  1.00  0.00     0.000 C 
BRANCH   9  10
ATOM     10  C   UNL     1       6.800  18.373  73.962  1.00  0.00     0.006 C 
BRANCH  10  11
ATOM     11  C   UNL     1       6.284  16.957  74.256  1.00  0.00     0.053 C 
BRANCH  11  12
ATOM     12  C   UNL     1       7.202  16.235  75.194  1.00  0.00     0.041 C 
ATOM     13  O   UNL     1       6.854  16.024  76.387  1.00  0.00    -0.550 OA
ATOM     14  O   UNL     1       8.457  15.823  74.761  1.00  0.00    -0.550 OA
ENDBRANCH  11  12
ENDBRANCH  10  11
ENDBRANCH   9  10
ENDBRANCH   8   9
ENDBRANCH   7   8
ENDBRANCH   6   7
ENDBRANCH   5   6
ENDBRANCH   4   5
ENDBRANCH   3   4
ENDBRANCH   2   3
ENDBRANCH   1   2
BRANCH   1  15
ATOM     15  C   UNL     1      13.280  14.879  68.295  1.00  0.00     0.000 C 
BRANCH  15  16
ATOM     16  C   UNL     1      14.607  15.060  69.056  1.00  0.00     0.000 C 
BRANCH  16  17
ATOM     17  C   UNL     1      14.407  15.490  70.517  1.00  0.00     0.000 C 
BRANCH  17  18
ATOM     18  C   UNL     1      13.677  16.839  70.595  1.00  0.00    -0.000 C 
BRANCH  18  19
ATOM     19  C   UNL     1      12.394  16.779  71.443  1.00  0.00    -0.000 C 
BRANCH  19  20
ATOM     20  C   UNL     1      12.297  15.570  72.390  1.00  0.00    -0.000 C 
BRANCH  20  21
ATOM     21  C   UNL     1      11.070  14.689  72.114  1.00  0.00    -0.000 C 
BRANCH  21  22
ATOM     22  C   UNL     1      11.431  13.517  71.189  1.00  0.00    -0.000 C 
BRANCH  22  23
ATOM     23  C   UNL     1      10.530  13.444  69.946  1.00  0.00    -0.000 C 
BRANCH  23  24
ATOM     24  C   UNL     1      11.023  12.413  68.916  1.00  0.00    -0.000 C 
BRANCH  24  25
ATOM     25  C   UNL     1       9.887  11.864  68.041  1.00  0.00    -0.003 C 
ATOM     26  C   UNL     1       9.359  10.517  68.535  1.00  0.00     0.004 C 
ENDBRANCH  24  25
ENDBRANCH  23  24
ENDBRANCH  22  23
ENDBRANCH  21  22
ENDBRANCH  20  21
ENDBRANCH  19  20
ENDBRANCH  18  19
ENDBRANCH  17  18
ENDBRANCH  16  17
ENDBRANCH  15  16
ENDBRANCH   1  15
TORSDOF 22
ENDMDL
MODEL 2
REMARK VINA RESULT:    -5.020      1.040      2.843
REMARK INTER + INTRA:         -14.802
REMARK INTER:                 -11.349
REMARK INTRA:                  -3.453
REMARK UNBOUND:                -3.325
REMARK SMILES CCCCCCCCCCCCCCCCCCCCCCCC(=O)[O-]
REMARK SMILES IDX 13 1 14 2 15 3 16 4 17 5 18 6 19 7 20 8 21 9 22 10 23 11
REMARK SMILES IDX 24 12 25 13 26 14 12 15 11 16 10 17 9 18 8 19 7 20 6 21 5 22
REMARK SMILES IDX 4 23 3 24 2 25 1 26
REMARK H PARENT
REMARK Flexibility Score: inf
ROOT
ATOM      1  C   UNL     1      12.512  13.795  70.578  1.00  0.00     0.000 C 
ENDROOT
BRANCH   1   2
ATOM      2  C   UNL     1      11.452  14.064  71.661  1.00  0.00     0.000 C 
BRANCH   2   3
ATOM      3  C   UNL     1      11.700  15.377  72.420  1.00  0.00     0.000 C 
BRANCH   3   4
ATOM      4  C   UNL     1      10.593  16.417  72.172  1.00  0.00     0.000 C 
BRANCH   4   5
ATOM      5  C   UNL     1      10.980  17.443  71.096  1.00  0.00     0.000 C 
BRANCH   5   6
ATOM      6  C   UNL     1       9.812  18.365  70.711  1.00  0.00     0.000 C 
BRANCH   6   7
ATOM      7  C   UNL     1       8.490  17.965  71.391  1.00  0.00     0.000 C 
BRANCH   7   8
ATOM      8  C   UNL     1       7.926  19.011  72.374  1.00  0.00     0.000 C 
BRANCH   8   9
ATOM      9  C   UNL     1       6.490  18.743  72.866  1.00  0.00     0.000 C 
BRANCH   9  10
ATOM     10  C   UNL     1       6.052  17.268  72.819  1.00  0.00     0.006 C 
BRANCH  10  11
ATOM     11  C   UNL     1       5.660  16.717  74.197  1.00  0.00     0.053 C 
BRANCH  11  12
ATOM     12  C   UNL     1       6.875  16.429  75.026  1.00  0.00     0.041 C 
ATOM     13  O   UNL     1       7.983  16.199  74.471  1.00  0.00    -0.550 OA
ATOM     14  O   UNL     1       6.777  16.381  76.412  1.00  0.00    -0.550 OA
ENDBRANCH  11  12
ENDBRANCH  10  11
ENDBRANCH   9  10
ENDBRANCH   8   9
ENDBRANCH   7   8
ENDBRANCH   6   7
ENDBRANCH   5   6
ENDBRANCH   4   5
ENDBRANCH   3   4
ENDBRANCH   2   3
ENDBRANCH   1   2
BRANCH   1  15
ATOM     15  C   UNL     1      13.707  14.763  70.659  1.00  0.00     0.000 C 
BRANCH  15  16
ATOM     16  C   UNL     1      13.884  15.681  69.434  1.00  0.00     0.000 C 
BRANCH  16  17
ATOM     17  C   UNL     1      13.555  14.981  68.107  1.00  0.00     0.000 C 
BRANCH  17  18
ATOM     18  C   UNL     1      12.770  15.916  67.175  1.00  0.00    -0.000 C 
BRANCH  18  19
ATOM     19  C   UNL     1      11.523  16.522  67.844  1.00  0.00    -0.000 C 
BRANCH  19  20
ATOM     20  C   UNL     1      10.194  15.835  67.483  1.00  0.00    -0.000 C 
BRANCH  20  21
ATOM     21  C   UNL     1       9.433  15.319  68.713  1.00  0.00    -0.000 C 
BRANCH  21  22
ATOM     22  C   UNL     1       9.394  13.784  68.733  1.00  0.00    -0.000 C 
BRANCH  22  23
ATOM     23  C   UNL     1      10.463  13.152  67.826  1.00  0.00    -0.000 C 
BRANCH  23  24
ATOM     24  C   UNL     1      10.461  11.616  67.889  1.00  0.00    -0.000 C 
BRANCH  24  25
ATOM     25  C   UNL     1       9.289  11.062  68.715  1.00  0.00    -0.003 C 
ATOM     26  C   UNL     1       8.859   9.665  68.267  1.00  0.00     0.004 C 
ENDBRANCH  24  25
ENDBRANCH  23  24
ENDBRANCH  22  23
ENDBRANCH  21  22
ENDBRANCH  20  21
ENDBRANCH  19  20
ENDBRANCH  18  19
ENDBRANCH  17  18
ENDBRANCH  16  17
ENDBRANCH  15  16
ENDBRANCH   1  15
TORSDOF 22
ENDMDL
MODEL 3
REMARK VINA RESULT:    -4.936      1.642      3.877
REMARK INTER + INTRA:         -14.611
REMARK INTER:                 -11.792
REMARK INTRA:                  -2.819
REMARK UNBOUND:                -3.325
REMARK SMILES CCCCCCCCCCCCCCCCCCCCCCCC(=O)[O-]
REMARK SMILES IDX 13 1 14 2 15 3 16 4 17 5 18 6 19 7 20 8 21 9 22 10 23 11
REMARK SMILES IDX 24 12 25 13 26 14 12 15 11 16 10 17 9 18 8 19 7 20 6 21 5 22
REMARK SMILES IDX 4 23 3 24 2 25 1 26
REMARK H PARENT
REMARK Flexibility Score: inf
ROOT
ATOM      1  C   UNL     1      11.687  13.199  68.937  1.00  0.00     0.000 C 
ENDROOT
BRANCH   1   2
ATOM      2  C   UNL     1      11.354  14.009  67.672  1.00  0.00     0.000 C 
BRANCH   2   3
ATOM      3  C   UNL     1      11.808  15.474  67.770  1.00  0.00     0.000 C 
BRANCH   3   4
ATOM      4  C   UNL     1      10.646  16.463  67.575  1.00  0.00     0.000 C 
BRANCH   4   5
ATOM      5  C   UNL     1      11.116  17.927  67.555  1.00  0.00     0.000 C 
BRANCH   5   6
ATOM      6  C   UNL     1      10.819  18.662  68.873  1.00  0.00     0.000 C 
BRANCH   6   7
ATOM      7  C   UNL     1       9.965  17.823  69.841  1.00  0.00     0.000 C 
BRANCH   7   8
ATOM      8  C   UNL     1       9.383  18.609  71.034  1.00  0.00     0.000 C 
BRANCH   8   9
ATOM      9  C   UNL     1       8.148  17.971  71.701  1.00  0.00     0.000 C 
BRANCH   9  10
ATOM     10  C   UNL     1       8.030  18.215  73.216  1.00  0.00     0.006 C 
BRANCH  10  11
ATOM     11  C   UNL     1       8.244  16.940  74.045  1.00  0.00     0.053 C 
BRANCH  11  12
ATOM     12  C   UNL     1       6.963  16.490  74.679  1.00  0.00     0.041 C 
ATOM     13  O   UNL     1       6.884  16.360  75.930  1.00  0.00    -0.550 OA
ATOM     14  O   UNL     1       5.865  16.181  73.885  1.00  0.00    -0.550 OA
ENDBRANCH  11  12
ENDBRANCH  10  11
ENDBRANCH   9  10
ENDBRANCH   8   9
ENDBRANCH   7   8
ENDBRANCH   6   7
ENDBRANCH   5   6
ENDBRANCH   4   5
ENDBRANCH   3   4
ENDBRANCH   2   3
ENDBRANCH   1   2
BRANCH   1  15
ATOM     15  C   UNL     1      10.643  13.378  70.055  1.00  0.00     0.000 C 
BRANCH  15  16
ATOM     16  C   UNL     1      11.142  13.035  71.472  1.00  0.00     0.000 C 
BRANCH  16  17
ATOM     17  C   UNL     1      10.996  14.203  72.458  1.00  0.00     0.000 C 
BRANCH  17  18
ATOM     18  C   UNL     1      11.243  15.546  71.755  1.00  0.00    -0.000 C 
BRANCH  18  19
ATOM     19  C   UNL     1      12.592  16.184  72.137  1.00  0.00    -0.000 C 
BRANCH  19  20
ATOM     20  C   UNL     1      13.288  16.958  71.004  1.00  0.00    -0.000 C 
BRANCH  20  21
ATOM     21  C   UNL     1      14.242  16.083  70.178  1.00  0.00    -0.000 C 
BRANCH  21  22
ATOM     22  C   UNL     1      14.191  14.621  70.645  1.00  0.00    -0.000 C 
BRANCH  22  23
ATOM     23  C   UNL     1      15.559  13.924  70.562  1.00  0.00    -0.000 C 
BRANCH  23  24
ATOM     24  C   UNL     1      16.597  14.748  69.782  1.00  0.00    -0.000 C 
BRANCH  24  25
ATOM     25  C   UNL     1      17.958  14.043  69.687  1.00  0.00    -0.003 C 
ATOM     26  C   UNL     1      19.130  15.024  69.650  1.00  0.00     0.004 C 
ENDBRANCH  24  25
ENDBRANCH  23  24
ENDBRANCH  22  23
ENDBRANCH  21  22
ENDBRANCH  20  21
ENDBRANCH  19  20
ENDBRANCH  18  19
ENDBRANCH  17  18
ENDBRANCH  16  17
ENDBRANCH  15  16
ENDBRANCH   1  15
TORSDOF 22
ENDMDL
MODEL 4
REMARK VINA RESULT:    -4.890      1.319      4.444
REMARK INTER + INTRA:         -14.504
REMARK INTER:                 -11.383
REMARK INTRA:                  -3.121
REMARK UNBOUND:                -3.325
REMARK SMILES CCCCCCCCCCCCCCCCCCCCCCCC(=O)[O-]
REMARK SMILES IDX 13 1 14 2 15 3 16 4 17 5 18 6 19 7 20 8 21 9 22 10 23 11
REMARK SMILES IDX 24 12 25 13 26 14 12 15 11 16 10 17 9 18 8 19 7 20 6 21 5 22
REMARK SMILES IDX 4 23 3 24 2 25 1 26
REMARK H PARENT
REMARK Flexibility Score: inf
ROOT
ATOM      1  C   UNL     1      10.385  12.641  69.544  1.00  0.00     0.000 C 
ENDROOT
BRANCH   1   2
ATOM      2  C   UNL     1      11.414  13.407  70.394  1.00  0.00     0.000 C 
BRANCH   2   3
ATOM      3  C   UNL     1      11.198  13.212  71.904  1.00  0.00     0.000 C 
BRANCH   3   4
ATOM      4  C   UNL     1      11.029  14.547  72.650  1.00  0.00     0.000 C 
BRANCH   4   5
ATOM      5  C   UNL     1      11.968  15.642  72.118  1.00  0.00     0.000 C 
BRANCH   5   6
ATOM      6  C   UNL     1      11.216  16.922  71.719  1.00  0.00     0.000 C 
BRANCH   6   7
ATOM      7  C   UNL     1       9.747  16.917  72.180  1.00  0.00     0.000 C 
BRANCH   7   8
ATOM      8  C   UNL     1       8.882  18.051  71.592  1.00  0.00     0.000 C 
BRANCH   8   9
ATOM      9  C   UNL     1       7.798  18.607  72.537  1.00  0.00     0.000 C 
BRANCH   9  10
ATOM     10  C   UNL     1       6.883  17.544  73.172  1.00  0.00     0.006 C 
BRANCH  10  11
ATOM     11  C   UNL     1       6.764  17.692  74.695  1.00  0.00     0.053 C 
BRANCH  11  12
ATOM     12  C   UNL     1       7.231  16.452  75.394  1.00  0.00     0.041 C 
ATOM     13  O   UNL     1       8.126  15.730  74.877  1.00  0.00    -0.550 OA
ATOM     14  O   UNL     1       6.654  16.073  76.600  1.00  0.00    -0.550 OA
ENDBRANCH  11  12
ENDBRANCH  10  11
ENDBRANCH   9  10
ENDBRANCH   8   9
ENDBRANCH   7   8
ENDBRANCH   6   7
ENDBRANCH   5   6
ENDBRANCH   4   5
ENDBRANCH   3   4
ENDBRANCH   2   3
ENDBRANCH   1   2
BRANCH   1  15
ATOM     15  C   UNL     1       9.674  13.537  68.513  1.00  0.00     0.000 C 
BRANCH  15  16
ATOM     16  C   UNL     1       9.416  14.983  68.978  1.00  0.00     0.000 C 
BRANCH  16  17
ATOM     17  C   UNL     1       9.607  16.016  67.858  1.00  0.00     0.000 C 
BRANCH  17  18
ATOM     18  C   UNL     1      10.380  17.241  68.369  1.00  0.00    -0.000 C 
BRANCH  18  19
ATOM     19  C   UNL     1      11.901  17.117  68.169  1.00  0.00    -0.000 C 
BRANCH  19  20
ATOM     20  C   UNL     1      12.334  16.113  67.086  1.00  0.00    -0.000 C 
BRANCH  20  21
ATOM     21  C   UNL     1      13.640  15.383  67.432  1.00  0.00    -0.000 C 
BRANCH  21  22
ATOM     22  C   UNL     1      13.610  14.857  68.875  1.00  0.00    -0.000 C 
BRANCH  22  23
ATOM     23  C   UNL     1      14.692  15.496  69.761  1.00  0.00    -0.000 C 
BRANCH  23  24
ATOM     24  C   UNL     1      15.757  14.485  70.219  1.00  0.00    -0.000 C 
BRANCH  24  25
ATOM     25  C   UNL     1      16.882  14.308  69.188  1.00  0.00    -0.003 C 
ATOM     26  C   UNL     1      18.261  14.647  69.755  1.00  0.00     0.004 C 
ENDBRANCH  24  25
ENDBRANCH  23  24
ENDBRANCH  22  23
ENDBRANCH  21  22
ENDBRANCH  20  21
ENDBRANCH  19  20
ENDBRANCH  18  19
ENDBRANCH  17  18
ENDBRANCH  16  17
ENDBRANCH  15  16
ENDBRANCH   1  15
TORSDOF 22
ENDMDL
MODEL 5
REMARK VINA RESULT:    -4.821      1.007      4.134
REMARK INTER + INTRA:         -14.347
REMARK INTER:                 -11.097
REMARK INTRA:                  -3.250
REMARK UNBOUND:                -3.325
REMARK SMILES CCCCCCCCCCCCCCCCCCCCCCCC(=O)[O-]
REMARK SMILES IDX 13 1 14 2 15 3 16 4 17 5 18 6 19 7 20 8 21 9 22 10 23 11
REMARK SMILES IDX 24 12 25 13 26 14 12 15 11 16 10 17 9 18 8 19 7 20 6 21 5 22
REMARK SMILES IDX 4 23 3 24 2 25 1 26
REMARK H PARENT
REMARK Flexibility Score: inf
ROOT
ATOM      1  C   UNL     1      11.697  13.374  71.014  1.00  0.00     0.000 C 
ENDROOT
BRANCH   1   2
ATOM      2  C   UNL     1      11.252  14.447  72.023  1.00  0.00     0.000 C 
BRANCH   2   3
ATOM      3  C   UNL     1      12.244  15.618  72.120  1.00  0.00     0.000 C 
BRANCH   3   4
ATOM      4  C   UNL     1      11.675  16.920  71.529  1.00  0.00     0.000 C 
BRANCH   4   5
ATOM      5  C   UNL     1      10.138  16.933  71.506  1.00  0.00     0.000 C 
BRANCH   5   6
ATOM      6  C   UNL     1       9.569  18.185  70.818  1.00  0.00     0.000 C 
BRANCH   6   7
ATOM      7  C   UNL     1       8.658  19.010  71.745  1.00  0.00     0.000 C 
BRANCH   7   8
ATOM      8  C   UNL     1       7.326  18.327  72.117  1.00  0.00     0.000 C 
BRANCH   8   9
ATOM      9  C   UNL     1       6.473  19.075  73.161  1.00  0.00     0.000 C 
BRANCH   9  10
ATOM     10  C   UNL     1       6.085  18.245  74.398  1.00  0.00     0.006 C 
BRANCH  10  11
ATOM     11  C   UNL     1       6.273  16.735  74.187  1.00  0.00     0.053 C 
BRANCH  11  12
ATOM     12  C   UNL     1       7.372  16.205  75.056  1.00  0.00     0.041 C 
ATOM     13  O   UNL     1       7.146  15.914  76.261  1.00  0.00    -0.550 OA
ATOM     14  O   UNL     1       8.657  16.063  74.544  1.00  0.00    -0.550 OA
ENDBRANCH  11  12
ENDBRANCH  10  11
ENDBRANCH   9  10
ENDBRANCH   8   9
ENDBRANCH   7   8
ENDBRANCH   6   7
ENDBRANCH   5   6
ENDBRANCH   4   5
ENDBRANCH   3   4
ENDBRANCH   2   3
ENDBRANCH   1   2
BRANCH   1  15
ATOM     15  C   UNL     1      10.518  12.748  70.247  1.00  0.00     0.000 C 
BRANCH  15  16
ATOM     16  C   UNL     1      10.766  12.528  68.742  1.00  0.00     0.000 C 
BRANCH  16  17
ATOM     17  C   UNL     1      10.096  13.594  67.862  1.00  0.00     0.000 C 
BRANCH  17  18
ATOM     18  C   UNL     1       9.329  14.610  68.722  1.00  0.00    -0.000 C 
BRANCH  18  19
ATOM     19  C   UNL     1       9.409  16.045  68.169  1.00  0.00    -0.000 C 
BRANCH  19  20
ATOM     20  C   UNL     1      10.598  16.314  67.231  1.00  0.00    -0.000 C 
BRANCH  20  21
ATOM     21  C   UNL     1      11.896  16.636  67.985  1.00  0.00    -0.000 C 
BRANCH  21  22
ATOM     22  C   UNL     1      13.048  15.739  67.508  1.00  0.00    -0.000 C 
BRANCH  22  23
ATOM     23  C   UNL     1      13.541  14.775  68.600  1.00  0.00    -0.000 C 
BRANCH  23  24
ATOM     24  C   UNL     1      14.624  15.400  69.495  1.00  0.00    -0.000 C 
BRANCH  24  25
ATOM     25  C   UNL     1      15.491  14.342  70.196  1.00  0.00    -0.003 C 
ATOM     26  C   UNL     1      16.970  14.454  69.828  1.00  0.00     0.004 C 
ENDBRANCH  24  25
ENDBRANCH  23  24
ENDBRANCH  22  23
ENDBRANCH  21  22
ENDBRANCH  20  21
ENDBRANCH  19  20
ENDBRANCH  18  19
ENDBRANCH  17  18
ENDBRANCH  16  17
ENDBRANCH  15  16
ENDBRANCH   1  15
TORSDOF 22
ENDMDL
MODEL 6
REMARK VINA RESULT:    -4.814      1.179      2.836
REMARK INTER + INTRA:         -14.331
REMARK INTER:                 -11.170
REMARK INTRA:                  -3.161
REMARK UNBOUND:                -3.325
REMARK SMILES CCCCCCCCCCCCCCCCCCCCCCCC(=O)[O-]
REMARK SMILES IDX 13 1 14 2 15 3 16 4 17 5 18 6 19 7 20 8 21 9 22 10 23 11
REMARK SMILES IDX 24 12 25 13 26 14 12 15 11 16 10 17 9 18 8 19 7 20 6 21 5 22
REMARK SMILES IDX 4 23 3 24 2 25 1 26
REMARK H PARENT
REMARK Flexibility Score: inf
ROOT
ATOM      1  C   UNL     1      13.492  14.504  70.044  1.00  0.00     0.000 C 
ENDROOT
BRANCH   1   2
ATOM      2  C   UNL     1      14.193  15.855  70.265  1.00  0.00     0.000 C 
BRANCH   2   3
ATOM      3  C   UNL     1      13.366  16.817  71.134  1.00  0.00     0.000 C 
BRANCH   3   4
ATOM      4  C   UNL     1      11.856  16.535  71.048  1.00  0.00     0.000 C 
BRANCH   4   5
ATOM      5  C   UNL     1      11.240  16.202  72.416  1.00  0.00     0.000 C 
BRANCH   5   6
ATOM      6  C   UNL     1       9.799  16.720  72.558  1.00  0.00     0.000 C 
BRANCH   6   7
ATOM      7  C   UNL     1       9.486  17.877  71.593  1.00  0.00     0.000 C 
BRANCH   7   8
ATOM      8  C   UNL     1       8.077  18.485  71.748  1.00  0.00     0.000 C 
BRANCH   8   9
ATOM      9  C   UNL     1       6.921  17.466  71.766  1.00  0.00     0.000 C 
BRANCH   9  10
ATOM     10  C   UNL     1       5.928  17.631  72.931  1.00  0.00     0.006 C 
BRANCH  10  11
ATOM     11  C   UNL     1       5.982  16.466  73.930  1.00  0.00     0.053 C 
BRANCH  11  12
ATOM     12  C   UNL     1       7.040  16.695  74.966  1.00  0.00     0.041 C 
ATOM     13  O   UNL     1       7.344  15.779  75.776  1.00  0.00    -0.550 OA
ATOM     14  O   UNL     1       7.667  17.932  75.059  1.00  0.00    -0.550 OA
ENDBRANCH  11  12
ENDBRANCH  10  11
ENDBRANCH   9  10
ENDBRANCH   8   9
ENDBRANCH   7   8
ENDBRANCH   6   7
ENDBRANCH   5   6
ENDBRANCH   4   5
ENDBRANCH   3   4
ENDBRANCH   2   3
ENDBRANCH   1   2
BRANCH   1  15
ATOM     15  C   UNL     1      13.158  14.238  68.564  1.00  0.00     0.000 C 
BRANCH  15  16
ATOM     16  C   UNL     1      13.554  15.369  67.595  1.00  0.00     0.000 C 
BRANCH  16  17
ATOM     17  C   UNL     1      12.350  15.981  66.864  1.00  0.00     0.000 C 
BRANCH  17  18
ATOM     18  C   UNL     1      11.902  17.284  67.543  1.00  0.00    -0.000 C 
BRANCH  18  19
ATOM     19  C   UNL     1      10.461  17.215  68.081  1.00  0.00    -0.000 C 
BRANCH  19  20
ATOM     20  C   UNL     1       9.691  15.934  67.714  1.00  0.00    -0.000 C 
BRANCH  20  21
ATOM     21  C   UNL     1       9.037  15.259  68.928  1.00  0.00    -0.000 C 
BRANCH  21  22
ATOM     22  C   UNL     1       9.575  13.834  69.122  1.00  0.00    -0.000 C 
BRANCH  22  23
ATOM     23  C   UNL     1      10.384  13.336  67.913  1.00  0.00    -0.000 C 
BRANCH  23  24
ATOM     24  C   UNL     1      10.131  11.851  67.603  1.00  0.00    -0.000 C 
BRANCH  24  25
ATOM     25  C   UNL     1       9.447  11.114  68.765  1.00  0.00    -0.003 C 
ATOM     26  C   UNL     1       8.845   9.774  68.341  1.00  0.00     0.004 C 
ENDBRANCH  24  25
ENDBRANCH  23  24
ENDBRANCH  22  23
ENDBRANCH  21  22
ENDBRANCH  20  21
ENDBRANCH  19  20
ENDBRANCH  18  19
ENDBRANCH  17  18
ENDBRANCH  16  17
ENDBRANCH  15  16
ENDBRANCH   1  15
TORSDOF 22
ENDMDL
MODEL 7
REMARK VINA RESULT:    -4.774      3.206      6.638
REMARK INTER + INTRA:         -14.239
REMARK INTER:                 -11.171
REMARK INTRA:                  -3.068
REMARK UNBOUND:                -3.325
REMARK SMILES CCCCCCCCCCCCCCCCCCCCCCCC(=O)[O-]
REMARK SMILES IDX 13 1 14 2 15 3 16 4 17 5 18 6 19 7 20 8 21 9 22 10 23 11
REMARK SMILES IDX 24 12 25 13 26 14 12 15 11 16 10 17 9 18 8 19 7 20 6 21 5 22
REMARK SMILES IDX 4 23 3 24 2 25 1 26
REMARK H PARENT
REMARK Flexibility Score: inf
ROOT
ATOM      1  C   UNL     1       9.156  17.391  70.939  1.00  0.00     0.000 C 
ENDROOT
BRANCH   1   2
ATOM      2  C   UNL     1       9.324  17.530  72.462  1.00  0.00     0.000 C 
BRANCH   2   3
ATOM      3  C   UNL     1       9.993  16.301  73.099  1.00  0.00     0.000 C 
BRANCH   3   4
ATOM      4  C   UNL     1      11.198  15.800  72.284  1.00  0.00     0.000 C 
BRANCH   4   5
ATOM      5  C   UNL     1      11.362  14.274  72.353  1.00  0.00     0.000 C 
BRANCH   5   6
ATOM      6  C   UNL     1      10.979  13.578  71.036  1.00  0.00     0.000 C 
BRANCH   6   7
ATOM      7  C   UNL     1      10.541  14.571  69.945  1.00  0.00     0.000 C 
BRANCH   7   8
ATOM      8  C   UNL     1       9.640  13.968  68.848  1.00  0.00     0.000 C 
BRANCH   8   9
ATOM      9  C   UNL     1      10.379  13.161  67.761  1.00  0.00     0.000 C 
BRANCH   9  10
ATOM     10  C   UNL     1      10.538  11.660  68.064  1.00  0.00     0.006 C 
BRANCH  10  11
ATOM     11  C   UNL     1       9.327  11.067  68.798  1.00  0.00     0.053 C 
BRANCH  11  12
ATOM     12  C   UNL     1       9.025   9.685  68.306  1.00  0.00     0.041 C 
ATOM     13  O   UNL     1       9.962   8.890  68.027  1.00  0.00    -0.550 OA
ATOM     14  O   UNL     1       7.706   9.285  68.121  1.00  0.00    -0.550 OA
ENDBRANCH  11  12
ENDBRANCH  10  11
ENDBRANCH   9  10
ENDBRANCH   8   9
ENDBRANCH   7   8
ENDBRANCH   6   7
ENDBRANCH   5   6
ENDBRANCH   4   5
ENDBRANCH   3   4
ENDBRANCH   2   3
ENDBRANCH   1   2
BRANCH   1  15
ATOM     15  C   UNL     1       9.777  18.566  70.160  1.00  0.00     0.000 C 
BRANCH  15  16
ATOM     16  C   UNL     1      11.147  18.269  69.520  1.00  0.00     0.000 C 
BRANCH  16  17
ATOM     17  C   UNL     1      11.386  19.055  68.222  1.00  0.00     0.000 C 
BRANCH  17  18
ATOM     18  C   UNL     1      11.285  18.133  66.998  1.00  0.00    -0.000 C 
BRANCH  18  19
ATOM     19  C   UNL     1      11.548  16.654  67.337  1.00  0.00    -0.000 C 
BRANCH  19  20
ATOM     20  C   UNL     1      12.920  16.119  66.889  1.00  0.00    -0.000 C 
BRANCH  20  21
ATOM     21  C   UNL     1      13.418  14.949  67.750  1.00  0.00    -0.000 C 
BRANCH  21  22
ATOM     22  C   UNL     1      13.816  15.428  69.154  1.00  0.00    -0.000 C 
BRANCH  22  23
ATOM     23  C   UNL     1      14.205  14.270  70.087  1.00  0.00    -0.000 C 
BRANCH  23  24
ATOM     24  C   UNL     1      15.682  14.322  70.512  1.00  0.00    -0.000 C 
BRANCH  24  25
ATOM     25  C   UNL     1      16.630  14.531  69.321  1.00  0.00    -0.003 C 
ATOM     26  C   UNL     1      18.104  14.466  69.721  1.00  0.00     0.004 C 
ENDBRANCH  24  25
ENDBRANCH  23  24
ENDBRANCH  22  23
ENDBRANCH  21  22
ENDBRANCH  20  21
ENDBRANCH  19  20
ENDBRANCH  18  19
ENDBRANCH  17  18
ENDBRANCH  16  17
ENDBRANCH  15  16
ENDBRANCH   1  15
TORSDOF 22
ENDMDL
MODEL 8
REMARK VINA RESULT:    -4.767      2.904      6.427
REMARK INTER + INTRA:         -14.222
REMARK INTER:                 -10.103
REMARK INTRA:                  -4.119
REMARK UNBOUND:                -3.325
REMARK SMILES CCCCCCCCCCCCCCCCCCCCCCCC(=O)[O-]
REMARK SMILES IDX 13 1 14 2 15 3 16 4 17 5 18 6 19 7 20 8 21 9 22 10 23 11
REMARK SMILES IDX 24 12 25 13 26 14 12 15 11 16 10 17 9 18 8 19 7 20 6 21 5 22
REMARK SMILES IDX 4 23 3 24 2 25 1 26
REMARK H PARENT
REMARK Flexibility Score: inf
ROOT
ATOM      1  C   UNL     1      12.308  17.104  69.992  1.00  0.00     0.000 C 
ENDROOT
BRANCH   1   2
ATOM      2  C   UNL     1      11.510  18.374  69.646  1.00  0.00     0.000 C 
BRANCH   2   3
ATOM      3  C   UNL     1      10.763  18.257  68.307  1.00  0.00     0.000 C 
BRANCH   3   4
ATOM      4  C   UNL     1      11.178  17.009  67.509  1.00  0.00     0.000 C 
BRANCH   4   5
ATOM      5  C   UNL     1       9.987  16.092  67.189  1.00  0.00     0.000 C 
BRANCH   5   6
ATOM      6  C   UNL     1       9.160  15.739  68.437  1.00  0.00     0.000 C 
BRANCH   6   7
ATOM      7  C   UNL     1       9.719  14.521  69.195  1.00  0.00     0.000 C 
BRANCH   7   8
ATOM      8  C   UNL     1      10.041  13.301  68.308  1.00  0.00     0.000 C 
BRANCH   8   9
ATOM      9  C   UNL     1      11.472  12.745  68.450  1.00  0.00     0.000 C 
BRANCH   9  10
ATOM     10  C   UNL     1      12.554  13.802  68.733  1.00  0.00     0.006 C 
BRANCH  10  11
ATOM     11  C   UNL     1      13.347  13.517  70.017  1.00  0.00     0.053 C 
BRANCH  11  12
ATOM     12  C   UNL     1      14.650  14.256  70.019  1.00  0.00     0.041 C 
ATOM     13  O   UNL     1      15.495  14.050  70.931  1.00  0.00    -0.550 OA
ATOM     14  O   UNL     1      14.918  15.198  69.032  1.00  0.00    -0.550 OA
ENDBRANCH  11  12
ENDBRANCH  10  11
ENDBRANCH   9  10
ENDBRANCH   8   9
ENDBRANCH   7   8
ENDBRANCH   6   7
ENDBRANCH   5   6
ENDBRANCH   4   5
ENDBRANCH   3   4
ENDBRANCH   2   3
ENDBRANCH   1   2
BRANCH   1  15
ATOM     15  C   UNL     1      13.111  17.240  71.299  1.00  0.00     0.000 C 
BRANCH  15  16
ATOM     16  C   UNL     1      12.578  16.406  72.480  1.00  0.00     0.000 C 
BRANCH  16  17
ATOM     17  C   UNL     1      11.405  15.494  72.088  1.00  0.00     0.000 C 
BRANCH  17  18
ATOM     18  C   UNL     1      10.143  15.853  72.885  1.00  0.00    -0.000 C 
BRANCH  18  19
ATOM     19  C   UNL     1       9.753  17.337  72.756  1.00  0.00    -0.000 C 
BRANCH  19  20
ATOM     20  C   UNL     1       8.712  17.643  71.664  1.00  0.00    -0.000 C 
BRANCH  20  21
ATOM     21  C   UNL     1       8.097  19.043  71.797  1.00  0.00    -0.000 C 
BRANCH  21  22
ATOM     22  C   UNL     1       6.783  18.995  72.592  1.00  0.00    -0.000 C 
BRANCH  22  23
ATOM     23  C   UNL     1       6.106  17.616  72.534  1.00  0.00    -0.000 C 
BRANCH  23  24
ATOM     24  C   UNL     1       5.584  17.155  73.905  1.00  0.00    -0.000 C 
BRANCH  24  25
ATOM     25  C   UNL     1       6.629  17.320  75.019  1.00  0.00    -0.003 C 
ATOM     26  C   UNL     1       7.370  16.020  75.331  1.00  0.00     0.004 C 
ENDBRANCH  24  25
ENDBRANCH  23  24
ENDBRANCH  22  23
ENDBRANCH  21  22
ENDBRANCH  20  21
ENDBRANCH  19  20
ENDBRANCH  18  19
ENDBRANCH  17  18
ENDBRANCH  16  17
ENDBRANCH  15  16
ENDBRANCH   1  15
TORSDOF 22
ENDMDL
MODEL 9
REMARK VINA RESULT:    -4.566      1.228      3.433
REMARK INTER + INTRA:         -13.764
REMARK INTER:                 -10.481
REMARK INTRA:                  -3.283
REMARK UNBOUND:                -3.325
REMARK SMILES CCCCCCCCCCCCCCCCCCCCCCCC(=O)[O-]
REMARK SMILES IDX 13 1 14 2 15 3 16 4 17 5 18 6 19 7 20 8 21 9 22 10 23 11
REMARK SMILES IDX 24 12 25 13 26 14 12 15 11 16 10 17 9 18 8 19 7 20 6 21 5 22
REMARK SMILES IDX 4 23 3 24 2 25 1 26
REMARK H PARENT
REMARK Flexibility Score: inf
ROOT
ATOM      1  C   UNL     1      11.047  16.557  67.229  1.00  0.00     0.000 C 
ENDROOT
BRANCH   1   2
ATOM      2  C   UNL     1      11.395  18.024  67.539  1.00  0.00     0.000 C 
BRANCH   2   3
ATOM      3  C   UNL     1      10.698  18.543  68.808  1.00  0.00     0.000 C 
BRANCH   3   4
ATOM      4  C   UNL     1       9.804  17.478  69.464  1.00  0.00     0.000 C 
BRANCH   4   5
ATOM      5  C   UNL     1       9.660  17.683  70.981  1.00  0.00     0.000 C 
BRANCH   5   6
ATOM      6  C   UNL     1       9.131  19.082  71.340  1.00  0.00     0.000 C 
BRANCH   6   7
ATOM      7  C   UNL     1       7.966  19.035  72.346  1.00  0.00     0.000 C 
BRANCH   7   8
ATOM      8  C   UNL     1       6.823  18.073  71.966  1.00  0.00     0.000 C 
BRANCH   8   9
ATOM      9  C   UNL     1       5.475  18.345  72.664  1.00  0.00     0.000 C 
BRANCH   9  10
ATOM     10  C   UNL     1       5.261  17.579  73.982  1.00  0.00     0.006 C 
BRANCH  10  11
ATOM     11  C   UNL     1       5.968  16.216  74.003  1.00  0.00     0.053 C 
BRANCH  11  12
ATOM     12  C   UNL     1       7.073  16.199  75.014  1.00  0.00     0.041 C 
ATOM     13  O   UNL     1       8.275  16.154  74.641  1.00  0.00    -0.550 OA
ATOM     14  O   UNL     1       6.774  16.199  76.372  1.00  0.00    -0.550 OA
ENDBRANCH  11  12
ENDBRANCH  10  11
ENDBRANCH   9  10
ENDBRANCH   8   9
ENDBRANCH   7   8
ENDBRANCH   6   7
ENDBRANCH   5   6
ENDBRANCH   4   5
ENDBRANCH   3   4
ENDBRANCH   2   3
ENDBRANCH   1   2
BRANCH   1  15
ATOM     15  C   UNL     1      12.277  15.631  67.261  1.00  0.00     0.000 C 
BRANCH  15  16
ATOM     16  C   UNL     1      12.041  14.260  67.926  1.00  0.00     0.000 C 
BRANCH  16  17
ATOM     17  C   UNL     1      10.553  13.902  68.048  1.00  0.00     0.000 C 
BRANCH  17  18
ATOM     18  C   UNL     1      10.119  13.863  69.521  1.00  0.00    -0.000 C 
BRANCH  18  19
ATOM     19  C   UNL     1      11.302  13.680  70.490  1.00  0.00    -0.000 C 
BRANCH  19  20
ATOM     20  C   UNL     1      11.268  14.586  71.734  1.00  0.00    -0.000 C 
BRANCH  20  21
ATOM     21  C   UNL     1      12.585  15.342  71.961  1.00  0.00    -0.000 C 
BRANCH  21  22
ATOM     22  C   UNL     1      12.923  16.234  70.757  1.00  0.00    -0.000 C 
BRANCH  22  23
ATOM     23  C   UNL     1      14.347  16.000  70.226  1.00  0.00    -0.000 C 
BRANCH  23  24
ATOM     24  C   UNL     1      14.711  14.507  70.147  1.00  0.00    -0.000 C 
BRANCH  24  25
ATOM     25  C   UNL     1      16.161  14.232  70.572  1.00  0.00    -0.003 C 
ATOM     26  C   UNL     1      17.177  14.642  69.506  1.00  0.00     0.004 C 
ENDBRANCH  24  25
ENDBRANCH  23  24
ENDBRANCH  22  23
ENDBRANCH  21  22
ENDBRANCH  20  21
ENDBRANCH  19  20
ENDBRANCH  18  19
ENDBRANCH  17  18
ENDBRANCH  16  17
ENDBRANCH  15  16
ENDBRANCH   1  15
TORSDOF 22
ENDMDL
