MODEL 1
REMARK VINA RESULT:    -6.095      0.000      0.000
REMARK INTER + INTRA:          -7.689
REMARK INTER:                  -7.342
REMARK INTRA:                  -0.347
REMARK UNBOUND:                -0.347
REMARK SMILES O=c1c(O)c(-c2ccc(O)cc2O)oc2cc(O)cc(O)c12
REMARK SMILES IDX 5 1 3 2 2 3 1 4 22 5 20 6 19 7 17 8 16 9 15 10 14 11 6 12
REMARK SMILES IDX 8 13 7 14 9 15 11 16 12 17 10 18 13 20 4 22 21 24 18 26
REMARK H PARENT 10 19 13 21 4 23 21 25 18 27
REMARK Flexibility Score: inf
ROOT
ATOM      1  C   UNL     1     156.862  -7.538  24.473  1.00  0.00     0.184 A 
ATOM      2  C   UNL     1     155.847  -6.628  24.811  1.00  0.00     0.208 A 
ATOM      3  C   UNL     1     155.027  -6.903  25.916  1.00  0.00     0.238 A 
ATOM      4  O   UNL     1     154.154  -6.058  26.246  1.00  0.00    -0.285 OA
ATOM      5  C   UNL     1     155.222  -8.093  26.658  1.00  0.00     0.111 A 
ATOM      6  C   UNL     1     154.423  -8.494  27.771  1.00  0.00     0.134 A 
ATOM      7  C   UNL     1     154.787  -9.627  28.510  1.00  0.00     0.093 A 
ATOM      8  C   UNL     1     155.882 -10.409  28.137  1.00  0.00     0.123 A 
ATOM      9  C   UNL     1     156.633 -10.059  27.016  1.00  0.00     0.094 A 
ATOM     10  C   UNL     1     156.316  -8.915  26.280  1.00  0.00     0.146 A 
ATOM     11  O   UNL     1     157.064  -8.612  25.226  1.00  0.00    -0.451 OA
ENDROOT
BRANCH   1  12
ATOM     12  C   UNL     1     157.750  -7.316  23.313  1.00  0.00     0.063 A 
ATOM     13  C   UNL     1     157.997  -7.019  20.913  1.00  0.00     0.047 A 
ATOM     14  C   UNL     1     157.187  -7.234  22.030  1.00  0.00     0.020 A 
ATOM     15  C   UNL     1     159.378  -6.869  21.064  1.00  0.00     0.119 A 
ATOM     16  C   UNL     1     159.947  -6.926  22.342  1.00  0.00     0.093 A 
ATOM     17  C   UNL     1     159.140  -7.136  23.470  1.00  0.00     0.130 A 
BRANCH  15  18
ATOM     18  O   UNL     1     160.173  -6.659  19.940  1.00  0.00    -0.508 OA
ATOM     19  H   UNL     1     160.060  -7.215  19.100  1.00  0.00     0.293 HD
ENDBRANCH  15  18
BRANCH  17  20
ATOM     20  O   UNL     1     159.713  -7.140  24.742  1.00  0.00    -0.507 OA
ATOM     21  H   UNL     1     159.154  -7.004  25.577  1.00  0.00     0.293 HD
ENDBRANCH  17  20
ENDBRANCH   1  12
BRANCH   2  22
ATOM     22  O   UNL     1     155.690  -5.452  24.073  1.00  0.00    -0.502 OA
ATOM     23  H   UNL     1     156.431  -5.066  23.501  1.00  0.00     0.293 HD
ENDBRANCH   2  22
BRANCH   6  24
ATOM     24  O   UNL     1     153.257  -7.836  28.172  1.00  0.00    -0.507 OA
ATOM     25  H   UNL     1     153.191  -7.221  28.970  1.00  0.00     0.293 HD
ENDBRANCH   6  24
BRANCH   8  26
ATOM     26  O   UNL     1     156.229 -11.542  28.869  1.00  0.00    -0.508 OA
ATOM     27  H   UNL     1     155.738 -11.795  29.720  1.00  0.00     0.293 HD
ENDBRANCH   8  26
TORSDOF 6
ENDMDL
MODEL 2
REMARK VINA RESULT:    -5.892      1.566      6.717
REMARK INTER + INTRA:          -7.445
REMARK INTER:                  -7.150
REMARK INTRA:                  -0.295
REMARK UNBOUND:                -0.347
REMARK SMILES O=c1c(O)c(-c2ccc(O)cc2O)oc2cc(O)cc(O)c12
REMARK SMILES IDX 5 1 3 2 2 3 1 4 22 5 20 6 19 7 17 8 16 9 15 10 14 11 6 12
REMARK SMILES IDX 8 13 7 14 9 15 11 16 12 17 10 18 13 20 4 22 21 24 18 26
REMARK H PARENT 10 19 13 21 4 23 21 25 18 27
REMARK Flexibility Score: inf
ROOT
ATOM      1  C   UNL     1     156.663  -7.470  23.822  1.00  0.00     0.184 A 
ATOM      2  C   UNL     1     155.951  -7.002  22.705  1.00  0.00     0.208 A 
ATOM      3  C   UNL     1     156.664  -6.565  21.578  1.00  0.00     0.238 A 
ATOM      4  O   UNL     1     156.020  -6.197  20.561  1.00  0.00    -0.285 OA
ATOM      5  C   UNL     1     158.080  -6.587  21.589  1.00  0.00     0.111 A 
ATOM      6  C   UNL     1     158.906  -6.130  20.518  1.00  0.00     0.134 A 
ATOM      7  C   UNL     1     160.292  -6.319  20.585  1.00  0.00     0.093 A 
ATOM      8  C   UNL     1     160.887  -6.889  21.713  1.00  0.00     0.123 A 
ATOM      9  C   UNL     1     160.095  -7.284  22.789  1.00  0.00     0.094 A 
ATOM     10  C   UNL     1     158.706  -7.142  22.736  1.00  0.00     0.146 A 
ATOM     11  O   UNL     1     157.988  -7.541  23.779  1.00  0.00    -0.451 OA
ENDROOT
BRANCH   1  12
ATOM     12  C   UNL     1     155.974  -7.929  25.045  1.00  0.00     0.063 A 
ATOM     13  C   UNL     1     155.457  -9.739  26.584  1.00  0.00     0.047 A 
ATOM     14  C   UNL     1     156.091  -9.274  25.429  1.00  0.00     0.020 A 
ATOM     15  C   UNL     1     154.711  -8.864  27.377  1.00  0.00     0.119 A 
ATOM     16  C   UNL     1     154.606  -7.515  27.016  1.00  0.00     0.093 A 
ATOM     17  C   UNL     1     155.244  -7.038  25.861  1.00  0.00     0.130 A 
BRANCH  15  18
ATOM     18  O   UNL     1     154.081  -9.344  28.524  1.00  0.00    -0.508 OA
ATOM     19  H   UNL     1     154.330  -9.004  29.446  1.00  0.00     0.293 HD
ENDBRANCH  15  18
BRANCH  17  20
ATOM     20  O   UNL     1     155.175  -5.683  25.539  1.00  0.00    -0.507 OA
ATOM     21  H   UNL     1     155.222  -5.362  24.579  1.00  0.00     0.293 HD
ENDBRANCH  17  20
ENDBRANCH   1  12
BRANCH   2  22
ATOM     22  O   UNL     1     154.554  -7.009  22.715  1.00  0.00    -0.502 OA
ATOM     23  H   UNL     1     154.004  -6.832  21.883  1.00  0.00     0.293 HD
ENDBRANCH   2  22
BRANCH   6  24
ATOM     24  O   UNL     1     158.421  -5.466  19.387  1.00  0.00    -0.507 OA
ATOM     25  H   UNL     1     157.832  -5.885  18.684  1.00  0.00     0.293 HD
ENDBRANCH   6  24
BRANCH   8  26
ATOM     26  O   UNL     1     162.268  -7.060  21.778  1.00  0.00    -0.508 OA
ATOM     27  H   UNL     1     162.714  -7.907  21.442  1.00  0.00     0.293 HD
ENDBRANCH   8  26
TORSDOF 6
ENDMDL
MODEL 3
REMARK VINA RESULT:    -5.817      1.473      7.091
REMARK INTER + INTRA:          -7.354
REMARK INTER:                  -6.934
REMARK INTRA:                  -0.420
REMARK UNBOUND:                -0.347
REMARK SMILES O=c1c(O)c(-c2ccc(O)cc2O)oc2cc(O)cc(O)c12
REMARK SMILES IDX 5 1 3 2 2 3 1 4 22 5 20 6 19 7 17 8 16 9 15 10 14 11 6 12
REMARK SMILES IDX 8 13 7 14 9 15 11 16 12 17 10 18 13 20 4 22 21 24 18 26
REMARK H PARENT 10 19 13 21 4 23 21 25 18 27
REMARK Flexibility Score: inf
ROOT
ATOM      1  C   UNL     1     157.031  -7.537  23.983  1.00  0.00     0.184 A 
ATOM      2  C   UNL     1     158.423  -7.397  24.096  1.00  0.00     0.208 A 
ATOM      3  C   UNL     1     159.179  -7.149  22.940  1.00  0.00     0.238 A 
ATOM      4  O   UNL     1     160.419  -6.971  23.056  1.00  0.00    -0.285 OA
ATOM      5  C   UNL     1     158.533  -7.061  21.683  1.00  0.00     0.111 A 
ATOM      6  C   UNL     1     159.203  -6.853  20.440  1.00  0.00     0.134 A 
ATOM      7  C   UNL     1     158.452  -6.653  19.275  1.00  0.00     0.093 A 
ATOM      8  C   UNL     1     157.057  -6.719  19.297  1.00  0.00     0.123 A 
ATOM      9  C   UNL     1     156.395  -6.980  20.495  1.00  0.00     0.094 A 
ATOM     10  C   UNL     1     157.116  -7.148  21.681  1.00  0.00     0.146 A 
ATOM     11  O   UNL     1     156.445  -7.384  22.801  1.00  0.00    -0.451 OA
ENDROOT
BRANCH   1  12
ATOM     12  C   UNL     1     156.179  -7.815  25.158  1.00  0.00     0.063 A 
ATOM     13  C   UNL     1     155.439  -9.382  26.863  1.00  0.00     0.047 A 
ATOM     14  C   UNL     1     156.226  -9.088  25.747  1.00  0.00     0.020 A 
ATOM     15  C   UNL     1     154.605  -8.405  27.413  1.00  0.00     0.119 A 
ATOM     16  C   UNL     1     154.568  -7.124  26.847  1.00  0.00     0.093 A 
ATOM     17  C   UNL     1     155.360  -6.819  25.730  1.00  0.00     0.130 A 
BRANCH  15  18
ATOM     18  O   UNL     1     153.823  -8.714  28.523  1.00  0.00    -0.508 OA
ATOM     19  H   UNL     1     153.766  -8.092  29.320  1.00  0.00     0.293 HD
ENDBRANCH  15  18
BRANCH  17  20
ATOM     20  O   UNL     1     155.352  -5.526  25.206  1.00  0.00    -0.507 OA
ATOM     21  H   UNL     1     155.211  -5.354  24.217  1.00  0.00     0.293 HD
ENDBRANCH  17  20
ENDBRANCH   1  12
BRANCH   2  22
ATOM     22  O   UNL     1     159.032  -7.470  25.352  1.00  0.00    -0.502 OA
ATOM     23  H   UNL     1     158.521  -7.317  26.213  1.00  0.00     0.293 HD
ENDBRANCH   2  22
BRANCH   6  24
ATOM     24  O   UNL     1     160.593  -6.861  20.292  1.00  0.00    -0.507 OA
ATOM     25  H   UNL     1     161.076  -6.857  19.407  1.00  0.00     0.293 HD
ENDBRANCH   6  24
BRANCH   8  26
ATOM     26  O   UNL     1     156.318  -6.533  18.131  1.00  0.00    -0.508 OA
ATOM     27  H   UNL     1     156.766  -6.310  17.249  1.00  0.00     0.293 HD
ENDBRANCH   8  26
TORSDOF 6
ENDMDL
MODEL 4
REMARK VINA RESULT:    -5.727      1.897      3.907
REMARK INTER + INTRA:          -7.246
REMARK INTER:                  -6.833
REMARK INTRA:                  -0.413
REMARK UNBOUND:                -0.347
REMARK SMILES O=c1c(O)c(-c2ccc(O)cc2O)oc2cc(O)cc(O)c12
REMARK SMILES IDX 5 1 3 2 2 3 1 4 22 5 20 6 19 7 17 8 16 9 15 10 14 11 6 12
REMARK SMILES IDX 8 13 7 14 9 15 11 16 12 17 10 18 13 20 4 22 21 24 18 26
REMARK H PARENT 10 19 13 21 4 23 21 25 18 27
REMARK Flexibility Score: inf
ROOT
ATOM      1  C   UNL     1     156.503  -6.975  25.015  1.00  0.00     0.184 A 
ATOM      2  C   UNL     1     156.149  -8.032  25.868  1.00  0.00     0.208 A 
ATOM      3  C   UNL     1     154.981  -7.923  26.639  1.00  0.00     0.238 A 
ATOM      4  O   UNL     1     154.641  -8.897  27.360  1.00  0.00    -0.285 OA
ATOM      5  C   UNL     1     154.193  -6.750  26.559  1.00  0.00     0.111 A 
ATOM      6  C   UNL     1     153.012  -6.514  27.326  1.00  0.00     0.134 A 
ATOM      7  C   UNL     1     152.240  -5.373  27.071  1.00  0.00     0.093 A 
ATOM      8  C   UNL     1     152.641  -4.428  26.124  1.00  0.00     0.123 A 
ATOM      9  C   UNL     1     153.824  -4.620  25.413  1.00  0.00     0.094 A 
ATOM     10  C   UNL     1     154.596  -5.766  25.619  1.00  0.00     0.146 A 
ATOM     11  O   UNL     1     155.710  -5.915  24.912  1.00  0.00    -0.451 OA
ENDROOT
BRANCH   1  12
ATOM     12  C   UNL     1     157.727  -7.019  24.189  1.00  0.00     0.063 A 
ATOM     13  C   UNL     1     160.155  -6.986  24.070  1.00  0.00     0.047 A 
ATOM     14  C   UNL     1     158.979  -6.941  24.820  1.00  0.00     0.020 A 
ATOM     15  C   UNL     1     160.098  -7.124  22.680  1.00  0.00     0.119 A 
ATOM     16  C   UNL     1     158.856  -7.225  22.042  1.00  0.00     0.093 A 
ATOM     17  C   UNL     1     157.669  -7.187  22.790  1.00  0.00     0.130 A 
BRANCH  15  18
ATOM     18  O   UNL     1     161.280  -7.163  21.944  1.00  0.00    -0.508 OA
ATOM     19  H   UNL     1     161.947  -7.917  22.054  1.00  0.00     0.293 HD
ENDBRANCH  15  18
BRANCH  17  20
ATOM     20  O   UNL     1     156.439  -7.339  22.148  1.00  0.00    -0.507 OA
ATOM     21  H   UNL     1     156.379  -7.587  21.168  1.00  0.00     0.293 HD
ENDBRANCH  17  20
ENDBRANCH   1  12
BRANCH   2  22
ATOM     22  O   UNL     1     156.936  -9.186  25.912  1.00  0.00    -0.502 OA
ATOM     23  H   UNL     1     157.938  -9.166  25.768  1.00  0.00     0.293 HD
ENDBRANCH   2  22
BRANCH   6  24
ATOM     24  O   UNL     1     152.571  -7.347  28.358  1.00  0.00    -0.507 OA
ATOM     25  H   UNL     1     152.830  -8.317  28.462  1.00  0.00     0.293 HD
ENDBRANCH   6  24
BRANCH   8  26
ATOM     26  O   UNL     1     151.875  -3.290  25.887  1.00  0.00    -0.508 OA
ATOM     27  H   UNL     1     151.557  -2.697  26.646  1.00  0.00     0.293 HD
ENDBRANCH   8  26
TORSDOF 6
ENDMDL
MODEL 5
REMARK VINA RESULT:    -5.693      1.990      6.883
REMARK INTER + INTRA:          -7.204
REMARK INTER:                  -6.785
REMARK INTRA:                  -0.419
REMARK UNBOUND:                -0.347
REMARK SMILES O=c1c(O)c(-c2ccc(O)cc2O)oc2cc(O)cc(O)c12
REMARK SMILES IDX 5 1 3 2 2 3 1 4 22 5 20 6 19 7 17 8 16 9 15 10 14 11 6 12
REMARK SMILES IDX 8 13 7 14 9 15 11 16 12 17 10 18 13 20 4 22 21 24 18 26
REMARK H PARENT 10 19 13 21 4 23 21 25 18 27
REMARK Flexibility Score: inf
ROOT
ATOM      1  C   UNL     1     157.067  -7.128  24.417  1.00  0.00     0.184 A 
ATOM      2  C   UNL     1     156.913  -7.481  23.067  1.00  0.00     0.208 A 
ATOM      3  C   UNL     1     157.694  -6.830  22.100  1.00  0.00     0.238 A 
ATOM      4  O   UNL     1     157.590  -7.188  20.898  1.00  0.00    -0.285 OA
ATOM      5  C   UNL     1     158.607  -5.822  22.494  1.00  0.00     0.111 A 
ATOM      6  C   UNL     1     159.420  -5.068  21.596  1.00  0.00     0.134 A 
ATOM      7  C   UNL     1     160.382  -4.187  22.107  1.00  0.00     0.093 A 
ATOM      8  C   UNL     1     160.514  -3.985  23.483  1.00  0.00     0.123 A 
ATOM      9  C   UNL     1     159.685  -4.672  24.366  1.00  0.00     0.094 A 
ATOM     10  C   UNL     1     158.741  -5.585  23.888  1.00  0.00     0.146 A 
ATOM     11  O   UNL     1     157.979  -6.227  24.765  1.00  0.00    -0.451 OA
ENDROOT
BRANCH   1  12
ATOM     12  C   UNL     1     156.265  -7.763  25.483  1.00  0.00     0.063 A 
ATOM     13  C   UNL     1     155.857  -9.691  26.906  1.00  0.00     0.047 A 
ATOM     14  C   UNL     1     156.591  -9.064  25.897  1.00  0.00     0.020 A 
ATOM     15  C   UNL     1     154.797  -9.022  27.525  1.00  0.00     0.119 A 
ATOM     16  C   UNL     1     154.478  -7.716  27.135  1.00  0.00     0.093 A 
ATOM     17  C   UNL     1     155.214  -7.076  26.126  1.00  0.00     0.130 A 
BRANCH  15  18
ATOM     18  O   UNL     1     154.072  -9.662  28.527  1.00  0.00    -0.508 OA
ATOM     19  H   UNL     1     153.077  -9.509  28.641  1.00  0.00     0.293 HD
ENDBRANCH  15  18
BRANCH  17  20
ATOM     20  O   UNL     1     154.919  -5.757  25.782  1.00  0.00    -0.507 OA
ATOM     21  H   UNL     1     155.217  -5.359  24.898  1.00  0.00     0.293 HD
ENDBRANCH  17  20
ENDBRANCH   1  12
BRANCH   2  22
ATOM     22  O   UNL     1     156.018  -8.492  22.708  1.00  0.00    -0.502 OA
ATOM     23  H   UNL     1     155.159  -8.662  23.216  1.00  0.00     0.293 HD
ENDBRANCH   2  22
BRANCH   6  24
ATOM     24  O   UNL     1     159.306  -5.126  20.204  1.00  0.00    -0.507 OA
ATOM     25  H   UNL     1     160.084  -5.092  19.562  1.00  0.00     0.293 HD
ENDBRANCH   6  24
BRANCH   8  26
ATOM     26  O   UNL     1     161.463  -3.096  23.983  1.00  0.00    -0.508 OA
ATOM     27  H   UNL     1     161.831  -3.188  24.923  1.00  0.00     0.293 HD
ENDBRANCH   8  26
TORSDOF 6
ENDMDL
MODEL 6
REMARK VINA RESULT:    -5.406      1.815      6.836
REMARK INTER + INTRA:          -6.859
REMARK INTER:                  -6.635
REMARK INTRA:                  -0.224
REMARK UNBOUND:                -0.347
REMARK SMILES O=c1c(O)c(-c2ccc(O)cc2O)oc2cc(O)cc(O)c12
REMARK SMILES IDX 5 1 3 2 2 3 1 4 22 5 20 6 19 7 17 8 16 9 15 10 14 11 6 12
REMARK SMILES IDX 8 13 7 14 9 15 11 16 12 17 10 18 13 20 4 22 21 24 18 26
REMARK H PARENT 10 19 13 21 4 23 21 25 18 27
REMARK Flexibility Score: inf
ROOT
ATOM      1  C   UNL     1     157.145  -6.261  24.970  1.00  0.00     0.184 A 
ATOM      2  C   UNL     1     158.053  -5.241  25.296  1.00  0.00     0.208 A 
ATOM      3  C   UNL     1     159.049  -4.894  24.370  1.00  0.00     0.238 A 
ATOM      4  O   UNL     1     159.826  -3.943  24.646  1.00  0.00    -0.285 OA
ATOM      5  C   UNL     1     159.134  -5.584  23.136  1.00  0.00     0.111 A 
ATOM      6  C   UNL     1     160.127  -5.344  22.140  1.00  0.00     0.134 A 
ATOM      7  C   UNL     1     160.037  -5.995  20.903  1.00  0.00     0.093 A 
ATOM      8  C   UNL     1     159.027  -6.926  20.652  1.00  0.00     0.123 A 
ATOM      9  C   UNL     1     158.086  -7.211  21.639  1.00  0.00     0.094 A 
ATOM     10  C   UNL     1     158.129  -6.551  22.870  1.00  0.00     0.146 A 
ATOM     11  O   UNL     1     157.207  -6.845  23.778  1.00  0.00    -0.451 OA
ENDROOT
BRANCH   1  12
ATOM     12  C   UNL     1     156.084  -6.685  25.905  1.00  0.00     0.063 A 
ATOM     13  C   UNL     1     154.194  -6.086  27.313  1.00  0.00     0.047 A 
ATOM     14  C   UNL     1     155.212  -5.718  26.430  1.00  0.00     0.020 A 
ATOM     15  C   UNL     1     154.024  -7.426  27.672  1.00  0.00     0.119 A 
ATOM     16  C   UNL     1     154.874  -8.402  27.136  1.00  0.00     0.093 A 
ATOM     17  C   UNL     1     155.895  -8.042  26.244  1.00  0.00     0.130 A 
BRANCH  15  18
ATOM     18  O   UNL     1     153.007  -7.777  28.556  1.00  0.00    -0.508 OA
ATOM     19  H   UNL     1     152.154  -8.218  28.233  1.00  0.00     0.293 HD
ENDBRANCH  15  18
BRANCH  17  20
ATOM     20  O   UNL     1     156.703  -9.028  25.679  1.00  0.00    -0.507 OA
ATOM     21  H   UNL     1     157.363  -9.558  26.236  1.00  0.00     0.293 HD
ENDBRANCH  17  20
ENDBRANCH   1  12
BRANCH   2  22
ATOM     22  O   UNL     1     157.935  -4.564  26.513  1.00  0.00    -0.502 OA
ATOM     23  H   UNL     1     157.038  -4.302  26.904  1.00  0.00     0.293 HD
ENDBRANCH   2  22
BRANCH   6  24
ATOM     24  O   UNL     1     161.229  -4.503  22.323  1.00  0.00    -0.507 OA
ATOM     25  H   UNL     1     162.157  -4.817  22.565  1.00  0.00     0.293 HD
ENDBRANCH   6  24
BRANCH   8  26
ATOM     26  O   UNL     1     158.953  -7.580  19.424  1.00  0.00    -0.508 OA
ATOM     27  H   UNL     1     158.247  -7.339  18.736  1.00  0.00     0.293 HD
ENDBRANCH   8  26
TORSDOF 6
ENDMDL
MODEL 7
REMARK VINA RESULT:    -5.396      1.615      1.971
REMARK INTER + INTRA:          -6.846
REMARK INTER:                  -6.418
REMARK INTRA:                  -0.429
REMARK UNBOUND:                -0.347
REMARK SMILES O=c1c(O)c(-c2ccc(O)cc2O)oc2cc(O)cc(O)c12
REMARK SMILES IDX 5 1 3 2 2 3 1 4 22 5 20 6 19 7 17 8 16 9 15 10 14 11 6 12
REMARK SMILES IDX 8 13 7 14 9 15 11 16 12 17 10 18 13 20 4 22 21 24 18 26
REMARK H PARENT 10 19 13 21 4 23 21 25 18 27
REMARK Flexibility Score: inf
ROOT
ATOM      1  C   UNL     1     157.699  -6.313  23.837  1.00  0.00     0.184 A 
ATOM      2  C   UNL     1     157.417  -5.160  24.587  1.00  0.00     0.208 A 
ATOM      3  C   UNL     1     156.523  -5.250  25.666  1.00  0.00     0.238 A 
ATOM      4  O   UNL     1     156.316  -4.225  26.366  1.00  0.00    -0.285 OA
ATOM      5  C   UNL     1     155.911  -6.490  25.970  1.00  0.00     0.111 A 
ATOM      6  C   UNL     1     154.959  -6.689  27.014  1.00  0.00     0.134 A 
ATOM      7  C   UNL     1     154.516  -7.985  27.307  1.00  0.00     0.093 A 
ATOM      8  C   UNL     1     154.941  -9.080  26.551  1.00  0.00     0.123 A 
ATOM      9  C   UNL     1     155.825  -8.888  25.492  1.00  0.00     0.094 A 
ATOM     10  C   UNL     1     156.312  -7.612  25.198  1.00  0.00     0.146 A 
ATOM     11  O   UNL     1     157.161  -7.476  24.186  1.00  0.00    -0.451 OA
ENDROOT
BRANCH   1  12
ATOM     12  C   UNL     1     158.617  -6.282  22.681  1.00  0.00     0.063 A 
ATOM     13  C   UNL     1     159.012  -5.687  20.357  1.00  0.00     0.047 A 
ATOM     14  C   UNL     1     158.168  -5.737  21.468  1.00  0.00     0.020 A 
ATOM     15  C   UNL     1     160.321  -6.169  20.446  1.00  0.00     0.119 A 
ATOM     16  C   UNL     1     160.787  -6.695  21.657  1.00  0.00     0.093 A 
ATOM     17  C   UNL     1     159.947  -6.743  22.780  1.00  0.00     0.130 A 
BRANCH  15  18
ATOM     18  O   UNL     1     161.151  -6.117  19.328  1.00  0.00    -0.508 OA
ATOM     19  H   UNL     1     160.797  -6.303  18.397  1.00  0.00     0.293 HD
ENDBRANCH  15  18
BRANCH  17  20
ATOM     20  O   UNL     1     160.438  -7.223  23.995  1.00  0.00    -0.507 OA
ATOM     21  H   UNL     1     161.431  -7.230  24.201  1.00  0.00     0.293 HD
ENDBRANCH  17  20
ENDBRANCH   1  12
BRANCH   2  22
ATOM     22  O   UNL     1     158.050  -3.953  24.276  1.00  0.00    -0.502 OA
ATOM     23  H   UNL     1     157.534  -3.113  24.044  1.00  0.00     0.293 HD
ENDBRANCH   2  22
BRANCH   6  24
ATOM     24  O   UNL     1     154.401  -5.654  27.769  1.00  0.00    -0.507 OA
ATOM     25  H   UNL     1     153.429  -5.596  28.035  1.00  0.00     0.293 HD
ENDBRANCH   6  24
BRANCH   8  26
ATOM     26  O   UNL     1     154.485 -10.364  26.841  1.00  0.00    -0.508 OA
ATOM     27  H   UNL     1     154.921 -11.186  26.437  1.00  0.00     0.293 HD
ENDBRANCH   8  26
TORSDOF 6
ENDMDL
MODEL 8
REMARK VINA RESULT:    -5.378      2.069      7.131
REMARK INTER + INTRA:          -6.825
REMARK INTER:                  -6.467
REMARK INTRA:                  -0.358
REMARK UNBOUND:                -0.347
REMARK SMILES O=c1c(O)c(-c2ccc(O)cc2O)oc2cc(O)cc(O)c12
REMARK SMILES IDX 5 1 3 2 2 3 1 4 22 5 20 6 19 7 17 8 16 9 15 10 14 11 6 12
REMARK SMILES IDX 8 13 7 14 9 15 11 16 12 17 10 18 13 20 4 22 21 24 18 26
REMARK H PARENT 10 19 13 21 4 23 21 25 18 27
REMARK Flexibility Score: inf
ROOT
ATOM      1  C   UNL     1     157.942  -6.821  23.829  1.00  0.00     0.184 A 
ATOM      2  C   UNL     1     158.607  -5.795  24.519  1.00  0.00     0.208 A 
ATOM      3  C   UNL     1     159.549  -5.013  23.834  1.00  0.00     0.238 A 
ATOM      4  O   UNL     1     160.102  -4.061  24.444  1.00  0.00    -0.285 OA
ATOM      5  C   UNL     1     159.825  -5.278  22.470  1.00  0.00     0.111 A 
ATOM      6  C   UNL     1     160.789  -4.576  21.687  1.00  0.00     0.134 A 
ATOM      7  C   UNL     1     160.886  -4.836  20.314  1.00  0.00     0.093 A 
ATOM      8  C   UNL     1     160.100  -5.819  19.710  1.00  0.00     0.123 A 
ATOM      9  C   UNL     1     159.197  -6.552  20.478  1.00  0.00     0.094 A 
ATOM     10  C   UNL     1     159.052  -6.290  21.843  1.00  0.00     0.146 A 
ATOM     11  O   UNL     1     158.172  -7.004  22.534  1.00  0.00    -0.451 OA
ENDROOT
BRANCH   1  12
ATOM     12  C   UNL     1     156.951  -7.691  24.496  1.00  0.00     0.063 A 
ATOM     13  C   UNL     1     156.452  -9.325  26.225  1.00  0.00     0.047 A 
ATOM     14  C   UNL     1     157.364  -8.496  25.569  1.00  0.00     0.020 A 
ATOM     15  C   UNL     1     155.113  -9.351  25.828  1.00  0.00     0.119 A 
ATOM     16  C   UNL     1     154.685  -8.536  24.773  1.00  0.00     0.093 A 
ATOM     17  C   UNL     1     155.593  -7.695  24.113  1.00  0.00     0.130 A 
BRANCH  15  18
ATOM     18  O   UNL     1     154.216 -10.187  26.489  1.00  0.00    -0.508 OA
ATOM     19  H   UNL     1     153.757  -9.899  27.345  1.00  0.00     0.293 HD
ENDBRANCH  15  18
BRANCH  17  20
ATOM     20  O   UNL     1     155.145  -6.850  23.097  1.00  0.00    -0.507 OA
ATOM     21  H   UNL     1     155.374  -5.862  23.088  1.00  0.00     0.293 HD
ENDBRANCH  17  20
ENDBRANCH   1  12
BRANCH   2  22
ATOM     22  O   UNL     1     158.302  -5.544  25.860  1.00  0.00    -0.502 OA
ATOM     23  H   UNL     1     158.024  -6.277  26.500  1.00  0.00     0.293 HD
ENDBRANCH   2  22
BRANCH   6  24
ATOM     24  O   UNL     1     161.687  -3.640  22.210  1.00  0.00    -0.507 OA
ATOM     25  H   UNL     1     161.781  -3.419  23.190  1.00  0.00     0.293 HD
ENDBRANCH   6  24
BRANCH   8  26
ATOM     26  O   UNL     1     160.213  -6.082  18.347  1.00  0.00    -0.508 OA
ATOM     27  H   UNL     1     161.116  -6.229  17.908  1.00  0.00     0.293 HD
ENDBRANCH   8  26
TORSDOF 6
ENDMDL
MODEL 9
REMARK VINA RESULT:    -5.274      2.801      4.821
REMARK INTER + INTRA:          -6.699
REMARK INTER:                  -6.280
REMARK INTRA:                  -0.419
REMARK UNBOUND:                -0.347
REMARK SMILES O=c1c(O)c(-c2ccc(O)cc2O)oc2cc(O)cc(O)c12
REMARK SMILES IDX 5 1 3 2 2 3 1 4 22 5 20 6 19 7 17 8 16 9 15 10 14 11 6 12
REMARK SMILES IDX 8 13 7 14 9 15 11 16 12 17 10 18 13 20 4 22 21 24 18 26
REMARK H PARENT 10 19 13 21 4 23 21 25 18 27
REMARK Flexibility Score: inf
ROOT
ATOM      1  C   UNL     1     159.277  -6.274  22.505  1.00  0.00     0.184 A 
ATOM      2  C   UNL     1     159.295  -6.723  23.835  1.00  0.00     0.208 A 
ATOM      3  C   UNL     1     158.186  -7.427  24.332  1.00  0.00     0.238 A 
ATOM      4  O   UNL     1     158.232  -7.873  25.508  1.00  0.00    -0.285 OA
ATOM      5  C   UNL     1     157.067  -7.656  23.495  1.00  0.00     0.111 A 
ATOM      6  C   UNL     1     155.873  -8.321  23.905  1.00  0.00     0.134 A 
ATOM      7  C   UNL     1     154.882  -8.608  22.957  1.00  0.00     0.093 A 
ATOM      8  C   UNL     1     155.014  -8.194  21.630  1.00  0.00     0.123 A 
ATOM      9  C   UNL     1     156.150  -7.492  21.233  1.00  0.00     0.094 A 
ATOM     10  C   UNL     1     157.172  -7.223  22.147  1.00  0.00     0.146 A 
ATOM     11  O   UNL     1     158.242  -6.561  21.724  1.00  0.00    -0.451 OA
ENDROOT
BRANCH   1  12
ATOM     12  C   UNL     1     160.404  -5.514  21.926  1.00  0.00     0.063 A 
ATOM     13  C   UNL     1     161.679  -3.447  21.818  1.00  0.00     0.047 A 
ATOM     14  C   UNL     1     160.619  -4.191  22.342  1.00  0.00     0.020 A 
ATOM     15  C   UNL     1     162.546  -4.020  20.884  1.00  0.00     0.119 A 
ATOM     16  C   UNL     1     162.355  -5.346  20.480  1.00  0.00     0.093 A 
ATOM     17  C   UNL     1     161.296  -6.103  21.005  1.00  0.00     0.130 A 
BRANCH  15  18
ATOM     18  O   UNL     1     163.596  -3.264  20.368  1.00  0.00    -0.508 OA
ATOM     19  H   UNL     1     164.556  -3.585  20.420  1.00  0.00     0.293 HD
ENDBRANCH  15  18
BRANCH  17  20
ATOM     20  O   UNL     1     161.146  -7.439  20.632  1.00  0.00    -0.507 OA
ATOM     21  H   UNL     1     161.861  -8.129  20.830  1.00  0.00     0.293 HD
ENDBRANCH  17  20
ENDBRANCH   1  12
BRANCH   2  22
ATOM     22  O   UNL     1     160.421  -6.499  24.633  1.00  0.00    -0.502 OA
ATOM     23  H   UNL     1     160.646  -7.080  25.430  1.00  0.00     0.293 HD
ENDBRANCH   2  22
BRANCH   6  24
ATOM     24  O   UNL     1     155.601  -8.695  25.224  1.00  0.00    -0.507 OA
ATOM     25  H   UNL     1     154.754  -9.152  25.528  1.00  0.00     0.293 HD
ENDBRANCH   6  24
BRANCH   8  26
ATOM     26  O   UNL     1     154.017  -8.470  20.697  1.00  0.00    -0.508 OA
ATOM     27  H   UNL     1     154.039  -9.311  20.130  1.00  0.00     0.293 HD
ENDBRANCH   8  26
TORSDOF 6
ENDMDL
