MODEL 1
REMARK VINA RESULT:    -4.503      0.000      0.000
REMARK INTER + INTRA:          -5.093
REMARK INTER:                  -6.609
REMARK INTRA:                   1.516
REMARK UNBOUND:                 1.516
REMARK SMILES O=c1c(O[C@H]2O[C@@H](CO)[C@H](O)[C@H](O)[C@H]2O)c(-c2ccc(O)c(O)c2)oc2cc(O)cc(O)c12
REMARK SMILES IDX 4 1 3 2 16 3 25 4 2 5 26 6 1 7 33 8 27 9 31 10 28 11 30 12
REMARK SMILES IDX 17 13 18 14 19 15 20 16 24 17 22 18 21 19 23 21 32 23 29 25
REMARK SMILES IDX 5 27 14 28 6 29 12 30 7 31 10 32 15 33 13 35 8 37 9 38 11 40
REMARK H PARENT 21 20 23 22 32 24 29 26 15 34 13 36 9 39 11 41
REMARK Flexibility Score: inf
ROOT
ATOM      1  O   UNL     1     -11.598   8.369   5.669  1.00  0.00    -0.454 OA
ENDROOT
BRANCH   1   2
ATOM      2  C   UNL     1     -10.214   8.552   5.854  1.00  0.00     0.214 A 
ATOM      3  C   UNL     1      -9.498   7.581   6.577  1.00  0.00     0.180 A 
ATOM      4  O   UNL     1      -8.200   7.737   6.796  1.00  0.00    -0.452 OA
ATOM      5  C   UNL     1      -9.513   9.671   5.356  1.00  0.00     0.239 A 
ATOM      6  C   UNL     1      -7.506   8.783   6.367  1.00  0.00     0.146 A 
ATOM      7  O   UNL     1     -10.109  10.488   4.609  1.00  0.00    -0.285 OA
ATOM      8  C   UNL     1      -8.139   9.831   5.653  1.00  0.00     0.111 A 
ATOM      9  C   UNL     1      -6.134   8.825   6.627  1.00  0.00     0.094 A 
ATOM     10  C   UNL     1      -7.351  10.953   5.253  1.00  0.00     0.134 A 
ATOM     11  C   UNL     1      -5.363   9.895   6.178  1.00  0.00     0.123 A 
ATOM     12  C   UNL     1      -5.971  10.948   5.491  1.00  0.00     0.093 A 
BRANCH   3  13
ATOM     13  C   UNL     1     -10.159   6.385   7.147  1.00  0.00     0.025 A 
ATOM     14  C   UNL     1     -10.586   6.353   8.483  1.00  0.00     0.016 A 
ATOM     15  C   UNL     1     -11.205   5.213   8.998  1.00  0.00     0.051 A 
ATOM     16  C   UNL     1     -11.426   4.092   8.189  1.00  0.00     0.157 A 
ATOM     17  C   UNL     1     -10.399   5.272   6.327  1.00  0.00     0.062 A 
ATOM     18  C   UNL     1     -11.023   4.125   6.833  1.00  0.00     0.158 A 
BRANCH  16  19
ATOM     19  O   UNL     1     -12.047   2.982   8.766  1.00  0.00    -0.504 OA
ATOM     20  H   UNL     1     -12.209   2.878   9.756  1.00  0.00     0.293 HD
ENDBRANCH  16  19
BRANCH  18  21
ATOM     21  O   UNL     1     -11.218   3.051   5.963  1.00  0.00    -0.504 OA
ATOM     22  H   UNL     1     -11.821   2.266   6.161  1.00  0.00     0.293 HD
ENDBRANCH  18  21
ENDBRANCH   3  13
BRANCH  10  23
ATOM     23  O   UNL     1      -7.876  12.100   4.653  1.00  0.00    -0.507 OA
ATOM     24  H   UNL     1      -8.800  12.166   4.251  1.00  0.00     0.293 HD
ENDBRANCH  10  23
BRANCH  11  25
ATOM     25  O   UNL     1      -3.992   9.906   6.427  1.00  0.00    -0.508 OA
ATOM     26  H   UNL     1      -3.515  10.748   6.726  1.00  0.00     0.293 HD
ENDBRANCH  11  25
ENDBRANCH   1   2
BRANCH   1  27
ATOM     27  C   UNL     1     -12.582   9.404   5.598  1.00  0.00     0.339 C 
ATOM     28  C   UNL     1     -12.394  10.396   6.757  1.00  0.00     0.214 C 
ATOM     29  O   UNL     1     -13.903   8.880   5.545  1.00  0.00    -0.332 OA
ATOM     30  C   UNL     1     -12.759   9.727   8.087  1.00  0.00     0.180 C 
ATOM     31  C   UNL     1     -14.337   8.250   6.746  1.00  0.00     0.179 C 
ATOM     32  C   UNL     1     -14.182   9.148   7.996  1.00  0.00     0.177 C 
BRANCH  28  33
ATOM     33  O   UNL     1     -11.056  10.828   6.784  1.00  0.00    -0.384 OA
ATOM     34  H   UNL     1     -10.525  10.097   7.197  1.00  0.00     0.211 HD
ENDBRANCH  28  33
BRANCH  30  35
ATOM     35  O   UNL     1     -12.681  10.670   9.125  1.00  0.00    -0.387 OA
ATOM     36  H   UNL     1     -11.904  10.414   9.687  1.00  0.00     0.211 HD
ENDBRANCH  30  35
BRANCH  31  37
ATOM     37  C   UNL     1     -13.742   6.840   6.919  1.00  0.00     0.191 C 
BRANCH  37  38
ATOM     38  O   UNL     1     -13.654   6.202   5.675  1.00  0.00    -0.394 OA
ATOM     39  H   UNL     1     -12.871   6.600   5.214  1.00  0.00     0.210 HD
ENDBRANCH  37  38
ENDBRANCH  31  37
BRANCH  32  40
ATOM     40  O   UNL     1     -15.125  10.189   7.924  1.00  0.00    -0.387 OA
ATOM     41  H   UNL     1     -15.128  10.515   6.986  1.00  0.00     0.211 HD
ENDBRANCH  32  40
ENDBRANCH   1  27
TORSDOF 12
ENDMDL
MODEL 2
REMARK VINA RESULT:    -4.426      1.887      6.381
REMARK INTER + INTRA:          -4.980
REMARK INTER:                  -6.077
REMARK INTRA:                   1.098
REMARK UNBOUND:                 1.516
REMARK SMILES O=c1c(O[C@H]2O[C@@H](CO)[C@H](O)[C@H](O)[C@H]2O)c(-c2ccc(O)c(O)c2)oc2cc(O)cc(O)c12
REMARK SMILES IDX 4 1 3 2 16 3 25 4 2 5 26 6 1 7 33 8 27 9 31 10 28 11 30 12
REMARK SMILES IDX 17 13 18 14 19 15 20 16 24 17 22 18 21 19 23 21 32 23 29 25
REMARK SMILES IDX 5 27 14 28 6 29 12 30 7 31 10 32 15 33 13 35 8 37 9 38 11 40
REMARK H PARENT 21 20 23 22 32 24 29 26 15 34 13 36 9 39 11 41
REMARK Flexibility Score: inf
ROOT
ATOM      1  O   UNL     1     -10.227   7.549   7.304  1.00  0.00    -0.454 OA
ENDROOT
BRANCH   1   2
ATOM      2  C   UNL     1     -10.826   8.421   6.376  1.00  0.00     0.214 A 
ATOM      3  C   UNL     1     -10.027   9.406   5.765  1.00  0.00     0.180 A 
ATOM      4  O   UNL     1     -10.565  10.263   4.909  1.00  0.00    -0.452 OA
ATOM      5  C   UNL     1     -12.194   8.361   6.036  1.00  0.00     0.239 A 
ATOM      6  C   UNL     1     -11.850  10.258   4.579  1.00  0.00     0.146 A 
ATOM      7  O   UNL     1     -12.897   7.418   6.479  1.00  0.00    -0.285 OA
ATOM      8  C   UNL     1     -12.746   9.324   5.158  1.00  0.00     0.111 A 
ATOM      9  C   UNL     1     -12.301  11.188   3.638  1.00  0.00     0.094 A 
ATOM     10  C   UNL     1     -14.126   9.393   4.797  1.00  0.00     0.134 A 
ATOM     11  C   UNL     1     -13.637  11.205   3.246  1.00  0.00     0.123 A 
ATOM     12  C   UNL     1     -14.540  10.308   3.822  1.00  0.00     0.093 A 
BRANCH   3  13
ATOM     13  C   UNL     1      -8.587   9.548   6.076  1.00  0.00     0.025 A 
ATOM     14  C   UNL     1      -7.600   9.098   5.185  1.00  0.00     0.016 A 
ATOM     15  C   UNL     1      -6.248   9.242   5.500  1.00  0.00     0.051 A 
ATOM     16  C   UNL     1      -5.854   9.852   6.697  1.00  0.00     0.157 A 
ATOM     17  C   UNL     1      -8.195  10.181   7.265  1.00  0.00     0.062 A 
ATOM     18  C   UNL     1      -6.841  10.333   7.589  1.00  0.00     0.158 A 
BRANCH  16  19
ATOM     19  O   UNL     1      -4.486   9.962   6.954  1.00  0.00    -0.504 OA
ATOM     20  H   UNL     1      -4.092  10.070   7.877  1.00  0.00     0.293 HD
ENDBRANCH  16  19
BRANCH  18  21
ATOM     21  O   UNL     1      -6.526  10.961   8.795  1.00  0.00    -0.504 OA
ATOM     22  H   UNL     1      -5.714  10.738   9.352  1.00  0.00     0.293 HD
ENDBRANCH  18  21
ENDBRANCH   3  13
BRANCH  10  23
ATOM     23  O   UNL     1     -15.125   8.613   5.386  1.00  0.00    -0.507 OA
ATOM     24  H   UNL     1     -15.043   7.626   5.579  1.00  0.00     0.293 HD
ENDBRANCH  10  23
BRANCH  11  25
ATOM     25  O   UNL     1     -14.061  12.125   2.290  1.00  0.00    -0.508 OA
ATOM     26  H   UNL     1     -14.113  13.116   2.493  1.00  0.00     0.293 HD
ENDBRANCH  11  25
ENDBRANCH   1   2
BRANCH   1  27
ATOM     27  C   UNL     1      -9.491   6.364   6.992  1.00  0.00     0.339 C 
ATOM     28  C   UNL     1     -10.026   5.731   5.697  1.00  0.00     0.214 C 
ATOM     29  O   UNL     1      -9.477   5.444   8.077  1.00  0.00    -0.332 OA
ATOM     30  C   UNL     1     -11.427   5.157   5.932  1.00  0.00     0.180 C 
ATOM     31  C   UNL     1     -10.737   4.847   8.361  1.00  0.00     0.179 C 
ATOM     32  C   UNL     1     -11.391   4.185   7.125  1.00  0.00     0.177 C 
BRANCH  28  33
ATOM     33  O   UNL     1     -10.065   6.708   4.687  1.00  0.00    -0.384 OA
ATOM     34  H   UNL     1     -10.828   6.478   4.093  1.00  0.00     0.211 HD
ENDBRANCH  28  33
BRANCH  30  35
ATOM     35  O   UNL     1     -11.865   4.494   4.774  1.00  0.00    -0.387 OA
ATOM     36  H   UNL     1     -12.716   4.926   4.501  1.00  0.00     0.211 HD
ENDBRANCH  30  35
BRANCH  31  37
ATOM     37  C   UNL     1     -11.679   5.796   9.125  1.00  0.00     0.191 C 
BRANCH  37  38
ATOM     38  O   UNL     1     -13.011   5.516   8.794  1.00  0.00    -0.394 OA
ATOM     39  H   UNL     1     -13.252   6.137   8.059  1.00  0.00     0.210 HD
ENDBRANCH  37  38
ENDBRANCH  31  37
BRANCH  32  40
ATOM     40  O   UNL     1     -10.657   3.034   6.788  1.00  0.00    -0.387 OA
ATOM     41  H   UNL     1     -11.278   2.419   6.316  1.00  0.00     0.211 HD
ENDBRANCH  32  40
ENDBRANCH   1  27
TORSDOF 12
ENDMDL
MODEL 3
REMARK VINA RESULT:    -3.242      1.935      5.066
REMARK INTER + INTRA:          -3.243
REMARK INTER:                  -2.837
REMARK INTRA:                  -0.406
REMARK UNBOUND:                 1.516
REMARK SMILES O=c1c(O[C@H]2O[C@@H](CO)[C@H](O)[C@H](O)[C@H]2O)c(-c2ccc(O)c(O)c2)oc2cc(O)cc(O)c12
REMARK SMILES IDX 4 1 3 2 16 3 25 4 2 5 26 6 1 7 33 8 27 9 31 10 28 11 30 12
REMARK SMILES IDX 17 13 18 14 19 15 20 16 24 17 22 18 21 19 23 21 32 23 29 25
REMARK SMILES IDX 5 27 14 28 6 29 12 30 7 31 10 32 15 33 13 35 8 37 9 38 11 40
REMARK H PARENT 21 20 23 22 32 24 29 26 15 34 13 36 9 39 11 41
REMARK Flexibility Score: inf
ROOT
ATOM      1  O   UNL     1     -11.144   8.071   6.235  1.00  0.00    -0.454 OA
ENDROOT
BRANCH   1   2
ATOM      2  C   UNL     1      -9.999   8.883   6.124  1.00  0.00     0.214 A 
ATOM      3  C   UNL     1     -10.124  10.140   5.504  1.00  0.00     0.180 A 
ATOM      4  O   UNL     1      -9.060  10.918   5.356  1.00  0.00    -0.452 OA
ATOM      5  C   UNL     1      -8.730   8.491   6.598  1.00  0.00     0.239 A 
ATOM      6  C   UNL     1      -7.844  10.580   5.765  1.00  0.00     0.146 A 
ATOM      7  O   UNL     1      -8.620   7.427   7.258  1.00  0.00    -0.285 OA
ATOM      8  C   UNL     1      -7.606   9.323   6.377  1.00  0.00     0.111 A 
ATOM      9  C   UNL     1      -6.803  11.494   5.588  1.00  0.00     0.094 A 
ATOM     10  C   UNL     1      -6.270   8.996   6.758  1.00  0.00     0.134 A 
ATOM     11  C   UNL     1      -5.514  11.190   6.021  1.00  0.00     0.123 A 
ATOM     12  C   UNL     1      -5.255   9.948   6.606  1.00  0.00     0.093 A 
BRANCH   3  13
ATOM     13  C   UNL     1     -11.416  10.623   4.966  1.00  0.00     0.025 A 
ATOM     14  C   UNL     1     -12.428  11.098   5.813  1.00  0.00     0.016 A 
ATOM     15  C   UNL     1     -13.638  11.547   5.283  1.00  0.00     0.051 A 
ATOM     16  C   UNL     1     -13.856  11.548   3.900  1.00  0.00     0.157 A 
ATOM     17  C   UNL     1     -11.622  10.644   3.579  1.00  0.00     0.062 A 
ATOM     18  C   UNL     1     -12.831  11.095   3.036  1.00  0.00     0.158 A 
BRANCH  16  19
ATOM     19  O   UNL     1     -15.090  12.006   3.433  1.00  0.00    -0.504 OA
ATOM     20  H   UNL     1     -15.876  11.406   3.232  1.00  0.00     0.293 HD
ENDBRANCH  16  19
BRANCH  18  21
ATOM     21  O   UNL     1     -12.971  11.076   1.647  1.00  0.00    -0.504 OA
ATOM     22  H   UNL     1     -12.892  11.893   1.060  1.00  0.00     0.293 HD
ENDBRANCH  18  21
ENDBRANCH   3  13
BRANCH  10  23
ATOM     23  O   UNL     1      -5.885   7.749   7.257  1.00  0.00    -0.507 OA
ATOM     24  H   UNL     1      -5.962   7.469   8.224  1.00  0.00     0.293 HD
ENDBRANCH  10  23
BRANCH  11  25
ATOM     25  O   UNL     1      -4.495  12.125   5.856  1.00  0.00    -0.508 OA
ATOM     26  H   UNL     1      -3.994  12.215   4.980  1.00  0.00     0.293 HD
ENDBRANCH  11  25
ENDBRANCH   1   2
BRANCH   1  27
ATOM     27  C   UNL     1     -11.257   6.878   7.015  1.00  0.00     0.339 C 
ATOM     28  C   UNL     1     -11.055   5.640   6.126  1.00  0.00     0.214 C 
ATOM     29  O   UNL     1     -12.481   6.829   7.739  1.00  0.00    -0.332 OA
ATOM     30  C   UNL     1     -12.240   5.483   5.166  1.00  0.00     0.180 C 
ATOM     31  C   UNL     1     -13.640   6.669   6.928  1.00  0.00     0.179 C 
ATOM     32  C   UNL     1     -13.552   5.457   5.970  1.00  0.00     0.177 C 
BRANCH  28  33
ATOM     33  O   UNL     1      -9.860   5.782   5.400  1.00  0.00    -0.384 OA
ATOM     34  H   UNL     1      -9.691   6.757   5.311  1.00  0.00     0.211 HD
ENDBRANCH  28  33
BRANCH  30  35
ATOM     35  O   UNL     1     -12.095   4.295   4.430  1.00  0.00    -0.387 OA
ATOM     36  H   UNL     1     -11.121   4.119   4.361  1.00  0.00     0.211 HD
ENDBRANCH  30  35
BRANCH  31  37
ATOM     37  C   UNL     1     -14.057   7.978   6.232  1.00  0.00     0.191 C 
BRANCH  37  38
ATOM     38  O   UNL     1     -14.818   8.763   7.108  1.00  0.00    -0.394 OA
ATOM     39  H   UNL     1     -15.496   8.158   7.505  1.00  0.00     0.210 HD
ENDBRANCH  37  38
ENDBRANCH  31  37
BRANCH  32  40
ATOM     40  O   UNL     1     -13.631   4.275   6.730  1.00  0.00    -0.387 OA
ATOM     41  H   UNL     1     -13.090   3.589   6.259  1.00  0.00     0.211 HD
ENDBRANCH  32  40
ENDBRANCH   1  27
TORSDOF 12
ENDMDL
MODEL 4
REMARK VINA RESULT:    -2.974      0.953      2.203
REMARK INTER + INTRA:          -2.849
REMARK INTER:                  -6.434
REMARK INTRA:                   3.585
REMARK UNBOUND:                 1.516
REMARK SMILES O=c1c(O[C@H]2O[C@@H](CO)[C@H](O)[C@H](O)[C@H]2O)c(-c2ccc(O)c(O)c2)oc2cc(O)cc(O)c12
REMARK SMILES IDX 4 1 3 2 16 3 25 4 2 5 26 6 1 7 33 8 27 9 31 10 28 11 30 12
REMARK SMILES IDX 17 13 18 14 19 15 20 16 24 17 22 18 21 19 23 21 32 23 29 25
REMARK SMILES IDX 5 27 14 28 6 29 12 30 7 31 10 32 15 33 13 35 8 37 9 38 11 40
REMARK H PARENT 21 20 23 22 32 24 29 26 15 34 13 36 9 39 11 41
REMARK Flexibility Score: inf
ROOT
ATOM      1  O   UNL     1     -11.542   8.230   5.464  1.00  0.00    -0.454 OA
ENDROOT
BRANCH   1   2
ATOM      2  C   UNL     1     -10.187   8.443   5.780  1.00  0.00     0.214 A 
ATOM      3  C   UNL     1      -9.526   7.495   6.583  1.00  0.00     0.180 A 
ATOM      4  O   UNL     1      -8.258   7.680   6.924  1.00  0.00    -0.452 OA
ATOM      5  C   UNL     1      -9.463   9.570   5.337  1.00  0.00     0.239 A 
ATOM      6  C   UNL     1      -7.547   8.736   6.550  1.00  0.00     0.146 A 
ATOM      7  O   UNL     1      -9.999  10.366   4.525  1.00  0.00    -0.285 OA
ATOM      8  C   UNL     1      -8.127   9.762   5.763  1.00  0.00     0.111 A 
ATOM      9  C   UNL     1      -6.207   8.809   6.941  1.00  0.00     0.094 A 
ATOM     10  C   UNL     1      -7.326  10.895   5.427  1.00  0.00     0.134 A 
ATOM     11  C   UNL     1      -5.417   9.888   6.554  1.00  0.00     0.123 A 
ATOM     12  C   UNL     1      -5.976  10.921   5.797  1.00  0.00     0.093 A 
BRANCH   3  13
ATOM     13  C   UNL     1     -10.215   6.292   7.102  1.00  0.00     0.025 A 
ATOM     14  C   UNL     1     -10.607   6.198   8.446  1.00  0.00     0.016 A 
ATOM     15  C   UNL     1     -11.254   5.053   8.912  1.00  0.00     0.051 A 
ATOM     16  C   UNL     1     -11.540   3.991   8.047  1.00  0.00     0.157 A 
ATOM     17  C   UNL     1     -10.521   5.240   6.227  1.00  0.00     0.062 A 
ATOM     18  C   UNL     1     -11.174   4.088   6.684  1.00  0.00     0.158 A 
BRANCH  16  19
ATOM     19  O   UNL     1     -12.186   2.872   8.578  1.00  0.00    -0.504 OA
ATOM     20  H   UNL     1     -11.846   1.927   8.484  1.00  0.00     0.293 HD
ENDBRANCH  16  19
BRANCH  18  21
ATOM     21  O   UNL     1     -11.434   3.075   5.760  1.00  0.00    -0.504 OA
ATOM     22  H   UNL     1     -11.464   3.217   4.761  1.00  0.00     0.293 HD
ENDBRANCH  18  21
ENDBRANCH   3  13
BRANCH  10  23
ATOM     23  O   UNL     1      -7.812  12.024   4.763  1.00  0.00    -0.507 OA
ATOM     24  H   UNL     1      -7.425  12.400   3.910  1.00  0.00     0.293 HD
ENDBRANCH  10  23
BRANCH  11  25
ATOM     25  O   UNL     1      -4.077   9.931   6.934  1.00  0.00    -0.508 OA
ATOM     26  H   UNL     1      -3.414   9.232   6.620  1.00  0.00     0.293 HD
ENDBRANCH  11  25
ENDBRANCH   1   2
BRANCH   1  27
ATOM     27  C   UNL     1     -12.633   8.233   6.388  1.00  0.00     0.339 C 
ATOM     28  C   UNL     1     -13.937   8.620   5.671  1.00  0.00     0.214 C 
ATOM     29  O   UNL     1     -12.373   9.059   7.517  1.00  0.00    -0.332 OA
ATOM     30  C   UNL     1     -13.892  10.095   5.257  1.00  0.00     0.180 C 
ATOM     31  C   UNL     1     -12.327  10.453   7.231  1.00  0.00     0.179 C 
ATOM     32  C   UNL     1     -13.585  10.965   6.489  1.00  0.00     0.177 C 
BRANCH  28  33
ATOM     33  O   UNL     1     -14.100   7.804   4.538  1.00  0.00    -0.384 OA
ATOM     34  H   UNL     1     -15.061   7.844   4.290  1.00  0.00     0.211 HD
ENDBRANCH  28  33
BRANCH  30  35
ATOM     35  O   UNL     1     -15.125  10.463   4.694  1.00  0.00    -0.387 OA
ATOM     36  H   UNL     1     -14.983  11.334   4.239  1.00  0.00     0.211 HD
ENDBRANCH  30  35
BRANCH  31  37
ATOM     37  C   UNL     1     -11.003  10.874   6.566  1.00  0.00     0.191 C 
BRANCH  37  38
ATOM     38  O   UNL     1     -10.352  11.827   7.360  1.00  0.00    -0.394 OA
ATOM     39  H   UNL     1     -11.029  12.519   7.575  1.00  0.00     0.210 HD
ENDBRANCH  37  38
ENDBRANCH  31  37
BRANCH  32  40
ATOM     40  O   UNL     1     -14.674  10.943   7.380  1.00  0.00    -0.387 OA
ATOM     41  H   UNL     1     -14.846   9.992   7.608  1.00  0.00     0.211 HD
ENDBRANCH  32  40
ENDBRANCH   1  27
TORSDOF 12
ENDMDL
MODEL 5
REMARK VINA RESULT:    -2.964      1.893      5.973
REMARK INTER + INTRA:          -2.833
REMARK INTER:                  -3.965
REMARK INTRA:                   1.132
REMARK UNBOUND:                 1.516
REMARK SMILES O=c1c(O[C@H]2O[C@@H](CO)[C@H](O)[C@H](O)[C@H]2O)c(-c2ccc(O)c(O)c2)oc2cc(O)cc(O)c12
REMARK SMILES IDX 4 1 3 2 16 3 25 4 2 5 26 6 1 7 33 8 27 9 31 10 28 11 30 12
REMARK SMILES IDX 17 13 18 14 19 15 20 16 24 17 22 18 21 19 23 21 32 23 29 25
REMARK SMILES IDX 5 27 14 28 6 29 12 30 7 31 10 32 15 33 13 35 8 37 9 38 11 40
REMARK H PARENT 21 20 23 22 32 24 29 26 15 34 13 36 9 39 11 41
REMARK Flexibility Score: inf
ROOT
ATOM      1  O   UNL     1     -11.582   8.825   7.017  1.00  0.00    -0.454 OA
ENDROOT
BRANCH   1   2
ATOM      2  C   UNL     1     -11.150   7.671   6.336  1.00  0.00     0.214 A 
ATOM      3  C   UNL     1      -9.853   7.658   5.790  1.00  0.00     0.180 A 
ATOM      4  O   UNL     1      -9.425   6.599   5.117  1.00  0.00    -0.452 OA
ATOM      5  C   UNL     1     -11.962   6.530   6.165  1.00  0.00     0.239 A 
ATOM      6  C   UNL     1     -10.162   5.515   4.912  1.00  0.00     0.146 A 
ATOM      7  O   UNL     1     -13.077   6.475   6.743  1.00  0.00    -0.285 OA
ATOM      8  C   UNL     1     -11.493   5.439   5.396  1.00  0.00     0.111 A 
ATOM      9  C   UNL     1      -9.595   4.444   4.217  1.00  0.00     0.094 A 
ATOM     10  C   UNL     1     -12.253   4.264   5.110  1.00  0.00     0.134 A 
ATOM     11  C   UNL     1     -10.325   3.278   3.997  1.00  0.00     0.123 A 
ATOM     12  C   UNL     1     -11.644   3.192   4.447  1.00  0.00     0.093 A 
BRANCH   3  13
ATOM     13  C   UNL     1      -8.942   8.818   5.910  1.00  0.00     0.025 A 
ATOM     14  C   UNL     1      -9.336  10.102   5.503  1.00  0.00     0.016 A 
ATOM     15  C   UNL     1      -8.459  11.180   5.625  1.00  0.00     0.051 A 
ATOM     16  C   UNL     1      -7.182  11.005   6.170  1.00  0.00     0.157 A 
ATOM     17  C   UNL     1      -7.672   8.643   6.478  1.00  0.00     0.062 A 
ATOM     18  C   UNL     1      -6.785   9.719   6.608  1.00  0.00     0.158 A 
BRANCH  16  19
ATOM     19  O   UNL     1      -6.351  12.123   6.261  1.00  0.00    -0.504 OA
ATOM     20  H   UNL     1      -6.615  13.049   5.957  1.00  0.00     0.293 HD
ENDBRANCH  16  19
BRANCH  18  21
ATOM     21  O   UNL     1      -5.533   9.468   7.171  1.00  0.00    -0.504 OA
ATOM     22  H   UNL     1      -4.667   9.483   6.652  1.00  0.00     0.293 HD
ENDBRANCH  18  21
ENDBRANCH   3  13
BRANCH  10  23
ATOM     23  O   UNL     1     -13.606   4.116   5.424  1.00  0.00    -0.507 OA
ATOM     24  H   UNL     1     -14.365   4.260   4.775  1.00  0.00     0.293 HD
ENDBRANCH  10  23
BRANCH  11  25
ATOM     25  O   UNL     1      -9.733   2.213   3.322  1.00  0.00    -0.508 OA
ATOM     26  H   UNL     1      -8.896   1.761   3.674  1.00  0.00     0.293 HD
ENDBRANCH  11  25
ENDBRANCH   1   2
BRANCH   1  27
ATOM     27  C   UNL     1     -12.915   9.090   7.463  1.00  0.00     0.339 C 
ATOM     28  C   UNL     1     -13.805   9.483   6.273  1.00  0.00     0.214 C 
ATOM     29  O   UNL     1     -12.945  10.059   8.503  1.00  0.00    -0.332 OA
ATOM     30  C   UNL     1     -13.391  10.858   5.737  1.00  0.00     0.180 C 
ATOM     31  C   UNL     1     -12.588  11.376   8.095  1.00  0.00     0.179 C 
ATOM     32  C   UNL     1     -13.409  11.883   6.885  1.00  0.00     0.177 C 
BRANCH  28  33
ATOM     33  O   UNL     1     -13.682   8.512   5.263  1.00  0.00    -0.384 OA
ATOM     34  H   UNL     1     -14.399   7.843   5.417  1.00  0.00     0.211 HD
ENDBRANCH  28  33
BRANCH  30  35
ATOM     35  O   UNL     1     -14.274  11.251   4.718  1.00  0.00    -0.387 OA
ATOM     36  H   UNL     1     -15.132  10.780   4.885  1.00  0.00     0.211 HD
ENDBRANCH  30  35
BRANCH  31  37
ATOM     37  C   UNL     1     -11.067  11.546   7.925  1.00  0.00     0.191 C 
BRANCH  37  38
ATOM     38  O   UNL     1     -10.502  12.014   9.119  1.00  0.00    -0.394 OA
ATOM     39  H   UNL     1     -10.611  11.284   9.782  1.00  0.00     0.210 HD
ENDBRANCH  37  38
ENDBRANCH  31  37
BRANCH  32  40
ATOM     40  O   UNL     1     -14.731  12.118   7.304  1.00  0.00    -0.387 OA
ATOM     41  H   UNL     1     -15.326  11.618   6.686  1.00  0.00     0.211 HD
ENDBRANCH  32  40
ENDBRANCH   1  27
TORSDOF 12
ENDMDL
MODEL 6
REMARK VINA RESULT:    -2.536      1.887      3.031
REMARK INTER + INTRA:          -2.206
REMARK INTER:                  -2.384
REMARK INTRA:                   0.178
REMARK UNBOUND:                 1.516
REMARK SMILES O=c1c(O[C@H]2O[C@@H](CO)[C@H](O)[C@H](O)[C@H]2O)c(-c2ccc(O)c(O)c2)oc2cc(O)cc(O)c12
REMARK SMILES IDX 4 1 3 2 16 3 25 4 2 5 26 6 1 7 33 8 27 9 31 10 28 11 30 12
REMARK SMILES IDX 17 13 18 14 19 15 20 16 24 17 22 18 21 19 23 21 32 23 29 25
REMARK SMILES IDX 5 27 14 28 6 29 12 30 7 31 10 32 15 33 13 35 8 37 9 38 11 40
REMARK H PARENT 21 20 23 22 32 24 29 26 15 34 13 36 9 39 11 41
REMARK Flexibility Score: inf
ROOT
ATOM      1  O   UNL     1     -11.422   7.705   6.414  1.00  0.00    -0.454 OA
ENDROOT
BRANCH   1   2
ATOM      2  C   UNL     1     -10.166   8.277   6.140  1.00  0.00     0.214 A 
ATOM      3  C   UNL     1      -9.238   7.535   5.388  1.00  0.00     0.180 A 
ATOM      4  O   UNL     1      -8.034   8.032   5.137  1.00  0.00    -0.452 OA
ATOM      5  C   UNL     1      -9.790   9.559   6.595  1.00  0.00     0.239 A 
ATOM      6  C   UNL     1      -7.630   9.221   5.565  1.00  0.00     0.146 A 
ATOM      7  O   UNL     1     -10.643  10.284   7.167  1.00  0.00    -0.285 OA
ATOM      8  C   UNL     1      -8.480  10.036   6.355  1.00  0.00     0.111 A 
ATOM      9  C   UNL     1      -6.351   9.658   5.211  1.00  0.00     0.094 A 
ATOM     10  C   UNL     1      -7.976  11.288   6.822  1.00  0.00     0.134 A 
ATOM     11  C   UNL     1      -5.893  10.908   5.620  1.00  0.00     0.123 A 
ATOM     12  C   UNL     1      -6.706  11.717   6.418  1.00  0.00     0.093 A 
BRANCH   3  13
ATOM     13  C   UNL     1      -9.545   6.177   4.885  1.00  0.00     0.025 A 
ATOM     14  C   UNL     1      -8.795   5.593   3.853  1.00  0.00     0.016 A 
ATOM     15  C   UNL     1      -9.105   4.312   3.395  1.00  0.00     0.051 A 
ATOM     16  C   UNL     1     -10.154   3.583   3.966  1.00  0.00     0.157 A 
ATOM     17  C   UNL     1     -10.582   5.440   5.475  1.00  0.00     0.062 A 
ATOM     18  C   UNL     1     -10.899   4.152   5.025  1.00  0.00     0.158 A 
BRANCH  16  19
ATOM     19  O   UNL     1     -10.415   2.308   3.459  1.00  0.00    -0.504 OA
ATOM     20  H   UNL     1     -11.256   2.060   2.959  1.00  0.00     0.293 HD
ENDBRANCH  16  19
BRANCH  18  21
ATOM     21  O   UNL     1     -11.952   3.483   5.651  1.00  0.00    -0.504 OA
ATOM     22  H   UNL     1     -12.434   2.691   5.252  1.00  0.00     0.293 HD
ENDBRANCH  18  21
ENDBRANCH   3  13
BRANCH  10  23
ATOM     23  O   UNL     1      -8.666  12.125   7.704  1.00  0.00    -0.507 OA
ATOM     24  H   UNL     1      -8.229  12.796   8.318  1.00  0.00     0.293 HD
ENDBRANCH  10  23
BRANCH  11  25
ATOM     25  O   UNL     1      -4.624  11.334   5.237  1.00  0.00    -0.508 OA
ATOM     26  H   UNL     1      -4.467  12.262   4.861  1.00  0.00     0.293 HD
ENDBRANCH  11  25
ENDBRANCH   1   2
BRANCH   1  27
ATOM     27  C   UNL     1     -12.196   7.899   7.600  1.00  0.00     0.339 C 
ATOM     28  C   UNL     1     -12.182   6.625   8.460  1.00  0.00     0.214 C 
ATOM     29  O   UNL     1     -13.517   8.339   7.309  1.00  0.00    -0.332 OA
ATOM     30  C   UNL     1     -12.975   5.513   7.766  1.00  0.00     0.180 C 
ATOM     31  C   UNL     1     -14.337   7.364   6.673  1.00  0.00     0.179 C 
ATOM     32  C   UNL     1     -14.392   6.020   7.439  1.00  0.00     0.177 C 
BRANCH  28  33
ATOM     33  O   UNL     1     -10.851   6.218   8.660  1.00  0.00    -0.384 OA
ATOM     34  H   UNL     1     -10.274   6.990   8.423  1.00  0.00     0.211 HD
ENDBRANCH  28  33
BRANCH  30  35
ATOM     35  O   UNL     1     -13.041   4.388   8.604  1.00  0.00    -0.387 OA
ATOM     36  H   UNL     1     -12.693   4.670   9.490  1.00  0.00     0.211 HD
ENDBRANCH  30  35
BRANCH  31  37
ATOM     37  C   UNL     1     -14.014   7.209   5.175  1.00  0.00     0.191 C 
BRANCH  37  38
ATOM     38  O   UNL     1     -13.955   5.851   4.837  1.00  0.00    -0.394 OA
ATOM     39  H   UNL     1     -14.798   5.648   4.355  1.00  0.00     0.210 HD
ENDBRANCH  37  38
ENDBRANCH  31  37
BRANCH  32  40
ATOM     40  O   UNL     1     -15.124   6.206   8.625  1.00  0.00    -0.387 OA
ATOM     41  H   UNL     1     -15.387   5.306   8.951  1.00  0.00     0.211 HD
ENDBRANCH  32  40
ENDBRANCH   1  27
TORSDOF 12
ENDMDL
MODEL 7
REMARK VINA RESULT:    -2.454      1.897      4.914
REMARK INTER + INTRA:          -2.086
REMARK INTER:                  -1.121
REMARK INTRA:                  -0.964
REMARK UNBOUND:                 1.516
REMARK SMILES O=c1c(O[C@H]2O[C@@H](CO)[C@H](O)[C@H](O)[C@H]2O)c(-c2ccc(O)c(O)c2)oc2cc(O)cc(O)c12
REMARK SMILES IDX 4 1 3 2 16 3 25 4 2 5 26 6 1 7 33 8 27 9 31 10 28 11 30 12
REMARK SMILES IDX 17 13 18 14 19 15 20 16 24 17 22 18 21 19 23 21 32 23 29 25
REMARK SMILES IDX 5 27 14 28 6 29 12 30 7 31 10 32 15 33 13 35 8 37 9 38 11 40
REMARK H PARENT 21 20 23 22 32 24 29 26 15 34 13 36 9 39 11 41
REMARK Flexibility Score: inf
ROOT
ATOM      1  O   UNL     1     -11.058   8.160   6.638  1.00  0.00    -0.454 OA
ENDROOT
BRANCH   1   2
ATOM      2  C   UNL     1      -9.913   8.957   6.448  1.00  0.00     0.214 A 
ATOM      3  C   UNL     1     -10.061  10.210   5.827  1.00  0.00     0.180 A 
ATOM      4  O   UNL     1      -8.999  10.973   5.605  1.00  0.00    -0.452 OA
ATOM      5  C   UNL     1      -8.621   8.552   6.844  1.00  0.00     0.239 A 
ATOM      6  C   UNL     1      -7.764  10.622   5.939  1.00  0.00     0.146 A 
ATOM      7  O   UNL     1      -8.483   7.491   7.504  1.00  0.00    -0.285 OA
ATOM      8  C   UNL     1      -7.504   9.368   6.545  1.00  0.00     0.111 A 
ATOM      9  C   UNL     1      -6.725  11.522   5.688  1.00  0.00     0.094 A 
ATOM     10  C   UNL     1      -6.150   9.026   6.843  1.00  0.00     0.134 A 
ATOM     11  C   UNL     1      -5.415  11.204   6.041  1.00  0.00     0.123 A 
ATOM     12  C   UNL     1      -5.135   9.964   6.619  1.00  0.00     0.093 A 
BRANCH   3  13
ATOM     13  C   UNL     1     -11.378  10.706   5.368  1.00  0.00     0.025 A 
ATOM     14  C   UNL     1     -12.263  11.351   6.245  1.00  0.00     0.016 A 
ATOM     15  C   UNL     1     -13.500  11.808   5.790  1.00  0.00     0.051 A 
ATOM     16  C   UNL     1     -13.871  11.648   4.450  1.00  0.00     0.157 A 
ATOM     17  C   UNL     1     -11.738  10.565   4.019  1.00  0.00     0.062 A 
ATOM     18  C   UNL     1     -12.976  11.024   3.551  1.00  0.00     0.158 A 
BRANCH  16  19
ATOM     19  O   UNL     1     -15.125  12.125   4.059  1.00  0.00    -0.504 OA
ATOM     20  H   UNL     1     -15.981  11.597   4.144  1.00  0.00     0.293 HD
ENDBRANCH  16  19
BRANCH  18  21
ATOM     21  O   UNL     1     -13.271  10.838   2.200  1.00  0.00    -0.504 OA
ATOM     22  H   UNL     1     -13.543  11.582   1.574  1.00  0.00     0.293 HD
ENDBRANCH  18  21
ENDBRANCH   3  13
BRANCH  10  23
ATOM     23  O   UNL     1      -5.749   7.778   7.327  1.00  0.00    -0.507 OA
ATOM     24  H   UNL     1      -5.151   7.134   6.830  1.00  0.00     0.293 HD
ENDBRANCH  10  23
BRANCH  11  25
ATOM     25  O   UNL     1      -4.397  12.125   5.804  1.00  0.00    -0.508 OA
ATOM     26  H   UNL     1      -4.053  12.736   6.535  1.00  0.00     0.293 HD
ENDBRANCH  11  25
ENDBRANCH   1   2
BRANCH   1  27
ATOM     27  C   UNL     1     -11.498   7.101   5.784  1.00  0.00     0.339 C 
ATOM     28  C   UNL     1     -13.034   7.066   5.730  1.00  0.00     0.214 C 
ATOM     29  O   UNL     1     -10.942   5.848   6.160  1.00  0.00    -0.332 OA
ATOM     30  C   UNL     1     -13.598   6.613   7.081  1.00  0.00     0.180 C 
ATOM     31  C   UNL     1     -11.420   5.338   7.401  1.00  0.00     0.179 C 
ATOM     32  C   UNL     1     -12.964   5.268   7.477  1.00  0.00     0.177 C 
BRANCH  28  33
ATOM     33  O   UNL     1     -13.515   8.348   5.409  1.00  0.00    -0.384 OA
ATOM     34  H   UNL     1     -14.235   8.226   4.736  1.00  0.00     0.211 HD
ENDBRANCH  28  33
BRANCH  30  35
ATOM     35  O   UNL     1     -14.994   6.487   6.990  1.00  0.00    -0.387 OA
ATOM     36  H   UNL     1     -15.371   6.882   7.818  1.00  0.00     0.211 HD
ENDBRANCH  30  35
BRANCH  31  37
ATOM     37  C   UNL     1     -10.772   6.034   8.612  1.00  0.00     0.191 C 
BRANCH  37  38
ATOM     38  O   UNL     1      -9.560   5.409   8.931  1.00  0.00    -0.394 OA
ATOM     39  H   UNL     1      -8.980   6.112   9.324  1.00  0.00     0.210 HD
ENDBRANCH  37  38
ENDBRANCH  31  37
BRANCH  32  40
ATOM     40  O   UNL     1     -13.412   4.249   6.617  1.00  0.00    -0.387 OA
ATOM     41  H   UNL     1     -13.874   3.574   7.179  1.00  0.00     0.211 HD
ENDBRANCH  32  40
ENDBRANCH   1  27
TORSDOF 12
ENDMDL
MODEL 8
REMARK VINA RESULT:    -2.409      2.027      6.768
REMARK INTER + INTRA:          -2.019
REMARK INTER:                  -2.455
REMARK INTRA:                   0.436
REMARK UNBOUND:                 1.516
REMARK SMILES O=c1c(O[C@H]2O[C@@H](CO)[C@H](O)[C@H](O)[C@H]2O)c(-c2ccc(O)c(O)c2)oc2cc(O)cc(O)c12
REMARK SMILES IDX 4 1 3 2 16 3 25 4 2 5 26 6 1 7 33 8 27 9 31 10 28 11 30 12
REMARK SMILES IDX 17 13 18 14 19 15 20 16 24 17 22 18 21 19 23 21 32 23 29 25
REMARK SMILES IDX 5 27 14 28 6 29 12 30 7 31 10 32 15 33 13 35 8 37 9 38 11 40
REMARK H PARENT 21 20 23 22 32 24 29 26 15 34 13 36 9 39 11 41
REMARK Flexibility Score: inf
ROOT
ATOM      1  O   UNL     1     -10.421   9.685   6.379  1.00  0.00    -0.454 OA
ENDROOT
BRANCH   1   2
ATOM      2  C   UNL     1     -10.863   8.351   6.307  1.00  0.00     0.214 A 
ATOM      3  C   UNL     1     -12.005   8.060   5.538  1.00  0.00     0.180 A 
ATOM      4  O   UNL     1     -12.465   6.818   5.474  1.00  0.00    -0.452 OA
ATOM      5  C   UNL     1     -10.219   7.291   6.980  1.00  0.00     0.239 A 
ATOM      6  C   UNL     1     -11.905   5.796   6.109  1.00  0.00     0.146 A 
ATOM      7  O   UNL     1      -9.133   7.509   7.575  1.00  0.00    -0.285 OA
ATOM      8  C   UNL     1     -10.767   5.987   6.932  1.00  0.00     0.111 A 
ATOM      9  C   UNL     1     -12.457   4.523   5.940  1.00  0.00     0.094 A 
ATOM     10  C   UNL     1     -10.233   4.859   7.625  1.00  0.00     0.134 A 
ATOM     11  C   UNL     1     -11.889   3.419   6.571  1.00  0.00     0.123 A 
ATOM     12  C   UNL     1     -10.781   3.590   7.404  1.00  0.00     0.093 A 
BRANCH   3  13
ATOM     13  C   UNL     1     -12.749   9.113   4.812  1.00  0.00     0.025 A 
ATOM     14  C   UNL     1     -14.063   9.455   5.167  1.00  0.00     0.016 A 
ATOM     15  C   UNL     1     -14.745  10.451   4.467  1.00  0.00     0.051 A 
ATOM     16  C   UNL     1     -14.126  11.137   3.415  1.00  0.00     0.157 A 
ATOM     17  C   UNL     1     -12.118   9.814   3.774  1.00  0.00     0.062 A 
ATOM     18  C   UNL     1     -12.792  10.818   3.068  1.00  0.00     0.158 A 
BRANCH  16  19
ATOM     19  O   UNL     1     -14.864  12.120   2.752  1.00  0.00    -0.504 OA
ATOM     20  H   UNL     1     -14.865  12.247   1.751  1.00  0.00     0.293 HD
ENDBRANCH  16  19
BRANCH  18  21
ATOM     21  O   UNL     1     -12.106  11.465   2.039  1.00  0.00    -0.504 OA
ATOM     22  H   UNL     1     -11.567  12.309   2.162  1.00  0.00     0.293 HD
ENDBRANCH  18  21
ENDBRANCH   3  13
BRANCH  10  23
ATOM     23  O   UNL     1      -9.194   4.936   8.556  1.00  0.00    -0.507 OA
ATOM     24  H   UNL     1      -8.412   5.570   8.491  1.00  0.00     0.293 HD
ENDBRANCH  10  23
BRANCH  11  25
ATOM     25  O   UNL     1     -12.440   2.155   6.371  1.00  0.00    -0.508 OA
ATOM     26  H   UNL     1     -13.149   1.781   6.991  1.00  0.00     0.293 HD
ENDBRANCH  11  25
ENDBRANCH   1   2
BRANCH   1  27
ATOM     27  C   UNL     1      -9.650  10.371   5.390  1.00  0.00     0.339 C 
ATOM     28  C   UNL     1      -8.267   9.715   5.245  1.00  0.00     0.214 C 
ATOM     29  O   UNL     1      -9.560  11.765   5.656  1.00  0.00    -0.332 OA
ATOM     30  C   UNL     1      -7.431   9.968   6.504  1.00  0.00     0.180 C 
ATOM     31  C   UNL     1      -8.787  12.099   6.804  1.00  0.00     0.179 C 
ATOM     32  C   UNL     1      -7.369  11.480   6.785  1.00  0.00     0.177 C 
BRANCH  28  33
ATOM     33  O   UNL     1      -8.430   8.333   5.042  1.00  0.00    -0.384 OA
ATOM     34  H   UNL     1      -8.500   7.916   5.940  1.00  0.00     0.211 HD
ENDBRANCH  28  33
BRANCH  30  35
ATOM     35  O   UNL     1      -6.137   9.452   6.321  1.00  0.00    -0.387 OA
ATOM     36  H   UNL     1      -6.221   8.680   5.702  1.00  0.00     0.211 HD
ENDBRANCH  30  35
BRANCH  31  37
ATOM     37  C   UNL     1      -9.550  11.855   8.119  1.00  0.00     0.191 C 
BRANCH  37  38
ATOM     38  O   UNL     1     -10.930  11.938   7.893  1.00  0.00    -0.394 OA
ATOM     39  H   UNL     1     -11.040  12.176   6.936  1.00  0.00     0.210 HD
ENDBRANCH  37  38
ENDBRANCH  31  37
BRANCH  32  40
ATOM     40  O   UNL     1      -6.608  12.125   5.793  1.00  0.00    -0.387 OA
ATOM     41  H   UNL     1      -7.124  12.921   5.500  1.00  0.00     0.211 HD
ENDBRANCH  32  40
ENDBRANCH   1  27
TORSDOF 12
ENDMDL
