MODEL 1
REMARK VINA RESULT:    -1.625      0.000      0.000
REMARK INTER + INTRA:          -6.158
REMARK INTER:                  -3.146
REMARK INTRA:                  -3.013
REMARK UNBOUND:                -3.013
REMARK SMILES CCCCCCCCCCCCCCCCCC(=O)[O-]
REMARK SMILES IDX 10 1 11 2 12 3 13 4 14 5 15 6 16 7 17 8 18 9 19 10 20 11
REMARK SMILES IDX 9 12 8 13 7 14 6 15 5 16 4 17 3 18 2 19 1 20
REMARK H PARENT
REMARK Flexibility Score: inf
ROOT
ATOM      1  C   UNL     1     -31.732 -34.676  17.352  1.00  0.00     0.000 C 
ENDROOT
BRANCH   1   2
ATOM      2  C   UNL     1     -30.731 -34.031  16.379  1.00  0.00     0.000 C 
BRANCH   2   3
ATOM      3  C   UNL     1     -31.138 -32.602  15.981  1.00  0.00     0.000 C 
BRANCH   3   4
ATOM      4  C   UNL     1     -31.634 -32.504  14.527  1.00  0.00     0.000 C 
BRANCH   4   5
ATOM      5  C   UNL     1     -33.145 -32.248  14.370  1.00  0.00     0.000 C 
BRANCH   5   6
ATOM      6  C   UNL     1     -33.564 -31.616  13.030  1.00  0.00     0.000 C 
BRANCH   6   7
ATOM      7  C   UNL     1     -32.393 -30.986  12.246  1.00  0.00     0.006 C 
BRANCH   7   8
ATOM      8  C   UNL     1     -32.355 -29.457  12.378  1.00  0.00     0.053 C 
BRANCH   8   9
ATOM      9  C   UNL     1     -30.943 -28.976  12.481  1.00  0.00     0.041 C 
ATOM     10  O   UNL     1     -30.068 -29.690  13.038  1.00  0.00    -0.550 OA
ATOM     11  O   UNL     1     -30.582 -27.756  11.923  1.00  0.00    -0.550 OA
ENDBRANCH   8   9
ENDBRANCH   7   8
ENDBRANCH   6   7
ENDBRANCH   5   6
ENDBRANCH   4   5
ENDBRANCH   3   4
ENDBRANCH   2   3
ENDBRANCH   1   2
BRANCH   1  12
ATOM     12  C   UNL     1     -32.632 -35.717  16.664  1.00  0.00     0.000 C 
BRANCH  12  13
ATOM     13  C   UNL     1     -34.042 -35.176  16.372  1.00  0.00    -0.000 C 
BRANCH  13  14
ATOM     14  C   UNL     1     -34.534 -35.530  14.957  1.00  0.00    -0.000 C 
BRANCH  14  15
ATOM     15  C   UNL     1     -33.416 -36.125  14.075  1.00  0.00    -0.000 C 
BRANCH  15  16
ATOM     16  C   UNL     1     -33.333 -35.501  12.669  1.00  0.00    -0.000 C 
BRANCH  16  17
ATOM     17  C   UNL     1     -31.912 -35.390  12.084  1.00  0.00    -0.000 C 
BRANCH  17  18
ATOM     18  C   UNL     1     -30.781 -35.809  13.042  1.00  0.00    -0.000 C 
BRANCH  18  19
ATOM     19  C   UNL     1     -29.521 -34.943  12.893  1.00  0.00    -0.003 C 
ATOM     20  C   UNL     1     -29.750 -33.806  11.903  1.00  0.00     0.004 C 
ENDBRANCH  18  19
ENDBRANCH  17  18
ENDBRANCH  16  17
ENDBRANCH  15  16
ENDBRANCH  14  15
ENDBRANCH  13  14
ENDBRANCH  12  13
ENDBRANCH   1  12
TORSDOF 16
ENDMDL
MODEL 2
REMARK VINA RESULT:    -1.603      1.643      3.809
REMARK INTER + INTRA:          -6.115
REMARK INTER:                  -3.293
REMARK INTRA:                  -2.822
REMARK UNBOUND:                -3.013
REMARK SMILES CCCCCCCCCCCCCCCCCC(=O)[O-]
REMARK SMILES IDX 10 1 11 2 12 3 13 4 14 5 15 6 16 7 17 8 18 9 19 10 20 11
REMARK SMILES IDX 9 12 8 13 7 14 6 15 5 16 4 17 3 18 2 19 1 20
REMARK H PARENT
REMARK Flexibility Score: inf
ROOT
ATOM      1  C   UNL     1     -32.209 -34.926  11.948  1.00  0.00     0.000 C 
ENDROOT
BRANCH   1   2
ATOM      2  C   UNL     1     -31.084 -35.699  12.658  1.00  0.00     0.000 C 
BRANCH   2   3
ATOM      3  C   UNL     1     -30.027 -34.765  13.271  1.00  0.00     0.000 C 
BRANCH   3   4
ATOM      4  C   UNL     1     -29.337 -33.873  12.224  1.00  0.00     0.000 C 
BRANCH   4   5
ATOM      5  C   UNL     1     -29.779 -32.397  12.234  1.00  0.00     0.000 C 
BRANCH   5   6
ATOM      6  C   UNL     1     -29.507 -31.644  13.549  1.00  0.00     0.000 C 
BRANCH   6   7
ATOM      7  C   UNL     1     -30.767 -31.001  14.169  1.00  0.00     0.006 C 
BRANCH   7   8
ATOM      8  C   UNL     1     -32.057 -31.720  13.751  1.00  0.00     0.053 C 
BRANCH   8   9
ATOM      9  C   UNL     1     -33.135 -30.726  13.454  1.00  0.00     0.041 C 
ATOM     10  O   UNL     1     -34.179 -30.694  14.157  1.00  0.00    -0.550 OA
ATOM     11  O   UNL     1     -32.969 -29.807  12.426  1.00  0.00    -0.550 OA
ENDBRANCH   8   9
ENDBRANCH   7   8
ENDBRANCH   6   7
ENDBRANCH   5   6
ENDBRANCH   4   5
ENDBRANCH   3   4
ENDBRANCH   2   3
ENDBRANCH   1   2
BRANCH   1  12
ATOM     12  C   UNL     1     -33.606 -35.452  12.317  1.00  0.00     0.000 C 
BRANCH  12  13
ATOM     13  C   UNL     1     -34.511 -34.358  12.908  1.00  0.00    -0.000 C 
BRANCH  13  14
ATOM     14  C   UNL     1     -34.666 -34.475  14.435  1.00  0.00    -0.000 C 
BRANCH  14  15
ATOM     15  C   UNL     1     -34.252 -35.864  14.966  1.00  0.00    -0.000 C 
BRANCH  15  16
ATOM     16  C   UNL     1     -33.602 -35.829  16.362  1.00  0.00    -0.000 C 
BRANCH  16  17
ATOM     17  C   UNL     1     -32.088 -35.544  16.372  1.00  0.00    -0.000 C 
BRANCH  17  18
ATOM     18  C   UNL     1     -31.707 -34.062  16.551  1.00  0.00    -0.000 C 
BRANCH  18  19
ATOM     19  C   UNL     1     -30.206 -33.858  16.804  1.00  0.00    -0.003 C 
ATOM     20  C   UNL     1     -29.941 -32.518  17.484  1.00  0.00     0.004 C 
ENDBRANCH  18  19
ENDBRANCH  17  18
ENDBRANCH  16  17
ENDBRANCH  15  16
ENDBRANCH  14  15
ENDBRANCH  13  14
ENDBRANCH  12  13
ENDBRANCH   1  12
TORSDOF 16
ENDMDL
MODEL 3
REMARK VINA RESULT:    -1.527      2.574      5.054
REMARK INTER + INTRA:          -5.969
REMARK INTER:                  -3.152
REMARK INTRA:                  -2.816
REMARK UNBOUND:                -3.013
REMARK SMILES CCCCCCCCCCCCCCCCCC(=O)[O-]
REMARK SMILES IDX 10 1 11 2 12 3 13 4 14 5 15 6 16 7 17 8 18 9 19 10 20 11
REMARK SMILES IDX 9 12 8 13 7 14 6 15 5 16 4 17 3 18 2 19 1 20
REMARK H PARENT
REMARK Flexibility Score: inf
ROOT
ATOM      1  C   UNL     1     -33.621 -33.811  13.418  1.00  0.00     0.000 C 
ENDROOT
BRANCH   1   2
ATOM      2  C   UNL     1     -34.783 -34.461  14.190  1.00  0.00     0.000 C 
BRANCH   2   3
ATOM      3  C   UNL     1     -34.500 -35.931  14.546  1.00  0.00     0.000 C 
BRANCH   3   4
ATOM      4  C   UNL     1     -34.113 -36.125  16.024  1.00  0.00     0.000 C 
BRANCH   4   5
ATOM      5  C   UNL     1     -32.674 -35.704  16.380  1.00  0.00     0.000 C 
BRANCH   5   6
ATOM      6  C   UNL     1     -32.404 -35.515  17.884  1.00  0.00     0.000 C 
BRANCH   6   7
ATOM      7  C   UNL     1     -32.990 -34.209  18.463  1.00  0.00     0.006 C 
BRANCH   7   8
ATOM      8  C   UNL     1     -32.830 -33.021  17.504  1.00  0.00     0.053 C 
BRANCH   8   9
ATOM      9  C   UNL     1     -31.843 -32.038  18.050  1.00  0.00     0.041 C 
ATOM     10  O   UNL     1     -32.172 -30.835  18.217  1.00  0.00    -0.550 OA
ATOM     11  O   UNL     1     -30.571 -32.461  18.416  1.00  0.00    -0.550 OA
ENDBRANCH   8   9
ENDBRANCH   7   8
ENDBRANCH   6   7
ENDBRANCH   5   6
ENDBRANCH   4   5
ENDBRANCH   3   4
ENDBRANCH   2   3
ENDBRANCH   1   2
BRANCH   1  12
ATOM     12  C   UNL     1     -33.323 -34.530  12.091  1.00  0.00     0.000 C 
BRANCH  12  13
ATOM     13  C   UNL     1     -31.832 -34.867  11.926  1.00  0.00    -0.000 C 
BRANCH  13  14
ATOM     14  C   UNL     1     -31.415 -36.125  12.709  1.00  0.00    -0.000 C 
BRANCH  14  15
ATOM     15  C   UNL     1     -30.313 -35.834  13.750  1.00  0.00    -0.000 C 
BRANCH  15  16
ATOM     16  C   UNL     1     -29.733 -34.410  13.663  1.00  0.00    -0.000 C 
BRANCH  16  17
ATOM     17  C   UNL     1     -29.981 -33.524  14.899  1.00  0.00    -0.000 C 
BRANCH  17  18
ATOM     18  C   UNL     1     -30.606 -32.149  14.597  1.00  0.00    -0.000 C 
BRANCH  18  19
ATOM     19  C   UNL     1     -30.348 -31.678  13.158  1.00  0.00    -0.003 C 
ATOM     20  C   UNL     1     -29.089 -30.822  13.077  1.00  0.00     0.004 C 
ENDBRANCH  18  19
ENDBRANCH  17  18
ENDBRANCH  16  17
ENDBRANCH  15  16
ENDBRANCH  14  15
ENDBRANCH  13  14
ENDBRANCH  12  13
ENDBRANCH   1  12
TORSDOF 16
ENDMDL
MODEL 4
REMARK VINA RESULT:    -1.511      1.855      3.908
REMARK INTER + INTRA:          -5.937
REMARK INTER:                  -3.307
REMARK INTRA:                  -2.631
REMARK UNBOUND:                -3.013
REMARK SMILES CCCCCCCCCCCCCCCCCC(=O)[O-]
REMARK SMILES IDX 10 1 11 2 12 3 13 4 14 5 15 6 16 7 17 8 18 9 19 10 20 11
REMARK SMILES IDX 9 12 8 13 7 14 6 15 5 16 4 17 3 18 2 19 1 20
REMARK H PARENT
REMARK Flexibility Score: inf
ROOT
ATOM      1  C   UNL     1     -29.815 -34.800  14.232  1.00  0.00     0.000 C 
ENDROOT
BRANCH   1   2
ATOM      2  C   UNL     1     -28.522 -34.909  13.405  1.00  0.00     0.000 C 
BRANCH   2   3
ATOM      3  C   UNL     1     -28.427 -33.823  12.320  1.00  0.00     0.000 C 
BRANCH   3   4
ATOM      4  C   UNL     1     -28.934 -32.451  12.800  1.00  0.00     0.000 C 
BRANCH   4   5
ATOM      5  C   UNL     1     -29.968 -31.779  11.875  1.00  0.00     0.000 C 
BRANCH   5   6
ATOM      6  C   UNL     1     -30.816 -30.677  12.537  1.00  0.00     0.000 C 
BRANCH   6   7
ATOM      7  C   UNL     1     -31.214 -30.990  13.996  1.00  0.00     0.006 C 
BRANCH   7   8
ATOM      8  C   UNL     1     -32.522 -31.788  14.087  1.00  0.00     0.053 C 
BRANCH   8   9
ATOM      9  C   UNL     1     -33.621 -31.075  13.366  1.00  0.00     0.041 C 
ATOM     10  O   UNL     1     -34.188 -30.084  13.895  1.00  0.00    -0.550 OA
ATOM     11  O   UNL     1     -33.991 -31.479  12.089  1.00  0.00    -0.550 OA
ENDBRANCH   8   9
ENDBRANCH   7   8
ENDBRANCH   6   7
ENDBRANCH   5   6
ENDBRANCH   4   5
ENDBRANCH   3   4
ENDBRANCH   2   3
ENDBRANCH   1   2
BRANCH   1  12
ATOM     12  C   UNL     1     -30.737 -36.016  14.043  1.00  0.00     0.000 C 
BRANCH  12  13
ATOM     13  C   UNL     1     -31.285 -36.123  12.610  1.00  0.00    -0.000 C 
BRANCH  13  14
ATOM     14  C   UNL     1     -32.184 -34.934  12.226  1.00  0.00    -0.000 C 
BRANCH  14  15
ATOM     15  C   UNL     1     -33.682 -35.305  12.214  1.00  0.00    -0.000 C 
BRANCH  15  16
ATOM     16  C   UNL     1     -34.480 -34.715  13.393  1.00  0.00    -0.000 C 
BRANCH  16  17
ATOM     17  C   UNL     1     -34.559 -35.611  14.644  1.00  0.00    -0.000 C 
BRANCH  17  18
ATOM     18  C   UNL     1     -34.087 -34.945  15.950  1.00  0.00    -0.000 C 
BRANCH  18  19
ATOM     19  C   UNL     1     -33.037 -35.778  16.700  1.00  0.00    -0.003 C 
ATOM     20  C   UNL     1     -32.035 -34.881  17.419  1.00  0.00     0.004 C 
ENDBRANCH  18  19
ENDBRANCH  17  18
ENDBRANCH  16  17
ENDBRANCH  15  16
ENDBRANCH  14  15
ENDBRANCH  13  14
ENDBRANCH  12  13
ENDBRANCH   1  12
TORSDOF 16
ENDMDL
MODEL 5
REMARK VINA RESULT:    -1.450      2.328      4.847
REMARK INTER + INTRA:          -5.819
REMARK INTER:                  -3.331
REMARK INTRA:                  -2.488
REMARK UNBOUND:                -3.013
REMARK SMILES CCCCCCCCCCCCCCCCCC(=O)[O-]
REMARK SMILES IDX 10 1 11 2 12 3 13 4 14 5 15 6 16 7 17 8 18 9 19 10 20 11
REMARK SMILES IDX 9 12 8 13 7 14 6 15 5 16 4 17 3 18 2 19 1 20
REMARK H PARENT
REMARK Flexibility Score: inf
ROOT
ATOM      1  C   UNL     1     -33.436 -32.640  14.112  1.00  0.00     0.000 C 
ENDROOT
BRANCH   1   2
ATOM      2  C   UNL     1     -33.945 -32.958  12.695  1.00  0.00     0.000 C 
BRANCH   2   3
ATOM      3  C   UNL     1     -34.011 -34.470  12.422  1.00  0.00     0.000 C 
BRANCH   3   4
ATOM      4  C   UNL     1     -32.689 -35.038  11.875  1.00  0.00     0.000 C 
BRANCH   4   5
ATOM      5  C   UNL     1     -32.036 -36.125  12.751  1.00  0.00     0.000 C 
BRANCH   5   6
ATOM      6  C   UNL     1     -30.569 -35.856  13.136  1.00  0.00     0.000 C 
BRANCH   6   7
ATOM      7  C   UNL     1     -30.230 -34.358  13.289  1.00  0.00     0.006 C 
BRANCH   7   8
ATOM      8  C   UNL     1     -29.261 -33.863  12.206  1.00  0.00     0.053 C 
BRANCH   8   9
ATOM      9  C   UNL     1     -28.049 -33.249  12.831  1.00  0.00     0.041 C 
ATOM     10  O   UNL     1     -27.320 -33.927  13.601  1.00  0.00    -0.550 OA
ATOM     11  O   UNL     1     -27.699 -31.940  12.528  1.00  0.00    -0.550 OA
ENDBRANCH   8   9
ENDBRANCH   7   8
ENDBRANCH   6   7
ENDBRANCH   5   6
ENDBRANCH   4   5
ENDBRANCH   3   4
ENDBRANCH   2   3
ENDBRANCH   1   2
BRANCH   1  12
ATOM     12  C   UNL     1     -34.578 -32.554  15.140  1.00  0.00     0.000 C 
BRANCH  12  13
ATOM     13  C   UNL     1     -34.327 -33.438  16.373  1.00  0.00    -0.000 C 
BRANCH  13  14
ATOM     14  C   UNL     1     -34.708 -34.911  16.137  1.00  0.00    -0.000 C 
BRANCH  14  15
ATOM     15  C   UNL     1     -33.472 -35.827  16.005  1.00  0.00    -0.000 C 
BRANCH  15  16
ATOM     16  C   UNL     1     -32.154 -35.162  16.443  1.00  0.00    -0.000 C 
BRANCH  16  17
ATOM     17  C   UNL     1     -31.435 -35.845  17.621  1.00  0.00    -0.000 C 
BRANCH  17  18
ATOM     18  C   UNL     1     -31.903 -35.393  19.018  1.00  0.00    -0.000 C 
BRANCH  18  19
ATOM     19  C   UNL     1     -31.172 -34.137  19.514  1.00  0.00    -0.003 C 
ATOM     20  C   UNL     1     -32.042 -32.894  19.352  1.00  0.00     0.004 C 
ENDBRANCH  18  19
ENDBRANCH  17  18
ENDBRANCH  16  17
ENDBRANCH  15  16
ENDBRANCH  14  15
ENDBRANCH  13  14
ENDBRANCH  12  13
ENDBRANCH   1  12
TORSDOF 16
ENDMDL
MODEL 6
REMARK VINA RESULT:    -1.450      1.487      2.225
REMARK INTER + INTRA:          -5.818
REMARK INTER:                  -2.879
REMARK INTRA:                  -2.939
REMARK UNBOUND:                -3.013
REMARK SMILES CCCCCCCCCCCCCCCCCC(=O)[O-]
REMARK SMILES IDX 10 1 11 2 12 3 13 4 14 5 15 6 16 7 17 8 18 9 19 10 20 11
REMARK SMILES IDX 9 12 8 13 7 14 6 15 5 16 4 17 3 18 2 19 1 20
REMARK H PARENT
REMARK Flexibility Score: inf
ROOT
ATOM      1  C   UNL     1     -33.035 -32.641  15.876  1.00  0.00     0.000 C 
ENDROOT
BRANCH   1   2
ATOM      2  C   UNL     1     -33.607 -31.281  16.312  1.00  0.00     0.000 C 
BRANCH   2   3
ATOM      3  C   UNL     1     -34.577 -30.693  15.273  1.00  0.00     0.000 C 
BRANCH   3   4
ATOM      4  C   UNL     1     -35.020 -31.723  14.218  1.00  0.00     0.000 C 
BRANCH   4   5
ATOM      5  C   UNL     1     -35.024 -31.208  12.766  1.00  0.00     0.000 C 
BRANCH   5   6
ATOM      6  C   UNL     1     -33.669 -31.293  12.041  1.00  0.00     0.000 C 
BRANCH   6   7
ATOM      7  C   UNL     1     -32.941 -29.936  11.921  1.00  0.00     0.006 C 
BRANCH   7   8
ATOM      8  C   UNL     1     -31.423 -30.068  12.109  1.00  0.00     0.053 C 
BRANCH   8   9
ATOM      9  C   UNL     1     -31.084 -30.180  13.562  1.00  0.00     0.041 C 
ATOM     10  O   UNL     1     -30.432 -31.170  13.986  1.00  0.00    -0.550 OA
ATOM     11  O   UNL     1     -31.450 -29.169  14.441  1.00  0.00    -0.550 OA
ENDBRANCH   8   9
ENDBRANCH   7   8
ENDBRANCH   6   7
ENDBRANCH   5   6
ENDBRANCH   4   5
ENDBRANCH   3   4
ENDBRANCH   2   3
ENDBRANCH   1   2
BRANCH   1  12
ATOM     12  C   UNL     1     -33.119 -33.697  16.992  1.00  0.00     0.000 C 
BRANCH  12  13
ATOM     13  C   UNL     1     -33.328 -35.118  16.443  1.00  0.00    -0.000 C 
BRANCH  13  14
ATOM     14  C   UNL     1     -34.470 -35.197  15.414  1.00  0.00    -0.000 C 
BRANCH  14  15
ATOM     15  C   UNL     1     -34.039 -35.889  14.104  1.00  0.00    -0.000 C 
BRANCH  15  16
ATOM     16  C   UNL     1     -34.106 -34.975  12.865  1.00  0.00    -0.000 C 
BRANCH  16  17
ATOM     17  C   UNL     1     -32.864 -35.015  11.955  1.00  0.00    -0.000 C 
BRANCH  17  18
ATOM     18  C   UNL     1     -31.692 -34.127  12.415  1.00  0.00    -0.000 C 
BRANCH  18  19
ATOM     19  C   UNL     1     -30.462 -34.938  12.846  1.00  0.00    -0.003 C 
ATOM     20  C   UNL     1     -30.455 -35.166  14.354  1.00  0.00     0.004 C 
ENDBRANCH  18  19
ENDBRANCH  17  18
ENDBRANCH  16  17
ENDBRANCH  15  16
ENDBRANCH  14  15
ENDBRANCH  13  14
ENDBRANCH  12  13
ENDBRANCH   1  12
TORSDOF 16
ENDMDL
MODEL 7
REMARK VINA RESULT:    -1.407     21.807     24.205
REMARK INTER + INTRA:          -5.736
REMARK INTER:                  -2.870
REMARK INTRA:                  -2.866
REMARK UNBOUND:                -3.013
REMARK SMILES CCCCCCCCCCCCCCCCCC(=O)[O-]
REMARK SMILES IDX 10 1 11 2 12 3 13 4 14 5 15 6 16 7 17 8 18 9 19 10 20 11
REMARK SMILES IDX 9 12 8 13 7 14 6 15 5 16 4 17 3 18 2 19 1 20
REMARK H PARENT
REMARK Flexibility Score: inf
ROOT
ATOM      1  C   UNL     1     -18.772 -21.785  30.988  1.00  0.00     0.000 C 
ENDROOT
BRANCH   1   2
ATOM      2  C   UNL     1     -20.132 -22.022  31.666  1.00  0.00     0.000 C 
BRANCH   2   3
ATOM      3  C   UNL     1     -20.515 -23.511  31.707  1.00  0.00     0.000 C 
BRANCH   3   4
ATOM      4  C   UNL     1     -20.879 -24.074  30.321  1.00  0.00     0.000 C 
BRANCH   4   5
ATOM      5  C   UNL     1     -19.870 -25.086  29.744  1.00  0.00     0.000 C 
BRANCH   5   6
ATOM      6  C   UNL     1     -18.766 -25.535  30.720  1.00  0.00     0.000 C 
BRANCH   6   7
ATOM      7  C   UNL     1     -17.523 -26.128  30.023  1.00  0.00     0.006 C 
BRANCH   7   8
ATOM      8  C   UNL     1     -16.633 -26.922  30.990  1.00  0.00     0.053 C 
BRANCH   8   9
ATOM      9  C   UNL     1     -15.891 -27.993  30.257  1.00  0.00     0.041 C 
ATOM     10  O   UNL     1     -15.212 -27.710  29.236  1.00  0.00    -0.550 OA
ATOM     11  O   UNL     1     -15.914 -29.300  30.727  1.00  0.00    -0.550 OA
ENDBRANCH   8   9
ENDBRANCH   7   8
ENDBRANCH   6   7
ENDBRANCH   5   6
ENDBRANCH   4   5
ENDBRANCH   3   4
ENDBRANCH   2   3
ENDBRANCH   1   2
BRANCH   1  12
ATOM     12  C   UNL     1     -17.879 -20.820  31.787  1.00  0.00     0.000 C 
BRANCH  12  13
ATOM     13  C   UNL     1     -16.456 -21.366  31.990  1.00  0.00    -0.000 C 
BRANCH  13  14
ATOM     14  C   UNL     1     -16.409 -22.904  32.032  1.00  0.00    -0.000 C 
BRANCH  14  15
ATOM     15  C   UNL     1     -15.246 -23.483  31.198  1.00  0.00    -0.000 C 
BRANCH  15  16
ATOM     16  C   UNL     1     -14.935 -22.680  29.921  1.00  0.00    -0.000 C 
BRANCH  16  17
ATOM     17  C   UNL     1     -15.665 -23.160  28.652  1.00  0.00    -0.000 C 
BRANCH  17  18
ATOM     18  C   UNL     1     -16.691 -22.164  28.077  1.00  0.00    -0.000 C 
BRANCH  18  19
ATOM     19  C   UNL     1     -17.951 -22.853  27.534  1.00  0.00    -0.003 C 
ATOM     20  C   UNL     1     -17.608 -24.181  26.868  1.00  0.00     0.004 C 
ENDBRANCH  18  19
ENDBRANCH  17  18
ENDBRANCH  16  17
ENDBRANCH  15  16
ENDBRANCH  14  15
ENDBRANCH  13  14
ENDBRANCH  12  13
ENDBRANCH   1  12
TORSDOF 16
ENDMDL
MODEL 8
REMARK VINA RESULT:    -1.384      1.681      2.856
REMARK INTER + INTRA:          -5.692
REMARK INTER:                  -2.646
REMARK INTRA:                  -3.046
REMARK UNBOUND:                -3.013
REMARK SMILES CCCCCCCCCCCCCCCCCC(=O)[O-]
REMARK SMILES IDX 10 1 11 2 12 3 13 4 14 5 15 6 16 7 17 8 18 9 19 10 20 11
REMARK SMILES IDX 9 12 8 13 7 14 6 15 5 16 4 17 3 18 2 19 1 20
REMARK H PARENT
REMARK Flexibility Score: inf
ROOT
ATOM      1  C   UNL     1     -33.830 -32.855  14.317  1.00  0.00     0.000 C 
ENDROOT
BRANCH   1   2
ATOM      2  C   UNL     1     -33.764 -33.744  15.571  1.00  0.00     0.000 C 
BRANCH   2   3
ATOM      3  C   UNL     1     -32.582 -33.381  16.486  1.00  0.00     0.000 C 
BRANCH   3   4
ATOM      4  C   UNL     1     -31.256 -33.230  15.718  1.00  0.00     0.000 C 
BRANCH   4   5
ATOM      5  C   UNL     1     -30.440 -31.970  16.070  1.00  0.00     0.000 C 
BRANCH   5   6
ATOM      6  C   UNL     1     -30.907 -30.677  15.377  1.00  0.00     0.000 C 
BRANCH   6   7
ATOM      7  C   UNL     1     -30.051 -30.282  14.154  1.00  0.00     0.006 C 
BRANCH   7   8
ATOM      8  C   UNL     1     -30.805 -29.360  13.186  1.00  0.00     0.053 C 
BRANCH   8   9
ATOM      9  C   UNL     1     -31.985 -30.069  12.601  1.00  0.00     0.041 C 
ATOM     10  O   UNL     1     -31.820 -31.084  11.875  1.00  0.00    -0.550 OA
ATOM     11  O   UNL     1     -33.272 -29.634  12.893  1.00  0.00    -0.550 OA
ENDBRANCH   8   9
ENDBRANCH   7   8
ENDBRANCH   6   7
ENDBRANCH   5   6
ENDBRANCH   4   5
ENDBRANCH   3   4
ENDBRANCH   2   3
ENDBRANCH   1   2
BRANCH   1  12
ATOM     12  C   UNL     1     -34.023 -33.672  13.028  1.00  0.00     0.000 C 
BRANCH  12  13
ATOM     13  C   UNL     1     -34.125 -35.182  13.298  1.00  0.00    -0.000 C 
BRANCH  13  14
ATOM     14  C   UNL     1     -32.997 -35.984  12.624  1.00  0.00    -0.000 C 
BRANCH  14  15
ATOM     15  C   UNL     1     -31.752 -36.125  13.525  1.00  0.00    -0.000 C 
BRANCH  15  16
ATOM     16  C   UNL     1     -30.436 -35.712  12.839  1.00  0.00    -0.000 C 
BRANCH  16  17
ATOM     17  C   UNL     1     -30.436 -34.305  12.214  1.00  0.00    -0.000 C 
BRANCH  17  18
ATOM     18  C   UNL     1     -29.196 -33.450  12.537  1.00  0.00    -0.000 C 
BRANCH  18  19
ATOM     19  C   UNL     1     -28.298 -34.082  13.611  1.00  0.00    -0.003 C 
ATOM     20  C   UNL     1     -27.380 -33.041  14.242  1.00  0.00     0.004 C 
ENDBRANCH  18  19
ENDBRANCH  17  18
ENDBRANCH  16  17
ENDBRANCH  15  16
ENDBRANCH  14  15
ENDBRANCH  13  14
ENDBRANCH  12  13
ENDBRANCH   1  12
TORSDOF 16
ENDMDL
