MODEL 1
REMARK VINA RESULT:    -3.378      0.000      0.000
REMARK INTER + INTRA:          -6.773
REMARK INTER:                  -5.747
REMARK INTRA:                  -1.026
REMARK UNBOUND:                -1.026
REMARK SMILES CCCCCCCCCCCCCC(=O)[O-]
REMARK SMILES IDX 8 1 9 2 10 3 11 4 12 5 13 6 14 7 15 8 16 9 7 10 6 11 5 12
REMARK SMILES IDX 4 13 3 14 2 15 1 16
REMARK H PARENT
REMARK Flexibility Score: inf
ROOT
ATOM      1  C   UNL     1      -9.372   3.635  -3.887  1.00  0.00     0.000 C 
ENDROOT
BRANCH   1   2
ATOM      2  C   UNL     1      -9.727   4.711  -4.926  1.00  0.00     0.000 C 
BRANCH   2   3
ATOM      3  C   UNL     1      -9.668   4.192  -6.373  1.00  0.00     0.000 C 
BRANCH   3   4
ATOM      4  C   UNL     1      -8.366   4.566  -7.112  1.00  0.00     0.000 C 
BRANCH   4   5
ATOM      5  C   UNL     1      -8.186   3.772  -8.414  1.00  0.00     0.006 C 
BRANCH   5   6
ATOM      6  C   UNL     1      -9.076   2.526  -8.425  1.00  0.00     0.053 C 
BRANCH   6   7
ATOM      7  C   UNL     1      -8.247   1.287  -8.301  1.00  0.00     0.041 C 
ATOM      8  O   UNL     1      -8.528   0.422  -7.431  1.00  0.00    -0.550 OA
ATOM      9  O   UNL     1      -7.134   1.111  -9.113  1.00  0.00    -0.550 OA
ENDBRANCH   6   7
ENDBRANCH   5   6
ENDBRANCH   4   5
ENDBRANCH   3   4
ENDBRANCH   2   3
ENDBRANCH   1   2
BRANCH   1  10
ATOM     10  C   UNL     1      -9.234   2.235  -4.521  1.00  0.00     0.000 C 
BRANCH  10  11
ATOM     11  C   UNL     1      -7.940   1.505  -4.123  1.00  0.00    -0.000 C 
BRANCH  11  12
ATOM     12  C   UNL     1      -7.196   2.195  -2.969  1.00  0.00    -0.000 C 
BRANCH  12  13
ATOM     13  C   UNL     1      -5.727   1.757  -2.868  1.00  0.00    -0.000 C 
BRANCH  13  14
ATOM     14  C   UNL     1      -5.235   1.675  -1.413  1.00  0.00    -0.000 C 
BRANCH  14  15
ATOM     15  C   UNL     1      -5.659   2.894  -0.578  1.00  0.00    -0.003 C 
ATOM     16  C   UNL     1      -5.454   2.683   0.921  1.00  0.00     0.004 C 
ENDBRANCH  14  15
ENDBRANCH  13  14
ENDBRANCH  12  13
ENDBRANCH  11  12
ENDBRANCH  10  11
ENDBRANCH   1  10
TORSDOF 12
ENDMDL
MODEL 2
REMARK VINA RESULT:    -3.296      1.632      2.371
REMARK INTER + INTRA:          -6.635
REMARK INTER:                  -5.798
REMARK INTRA:                  -0.837
REMARK UNBOUND:                -1.026
REMARK SMILES CCCCCCCCCCCCCC(=O)[O-]
REMARK SMILES IDX 8 1 9 2 10 3 11 4 12 5 13 6 14 7 15 8 16 9 7 10 6 11 5 12
REMARK SMILES IDX 4 13 3 14 2 15 1 16
REMARK H PARENT
REMARK Flexibility Score: inf
ROOT
ATOM      1  C   UNL     1      -9.214   2.429  -5.087  1.00  0.00     0.000 C 
ENDROOT
BRANCH   1   2
ATOM      2  C   UNL     1      -9.493   3.720  -4.299  1.00  0.00     0.000 C 
BRANCH   2   3
ATOM      3  C   UNL     1      -9.965   4.880  -5.193  1.00  0.00     0.000 C 
BRANCH   3   4
ATOM      4  C   UNL     1      -8.965   6.053  -5.264  1.00  0.00     0.000 C 
BRANCH   4   5
ATOM      5  C   UNL     1      -8.684   6.492  -6.709  1.00  0.00     0.006 C 
BRANCH   5   6
ATOM      6  C   UNL     1      -9.180   5.444  -7.709  1.00  0.00     0.053 C 
BRANCH   6   7
ATOM      7  C   UNL     1      -8.025   4.767  -8.376  1.00  0.00     0.041 C 
ATOM      8  O   UNL     1      -7.378   5.362  -9.279  1.00  0.00    -0.550 OA
ATOM      9  O   UNL     1      -7.694   3.461  -8.038  1.00  0.00    -0.550 OA
ENDBRANCH   6   7
ENDBRANCH   5   6
ENDBRANCH   4   5
ENDBRANCH   3   4
ENDBRANCH   2   3
ENDBRANCH   1   2
BRANCH   1  10
ATOM     10  C   UNL     1      -8.309   1.453  -4.307  1.00  0.00     0.000 C 
BRANCH  10  11
ATOM     11  C   UNL     1      -7.407   2.146  -3.272  1.00  0.00    -0.000 C 
BRANCH  11  12
ATOM     12  C   UNL     1      -6.021   1.492  -3.155  1.00  0.00    -0.000 C 
BRANCH  12  13
ATOM     13  C   UNL     1      -5.234   1.992  -1.934  1.00  0.00    -0.000 C 
BRANCH  13  14
ATOM     14  C   UNL     1      -6.052   2.959  -1.060  1.00  0.00    -0.000 C 
BRANCH  14  15
ATOM     15  C   UNL     1      -5.279   3.425   0.184  1.00  0.00    -0.003 C 
ATOM     16  C   UNL     1      -5.247   2.370   1.288  1.00  0.00     0.004 C 
ENDBRANCH  14  15
ENDBRANCH  13  14
ENDBRANCH  12  13
ENDBRANCH  11  12
ENDBRANCH  10  11
ENDBRANCH   1  10
TORSDOF 12
ENDMDL
MODEL 3
REMARK VINA RESULT:    -3.184      2.020      2.913
REMARK INTER + INTRA:          -6.444
REMARK INTER:                  -5.571
REMARK INTRA:                  -0.873
REMARK UNBOUND:                -1.026
REMARK SMILES CCCCCCCCCCCCCC(=O)[O-]
REMARK SMILES IDX 8 1 9 2 10 3 11 4 12 5 13 6 14 7 15 8 16 9 7 10 6 11 5 12
REMARK SMILES IDX 4 13 3 14 2 15 1 16
REMARK H PARENT
REMARK Flexibility Score: inf
ROOT
ATOM      1  C   UNL     1      -8.842   0.522  -4.925  1.00  0.00     0.000 C 
ENDROOT
BRANCH   1   2
ATOM      2  C   UNL     1      -9.083   0.274  -6.424  1.00  0.00     0.000 C 
BRANCH   2   3
ATOM      3  C   UNL     1      -9.874   1.407  -7.100  1.00  0.00     0.000 C 
BRANCH   3   4
ATOM      4  C   UNL     1      -9.427   1.695  -8.548  1.00  0.00     0.000 C 
BRANCH   4   5
ATOM      5  C   UNL     1      -8.307   2.745  -8.615  1.00  0.00     0.006 C 
BRANCH   5   6
ATOM      6  C   UNL     1      -8.606   3.927  -7.689  1.00  0.00     0.053 C 
BRANCH   6   7
ATOM      7  C   UNL     1      -7.771   5.110  -8.063  1.00  0.00     0.041 C 
ATOM      8  O   UNL     1      -6.964   5.037  -9.027  1.00  0.00    -0.550 OA
ATOM      9  O   UNL     1      -7.846   6.279  -7.315  1.00  0.00    -0.550 OA
ENDBRANCH   6   7
ENDBRANCH   5   6
ENDBRANCH   4   5
ENDBRANCH   3   4
ENDBRANCH   2   3
ENDBRANCH   1   2
BRANCH   1  10
ATOM     10  C   UNL     1      -8.684   2.022  -4.600  1.00  0.00     0.000 C 
BRANCH  10  11
ATOM     11  C   UNL     1      -7.816   2.293  -3.360  1.00  0.00    -0.000 C 
BRANCH  11  12
ATOM     12  C   UNL     1      -6.468   1.556  -3.402  1.00  0.00    -0.000 C 
BRANCH  12  13
ATOM     13  C   UNL     1      -5.546   1.945  -2.236  1.00  0.00    -0.000 C 
BRANCH  13  14
ATOM     14  C   UNL     1      -6.166   3.020  -1.327  1.00  0.00    -0.000 C 
BRANCH  14  15
ATOM     15  C   UNL     1      -5.367   3.228  -0.031  1.00  0.00    -0.003 C 
ATOM     16  C   UNL     1      -5.096   1.919   0.710  1.00  0.00     0.004 C 
ENDBRANCH  14  15
ENDBRANCH  13  14
ENDBRANCH  12  13
ENDBRANCH  11  12
ENDBRANCH  10  11
ENDBRANCH   1  10
TORSDOF 12
ENDMDL
MODEL 4
REMARK VINA RESULT:    -3.174      3.140      3.867
REMARK INTER + INTRA:          -6.426
REMARK INTER:                  -5.642
REMARK INTRA:                  -0.784
REMARK UNBOUND:                -1.026
REMARK SMILES CCCCCCCCCCCCCC(=O)[O-]
REMARK SMILES IDX 8 1 9 2 10 3 11 4 12 5 13 6 14 7 15 8 16 9 7 10 6 11 5 12
REMARK SMILES IDX 4 13 3 14 2 15 1 16
REMARK H PARENT
REMARK Flexibility Score: inf
ROOT
ATOM      1  C   UNL     1      -9.014   1.926  -5.167  1.00  0.00     0.000 C 
ENDROOT
BRANCH   1   2
ATOM      2  C   UNL     1      -9.808   3.086  -4.544  1.00  0.00     0.000 C 
BRANCH   2   3
ATOM      3  C   UNL     1      -9.570   4.428  -5.257  1.00  0.00     0.000 C 
BRANCH   3   4
ATOM      4  C   UNL     1      -8.712   4.307  -6.534  1.00  0.00     0.000 C 
BRANCH   4   5
ATOM      5  C   UNL     1      -8.149   5.662  -6.988  1.00  0.00     0.006 C 
BRANCH   5   6
ATOM      6  C   UNL     1      -8.337   6.727  -5.904  1.00  0.00     0.053 C 
BRANCH   6   7
ATOM      7  C   UNL     1      -8.711   8.040  -6.518  1.00  0.00     0.041 C 
ATOM      8  O   UNL     1      -8.961   8.114  -7.749  1.00  0.00    -0.550 OA
ATOM      9  O   UNL     1      -8.733   9.190  -5.739  1.00  0.00    -0.550 OA
ENDBRANCH   6   7
ENDBRANCH   5   6
ENDBRANCH   4   5
ENDBRANCH   3   4
ENDBRANCH   2   3
ENDBRANCH   1   2
BRANCH   1  10
ATOM     10  C   UNL     1      -8.153   1.182  -4.125  1.00  0.00     0.000 C 
BRANCH  10  11
ATOM     11  C   UNL     1      -7.240   2.110  -3.306  1.00  0.00    -0.000 C 
BRANCH  11  12
ATOM     12  C   UNL     1      -5.827   1.537  -3.112  1.00  0.00    -0.000 C 
BRANCH  12  13
ATOM     13  C   UNL     1      -5.241   1.870  -1.731  1.00  0.00    -0.000 C 
BRANCH  13  14
ATOM     14  C   UNL     1      -6.024   2.981  -1.010  1.00  0.00    -0.000 C 
BRANCH  14  15
ATOM     15  C   UNL     1      -5.502   3.241   0.412  1.00  0.00    -0.003 C 
ATOM     16  C   UNL     1      -5.037   1.965   1.112  1.00  0.00     0.004 C 
ENDBRANCH  14  15
ENDBRANCH  13  14
ENDBRANCH  12  13
ENDBRANCH  11  12
ENDBRANCH  10  11
ENDBRANCH   1  10
TORSDOF 12
ENDMDL
MODEL 5
REMARK VINA RESULT:    -3.147     14.621     16.647
REMARK INTER + INTRA:          -6.380
REMARK INTER:                  -4.956
REMARK INTRA:                  -1.424
REMARK UNBOUND:                -1.026
REMARK SMILES CCCCCCCCCCCCCC(=O)[O-]
REMARK SMILES IDX 8 1 9 2 10 3 11 4 12 5 13 6 14 7 15 8 16 9 7 10 6 11 5 12
REMARK SMILES IDX 4 13 3 14 2 15 1 16
REMARK H PARENT
REMARK Flexibility Score: inf
ROOT
ATOM      1  C   UNL     1       4.865   8.620  -4.595  1.00  0.00     0.000 C 
ENDROOT
BRANCH   1   2
ATOM      2  C   UNL     1       4.839   8.993  -3.103  1.00  0.00     0.000 C 
BRANCH   2   3
ATOM      3  C   UNL     1       5.901  10.040  -2.727  1.00  0.00     0.000 C 
BRANCH   3   4
ATOM      4  C   UNL     1       6.651   9.719  -1.418  1.00  0.00     0.000 C 
BRANCH   4   5
ATOM      5  C   UNL     1       7.236   8.298  -1.415  1.00  0.00     0.006 C 
BRANCH   5   6
ATOM      6  C   UNL     1       8.472   8.211  -2.316  1.00  0.00     0.053 C 
BRANCH   6   7
ATOM      7  C   UNL     1       8.381   7.021  -3.217  1.00  0.00     0.041 C 
ATOM      8  O   UNL     1       9.351   6.713  -3.959  1.00  0.00    -0.550 OA
ATOM      9  O   UNL     1       7.207   6.280  -3.276  1.00  0.00    -0.550 OA
ENDBRANCH   6   7
ENDBRANCH   5   6
ENDBRANCH   4   5
ENDBRANCH   3   4
ENDBRANCH   2   3
ENDBRANCH   1   2
BRANCH   1  10
ATOM     10  C   UNL     1       5.795   9.543  -5.410  1.00  0.00     0.000 C 
BRANCH  10  11
ATOM     11  C   UNL     1       7.057   8.836  -5.931  1.00  0.00    -0.000 C 
BRANCH  11  12
ATOM     12  C   UNL     1       7.130   8.799  -7.466  1.00  0.00    -0.000 C 
BRANCH  12  13
ATOM     13  C   UNL     1       6.458  10.017  -8.118  1.00  0.00    -0.000 C 
BRANCH  13  14
ATOM     14  C   UNL     1       5.661   9.645  -9.381  1.00  0.00    -0.000 C 
BRANCH  14  15
ATOM     15  C   UNL     1       4.143   9.768  -9.177  1.00  0.00    -0.003 C 
ATOM     16  C   UNL     1       3.592   8.720  -8.211  1.00  0.00     0.004 C 
ENDBRANCH  14  15
ENDBRANCH  13  14
ENDBRANCH  12  13
ENDBRANCH  11  12
ENDBRANCH  10  11
ENDBRANCH   1  10
TORSDOF 12
ENDMDL
MODEL 6
REMARK VINA RESULT:    -3.071     14.869     16.871
REMARK INTER + INTRA:          -6.252
REMARK INTER:                  -4.803
REMARK INTRA:                  -1.449
REMARK UNBOUND:                -1.026
REMARK SMILES CCCCCCCCCCCCCC(=O)[O-]
REMARK SMILES IDX 8 1 9 2 10 3 11 4 12 5 13 6 14 7 15 8 16 9 7 10 6 11 5 12
REMARK SMILES IDX 4 13 3 14 2 15 1 16
REMARK H PARENT
REMARK Flexibility Score: inf
ROOT
ATOM      1  C   UNL     1       4.869   8.528  -2.626  1.00  0.00     0.000 C 
ENDROOT
BRANCH   1   2
ATOM      2  C   UNL     1       5.306   9.986  -2.404  1.00  0.00     0.000 C 
BRANCH   2   3
ATOM      3  C   UNL     1       6.763  10.110  -1.926  1.00  0.00     0.000 C 
BRANCH   3   4
ATOM      4  C   UNL     1       7.193   8.991  -0.955  1.00  0.00     0.000 C 
BRANCH   4   5
ATOM      5  C   UNL     1       8.552   8.383  -1.333  1.00  0.00     0.006 C 
BRANCH   5   6
ATOM      6  C   UNL     1       8.715   8.301  -2.853  1.00  0.00     0.053 C 
BRANCH   6   7
ATOM      7  C   UNL     1       8.613   6.882  -3.316  1.00  0.00     0.041 C 
ATOM      8  O   UNL     1       7.508   6.279  -3.269  1.00  0.00    -0.550 OA
ATOM      9  O   UNL     1       9.747   6.209  -3.752  1.00  0.00    -0.550 OA
ENDBRANCH   6   7
ENDBRANCH   5   6
ENDBRANCH   4   5
ENDBRANCH   3   4
ENDBRANCH   2   3
ENDBRANCH   1   2
BRANCH   1  10
ATOM     10  C   UNL     1       4.564   8.230  -4.109  1.00  0.00     0.000 C 
BRANCH  10  11
ATOM     11  C   UNL     1       4.512   9.488  -4.991  1.00  0.00    -0.000 C 
BRANCH  11  12
ATOM     12  C   UNL     1       5.441   9.400  -6.212  1.00  0.00    -0.000 C 
BRANCH  12  13
ATOM     13  C   UNL     1       6.859   8.937  -5.843  1.00  0.00    -0.000 C 
BRANCH  13  14
ATOM     14  C   UNL     1       7.745   8.710  -7.080  1.00  0.00    -0.000 C 
BRANCH  14  15
ATOM     15  C   UNL     1       6.971   8.870  -8.398  1.00  0.00    -0.003 C 
ATOM     16  C   UNL     1       7.877   8.810  -9.626  1.00  0.00     0.004 C 
ENDBRANCH  14  15
ENDBRANCH  13  14
ENDBRANCH  12  13
ENDBRANCH  11  12
ENDBRANCH  10  11
ENDBRANCH   1  10
TORSDOF 12
ENDMDL
MODEL 7
REMARK VINA RESULT:    -3.068     15.121     16.949
REMARK INTER + INTRA:          -6.246
REMARK INTER:                  -4.888
REMARK INTRA:                  -1.358
REMARK UNBOUND:                -1.026
REMARK SMILES CCCCCCCCCCCCCC(=O)[O-]
REMARK SMILES IDX 8 1 9 2 10 3 11 4 12 5 13 6 14 7 15 8 16 9 7 10 6 11 5 12
REMARK SMILES IDX 4 13 3 14 2 15 1 16
REMARK H PARENT
REMARK Flexibility Score: inf
ROOT
ATOM      1  C   UNL     1       4.115   8.618  -4.778  1.00  0.00     0.000 C 
ENDROOT
BRANCH   1   2
ATOM      2  C   UNL     1       4.352   8.761  -3.265  1.00  0.00     0.000 C 
BRANCH   2   3
ATOM      3  C   UNL     1       5.330   9.897  -2.916  1.00  0.00     0.000 C 
BRANCH   3   4
ATOM      4  C   UNL     1       6.359   9.515  -1.831  1.00  0.00     0.000 C 
BRANCH   4   5
ATOM      5  C   UNL     1       7.743   9.208  -2.423  1.00  0.00     0.006 C 
BRANCH   5   6
ATOM      6  C   UNL     1       8.278   7.870  -1.906  1.00  0.00     0.053 C 
BRANCH   6   7
ATOM      7  C   UNL     1       8.185   6.822  -2.969  1.00  0.00     0.041 C 
ATOM      8  O   UNL     1       9.212   6.480  -3.612  1.00  0.00    -0.550 OA
ATOM      9  O   UNL     1       6.956   6.258  -3.285  1.00  0.00    -0.550 OA
ENDBRANCH   6   7
ENDBRANCH   5   6
ENDBRANCH   4   5
ENDBRANCH   3   4
ENDBRANCH   2   3
ENDBRANCH   1   2
BRANCH   1  10
ATOM     10  C   UNL     1       4.885   9.679  -5.592  1.00  0.00     0.000 C 
BRANCH  10  11
ATOM     11  C   UNL     1       5.888   9.077  -6.590  1.00  0.00    -0.000 C 
BRANCH  11  12
ATOM     12  C   UNL     1       7.201   8.636  -5.924  1.00  0.00    -0.000 C 
BRANCH  12  13
ATOM     13  C   UNL     1       8.442   9.130  -6.683  1.00  0.00    -0.000 C 
BRANCH  13  14
ATOM     14  C   UNL     1       9.499   8.026  -6.867  1.00  0.00    -0.000 C 
BRANCH  14  15
ATOM     15  C   UNL     1       9.889   7.823  -8.339  1.00  0.00    -0.003 C 
ATOM     16  C   UNL     1       8.747   8.147  -9.302  1.00  0.00     0.004 C 
ENDBRANCH  14  15
ENDBRANCH  13  14
ENDBRANCH  12  13
ENDBRANCH  11  12
ENDBRANCH  10  11
ENDBRANCH   1  10
TORSDOF 12
ENDMDL
MODEL 8
REMARK VINA RESULT:    -3.031     14.421     15.967
REMARK INTER + INTRA:          -6.183
REMARK INTER:                  -4.650
REMARK INTRA:                  -1.532
REMARK UNBOUND:                -1.026
REMARK SMILES CCCCCCCCCCCCCC(=O)[O-]
REMARK SMILES IDX 8 1 9 2 10 3 11 4 12 5 13 6 14 7 15 8 16 9 7 10 6 11 5 12
REMARK SMILES IDX 4 13 3 14 2 15 1 16
REMARK H PARENT
REMARK Flexibility Score: inf
ROOT
ATOM      1  C   UNL     1       6.377   7.094  -2.937  1.00  0.00     0.000 C 
ENDROOT
BRANCH   1   2
ATOM      2  C   UNL     1       4.876   7.424  -3.000  1.00  0.00     0.000 C 
BRANCH   2   3
ATOM      3  C   UNL     1       4.531   8.439  -4.103  1.00  0.00     0.000 C 
BRANCH   3   4
ATOM      4  C   UNL     1       5.717   8.769  -5.034  1.00  0.00     0.000 C 
BRANCH   4   5
ATOM      5  C   UNL     1       5.316   9.717  -6.174  1.00  0.00     0.006 C 
BRANCH   5   6
ATOM      6  C   UNL     1       5.274   8.977  -7.514  1.00  0.00     0.053 C 
BRANCH   6   7
ATOM      7  C   UNL     1       3.881   8.956  -8.059  1.00  0.00     0.041 C 
ATOM      8  O   UNL     1       3.688   8.919  -9.302  1.00  0.00    -0.550 OA
ATOM      9  O   UNL     1       2.796   9.028  -7.195  1.00  0.00    -0.550 OA
ENDBRANCH   6   7
ENDBRANCH   5   6
ENDBRANCH   4   5
ENDBRANCH   3   4
ENDBRANCH   2   3
ENDBRANCH   1   2
BRANCH   1  10
ATOM     10  C   UNL     1       7.108   7.909  -1.850  1.00  0.00     0.000 C 
BRANCH  10  11
ATOM     11  C   UNL     1       8.639   7.883  -1.989  1.00  0.00    -0.000 C 
BRANCH  11  12
ATOM     12  C   UNL     1       9.111   7.163  -3.262  1.00  0.00    -0.000 C 
BRANCH  12  13
ATOM     13  C   UNL     1       9.988   8.055  -4.155  1.00  0.00    -0.000 C 
BRANCH  13  14
ATOM     14  C   UNL     1       9.296   9.377  -4.528  1.00  0.00    -0.000 C 
BRANCH  14  15
ATOM     15  C   UNL     1       9.232   9.599  -6.048  1.00  0.00    -0.003 C 
ATOM     16  C   UNL     1       8.970   8.308  -6.822  1.00  0.00     0.004 C 
ENDBRANCH  14  15
ENDBRANCH  13  14
ENDBRANCH  12  13
ENDBRANCH  11  12
ENDBRANCH  10  11
ENDBRANCH   1  10
TORSDOF 12
ENDMDL
MODEL 9
REMARK VINA RESULT:    -2.928     15.249     17.624
REMARK INTER + INTRA:          -6.008
REMARK INTER:                  -4.416
REMARK INTRA:                  -1.593
REMARK UNBOUND:                -1.026
REMARK SMILES CCCCCCCCCCCCCC(=O)[O-]
REMARK SMILES IDX 8 1 9 2 10 3 11 4 12 5 13 6 14 7 15 8 16 9 7 10 6 11 5 12
REMARK SMILES IDX 4 13 3 14 2 15 1 16
REMARK H PARENT
REMARK Flexibility Score: inf
ROOT
ATOM      1  C   UNL     1       7.485   7.066  -3.002  1.00  0.00     0.000 C 
ENDROOT
BRANCH   1   2
ATOM      2  C   UNL     1       8.666   8.023  -2.769  1.00  0.00     0.000 C 
BRANCH   2   3
ATOM      3  C   UNL     1       8.219   9.460  -2.451  1.00  0.00     0.000 C 
BRANCH   3   4
ATOM      4  C   UNL     1       9.032  10.125  -1.321  1.00  0.00     0.000 C 
BRANCH   4   5
ATOM      5  C   UNL     1       8.983   9.316  -0.015  1.00  0.00     0.006 C 
BRANCH   5   6
ATOM      6  C   UNL     1       7.606   9.422   0.645  1.00  0.00     0.053 C 
BRANCH   6   7
ATOM      7  C   UNL     1       7.740   9.460   2.135  1.00  0.00     0.041 C 
ATOM      8  O   UNL     1       8.822   9.828   2.664  1.00  0.00    -0.550 OA
ATOM      9  O   UNL     1       6.688   9.040   2.939  1.00  0.00    -0.550 OA
ENDBRANCH   6   7
ENDBRANCH   5   6
ENDBRANCH   4   5
ENDBRANCH   3   4
ENDBRANCH   2   3
ENDBRANCH   1   2
BRANCH   1  10
ATOM     10  C   UNL     1       6.216   7.510  -2.245  1.00  0.00     0.000 C 
BRANCH  10  11
ATOM     11  C   UNL     1       4.985   7.671  -3.152  1.00  0.00    -0.000 C 
BRANCH  11  12
ATOM     12  C   UNL     1       4.362   9.074  -3.068  1.00  0.00    -0.000 C 
BRANCH  12  13
ATOM     13  C   UNL     1       4.542   9.878  -4.364  1.00  0.00    -0.000 C 
BRANCH  13  14
ATOM     14  C   UNL     1       4.716   8.977  -5.598  1.00  0.00    -0.000 C 
BRANCH  14  15
ATOM     15  C   UNL     1       5.815   9.482  -6.546  1.00  0.00    -0.003 C 
ATOM     16  C   UNL     1       7.197   8.935  -6.193  1.00  0.00     0.004 C 
ENDBRANCH  14  15
ENDBRANCH  13  14
ENDBRANCH  12  13
ENDBRANCH  11  12
ENDBRANCH  10  11
ENDBRANCH   1  10
TORSDOF 12
ENDMDL
