MODEL 1
REMARK VINA RESULT:    -5.034      0.000      0.000
REMARK INTER + INTRA:         -12.265
REMARK INTER:                  -9.743
REMARK INTRA:                  -2.522
REMARK UNBOUND:                -2.522
REMARK SMILES CCCCCCCCCCCCCCCCCC(=O)[O-]
REMARK SMILES IDX 10 1 11 2 12 3 13 4 14 5 15 6 16 7 17 8 18 9 19 10 20 11
REMARK SMILES IDX 9 12 8 13 7 14 6 15 5 16 4 17 3 18 2 19 1 20
REMARK H PARENT
REMARK Flexibility Score: inf
ROOT
ATOM      1  C   UNL     1       9.854  18.236  33.508  1.00  0.00     0.000 C 
ENDROOT
BRANCH   1   2
ATOM      2  C   UNL     1       8.350  18.117  33.800  1.00  0.00     0.000 C 
BRANCH   2   3
ATOM      3  C   UNL     1       7.875  19.126  34.860  1.00  0.00     0.000 C 
BRANCH   3   4
ATOM      4  C   UNL     1       8.999  20.063  35.331  1.00  0.00     0.000 C 
BRANCH   4   5
ATOM      5  C   UNL     1       8.904  20.405  36.826  1.00  0.00     0.000 C 
BRANCH   5   6
ATOM      6  C   UNL     1       8.390  19.200  37.630  1.00  0.00     0.000 C 
BRANCH   6   7
ATOM      7  C   UNL     1       9.512  18.463  38.377  1.00  0.00     0.006 C 
BRANCH   7   8
ATOM      8  C   UNL     1      10.254  17.456  37.488  1.00  0.00     0.053 C 
BRANCH   8   9
ATOM      9  C   UNL     1      11.684  17.863  37.322  1.00  0.00     0.041 C 
ATOM     10  O   UNL     1      12.482  17.782  38.292  1.00  0.00    -0.550 OA
ATOM     11  O   UNL     1      12.121  18.387  36.111  1.00  0.00    -0.550 OA
ENDBRANCH   8   9
ENDBRANCH   7   8
ENDBRANCH   6   7
ENDBRANCH   5   6
ENDBRANCH   4   5
ENDBRANCH   3   4
ENDBRANCH   2   3
ENDBRANCH   1   2
BRANCH   1  12
ATOM     12  C   UNL     1      10.143  18.896  32.152  1.00  0.00     0.000 C 
BRANCH  12  13
ATOM     13  C   UNL     1       9.023  18.593  31.145  1.00  0.00    -0.000 C 
BRANCH  13  14
ATOM     14  C   UNL     1       8.406  19.865  30.535  1.00  0.00    -0.000 C 
BRANCH  14  15
ATOM     15  C   UNL     1       8.195  21.029  31.524  1.00  0.00    -0.000 C 
BRANCH  15  16
ATOM     16  C   UNL     1       8.373  22.435  30.923  1.00  0.00    -0.000 C 
BRANCH  16  17
ATOM     17  C   UNL     1       9.516  23.223  31.579  1.00  0.00    -0.000 C 
BRANCH  17  18
ATOM     18  C   UNL     1      10.066  22.476  32.802  1.00  0.00    -0.000 C 
BRANCH  18  19
ATOM     19  C   UNL     1      10.142  23.367  34.053  1.00  0.00    -0.003 C 
ATOM     20  C   UNL     1       8.763  23.739  34.597  1.00  0.00     0.004 C 
ENDBRANCH  18  19
ENDBRANCH  17  18
ENDBRANCH  16  17
ENDBRANCH  15  16
ENDBRANCH  14  15
ENDBRANCH  13  14
ENDBRANCH  12  13
ENDBRANCH   1  12
TORSDOF 16
ENDMDL
MODEL 2
REMARK VINA RESULT:    -4.970      1.972      4.653
REMARK INTER + INTRA:         -12.142
REMARK INTER:                  -9.904
REMARK INTRA:                  -2.238
REMARK UNBOUND:                -2.522
REMARK SMILES CCCCCCCCCCCCCCCCCC(=O)[O-]
REMARK SMILES IDX 10 1 11 2 12 3 13 4 14 5 15 6 16 7 17 8 18 9 19 10 20 11
REMARK SMILES IDX 9 12 8 13 7 14 6 15 5 16 4 17 3 18 2 19 1 20
REMARK H PARENT
REMARK Flexibility Score: inf
ROOT
ATOM      1  C   UNL     1       9.195  20.940  37.843  1.00  0.00     0.000 C 
ENDROOT
BRANCH   1   2
ATOM      2  C   UNL     1       8.122  19.841  37.779  1.00  0.00     0.000 C 
BRANCH   2   3
ATOM      3  C   UNL     1       8.704  18.474  37.381  1.00  0.00     0.000 C 
BRANCH   3   4
ATOM      4  C   UNL     1      10.227  18.400  37.573  1.00  0.00     0.000 C 
BRANCH   4   5
ATOM      5  C   UNL     1      10.864  17.213  36.834  1.00  0.00     0.000 C 
BRANCH   5   6
ATOM      6  C   UNL     1      11.992  17.688  35.906  1.00  0.00     0.000 C 
BRANCH   6   7
ATOM      7  C   UNL     1      12.980  16.567  35.549  1.00  0.00     0.006 C 
BRANCH   7   8
ATOM      8  C   UNL     1      14.274  16.633  36.371  1.00  0.00     0.053 C 
BRANCH   8   9
ATOM      9  C   UNL     1      14.161  15.772  37.590  1.00  0.00     0.041 C 
ATOM     10  O   UNL     1      13.780  16.267  38.682  1.00  0.00    -0.550 OA
ATOM     11  O   UNL     1      14.532  14.433  37.532  1.00  0.00    -0.550 OA
ENDBRANCH   8   9
ENDBRANCH   7   8
ENDBRANCH   6   7
ENDBRANCH   5   6
ENDBRANCH   4   5
ENDBRANCH   3   4
ENDBRANCH   2   3
ENDBRANCH   1   2
BRANCH   1  12
ATOM     12  C   UNL     1       8.729  22.259  37.209  1.00  0.00     0.000 C 
BRANCH  12  13
ATOM     13  C   UNL     1       9.371  22.461  35.828  1.00  0.00    -0.000 C 
BRANCH  13  14
ATOM     14  C   UNL     1      10.546  21.500  35.568  1.00  0.00    -0.000 C 
BRANCH  14  15
ATOM     15  C   UNL     1      10.441  20.673  34.271  1.00  0.00    -0.000 C 
BRANCH  15  16
ATOM     16  C   UNL     1       9.011  20.476  33.737  1.00  0.00    -0.000 C 
BRANCH  16  17
ATOM     17  C   UNL     1       8.503  19.038  33.908  1.00  0.00    -0.000 C 
BRANCH  17  18
ATOM     18  C   UNL     1       9.193  18.091  32.916  1.00  0.00    -0.000 C 
BRANCH  18  19
ATOM     19  C   UNL     1       9.513  18.772  31.576  1.00  0.00    -0.003 C 
ATOM     20  C   UNL     1       9.715  17.771  30.439  1.00  0.00     0.004 C 
ENDBRANCH  18  19
ENDBRANCH  17  18
ENDBRANCH  16  17
ENDBRANCH  15  16
ENDBRANCH  14  15
ENDBRANCH  13  14
ENDBRANCH  12  13
ENDBRANCH   1  12
TORSDOF 16
ENDMDL
MODEL 3
REMARK VINA RESULT:    -4.937      1.752      2.341
REMARK INTER + INTRA:         -12.076
REMARK INTER:                  -9.658
REMARK INTRA:                  -2.418
REMARK UNBOUND:                -2.522
REMARK SMILES CCCCCCCCCCCCCCCCCC(=O)[O-]
REMARK SMILES IDX 10 1 11 2 12 3 13 4 14 5 15 6 16 7 17 8 18 9 19 10 20 11
REMARK SMILES IDX 9 12 8 13 7 14 6 15 5 16 4 17 3 18 2 19 1 20
REMARK H PARENT
REMARK Flexibility Score: inf
ROOT
ATOM      1  C   UNL     1       9.826  18.444  33.504  1.00  0.00     0.000 C 
ENDROOT
BRANCH   1   2
ATOM      2  C   UNL     1       8.317  18.293  33.752  1.00  0.00     0.000 C 
BRANCH   2   3
ATOM      3  C   UNL     1       7.978  18.154  35.246  1.00  0.00     0.000 C 
BRANCH   3   4
ATOM      4  C   UNL     1       8.956  17.232  35.992  1.00  0.00     0.000 C 
BRANCH   4   5
ATOM      5  C   UNL     1       9.640  17.925  37.181  1.00  0.00     0.000 C 
BRANCH   5   6
ATOM      6  C   UNL     1       9.282  19.418  37.223  1.00  0.00     0.000 C 
BRANCH   6   7
ATOM      7  C   UNL     1       8.449  19.795  38.457  1.00  0.00     0.006 C 
BRANCH   7   8
ATOM      8  C   UNL     1       9.033  19.234  39.760  1.00  0.00     0.053 C 
BRANCH   8   9
ATOM      9  C   UNL     1      10.135  20.116  40.258  1.00  0.00     0.041 C 
ATOM     10  O   UNL     1       9.984  21.365  40.283  1.00  0.00    -0.550 OA
ATOM     11  O   UNL     1      11.351  19.561  40.640  1.00  0.00    -0.550 OA
ENDBRANCH   8   9
ENDBRANCH   7   8
ENDBRANCH   6   7
ENDBRANCH   5   6
ENDBRANCH   4   5
ENDBRANCH   3   4
ENDBRANCH   2   3
ENDBRANCH   1   2
BRANCH   1  12
ATOM     12  C   UNL     1      10.146  18.951  32.090  1.00  0.00     0.000 C 
BRANCH  12  13
ATOM     13  C   UNL     1       8.950  18.740  31.148  1.00  0.00    -0.000 C 
BRANCH  13  14
ATOM     14  C   UNL     1       8.494  20.039  30.461  1.00  0.00    -0.000 C 
BRANCH  14  15
ATOM     15  C   UNL     1       7.957  21.129  31.410  1.00  0.00    -0.000 C 
BRANCH  15  16
ATOM     16  C   UNL     1       8.686  22.482  31.327  1.00  0.00    -0.000 C 
BRANCH  16  17
ATOM     17  C   UNL     1       9.002  23.075  32.708  1.00  0.00    -0.000 C 
BRANCH  17  18
ATOM     18  C   UNL     1       8.891  22.004  33.802  1.00  0.00    -0.000 C 
BRANCH  18  19
ATOM     19  C   UNL     1       9.996  22.129  34.864  1.00  0.00    -0.003 C 
ATOM     20  C   UNL     1      11.369  21.713  34.338  1.00  0.00     0.004 C 
ENDBRANCH  18  19
ENDBRANCH  17  18
ENDBRANCH  16  17
ENDBRANCH  15  16
ENDBRANCH  14  15
ENDBRANCH  13  14
ENDBRANCH  12  13
ENDBRANCH   1  12
TORSDOF 16
ENDMDL
MODEL 4
REMARK VINA RESULT:    -4.933      2.102      4.294
REMARK INTER + INTRA:         -12.069
REMARK INTER:                  -9.371
REMARK INTRA:                  -2.699
REMARK UNBOUND:                -2.522
REMARK SMILES CCCCCCCCCCCCCCCCCC(=O)[O-]
REMARK SMILES IDX 10 1 11 2 12 3 13 4 14 5 15 6 16 7 17 8 18 9 19 10 20 11
REMARK SMILES IDX 9 12 8 13 7 14 6 15 5 16 4 17 3 18 2 19 1 20
REMARK H PARENT
REMARK Flexibility Score: inf
ROOT
ATOM      1  C   UNL     1       8.106  18.450  35.889  1.00  0.00     0.000 C 
ENDROOT
BRANCH   1   2
ATOM      2  C   UNL     1       8.577  16.991  35.770  1.00  0.00     0.000 C 
BRANCH   2   3
ATOM      3  C   UNL     1       9.747  16.830  34.784  1.00  0.00     0.000 C 
BRANCH   3   4
ATOM      4  C   UNL     1      10.955  17.707  35.150  1.00  0.00     0.000 C 
BRANCH   4   5
ATOM      5  C   UNL     1      11.827  17.090  36.255  1.00  0.00     0.000 C 
BRANCH   5   6
ATOM      6  C   UNL     1      11.928  18.035  37.462  1.00  0.00     0.000 C 
BRANCH   6   7
ATOM      7  C   UNL     1      12.829  17.481  38.576  1.00  0.00     0.006 C 
BRANCH   7   8
ATOM      8  C   UNL     1      13.755  16.359  38.087  1.00  0.00     0.053 C 
BRANCH   8   9
ATOM      9  C   UNL     1      15.159  16.861  37.962  1.00  0.00     0.041 C 
ATOM     10  O   UNL     1      15.860  16.540  36.967  1.00  0.00    -0.550 OA
ATOM     11  O   UNL     1      15.713  17.636  38.974  1.00  0.00    -0.550 OA
ENDBRANCH   8   9
ENDBRANCH   7   8
ENDBRANCH   6   7
ENDBRANCH   5   6
ENDBRANCH   4   5
ENDBRANCH   3   4
ENDBRANCH   2   3
ENDBRANCH   1   2
BRANCH   1  12
ATOM     12  C   UNL     1       8.297  19.021  37.301  1.00  0.00     0.000 C 
BRANCH  12  13
ATOM     13  C   UNL     1       9.135  20.308  37.264  1.00  0.00    -0.000 C 
BRANCH  13  14
ATOM     14  C   UNL     1       9.015  21.062  35.927  1.00  0.00    -0.000 C 
BRANCH  14  15
ATOM     15  C   UNL     1      10.340  21.258  35.164  1.00  0.00    -0.000 C 
BRANCH  15  16
ATOM     16  C   UNL     1      10.286  20.910  33.665  1.00  0.00    -0.000 C 
BRANCH  16  17
ATOM     17  C   UNL     1       8.852  20.835  33.121  1.00  0.00    -0.000 C 
BRANCH  17  18
ATOM     18  C   UNL     1       8.635  19.541  32.323  1.00  0.00    -0.000 C 
BRANCH  18  19
ATOM     19  C   UNL     1       9.944  18.975  31.749  1.00  0.00    -0.003 C 
ATOM     20  C   UNL     1       9.711  17.825  30.771  1.00  0.00     0.004 C 
ENDBRANCH  18  19
ENDBRANCH  17  18
ENDBRANCH  16  17
ENDBRANCH  15  16
ENDBRANCH  14  15
ENDBRANCH  13  14
ENDBRANCH  12  13
ENDBRANCH   1  12
TORSDOF 16
ENDMDL
MODEL 5
REMARK VINA RESULT:    -4.885      2.647      5.608
REMARK INTER + INTRA:         -11.976
REMARK INTER:                 -10.040
REMARK INTRA:                  -1.936
REMARK UNBOUND:                -2.522
REMARK SMILES CCCCCCCCCCCCCCCCCC(=O)[O-]
REMARK SMILES IDX 10 1 11 2 12 3 13 4 14 5 15 6 16 7 17 8 18 9 19 10 20 11
REMARK SMILES IDX 9 12 8 13 7 14 6 15 5 16 4 17 3 18 2 19 1 20
REMARK H PARENT
REMARK Flexibility Score: inf
ROOT
ATOM      1  C   UNL     1      11.349  17.970  37.906  1.00  0.00     0.000 C 
ENDROOT
BRANCH   1   2
ATOM      2  C   UNL     1      11.167  16.944  36.775  1.00  0.00     0.000 C 
BRANCH   2   3
ATOM      3  C   UNL     1      12.040  17.261  35.549  1.00  0.00     0.000 C 
BRANCH   3   4
ATOM      4  C   UNL     1      13.267  18.116  35.900  1.00  0.00     0.000 C 
BRANCH   4   5
ATOM      5  C   UNL     1      14.577  17.539  35.340  1.00  0.00     0.000 C 
BRANCH   5   6
ATOM      6  C   UNL     1      15.787  18.069  36.124  1.00  0.00     0.000 C 
BRANCH   6   7
ATOM      7  C   UNL     1      15.967  17.372  37.481  1.00  0.00     0.006 C 
BRANCH   7   8
ATOM      8  C   UNL     1      16.090  15.848  37.353  1.00  0.00     0.053 C 
BRANCH   8   9
ATOM      9  C   UNL     1      15.046  15.171  38.184  1.00  0.00     0.041 C 
ATOM     10  O   UNL     1      15.121  13.935  38.410  1.00  0.00    -0.550 OA
ATOM     11  O   UNL     1      13.959  15.894  38.661  1.00  0.00    -0.550 OA
ENDBRANCH   8   9
ENDBRANCH   7   8
ENDBRANCH   6   7
ENDBRANCH   5   6
ENDBRANCH   4   5
ENDBRANCH   3   4
ENDBRANCH   2   3
ENDBRANCH   1   2
BRANCH   1  12
ATOM     12  C   UNL     1      10.012  18.501  38.445  1.00  0.00     0.000 C 
BRANCH  12  13
ATOM     13  C   UNL     1       9.641  19.832  37.774  1.00  0.00    -0.000 C 
BRANCH  13  14
ATOM     14  C   UNL     1       8.272  19.786  37.072  1.00  0.00    -0.000 C 
BRANCH  14  15
ATOM     15  C   UNL     1       7.876  18.412  36.496  1.00  0.00    -0.000 C 
BRANCH  15  16
ATOM     16  C   UNL     1       8.136  18.238  34.989  1.00  0.00    -0.000 C 
BRANCH  16  17
ATOM     17  C   UNL     1       8.665  19.516  34.323  1.00  0.00    -0.000 C 
BRANCH  17  18
ATOM     18  C   UNL     1       9.607  19.178  33.158  1.00  0.00    -0.000 C 
BRANCH  18  19
ATOM     19  C   UNL     1       9.055  18.060  32.259  1.00  0.00    -0.003 C 
ATOM     20  C   UNL     1       9.715  18.033  30.881  1.00  0.00     0.004 C 
ENDBRANCH  18  19
ENDBRANCH  17  18
ENDBRANCH  16  17
ENDBRANCH  15  16
ENDBRANCH  14  15
ENDBRANCH  13  14
ENDBRANCH  12  13
ENDBRANCH   1  12
TORSDOF 16
ENDMDL
MODEL 6
REMARK VINA RESULT:    -4.868      2.021      6.024
REMARK INTER + INTRA:         -11.943
REMARK INTER:                  -9.290
REMARK INTRA:                  -2.653
REMARK UNBOUND:                -2.522
REMARK SMILES CCCCCCCCCCCCCCCCCC(=O)[O-]
REMARK SMILES IDX 10 1 11 2 12 3 13 4 14 5 15 6 16 7 17 8 18 9 19 10 20 11
REMARK SMILES IDX 9 12 8 13 7 14 6 15 5 16 4 17 3 18 2 19 1 20
REMARK H PARENT
REMARK Flexibility Score: inf
ROOT
ATOM      1  C   UNL     1      10.166  19.175  33.866  1.00  0.00     0.000 C 
ENDROOT
BRANCH   1   2
ATOM      2  C   UNL     1      10.403  19.447  32.371  1.00  0.00     0.000 C 
BRANCH   2   3
ATOM      3  C   UNL     1       9.576  18.518  31.467  1.00  0.00     0.000 C 
BRANCH   3   4
ATOM      4  C   UNL     1       8.758  19.287  30.416  1.00  0.00     0.000 C 
BRANCH   4   5
ATOM      5  C   UNL     1       7.884  20.390  31.032  1.00  0.00     0.000 C 
BRANCH   5   6
ATOM      6  C   UNL     1       8.255  21.766  30.458  1.00  0.00     0.000 C 
BRANCH   6   7
ATOM      7  C   UNL     1       8.262  22.873  31.523  1.00  0.00     0.006 C 
BRANCH   7   8
ATOM      8  C   UNL     1       9.658  23.121  32.110  1.00  0.00     0.053 C 
BRANCH   8   9
ATOM      9  C   UNL     1       9.616  23.041  33.604  1.00  0.00     0.041 C 
ATOM     10  O   UNL     1       8.592  23.420  34.230  1.00  0.00    -0.550 OA
ATOM     11  O   UNL     1      10.731  22.601  34.308  1.00  0.00    -0.550 OA
ENDBRANCH   8   9
ENDBRANCH   7   8
ENDBRANCH   6   7
ENDBRANCH   5   6
ENDBRANCH   4   5
ENDBRANCH   3   4
ENDBRANCH   2   3
ENDBRANCH   1   2
BRANCH   1  12
ATOM     12  C   UNL     1       8.675  19.125  34.229  1.00  0.00     0.000 C 
BRANCH  12  13
ATOM     13  C   UNL     1       8.329  17.813  34.949  1.00  0.00    -0.000 C 
BRANCH  13  14
ATOM     14  C   UNL     1       9.571  16.963  35.272  1.00  0.00    -0.000 C 
BRANCH  14  15
ATOM     15  C   UNL     1       9.882  16.803  36.774  1.00  0.00    -0.000 C 
BRANCH  15  16
ATOM     16  C   UNL     1      11.046  17.666  37.294  1.00  0.00    -0.000 C 
BRANCH  16  17
ATOM     17  C   UNL     1      10.573  18.956  37.978  1.00  0.00    -0.000 C 
BRANCH  17  18
ATOM     18  C   UNL     1       9.113  18.830  38.436  1.00  0.00    -0.000 C 
BRANCH  18  19
ATOM     19  C   UNL     1       8.250  20.022  37.993  1.00  0.00    -0.003 C 
ATOM     20  C   UNL     1       9.054  21.090  37.253  1.00  0.00     0.004 C 
ENDBRANCH  18  19
ENDBRANCH  17  18
ENDBRANCH  16  17
ENDBRANCH  15  16
ENDBRANCH  14  15
ENDBRANCH  13  14
ENDBRANCH  12  13
ENDBRANCH   1  12
TORSDOF 16
ENDMDL
MODEL 7
REMARK VINA RESULT:    -4.865      4.197      6.556
REMARK INTER + INTRA:         -11.939
REMARK INTER:                 -10.603
REMARK INTRA:                  -1.335
REMARK UNBOUND:                -2.522
REMARK SMILES CCCCCCCCCCCCCCCCCC(=O)[O-]
REMARK SMILES IDX 10 1 11 2 12 3 13 4 14 5 15 6 16 7 17 8 18 9 19 10 20 11
REMARK SMILES IDX 9 12 8 13 7 14 6 15 5 16 4 17 3 18 2 19 1 20
REMARK H PARENT
REMARK Flexibility Score: inf
ROOT
ATOM      1  C   UNL     1      13.163  16.373  35.922  1.00  0.00     0.000 C 
ENDROOT
BRANCH   1   2
ATOM      2  C   UNL     1      14.093  15.646  36.906  1.00  0.00     0.000 C 
BRANCH   2   3
ATOM      3  C   UNL     1      14.107  16.304  38.297  1.00  0.00     0.000 C 
BRANCH   3   4
ATOM      4  C   UNL     1      14.763  17.694  38.288  1.00  0.00     0.000 C 
BRANCH   4   5
ATOM      5  C   UNL     1      16.139  17.700  37.605  1.00  0.00     0.000 C 
BRANCH   5   6
ATOM      6  C   UNL     1      16.134  18.618  36.373  1.00  0.00     0.000 C 
BRANCH   6   7
ATOM      7  C   UNL     1      17.146  18.181  35.302  1.00  0.00     0.006 C 
BRANCH   7   8
ATOM      8  C   UNL     1      18.018  17.003  35.756  1.00  0.00     0.053 C 
BRANCH   8   9
ATOM      9  C   UNL     1      18.767  16.432  34.594  1.00  0.00     0.041 C 
ATOM     10  O   UNL     1      19.113  17.174  33.638  1.00  0.00    -0.550 OA
ATOM     11  O   UNL     1      19.031  15.069  34.539  1.00  0.00    -0.550 OA
ENDBRANCH   8   9
ENDBRANCH   7   8
ENDBRANCH   6   7
ENDBRANCH   5   6
ENDBRANCH   4   5
ENDBRANCH   3   4
ENDBRANCH   2   3
ENDBRANCH   1   2
BRANCH   1  12
ATOM     12  C   UNL     1      11.781  16.670  36.523  1.00  0.00     0.000 C 
BRANCH  12  13
ATOM     13  C   UNL     1      10.853  17.307  35.477  1.00  0.00    -0.000 C 
BRANCH  13  14
ATOM     14  C   UNL     1       9.389  16.857  35.624  1.00  0.00    -0.000 C 
BRANCH  14  15
ATOM     15  C   UNL     1       8.366  17.682  34.817  1.00  0.00    -0.000 C 
BRANCH  15  16
ATOM     16  C   UNL     1       8.461  19.206  35.010  1.00  0.00    -0.000 C 
BRANCH  16  17
ATOM     17  C   UNL     1       8.962  19.936  33.756  1.00  0.00    -0.000 C 
BRANCH  17  18
ATOM     18  C   UNL     1       8.629  19.137  32.487  1.00  0.00    -0.000 C 
BRANCH  18  19
ATOM     19  C   UNL     1       9.863  18.890  31.605  1.00  0.00    -0.003 C 
ATOM     20  C   UNL     1       9.740  17.621  30.762  1.00  0.00     0.004 C 
ENDBRANCH  18  19
ENDBRANCH  17  18
ENDBRANCH  16  17
ENDBRANCH  15  16
ENDBRANCH  14  15
ENDBRANCH  13  14
ENDBRANCH  12  13
ENDBRANCH   1  12
TORSDOF 16
ENDMDL
MODEL 8
REMARK VINA RESULT:    -4.829      1.760      2.946
REMARK INTER + INTRA:         -11.868
REMARK INTER:                  -9.178
REMARK INTRA:                  -2.689
REMARK UNBOUND:                -2.522
REMARK SMILES CCCCCCCCCCCCCCCCCC(=O)[O-]
REMARK SMILES IDX 10 1 11 2 12 3 13 4 14 5 15 6 16 7 17 8 18 9 19 10 20 11
REMARK SMILES IDX 9 12 8 13 7 14 6 15 5 16 4 17 3 18 2 19 1 20
REMARK H PARENT
REMARK Flexibility Score: inf
ROOT
ATOM      1  C   UNL     1      10.312  19.197  32.409  1.00  0.00     0.000 C 
ENDROOT
BRANCH   1   2
ATOM      2  C   UNL     1       9.159  18.210  32.652  1.00  0.00     0.000 C 
BRANCH   2   3
ATOM      3  C   UNL     1       8.213  18.676  33.773  1.00  0.00     0.000 C 
BRANCH   3   4
ATOM      4  C   UNL     1       8.241  17.745  34.996  1.00  0.00     0.000 C 
BRANCH   4   5
ATOM      5  C   UNL     1       9.645  17.601  35.604  1.00  0.00     0.000 C 
BRANCH   5   6
ATOM      6  C   UNL     1       9.713  18.267  36.987  1.00  0.00     0.000 C 
BRANCH   6   7
ATOM      7  C   UNL     1      11.143  18.340  37.542  1.00  0.00     0.006 C 
BRANCH   7   8
ATOM      8  C   UNL     1      12.189  17.803  36.556  1.00  0.00     0.053 C 
BRANCH   8   9
ATOM      9  C   UNL     1      12.989  16.709  37.192  1.00  0.00     0.041 C 
ATOM     10  O   UNL     1      13.292  16.773  38.412  1.00  0.00    -0.550 OA
ATOM     11  O   UNL     1      13.449  15.647  36.422  1.00  0.00    -0.550 OA
ENDBRANCH   8   9
ENDBRANCH   7   8
ENDBRANCH   6   7
ENDBRANCH   5   6
ENDBRANCH   4   5
ENDBRANCH   3   4
ENDBRANCH   2   3
ENDBRANCH   1   2
BRANCH   1  12
ATOM     12  C   UNL     1      10.049  20.579  33.027  1.00  0.00     0.000 C 
BRANCH  12  13
ATOM     13  C   UNL     1      11.242  21.033  33.882  1.00  0.00    -0.000 C 
BRANCH  13  14
ATOM     14  C   UNL     1      10.844  21.376  35.329  1.00  0.00    -0.000 C 
BRANCH  14  15
ATOM     15  C   UNL     1       9.365  21.765  35.527  1.00  0.00    -0.000 C 
BRANCH  15  16
ATOM     16  C   UNL     1       9.100  23.276  35.653  1.00  0.00    -0.000 C 
BRANCH  16  17
ATOM     17  C   UNL     1       8.651  23.916  34.331  1.00  0.00    -0.000 C 
BRANCH  17  18
ATOM     18  C   UNL     1       9.459  25.187  34.035  1.00  0.00    -0.000 C 
BRANCH  18  19
ATOM     19  C   UNL     1      10.803  24.887  33.352  1.00  0.00    -0.003 C 
ATOM     20  C   UNL     1      10.636  24.212  31.991  1.00  0.00     0.004 C 
ENDBRANCH  18  19
ENDBRANCH  17  18
ENDBRANCH  16  17
ENDBRANCH  15  16
ENDBRANCH  14  15
ENDBRANCH  13  14
ENDBRANCH  12  13
ENDBRANCH   1  12
TORSDOF 16
ENDMDL
MODEL 9
REMARK VINA RESULT:    -4.680      1.462      3.906
REMARK INTER + INTRA:         -11.580
REMARK INTER:                  -9.111
REMARK INTRA:                  -2.468
REMARK UNBOUND:                -2.522
REMARK SMILES CCCCCCCCCCCCCCCCCC(=O)[O-]
REMARK SMILES IDX 10 1 11 2 12 3 13 4 14 5 15 6 16 7 17 8 18 9 19 10 20 11
REMARK SMILES IDX 9 12 8 13 7 14 6 15 5 16 4 17 3 18 2 19 1 20
REMARK H PARENT
REMARK Flexibility Score: inf
ROOT
ATOM      1  C   UNL     1       9.147  20.957  36.336  1.00  0.00     0.000 C 
ENDROOT
BRANCH   1   2
ATOM      2  C   UNL     1       8.753  20.081  37.536  1.00  0.00     0.000 C 
BRANCH   2   3
ATOM      3  C   UNL     1       7.875  18.886  37.128  1.00  0.00     0.000 C 
BRANCH   3   4
ATOM      4  C   UNL     1       8.138  18.422  35.686  1.00  0.00     0.000 C 
BRANCH   4   5
ATOM      5  C   UNL     1       9.060  17.195  35.613  1.00  0.00     0.000 C 
BRANCH   5   6
ATOM      6  C   UNL     1      10.289  17.487  34.738  1.00  0.00     0.000 C 
BRANCH   6   7
ATOM      7  C   UNL     1      11.447  18.113  35.531  1.00  0.00     0.006 C 
BRANCH   7   8
ATOM      8  C   UNL     1      11.710  17.396  36.862  1.00  0.00     0.053 C 
BRANCH   8   9
ATOM      9  C   UNL     1      13.133  16.938  36.934  1.00  0.00     0.041 C 
ATOM     10  O   UNL     1      13.463  15.822  36.456  1.00  0.00    -0.550 OA
ATOM     11  O   UNL     1      14.082  17.720  37.581  1.00  0.00    -0.550 OA
ENDBRANCH   8   9
ENDBRANCH   7   8
ENDBRANCH   6   7
ENDBRANCH   5   6
ENDBRANCH   4   5
ENDBRANCH   3   4
ENDBRANCH   2   3
ENDBRANCH   1   2
BRANCH   1  12
ATOM     12  C   UNL     1       9.014  22.458  36.629  1.00  0.00     0.000 C 
BRANCH  12  13
ATOM     13  C   UNL     1       9.645  23.295  35.505  1.00  0.00    -0.000 C 
BRANCH  13  14
ATOM     14  C   UNL     1       8.641  23.663  34.398  1.00  0.00    -0.000 C 
BRANCH  14  15
ATOM     15  C   UNL     1       8.725  22.798  33.124  1.00  0.00    -0.000 C 
BRANCH  15  16
ATOM     16  C   UNL     1      10.140  22.317  32.756  1.00  0.00    -0.000 C 
BRANCH  16  17
ATOM     17  C   UNL     1      10.267  20.787  32.752  1.00  0.00    -0.000 C 
BRANCH  17  18
ATOM     18  C   UNL     1       8.910  20.124  32.477  1.00  0.00    -0.000 C 
BRANCH  18  19
ATOM     19  C   UNL     1       8.877  19.382  31.131  1.00  0.00    -0.003 C 
ATOM     20  C   UNL     1       9.369  17.939  31.242  1.00  0.00     0.004 C 
ENDBRANCH  18  19
ENDBRANCH  17  18
ENDBRANCH  16  17
ENDBRANCH  15  16
ENDBRANCH  14  15
ENDBRANCH  13  14
ENDBRANCH  12  13
ENDBRANCH   1  12
TORSDOF 16
ENDMDL
