MODEL 1
REMARK VINA RESULT:    -5.096      0.000      0.000
REMARK INTER + INTRA:          -5.586
REMARK INTER:                  -5.394
REMARK INTRA:                  -0.191
REMARK UNBOUND:                -0.191
REMARK SMILES CC1=CC[C@@H](C(C)C)C=C1
REMARK SMILES IDX 1 1 2 2 3 3 4 4 5 5 9 6 10 7 6 8 7 9 8 10
REMARK H PARENT
REMARK Flexibility Score: inf
ROOT
ATOM      1  C   UNL     1       7.424   5.311  12.754  1.00  0.00     0.044 C 
ATOM      2  C   UNL     1       6.420   6.408  12.560  1.00  0.00    -0.055 C 
ATOM      3  C   UNL     1       5.112   6.171  12.748  1.00  0.00    -0.023 C 
ATOM      4  C   UNL     1       4.105   7.284  12.624  1.00  0.00     0.035 C 
ATOM      5  C   UNL     1       4.512   8.271  11.503  1.00  0.00     0.018 C 
ATOM      6  C   UNL     1       5.979   8.632  11.628  1.00  0.00    -0.023 C 
ATOM      7  C   UNL     1       6.864   7.734  12.075  1.00  0.00    -0.001 C 
ENDROOT
BRANCH   5   8
ATOM      8  C   UNL     1       3.616   9.542  11.419  1.00  0.00    -0.010 C 
ATOM      9  C   UNL     1       4.359  10.784  10.896  1.00  0.00     0.008 C 
ATOM     10  C   UNL     1       2.941   9.853  12.763  1.00  0.00     0.008 C 
ENDBRANCH   5   8
TORSDOF 1
ENDMDL
MODEL 2
REMARK VINA RESULT:    -5.067      0.991      4.172
REMARK INTER + INTRA:          -5.555
REMARK INTER:                  -5.364
REMARK INTRA:                  -0.191
REMARK UNBOUND:                -0.191
REMARK SMILES CC1=CC[C@@H](C(C)C)C=C1
REMARK SMILES IDX 1 1 2 2 3 3 4 4 5 5 9 6 10 7 6 8 7 9 8 10
REMARK H PARENT
REMARK Flexibility Score: inf
ROOT
ATOM      1  C   UNL     1       3.523  10.245  11.053  1.00  0.00     0.044 C 
ATOM      2  C   UNL     1       4.363   9.093  11.518  1.00  0.00    -0.055 C 
ATOM      3  C   UNL     1       3.866   8.200  12.388  1.00  0.00    -0.023 C 
ATOM      4  C   UNL     1       4.677   7.002  12.804  1.00  0.00     0.035 C 
ATOM      5  C   UNL     1       6.178   7.366  12.914  1.00  0.00     0.018 C 
ATOM      6  C   UNL     1       6.618   8.150  11.694  1.00  0.00    -0.023 C 
ATOM      7  C   UNL     1       5.775   8.990  11.084  1.00  0.00    -0.001 C 
ENDROOT
BRANCH   5   8
ATOM      8  C   UNL     1       7.110   6.147  13.176  1.00  0.00    -0.010 C 
ATOM      9  C   UNL     1       8.106   5.877  12.035  1.00  0.00     0.008 C 
ATOM     10  C   UNL     1       6.310   4.875  13.494  1.00  0.00     0.008 C 
ENDBRANCH   5   8
TORSDOF 1
ENDMDL
MODEL 3
REMARK VINA RESULT:    -4.923      1.018      4.482
REMARK INTER + INTRA:          -5.402
REMARK INTER:                  -5.243
REMARK INTRA:                  -0.160
REMARK UNBOUND:                -0.191
REMARK SMILES CC1=CC[C@@H](C(C)C)C=C1
REMARK SMILES IDX 1 1 2 2 3 3 4 4 5 5 9 6 10 7 6 8 7 9 8 10
REMARK H PARENT
REMARK Flexibility Score: inf
ROOT
ATOM      1  C   UNL     1       3.050  10.158  10.875  1.00  0.00     0.044 C 
ATOM      2  C   UNL     1       4.044   9.242  11.525  1.00  0.00    -0.055 C 
ATOM      3  C   UNL     1       5.271   9.091  11.000  1.00  0.00    -0.023 C 
ATOM      4  C   UNL     1       6.297   8.229  11.686  1.00  0.00     0.035 C 
ATOM      5  C   UNL     1       5.629   6.994  12.340  1.00  0.00     0.018 C 
ATOM      6  C   UNL     1       4.399   7.414  13.119  1.00  0.00    -0.023 C 
ATOM      7  C   UNL     1       3.641   8.432  12.698  1.00  0.00    -0.001 C 
ENDROOT
BRANCH   5   8
ATOM      8  C   UNL     1       6.594   6.138  13.212  1.00  0.00    -0.010 C 
ATOM      9  C   UNL     1       7.358   6.956  14.267  1.00  0.00     0.008 C 
ATOM     10  C   UNL     1       7.577   5.332  12.351  1.00  0.00     0.008 C 
ENDBRANCH   5   8
TORSDOF 1
ENDMDL
MODEL 4
REMARK VINA RESULT:    -4.493      1.069      4.483
REMARK INTER + INTRA:          -4.947
REMARK INTER:                  -4.762
REMARK INTRA:                  -0.185
REMARK UNBOUND:                -0.191
REMARK SMILES CC1=CC[C@@H](C(C)C)C=C1
REMARK SMILES IDX 1 1 2 2 3 3 4 4 5 5 9 6 10 7 6 8 7 9 8 10
REMARK H PARENT
REMARK Flexibility Score: inf
ROOT
ATOM      1  C   UNL     1       2.861  10.305  11.329  1.00  0.00     0.044 C 
ATOM      2  C   UNL     1       3.955   9.360  11.732  1.00  0.00    -0.055 C 
ATOM      3  C   UNL     1       5.130   9.368  11.083  1.00  0.00    -0.023 C 
ATOM      4  C   UNL     1       6.256   8.472  11.527  1.00  0.00     0.035 C 
ATOM      5  C   UNL     1       5.712   7.113  12.029  1.00  0.00     0.018 C 
ATOM      6  C   UNL     1       4.546   7.330  12.972  1.00  0.00    -0.023 C 
ATOM      7  C   UNL     1       3.705   8.354  12.789  1.00  0.00    -0.001 C 
ENDROOT
BRANCH   5   8
ATOM      8  C   UNL     1       6.795   6.190  12.662  1.00  0.00    -0.010 C 
ATOM      9  C   UNL     1       6.228   4.875  13.224  1.00  0.00     0.008 C 
ATOM     10  C   UNL     1       7.609   6.922  13.739  1.00  0.00     0.008 C 
ENDBRANCH   5   8
TORSDOF 1
ENDMDL
MODEL 5
REMARK VINA RESULT:    -4.055      3.160      6.297
REMARK INTER + INTRA:          -4.484
REMARK INTER:                  -4.312
REMARK INTRA:                  -0.172
REMARK UNBOUND:                -0.191
REMARK SMILES CC1=CC[C@@H](C(C)C)C=C1
REMARK SMILES IDX 1 1 2 2 3 3 4 4 5 5 9 6 10 7 6 8 7 9 8 10
REMARK H PARENT
REMARK Flexibility Score: inf
ROOT
ATOM      1  C   UNL     1       4.355  16.276  12.183  1.00  0.00     0.044 C 
ATOM      2  C   UNL     1       3.970  14.826  12.154  1.00  0.00    -0.055 C 
ATOM      3  C   UNL     1       3.640  14.191  13.290  1.00  0.00    -0.023 C 
ATOM      4  C   UNL     1       3.184  12.756  13.260  1.00  0.00     0.035 C 
ATOM      5  C   UNL     1       3.949  11.958  12.176  1.00  0.00     0.018 C 
ATOM      6  C   UNL     1       3.978  12.735  10.875  1.00  0.00    -0.023 C 
ATOM      7  C   UNL     1       4.040  14.072  10.882  1.00  0.00    -0.001 C 
ENDROOT
BRANCH   5   8
ATOM      8  C   UNL     1       3.422  10.509  11.963  1.00  0.00    -0.010 C 
ATOM      9  C   UNL     1       4.406   9.602  11.203  1.00  0.00     0.008 C 
ATOM     10  C   UNL     1       2.049  10.496  11.276  1.00  0.00     0.008 C 
ENDBRANCH   5   8
TORSDOF 1
ENDMDL
MODEL 6
REMARK VINA RESULT:    -3.964      1.946      3.194
REMARK INTER + INTRA:          -4.387
REMARK INTER:                  -4.220
REMARK INTRA:                  -0.167
REMARK UNBOUND:                -0.191
REMARK SMILES CC1=CC[C@@H](C(C)C)C=C1
REMARK SMILES IDX 1 1 2 2 3 3 4 4 5 5 9 6 10 7 6 8 7 9 8 10
REMARK H PARENT
REMARK Flexibility Score: inf
ROOT
ATOM      1  C   UNL     1       9.710   8.296  13.857  1.00  0.00     0.044 C 
ATOM      2  C   UNL     1       8.302   7.848  13.602  1.00  0.00    -0.055 C 
ATOM      3  C   UNL     1       7.859   6.685  14.107  1.00  0.00    -0.023 C 
ATOM      4  C   UNL     1       6.427   6.262  13.915  1.00  0.00     0.035 C 
ATOM      5  C   UNL     1       5.908   6.695  12.522  1.00  0.00     0.018 C 
ATOM      6  C   UNL     1       6.279   8.139  12.249  1.00  0.00    -0.023 C 
ATOM      7  C   UNL     1       7.424   8.647  12.717  1.00  0.00    -0.001 C 
ENDROOT
BRANCH   5   8
ATOM      8  C   UNL     1       4.386   6.446  12.306  1.00  0.00    -0.010 C 
ATOM      9  C   UNL     1       3.488   7.299  13.217  1.00  0.00     0.008 C 
ATOM     10  C   UNL     1       4.026   4.959  12.446  1.00  0.00     0.008 C 
ENDBRANCH   5   8
TORSDOF 1
ENDMDL
MODEL 7
REMARK VINA RESULT:    -3.893      1.900      3.818
REMARK INTER + INTRA:          -4.312
REMARK INTER:                  -4.141
REMARK INTRA:                  -0.170
REMARK UNBOUND:                -0.191
REMARK SMILES CC1=CC[C@@H](C(C)C)C=C1
REMARK SMILES IDX 1 1 2 2 3 3 4 4 5 5 9 6 10 7 6 8 7 9 8 10
REMARK H PARENT
REMARK Flexibility Score: inf
ROOT
ATOM      1  C   UNL     1       3.642   4.885  12.106  1.00  0.00     0.044 C 
ATOM      2  C   UNL     1       4.697   5.866  12.523  1.00  0.00    -0.055 C 
ATOM      3  C   UNL     1       4.646   7.139  12.098  1.00  0.00    -0.023 C 
ATOM      4  C   UNL     1       5.661   8.146  12.570  1.00  0.00     0.035 C 
ATOM      5  C   UNL     1       7.053   7.489  12.731  1.00  0.00     0.018 C 
ATOM      6  C   UNL     1       6.932   6.179  13.482  1.00  0.00    -0.023 C 
ATOM      7  C   UNL     1       5.848   5.408  13.335  1.00  0.00    -0.001 C 
ENDROOT
BRANCH   5   8
ATOM      8  C   UNL     1       8.124   8.419  13.374  1.00  0.00    -0.010 C 
ATOM      9  C   UNL     1       9.569   7.948  13.137  1.00  0.00     0.008 C 
ATOM     10  C   UNL     1       7.872   8.626  14.875  1.00  0.00     0.008 C 
ENDBRANCH   5   8
TORSDOF 1
ENDMDL
MODEL 8
REMARK VINA RESULT:    -3.609      1.386      5.064
REMARK INTER + INTRA:          -4.012
REMARK INTER:                  -3.820
REMARK INTRA:                  -0.192
REMARK UNBOUND:                -0.191
REMARK SMILES CC1=CC[C@@H](C(C)C)C=C1
REMARK SMILES IDX 1 1 2 2 3 3 4 4 5 5 9 6 10 7 6 8 7 9 8 10
REMARK H PARENT
REMARK Flexibility Score: inf
ROOT
ATOM      1  C   UNL     1       1.828  12.906  11.648  1.00  0.00     0.044 C 
ATOM      2  C   UNL     1       2.716  11.701  11.734  1.00  0.00    -0.055 C 
ATOM      3  C   UNL     1       3.737  11.549  10.875  1.00  0.00    -0.023 C 
ATOM      4  C   UNL     1       4.676  10.378  11.000  1.00  0.00     0.035 C 
ATOM      5  C   UNL     1       3.915   9.110  11.458  1.00  0.00     0.018 C 
ATOM      6  C   UNL     1       3.005   9.436  12.625  1.00  0.00    -0.023 C 
ATOM      7  C   UNL     1       2.413  10.632  12.713  1.00  0.00    -0.001 C 
ENDROOT
BRANCH   5   8
ATOM      8  C   UNL     1       4.836   7.895  11.774  1.00  0.00    -0.010 C 
ATOM      9  C   UNL     1       4.397   7.097  13.013  1.00  0.00     0.008 C 
ATOM     10  C   UNL     1       6.308   8.315  11.906  1.00  0.00     0.008 C 
ENDBRANCH   5   8
TORSDOF 1
ENDMDL
MODEL 9
REMARK VINA RESULT:    -3.279      1.475      2.463
REMARK INTER + INTRA:          -3.662
REMARK INTER:                  -3.500
REMARK INTRA:                  -0.162
REMARK UNBOUND:                -0.191
REMARK SMILES CC1=CC[C@@H](C(C)C)C=C1
REMARK SMILES IDX 1 1 2 2 3 3 4 4 5 5 9 6 10 7 6 8 7 9 8 10
REMARK H PARENT
REMARK Flexibility Score: inf
ROOT
ATOM      1  C   UNL     1       4.978   6.468  12.733  1.00  0.00     0.044 C 
ATOM      2  C   UNL     1       4.506   7.855  12.413  1.00  0.00    -0.055 C 
ATOM      3  C   UNL     1       3.406   8.349  13.003  1.00  0.00    -0.023 C 
ATOM      4  C   UNL     1       2.966   9.765  12.741  1.00  0.00     0.035 C 
ATOM      5  C   UNL     1       3.245  10.164  11.272  1.00  0.00     0.018 C 
ATOM      6  C   UNL     1       4.650   9.758  10.875  1.00  0.00    -0.023 C 
ATOM      7  C   UNL     1       5.205   8.650  11.378  1.00  0.00    -0.001 C 
ENDROOT
BRANCH   5   8
ATOM      8  C   UNL     1       2.974  11.666  10.960  1.00  0.00    -0.010 C 
ATOM      9  C   UNL     1       3.792  12.632  11.834  1.00  0.00     0.008 C 
ATOM     10  C   UNL     1       1.479  12.006  11.047  1.00  0.00     0.008 C 
ENDBRANCH   5   8
TORSDOF 1
ENDMDL
