MODEL 1
REMARK VINA RESULT:    -4.647      0.000      0.000
REMARK INTER + INTRA:          -4.783
REMARK INTER:                  -4.783
REMARK INTRA:                   0.000
REMARK UNBOUND:                 0.000
REMARK SMILES O=c1ccc2ccc(O)cc2o1
REMARK SMILES IDX 6 1 7 2 8 3 10 4 11 5 5 6 4 7 3 8 2 9 1 10 12 11 9 12
REMARK H PARENT 9 13
REMARK Flexibility Score: inf
ROOT
ATOM      1  C   UNL     1       3.585 -15.125  16.992  1.00  0.00     0.016 A 
ATOM      2  C   UNL     1       2.505 -14.356  16.547  1.00  0.00     0.047 A 
ATOM      3  C   UNL     1       2.014 -14.514  15.242  1.00  0.00     0.119 A 
ATOM      4  C   UNL     1       2.607 -15.444  14.381  1.00  0.00     0.094 A 
ATOM      5  C   UNL     1       3.689 -16.217  14.816  1.00  0.00     0.142 A 
ATOM      6  C   UNL     1       4.182 -16.056  16.131  1.00  0.00     0.018 A 
ATOM      7  C   UNL     1       5.263 -16.843  16.537  1.00  0.00     0.019 A 
ATOM      8  C   UNL     1       5.820 -17.757  15.643  1.00  0.00     0.094 A 
ATOM      9  C   UNL     1       5.279 -17.861  14.356  1.00  0.00     0.336 A 
ATOM     10  O   UNL     1       5.770 -18.679  13.534  1.00  0.00    -0.246 OA
ATOM     11  O   UNL     1       4.250 -17.100  13.994  1.00  0.00    -0.423 OA
ENDROOT
BRANCH   3  12
ATOM     12  O   UNL     1       0.937 -13.752  14.793  1.00  0.00    -0.508 OA
ATOM     13  H   UNL     1       1.071 -12.960  14.175  1.00  0.00     0.293 HD
ENDBRANCH   3  12
TORSDOF 1
ENDMDL
MODEL 2
REMARK VINA RESULT:    -4.567      2.013      2.261
REMARK INTER + INTRA:          -4.700
REMARK INTER:                  -4.700
REMARK INTRA:                   0.000
REMARK UNBOUND:                 0.000
REMARK SMILES O=c1ccc2ccc(O)cc2o1
REMARK SMILES IDX 6 1 7 2 8 3 10 4 11 5 5 6 4 7 3 8 2 9 1 10 12 11 9 12
REMARK H PARENT 9 13
REMARK Flexibility Score: inf
ROOT
ATOM      1  C   UNL     1       2.821 -15.902  15.125  1.00  0.00     0.016 A 
ATOM      2  C   UNL     1       2.231 -14.669  15.423  1.00  0.00     0.047 A 
ATOM      3  C   UNL     1       2.989 -13.490  15.369  1.00  0.00     0.119 A 
ATOM      4  C   UNL     1       4.343 -13.547  15.016  1.00  0.00     0.094 A 
ATOM      5  C   UNL     1       4.942 -14.775  14.717  1.00  0.00     0.142 A 
ATOM      6  C   UNL     1       4.176 -15.961  14.772  1.00  0.00     0.018 A 
ATOM      7  C   UNL     1       4.802 -17.173  14.467  1.00  0.00     0.019 A 
ATOM      8  C   UNL     1       6.153 -17.178  14.120  1.00  0.00     0.094 A 
ATOM      9  C   UNL     1       6.848 -15.963  14.087  1.00  0.00     0.336 A 
ATOM     10  O   UNL     1       8.069 -15.948  13.777  1.00  0.00    -0.246 OA
ATOM     11  O   UNL     1       6.229 -14.823  14.382  1.00  0.00    -0.423 OA
ENDROOT
BRANCH   3  12
ATOM     12  O   UNL     1       2.408 -12.259  15.664  1.00  0.00    -0.508 OA
ATOM     13  H   UNL     1       1.523 -12.196  16.154  1.00  0.00     0.293 HD
ENDBRANCH   3  12
TORSDOF 1
ENDMDL
MODEL 3
REMARK VINA RESULT:    -4.454      1.244      4.385
REMARK INTER + INTRA:          -4.585
REMARK INTER:                  -4.585
REMARK INTRA:                   0.000
REMARK UNBOUND:                 0.000
REMARK SMILES O=c1ccc2ccc(O)cc2o1
REMARK SMILES IDX 6 1 7 2 8 3 10 4 11 5 5 6 4 7 3 8 2 9 1 10 12 11 9 12
REMARK H PARENT 9 13
REMARK Flexibility Score: inf
ROOT
ATOM      1  C   UNL     1       5.242 -18.167  16.768  1.00  0.00     0.016 A 
ATOM      2  C   UNL     1       5.830 -19.221  16.061  1.00  0.00     0.047 A 
ATOM      3  C   UNL     1       5.695 -19.301  14.666  1.00  0.00     0.119 A 
ATOM      4  C   UNL     1       4.970 -18.321  13.979  1.00  0.00     0.094 A 
ATOM      5  C   UNL     1       4.378 -17.263  14.677  1.00  0.00     0.142 A 
ATOM      6  C   UNL     1       4.515 -17.185  16.081  1.00  0.00     0.018 A 
ATOM      7  C   UNL     1       3.912 -16.116  16.751  1.00  0.00     0.019 A 
ATOM      8  C   UNL     1       3.200 -15.164  16.021  1.00  0.00     0.094 A 
ATOM      9  C   UNL     1       3.107 -15.307  14.632  1.00  0.00     0.336 A 
ATOM     10  O   UNL     1       2.468 -14.458  13.956  1.00  0.00    -0.246 OA
ATOM     11  O   UNL     1       3.689 -16.333  14.019  1.00  0.00    -0.423 OA
ENDROOT
BRANCH   3  12
ATOM     12  O   UNL     1       6.279 -20.347  13.956  1.00  0.00    -0.508 OA
ATOM     13  H   UNL     1       5.730 -21.132  13.623  1.00  0.00     0.293 HD
ENDBRANCH   3  12
TORSDOF 1
ENDMDL
MODEL 4
REMARK VINA RESULT:    -4.299      1.598      4.506
REMARK INTER + INTRA:          -4.424
REMARK INTER:                  -4.424
REMARK INTRA:                   0.000
REMARK UNBOUND:                 0.000
REMARK SMILES O=c1ccc2ccc(O)cc2o1
REMARK SMILES IDX 6 1 7 2 8 3 10 4 11 5 5 6 4 7 3 8 2 9 1 10 12 11 9 12
REMARK H PARENT 9 13
REMARK Flexibility Score: inf
ROOT
ATOM      1  C   UNL     1       6.771 -15.677  14.867  1.00  0.00     0.016 A 
ATOM      2  C   UNL     1       7.175 -17.010  14.736  1.00  0.00     0.047 A 
ATOM      3  C   UNL     1       6.234 -18.010  14.447  1.00  0.00     0.119 A 
ATOM      4  C   UNL     1       4.885 -17.672  14.289  1.00  0.00     0.094 A 
ATOM      5  C   UNL     1       4.471 -16.342  14.419  1.00  0.00     0.142 A 
ATOM      6  C   UNL     1       5.421 -15.338  14.710  1.00  0.00     0.018 A 
ATOM      7  C   UNL     1       4.977 -14.018  14.833  1.00  0.00     0.019 A 
ATOM      8  C   UNL     1       3.622 -13.732  14.666  1.00  0.00     0.094 A 
ATOM      9  C   UNL     1       2.739 -14.779  14.380  1.00  0.00     0.336 A 
ATOM     10  O   UNL     1       1.512 -14.541  14.227  1.00  0.00    -0.246 OA
ATOM     11  O   UNL     1       3.187 -16.027  14.268  1.00  0.00    -0.423 OA
ENDROOT
BRANCH   3  12
ATOM     12  O   UNL     1       6.630 -19.338  14.314  1.00  0.00    -0.508 OA
ATOM     13  H   UNL     1       5.976 -20.101  14.452  1.00  0.00     0.293 HD
ENDBRANCH   3  12
TORSDOF 1
ENDMDL
MODEL 5
REMARK VINA RESULT:    -4.139      1.404      4.192
REMARK INTER + INTRA:          -4.260
REMARK INTER:                  -4.260
REMARK INTRA:                   0.000
REMARK UNBOUND:                 0.000
REMARK SMILES O=c1ccc2ccc(O)cc2o1
REMARK SMILES IDX 6 1 7 2 8 3 10 4 11 5 5 6 4 7 3 8 2 9 1 10 12 11 9 12
REMARK H PARENT 9 13
REMARK Flexibility Score: inf
ROOT
ATOM      1  C   UNL     1       4.360 -17.221  17.061  1.00  0.00     0.016 A 
ATOM      2  C   UNL     1       4.617 -18.133  16.032  1.00  0.00     0.047 A 
ATOM      3  C   UNL     1       4.469 -17.747  14.691  1.00  0.00     0.119 A 
ATOM      4  C   UNL     1       4.061 -16.444  14.381  1.00  0.00     0.094 A 
ATOM      5  C   UNL     1       3.801 -15.526  15.403  1.00  0.00     0.142 A 
ATOM      6  C   UNL     1       3.950 -15.917  16.752  1.00  0.00     0.018 A 
ATOM      7  C   UNL     1       3.683 -14.976  17.752  1.00  0.00     0.019 A 
ATOM      8  C   UNL     1       3.280 -13.691  17.393  1.00  0.00     0.094 A 
ATOM      9  C   UNL     1       3.153 -13.375  16.035  1.00  0.00     0.336 A 
ATOM     10  O   UNL     1       2.789 -12.220  15.691  1.00  0.00    -0.246 OA
ATOM     11  O   UNL     1       3.413 -14.288  15.103  1.00  0.00    -0.423 OA
ENDROOT
BRANCH   3  12
ATOM     12  O   UNL     1       4.725 -18.650  13.661  1.00  0.00    -0.508 OA
ATOM     13  H   UNL     1       4.935 -19.623  13.851  1.00  0.00     0.293 HD
ENDBRANCH   3  12
TORSDOF 1
ENDMDL
MODEL 6
REMARK VINA RESULT:    -4.118      3.276      4.435
REMARK INTER + INTRA:          -4.238
REMARK INTER:                  -4.238
REMARK INTRA:                   0.000
REMARK UNBOUND:                 0.000
REMARK SMILES O=c1ccc2ccc(O)cc2o1
REMARK SMILES IDX 6 1 7 2 8 3 10 4 11 5 5 6 4 7 3 8 2 9 1 10 12 11 9 12
REMARK H PARENT 9 13
REMARK Flexibility Score: inf
ROOT
ATOM      1  C   UNL     1       2.914 -14.226  14.751  1.00  0.00     0.016 A 
ATOM      2  C   UNL     1       2.885 -15.624  14.762  1.00  0.00     0.047 A 
ATOM      3  C   UNL     1       4.082 -16.358  14.763  1.00  0.00     0.119 A 
ATOM      4  C   UNL     1       5.310 -15.687  14.752  1.00  0.00     0.094 A 
ATOM      5  C   UNL     1       5.350 -14.289  14.740  1.00  0.00     0.142 A 
ATOM      6  C   UNL     1       4.144 -13.553  14.739  1.00  0.00     0.018 A 
ATOM      7  C   UNL     1       4.215 -12.157  14.727  1.00  0.00     0.019 A 
ATOM      8  C   UNL     1       5.464 -11.535  14.718  1.00  0.00     0.094 A 
ATOM      9  C   UNL     1       6.616 -12.329  14.719  1.00  0.00     0.336 A 
ATOM     10  O   UNL     1       7.752 -11.786  14.710  1.00  0.00    -0.246 OA
ATOM     11  O   UNL     1       6.521 -13.656  14.730  1.00  0.00    -0.423 OA
ENDROOT
BRANCH   3  12
ATOM     12  O   UNL     1       4.059 -17.750  14.775  1.00  0.00    -0.508 OA
ATOM     13  H   UNL     1       4.320 -18.291  13.958  1.00  0.00     0.293 HD
ENDBRANCH   3  12
TORSDOF 1
ENDMDL
MODEL 7
REMARK VINA RESULT:    -4.036      8.112     11.235
REMARK INTER + INTRA:          -4.154
REMARK INTER:                  -4.154
REMARK INTRA:                   0.000
REMARK UNBOUND:                 0.000
REMARK SMILES O=c1ccc2ccc(O)cc2o1
REMARK SMILES IDX 6 1 7 2 8 3 10 4 11 5 5 6 4 7 3 8 2 9 1 10 12 11 9 12
REMARK H PARENT 9 13
REMARK Flexibility Score: inf
ROOT
ATOM      1  C   UNL     1      -0.213  -6.953  13.540  1.00  0.00     0.016 A 
ATOM      2  C   UNL     1       0.544  -8.037  13.997  1.00  0.00     0.047 A 
ATOM      3  C   UNL     1      -0.083  -9.118  14.637  1.00  0.00     0.119 A 
ATOM      4  C   UNL     1      -1.471  -9.111  14.818  1.00  0.00     0.094 A 
ATOM      5  C   UNL     1      -2.235  -8.031  14.365  1.00  0.00     0.142 A 
ATOM      6  C   UNL     1      -1.602  -6.945  13.721  1.00  0.00     0.018 A 
ATOM      7  C   UNL     1      -2.393  -5.880  13.278  1.00  0.00     0.019 A 
ATOM      8  C   UNL     1      -3.772  -5.920  13.482  1.00  0.00     0.094 A 
ATOM      9  C   UNL     1      -4.329  -7.030  14.127  1.00  0.00     0.336 A 
ATOM     10  O   UNL     1      -5.573  -7.084  14.321  1.00  0.00    -0.246 OA
ATOM     11  O   UNL     1      -3.555  -8.030  14.539  1.00  0.00    -0.423 OA
ENDROOT
BRANCH   3  12
ATOM     12  O   UNL     1       0.664 -10.201  15.095  1.00  0.00    -0.508 OA
ATOM     13  H   UNL     1       1.658 -10.274  14.910  1.00  0.00     0.293 HD
ENDBRANCH   3  12
TORSDOF 1
ENDMDL
MODEL 8
REMARK VINA RESULT:    -3.912     13.982     15.340
REMARK INTER + INTRA:          -4.026
REMARK INTER:                  -4.026
REMARK INTRA:                   0.000
REMARK UNBOUND:                 0.000
REMARK SMILES O=c1ccc2ccc(O)cc2o1
REMARK SMILES IDX 6 1 7 2 8 3 10 4 11 5 5 6 4 7 3 8 2 9 1 10 12 11 9 12
REMARK H PARENT 9 13
REMARK Flexibility Score: inf
ROOT
ATOM      1  C   UNL     1       1.543 -25.623   1.462  1.00  0.00     0.016 A 
ATOM      2  C   UNL     1       0.338 -25.871   2.127  1.00  0.00     0.047 A 
ATOM      3  C   UNL     1      -0.035 -25.089   3.232  1.00  0.00     0.119 A 
ATOM      4  C   UNL     1       0.804 -24.058   3.671  1.00  0.00     0.094 A 
ATOM      5  C   UNL     1       2.012 -23.804   3.012  1.00  0.00     0.142 A 
ATOM      6  C   UNL     1       2.384 -24.592   1.901  1.00  0.00     0.018 A 
ATOM      7  C   UNL     1       3.597 -24.314   1.264  1.00  0.00     0.019 A 
ATOM      8  C   UNL     1       4.398 -23.275   1.738  1.00  0.00     0.094 A 
ATOM      9  C   UNL     1       3.964 -22.537   2.846  1.00  0.00     0.336 A 
ATOM     10  O   UNL     1       4.674 -21.596   3.289  1.00  0.00    -0.246 OA
ATOM     11  O   UNL     1       2.806 -22.822   3.434  1.00  0.00    -0.423 OA
ENDROOT
BRANCH   3  12
ATOM     12  O   UNL     1      -1.234 -25.329   3.897  1.00  0.00    -0.508 OA
ATOM     13  H   UNL     1      -1.639 -26.258   3.941  1.00  0.00     0.293 HD
ENDBRANCH   3  12
TORSDOF 1
ENDMDL
MODEL 9
REMARK VINA RESULT:    -3.845      2.553      4.205
REMARK INTER + INTRA:          -3.958
REMARK INTER:                  -3.958
REMARK INTRA:                   0.000
REMARK UNBOUND:                 0.000
REMARK SMILES O=c1ccc2ccc(O)cc2o1
REMARK SMILES IDX 6 1 7 2 8 3 10 4 11 5 5 6 4 7 3 8 2 9 1 10 12 11 9 12
REMARK H PARENT 9 13
REMARK Flexibility Score: inf
ROOT
ATOM      1  C   UNL     1       2.885 -14.668  15.415  1.00  0.00     0.016 A 
ATOM      2  C   UNL     1       3.242 -15.541  14.382  1.00  0.00     0.047 A 
ATOM      3  C   UNL     1       3.985 -16.699  14.659  1.00  0.00     0.119 A 
ATOM      4  C   UNL     1       4.370 -16.983  15.974  1.00  0.00     0.094 A 
ATOM      5  C   UNL     1       4.018 -16.116  17.014  1.00  0.00     0.142 A 
ATOM      6  C   UNL     1       3.270 -14.950  16.733  1.00  0.00     0.018 A 
ATOM      7  C   UNL     1       2.933 -14.104  17.793  1.00  0.00     0.019 A 
ATOM      8  C   UNL     1       3.340 -14.430  19.086  1.00  0.00     0.094 A 
ATOM      9  C   UNL     1       4.078 -15.602  19.289  1.00  0.00     0.336 A 
ATOM     10  O   UNL     1       4.455 -15.913  20.450  1.00  0.00    -0.246 OA
ATOM     11  O   UNL     1       4.386 -16.390  18.263  1.00  0.00    -0.423 OA
ENDROOT
BRANCH   3  12
ATOM     12  O   UNL     1       4.343 -17.573  13.635  1.00  0.00    -0.508 OA
ATOM     13  H   UNL     1       4.114 -17.376  12.667  1.00  0.00     0.293 HD
ENDBRANCH   3  12
TORSDOF 1
ENDMDL
