MODEL 1
REMARK VINA RESULT:    -5.574      0.000      0.000
REMARK INTER + INTRA:          -6.690
REMARK INTER:                  -6.552
REMARK INTRA:                  -0.138
REMARK UNBOUND:                -0.138
REMARK SMILES O=C([O-])C=Cc1ccc(O)c(O)c1
REMARK SMILES IDX 6 1 13 2 7 3 11 4 8 5 9 6 5 7 4 8 2 9 1 10 3 11 12 12 10 14
REMARK H PARENT 12 13 10 15
REMARK Flexibility Score: inf
ROOT
ATOM      1  C   UNL     1     -33.895  94.316   7.024  1.00  0.00    -0.022 A 
ATOM      2  C   UNL     1     -33.135  93.375   6.310  1.00  0.00     0.058 A 
ATOM      3  C   UNL     1     -35.126  93.913   7.580  1.00  0.00     0.012 A 
ATOM      4  C   UNL     1     -33.598  92.067   6.128  1.00  0.00     0.157 A 
ATOM      5  C   UNL     1     -35.590  92.608   7.400  1.00  0.00     0.051 A 
ATOM      6  C   UNL     1     -34.833  91.681   6.673  1.00  0.00     0.157 A 
ENDROOT
BRANCH   1   7
ATOM      7  C   UNL     1     -33.351  95.686   7.195  1.00  0.00     0.010 C 
ATOM      8  C   UNL     1     -34.056  96.710   7.693  1.00  0.00     0.025 C 
BRANCH   8   9
ATOM      9  C   UNL     1     -33.479  98.056   7.833  1.00  0.00     0.064 C 
ATOM     10  O   UNL     1     -33.506  98.629   8.954  1.00  0.00    -0.545 OA
ATOM     11  O   UNL     1     -32.900  98.706   6.750  1.00  0.00    -0.545 OA
ENDBRANCH   8   9
ENDBRANCH   1   7
BRANCH   4  12
ATOM     12  O   UNL     1     -32.817  91.166   5.404  1.00  0.00    -0.504 OA
ATOM     13  H   UNL     1     -32.075  91.472   4.788  1.00  0.00     0.293 HD
ENDBRANCH   4  12
BRANCH   6  14
ATOM     14  O   UNL     1     -35.301  90.380   6.494  1.00  0.00    -0.504 OA
ATOM     15  H   UNL     1     -35.785  90.101   5.648  1.00  0.00     0.293 HD
ENDBRANCH   6  14
TORSDOF 4
ENDMDL
MODEL 2
REMARK VINA RESULT:    -5.237     18.738     19.636
REMARK INTER + INTRA:          -6.293
REMARK INTER:                  -6.155
REMARK INTRA:                  -0.138
REMARK UNBOUND:                -0.138
REMARK SMILES O=C([O-])C=Cc1ccc(O)c(O)c1
REMARK SMILES IDX 6 1 13 2 7 3 11 4 8 5 9 6 5 7 4 8 2 9 1 10 3 11 12 12 10 14
REMARK H PARENT 12 13 10 15
REMARK Flexibility Score: inf
ROOT
ATOM      1  C   UNL     1     -19.898  98.033  -5.884  1.00  0.00    -0.022 A 
ATOM      2  C   UNL     1     -18.510  98.065  -5.666  1.00  0.00     0.058 A 
ATOM      3  C   UNL     1     -20.637  96.937  -5.395  1.00  0.00     0.012 A 
ATOM      4  C   UNL     1     -17.864  97.018  -4.998  1.00  0.00     0.157 A 
ATOM      5  C   UNL     1     -19.994  95.892  -4.727  1.00  0.00     0.051 A 
ATOM      6  C   UNL     1     -18.608  95.924  -4.528  1.00  0.00     0.157 A 
ENDROOT
BRANCH   1   7
ATOM      7  C   UNL     1     -20.533  99.174  -6.590  1.00  0.00     0.010 C 
ATOM      8  C   UNL     1     -21.844  99.251  -6.851  1.00  0.00     0.025 C 
BRANCH   8   9
ATOM      9  C   UNL     1     -22.428 100.397  -7.565  1.00  0.00     0.064 C 
ATOM     10  O   UNL     1     -22.988 100.216  -8.678  1.00  0.00    -0.545 OA
ATOM     11  O   UNL     1     -22.377 101.679  -7.029  1.00  0.00    -0.545 OA
ENDBRANCH   8   9
ENDBRANCH   1   7
BRANCH   4  12
ATOM     12  O   UNL     1     -16.483  97.084  -4.810  1.00  0.00    -0.504 OA
ATOM     13  H   UNL     1     -16.049  97.819  -4.265  1.00  0.00     0.293 HD
ENDBRANCH   4  12
BRANCH   6  14
ATOM     14  O   UNL     1     -17.971  94.878  -3.863  1.00  0.00    -0.504 OA
ATOM     15  H   UNL     1     -18.140  94.693  -2.880  1.00  0.00     0.293 HD
ENDBRANCH   6  14
TORSDOF 4
ENDMDL
MODEL 3
REMARK VINA RESULT:    -5.153      1.334      2.343
REMARK INTER + INTRA:          -6.195
REMARK INTER:                  -6.059
REMARK INTRA:                  -0.136
REMARK UNBOUND:                -0.138
REMARK SMILES O=C([O-])C=Cc1ccc(O)c(O)c1
REMARK SMILES IDX 6 1 13 2 7 3 11 4 8 5 9 6 5 7 4 8 2 9 1 10 3 11 12 12 10 14
REMARK H PARENT 12 13 10 15
REMARK Flexibility Score: inf
ROOT
ATOM      1  C   UNL     1     -33.758  95.692   7.621  1.00  0.00    -0.022 A 
ATOM      2  C   UNL     1     -34.946  94.949   7.518  1.00  0.00     0.058 A 
ATOM      3  C   UNL     1     -32.531  95.052   7.356  1.00  0.00     0.012 A 
ATOM      4  C   UNL     1     -34.915  93.590   7.183  1.00  0.00     0.157 A 
ATOM      5  C   UNL     1     -32.499  93.696   7.020  1.00  0.00     0.051 A 
ATOM      6  C   UNL     1     -33.685  92.959   6.935  1.00  0.00     0.157 A 
ENDROOT
BRANCH   1   7
ATOM      7  C   UNL     1     -33.850  97.132   7.970  1.00  0.00     0.010 C 
ATOM      8  C   UNL     1     -33.276  98.109   7.255  1.00  0.00     0.025 C 
BRANCH   8   9
ATOM      9  C   UNL     1     -33.383  99.523   7.646  1.00  0.00     0.064 C 
ATOM     10  O   UNL     1     -33.024  99.877   8.799  1.00  0.00    -0.545 OA
ATOM     11  O   UNL     1     -33.872 100.478   6.761  1.00  0.00    -0.545 OA
ENDBRANCH   8   9
ENDBRANCH   1   7
BRANCH   4  12
ATOM     12  O   UNL     1     -36.116  92.885   7.100  1.00  0.00    -0.504 OA
ATOM     13  H   UNL     1     -36.951  93.291   6.696  1.00  0.00     0.293 HD
ENDBRANCH   4  12
BRANCH   6  14
ATOM     14  O   UNL     1     -33.648  91.605   6.602  1.00  0.00    -0.504 OA
ATOM     15  H   UNL     1     -34.116  91.249   5.777  1.00  0.00     0.293 HD
ENDBRANCH   6  14
TORSDOF 4
ENDMDL
MODEL 4
REMARK VINA RESULT:    -5.147     18.006     19.226
REMARK INTER + INTRA:          -6.187
REMARK INTER:                  -6.058
REMARK INTRA:                  -0.129
REMARK UNBOUND:                -0.138
REMARK SMILES O=C([O-])C=Cc1ccc(O)c(O)c1
REMARK SMILES IDX 6 1 13 2 7 3 11 4 8 5 9 6 5 7 4 8 2 9 1 10 3 11 12 12 10 14
REMARK H PARENT 12 13 10 15
REMARK Flexibility Score: inf
ROOT
ATOM      1  C   UNL     1     -19.427  96.794  -4.997  1.00  0.00    -0.022 A 
ATOM      2  C   UNL     1     -19.474  95.716  -4.097  1.00  0.00     0.058 A 
ATOM      3  C   UNL     1     -18.173  97.243  -5.454  1.00  0.00     0.012 A 
ATOM      4  C   UNL     1     -18.296  95.112  -3.639  1.00  0.00     0.157 A 
ATOM      5  C   UNL     1     -16.997  96.642  -4.999  1.00  0.00     0.051 A 
ATOM      6  C   UNL     1     -17.051  95.579  -4.090  1.00  0.00     0.157 A 
ENDROOT
BRANCH   1   7
ATOM      7  C   UNL     1     -20.706  97.389  -5.458  1.00  0.00     0.010 C 
ATOM      8  C   UNL     1     -20.991  98.696  -5.377  1.00  0.00     0.025 C 
BRANCH   8   9
ATOM      9  C   UNL     1     -22.278  99.241  -5.836  1.00  0.00     0.064 C 
ATOM     10  O   UNL     1     -22.363  99.749  -6.985  1.00  0.00    -0.545 OA
ATOM     11  O   UNL     1     -23.405  99.202  -5.023  1.00  0.00    -0.545 OA
ENDBRANCH   8   9
ENDBRANCH   1   7
BRANCH   4  12
ATOM     12  O   UNL     1     -18.386  94.051  -2.738  1.00  0.00    -0.504 OA
ATOM     13  H   UNL     1     -19.261  93.788  -2.302  1.00  0.00     0.293 HD
ENDBRANCH   4  12
BRANCH   6  14
ATOM     14  O   UNL     1     -15.875  94.983  -3.636  1.00  0.00    -0.504 OA
ATOM     15  H   UNL     1     -15.394  95.319  -2.810  1.00  0.00     0.293 HD
ENDBRANCH   6  14
TORSDOF 4
ENDMDL
MODEL 5
REMARK VINA RESULT:    -5.058      2.025      6.644
REMARK INTER + INTRA:          -6.084
REMARK INTER:                  -5.957
REMARK INTRA:                  -0.127
REMARK UNBOUND:                -0.138
REMARK SMILES O=C([O-])C=Cc1ccc(O)c(O)c1
REMARK SMILES IDX 6 1 13 2 7 3 11 4 8 5 9 6 5 7 4 8 2 9 1 10 3 11 12 12 10 14
REMARK H PARENT 12 13 10 15
REMARK Flexibility Score: inf
ROOT
ATOM      1  C   UNL     1     -33.089  97.364   7.627  1.00  0.00    -0.022 A 
ATOM      2  C   UNL     1     -32.773  97.765   8.936  1.00  0.00     0.058 A 
ATOM      3  C   UNL     1     -33.121  98.337   6.608  1.00  0.00     0.012 A 
ATOM      4  C   UNL     1     -32.520  99.109   9.234  1.00  0.00     0.157 A 
ATOM      5  C   UNL     1     -32.868  99.679   6.903  1.00  0.00     0.051 A 
ATOM      6  C   UNL     1     -32.571 100.072   8.213  1.00  0.00     0.157 A 
ENDROOT
BRANCH   1   7
ATOM      7  C   UNL     1     -33.338  95.924   7.366  1.00  0.00     0.010 C 
ATOM      8  C   UNL     1     -34.560  95.379   7.309  1.00  0.00     0.025 C 
BRANCH   8   9
ATOM      9  C   UNL     1     -34.759  93.943   7.059  1.00  0.00     0.064 C 
ATOM     10  O   UNL     1     -35.381  93.246   7.903  1.00  0.00    -0.545 OA
ATOM     11  O   UNL     1     -34.275  93.340   5.903  1.00  0.00    -0.545 OA
ENDBRANCH   8   9
ENDBRANCH   1   7
BRANCH   4  12
ATOM     12  O   UNL     1     -32.221  99.467  10.549  1.00  0.00    -0.504 OA
ATOM     13  H   UNL     1     -31.269  99.519  10.887  1.00  0.00     0.293 HD
ENDBRANCH   4  12
BRANCH   6  14
ATOM     14  O   UNL     1     -32.321 101.413   8.503  1.00  0.00    -0.504 OA
ATOM     15  H   UNL     1     -31.993 102.057   7.793  1.00  0.00     0.293 HD
ENDBRANCH   6  14
TORSDOF 4
ENDMDL
MODEL 6
REMARK VINA RESULT:    -5.002     18.111     19.521
REMARK INTER + INTRA:          -6.017
REMARK INTER:                  -5.877
REMARK INTRA:                  -0.140
REMARK UNBOUND:                -0.138
REMARK SMILES O=C([O-])C=Cc1ccc(O)c(O)c1
REMARK SMILES IDX 6 1 13 2 7 3 11 4 8 5 9 6 5 7 4 8 2 9 1 10 3 11 12 12 10 14
REMARK H PARENT 12 13 10 15
REMARK Flexibility Score: inf
ROOT
ATOM      1  C   UNL     1     -20.661  98.290  -5.654  1.00  0.00    -0.022 A 
ATOM      2  C   UNL     1     -21.938  98.355  -5.071  1.00  0.00     0.058 A 
ATOM      3  C   UNL     1     -20.373  99.126  -6.750  1.00  0.00     0.012 A 
ATOM      4  C   UNL     1     -22.919  99.213  -5.583  1.00  0.00     0.157 A 
ATOM      5  C   UNL     1     -21.350  99.984  -7.263  1.00  0.00     0.051 A 
ATOM      6  C   UNL     1     -22.625 100.030  -6.686  1.00  0.00     0.157 A 
ENDROOT
BRANCH   1   7
ATOM      7  C   UNL     1     -19.657  97.370  -5.064  1.00  0.00     0.010 C 
ATOM      8  C   UNL     1     -18.336  97.493  -5.248  1.00  0.00     0.025 C 
BRANCH   8   9
ATOM      9  C   UNL     1     -17.377  96.549  -4.653  1.00  0.00     0.064 C 
ATOM     10  O   UNL     1     -17.393  96.349  -3.410  1.00  0.00    -0.545 OA
ATOM     11  O   UNL     1     -16.455  95.870  -5.440  1.00  0.00    -0.545 OA
ENDBRANCH   8   9
ENDBRANCH   1   7
BRANCH   4  12
ATOM     12  O   UNL     1     -24.177  99.240  -4.981  1.00  0.00    -0.504 OA
ATOM     13  H   UNL     1     -24.615 100.104  -4.689  1.00  0.00     0.293 HD
ENDBRANCH   4  12
BRANCH   6  14
ATOM     14  O   UNL     1     -23.597 100.886  -7.202  1.00  0.00    -0.504 OA
ATOM     15  H   UNL     1     -24.157 100.629  -8.006  1.00  0.00     0.293 HD
ENDBRANCH   6  14
TORSDOF 4
ENDMDL
MODEL 7
REMARK VINA RESULT:    -4.951      2.365      6.620
REMARK INTER + INTRA:          -5.957
REMARK INTER:                  -5.830
REMARK INTRA:                  -0.127
REMARK UNBOUND:                -0.138
REMARK SMILES O=C([O-])C=Cc1ccc(O)c(O)c1
REMARK SMILES IDX 6 1 13 2 7 3 11 4 8 5 9 6 5 7 4 8 2 9 1 10 3 11 12 12 10 14
REMARK H PARENT 12 13 10 15
REMARK Flexibility Score: inf
ROOT
ATOM      1  C   UNL     1     -33.006  97.840   7.726  1.00  0.00    -0.022 A 
ATOM      2  C   UNL     1     -31.955  98.162   6.850  1.00  0.00     0.058 A 
ATOM      3  C   UNL     1     -33.233  98.663   8.846  1.00  0.00     0.012 A 
ATOM      4  C   UNL     1     -31.129  99.266   7.096  1.00  0.00     0.157 A 
ATOM      5  C   UNL     1     -32.410  99.765   9.093  1.00  0.00     0.051 A 
ATOM      6  C   UNL     1     -31.356 100.070   8.225  1.00  0.00     0.157 A 
ENDROOT
BRANCH   1   7
ATOM      7  C   UNL     1     -33.856  96.665   7.411  1.00  0.00     0.010 C 
ATOM      8  C   UNL     1     -33.393  95.410   7.334  1.00  0.00     0.025 C 
BRANCH   8   9
ATOM      9  C   UNL     1     -34.272  94.276   7.007  1.00  0.00     0.064 C 
ATOM     10  O   UNL     1     -35.274  94.038   7.731  1.00  0.00    -0.545 OA
ATOM     11  O   UNL     1     -34.017  93.464   5.909  1.00  0.00    -0.545 OA
ENDBRANCH   8   9
ENDBRANCH   1   7
BRANCH   4  12
ATOM     12  O   UNL     1     -30.091  99.546   6.208  1.00  0.00    -0.504 OA
ATOM     13  H   UNL     1     -29.154  99.189   6.346  1.00  0.00     0.293 HD
ENDBRANCH   4  12
BRANCH   6  14
ATOM     14  O   UNL     1     -30.536 101.170   8.476  1.00  0.00    -0.504 OA
ATOM     15  H   UNL     1     -29.889 101.183   9.256  1.00  0.00     0.293 HD
ENDBRANCH   6  14
TORSDOF 4
ENDMDL
MODEL 8
REMARK VINA RESULT:    -4.830      3.763      4.908
REMARK INTER + INTRA:          -5.815
REMARK INTER:                  -5.678
REMARK INTRA:                  -0.137
REMARK UNBOUND:                -0.138
REMARK SMILES O=C([O-])C=Cc1ccc(O)c(O)c1
REMARK SMILES IDX 6 1 13 2 7 3 11 4 8 5 9 6 5 7 4 8 2 9 1 10 3 11 12 12 10 14
REMARK H PARENT 12 13 10 15
REMARK Flexibility Score: inf
ROOT
ATOM      1  C   UNL     1     -32.083  92.783   8.107  1.00  0.00    -0.022 A 
ATOM      2  C   UNL     1     -33.085  92.954   9.077  1.00  0.00     0.058 A 
ATOM      3  C   UNL     1     -32.445  92.801   6.746  1.00  0.00     0.012 A 
ATOM      4  C   UNL     1     -34.425  93.113   8.705  1.00  0.00     0.157 A 
ATOM      5  C   UNL     1     -33.782  92.960   6.372  1.00  0.00     0.051 A 
ATOM      6  C   UNL     1     -34.777  93.113   7.345  1.00  0.00     0.157 A 
ENDROOT
BRANCH   1   7
ATOM      7  C   UNL     1     -30.677  92.629   8.558  1.00  0.00     0.010 C 
ATOM      8  C   UNL     1     -29.648  93.308   8.032  1.00  0.00     0.025 C 
BRANCH   8   9
ATOM      9  C   UNL     1     -28.268  93.114   8.503  1.00  0.00     0.064 C 
ATOM     10  O   UNL     1     -27.522  94.114   8.667  1.00  0.00    -0.545 OA
ATOM     11  O   UNL     1     -27.773  91.843   8.774  1.00  0.00    -0.545 OA
ENDBRANCH   8   9
ENDBRANCH   1   7
BRANCH   4  12
ATOM     12  O   UNL     1     -35.390  93.269   9.699  1.00  0.00    -0.504 OA
ATOM     13  H   UNL     1     -36.378  93.147   9.514  1.00  0.00     0.293 HD
ENDBRANCH   4  12
BRANCH   6  14
ATOM     14  O   UNL     1     -36.110  93.270   6.968  1.00  0.00    -0.504 OA
ATOM     15  H   UNL     1     -36.656  92.492   6.615  1.00  0.00     0.293 HD
ENDBRANCH   6  14
TORSDOF 4
ENDMDL
MODEL 9
REMARK VINA RESULT:    -4.809      2.779      5.713
REMARK INTER + INTRA:          -5.791
REMARK INTER:                  -5.663
REMARK INTRA:                  -0.128
REMARK UNBOUND:                -0.138
REMARK SMILES O=C([O-])C=Cc1ccc(O)c(O)c1
REMARK SMILES IDX 6 1 13 2 7 3 11 4 8 5 9 6 5 7 4 8 2 9 1 10 3 11 12 12 10 14
REMARK H PARENT 12 13 10 15
REMARK Flexibility Score: inf
ROOT
ATOM      1  C   UNL     1     -32.382  93.080   7.150  1.00  0.00    -0.022 A 
ATOM      2  C   UNL     1     -33.733  92.704   7.050  1.00  0.00     0.058 A 
ATOM      3  C   UNL     1     -32.070  94.436   7.368  1.00  0.00     0.012 A 
ATOM      4  C   UNL     1     -34.752  93.659   7.140  1.00  0.00     0.157 A 
ATOM      5  C   UNL     1     -33.086  95.391   7.458  1.00  0.00     0.051 A 
ATOM      6  C   UNL     1     -34.428  95.010   7.343  1.00  0.00     0.157 A 
ENDROOT
BRANCH   1   7
ATOM      7  C   UNL     1     -31.343  92.025   7.058  1.00  0.00     0.010 C 
ATOM      8  C   UNL     1     -31.304  90.947   7.853  1.00  0.00     0.025 C 
BRANCH   8   9
ATOM      9  C   UNL     1     -30.246  89.932   7.733  1.00  0.00     0.064 C 
ATOM     10  O   UNL     1     -30.469  88.754   8.119  1.00  0.00    -0.545 OA
ATOM     11  O   UNL     1     -29.003  90.248   7.197  1.00  0.00    -0.545 OA
ENDBRANCH   8   9
ENDBRANCH   1   7
BRANCH   4  12
ATOM     12  O   UNL     1     -36.080  93.246   7.027  1.00  0.00    -0.504 OA
ATOM     13  H   UNL     1     -36.853  93.896   7.092  1.00  0.00     0.293 HD
ENDBRANCH   4  12
BRANCH   6  14
ATOM     14  O   UNL     1     -35.439  95.967   7.432  1.00  0.00    -0.504 OA
ATOM     15  H   UNL     1     -35.739  96.339   8.325  1.00  0.00     0.293 HD
ENDBRANCH   6  14
TORSDOF 4
ENDMDL
