MODEL 1
REMARK VINA RESULT:    21.874      0.000      0.000
REMARK INTER + INTRA:          26.188
REMARK INTER:                  26.349
REMARK INTRA:                  -0.161
REMARK UNBOUND:                -0.161
REMARK SMILES Oc1cc(O)c2cc(O)c(-c3ccc(O)c(O)c3)[o+]c2c1.[Cl-]
REMARK SMILES IDX 10 1 19 2 20 3 21 4 2 5 3 6 4 7 6 8 7 9 8 10 11 11 12 12
REMARK SMILES IDX 13 13 14 14 18 15 16 16 15 17 17 19 9 21 1 23 5 25
REMARK H PARENT 15 18 17 20 9 22 1 24 5 26
REMARK Flexibility Score: inf
ROOT
ATOM      1  C   UNL     1       7.267   3.577  18.674  1.00  0.00     0.402 A 
ATOM      2  O   UNL     1       6.782   4.810  18.549  1.00  0.00    -0.202 OA
ATOM      3  C   UNL     1       7.547   5.877  18.345  1.00  0.00     0.368 A 
ATOM      4  C   UNL     1       6.945   7.133  18.223  1.00  0.00     0.162 A 
ATOM      5  C   UNL     1       7.725   8.271  18.005  1.00  0.00     0.128 A 
ATOM      6  C   UNL     1       9.114   8.154  17.908  1.00  0.00     0.093 A 
ATOM      7  C   UNL     1       9.742   6.908  18.027  1.00  0.00     0.136 A 
ATOM      8  C   UNL     1       8.954   5.750  18.250  1.00  0.00     0.125 A 
ATOM      9  C   UNL     1       9.498   4.463  18.395  1.00  0.00     0.078 A 
ATOM     10  C   UNL     1       8.658   3.368  18.618  1.00  0.00     0.223 A 
ENDROOT
BRANCH   1  11
ATOM     11  C   UNL     1       6.311   2.467  18.889  1.00  0.00     0.087 A 
ATOM     12  C   UNL     1       5.397   2.138  17.876  1.00  0.00     0.022 A 
ATOM     13  C   UNL     1       4.499   1.081  18.048  1.00  0.00     0.051 A 
ATOM     14  C   UNL     1       4.514   0.328  19.229  1.00  0.00     0.157 A 
ATOM     15  C   UNL     1       6.336   1.695  20.064  1.00  0.00     0.068 A 
ATOM     16  C   UNL     1       5.440   0.634  20.239  1.00  0.00     0.158 A 
BRANCH  14  17
ATOM     17  O   UNL     1       3.615  -0.726  19.399  1.00  0.00    -0.504 OA
ATOM     18  H   UNL     1       2.615  -0.585  19.332  1.00  0.00     0.293 HD
ENDBRANCH  14  17
BRANCH  16  19
ATOM     19  O   UNL     1       5.489  -0.106  21.421  1.00  0.00    -0.504 OA
ATOM     20  H   UNL     1       6.069  -0.931  21.516  1.00  0.00     0.293 HD
ENDBRANCH  16  19
ENDBRANCH   1  11
BRANCH  10  21
ATOM     21  O   UNL     1       9.201   2.098  18.811  1.00  0.00    -0.500 OA
ATOM     22  H   UNL     1      10.195   1.924  18.724  1.00  0.00     0.294 HD
ENDBRANCH  10  21
BRANCH   5  23
ATOM     23  O   UNL     1       7.132   9.526  17.883  1.00  0.00    -0.507 OA
ATOM     24  H   UNL     1       6.172   9.630  17.575  1.00  0.00     0.293 HD
ENDBRANCH   5  23
BRANCH   7  25
ATOM     25  O   UNL     1      11.134   6.877  17.914  1.00  0.00    -0.507 OA
ATOM     26  H   UNL     1      11.642   6.285  17.272  1.00  0.00     0.293 HD
ENDBRANCH   7  25
TORSDOF 6
ENDMDL
MODEL 2
REMARK VINA RESULT:    24.057      0.636      1.454
REMARK INTER + INTRA:          28.819
REMARK INTER:                  28.942
REMARK INTRA:                  -0.123
REMARK UNBOUND:                -0.161
REMARK SMILES Oc1cc(O)c2cc(O)c(-c3ccc(O)c(O)c3)[o+]c2c1.[Cl-]
REMARK SMILES IDX 10 1 19 2 20 3 21 4 2 5 3 6 4 7 6 8 7 9 8 10 11 11 12 12
REMARK SMILES IDX 13 13 14 14 18 15 16 16 15 17 17 19 9 21 1 23 5 25
REMARK H PARENT 15 18 17 20 9 22 1 24 5 26
REMARK Flexibility Score: inf
ROOT
ATOM      1  C   UNL     1       7.283   3.485  18.977  1.00  0.00     0.402 A 
ATOM      2  O   UNL     1       6.740   4.687  18.807  1.00  0.00    -0.202 OA
ATOM      3  C   UNL     1       7.448   5.773  18.514  1.00  0.00     0.368 A 
ATOM      4  C   UNL     1       6.787   6.994  18.351  1.00  0.00     0.162 A 
ATOM      5  C   UNL     1       7.507   8.150  18.038  1.00  0.00     0.128 A 
ATOM      6  C   UNL     1       8.894   8.086  17.888  1.00  0.00     0.093 A 
ATOM      7  C   UNL     1       9.581   6.876  18.046  1.00  0.00     0.136 A 
ATOM      8  C   UNL     1       8.854   5.700  18.365  1.00  0.00     0.125 A 
ATOM      9  C   UNL     1       9.460   4.447  18.556  1.00  0.00     0.078 A 
ATOM     10  C   UNL     1       8.679   3.331  18.873  1.00  0.00     0.223 A 
ENDROOT
BRANCH   1  11
ATOM     11  C   UNL     1       6.387   2.350  19.292  1.00  0.00     0.087 A 
ATOM     12  C   UNL     1       6.551   1.655  20.500  1.00  0.00     0.022 A 
ATOM     13  C   UNL     1       5.704   0.593  20.828  1.00  0.00     0.051 A 
ATOM     14  C   UNL     1       4.669   0.221  19.959  1.00  0.00     0.157 A 
ATOM     15  C   UNL     1       5.334   1.987  18.432  1.00  0.00     0.068 A 
ATOM     16  C   UNL     1       4.481   0.925  18.758  1.00  0.00     0.158 A 
BRANCH  14  17
ATOM     17  O   UNL     1       3.826  -0.840  20.288  1.00  0.00    -0.504 OA
ATOM     18  H   UNL     1       2.930  -0.966  19.833  1.00  0.00     0.293 HD
ENDBRANCH  14  17
BRANCH  16  19
ATOM     19  O   UNL     1       3.452   0.589  17.879  1.00  0.00    -0.504 OA
ATOM     20  H   UNL     1       3.247  -0.373  17.634  1.00  0.00     0.293 HD
ENDBRANCH  16  19
ENDBRANCH   1  11
BRANCH  10  21
ATOM     21  O   UNL     1       9.284   2.097  19.110  1.00  0.00    -0.500 OA
ATOM     22  H   UNL     1       9.499   1.781  20.049  1.00  0.00     0.294 HD
ENDBRANCH  10  21
BRANCH   5  23
ATOM     23  O   UNL     1       6.854   9.370  17.875  1.00  0.00    -0.507 OA
ATOM     24  H   UNL     1       7.096  10.179  18.435  1.00  0.00     0.293 HD
ENDBRANCH   5  23
BRANCH   7  25
ATOM     25  O   UNL     1      10.967   6.896  17.876  1.00  0.00    -0.507 OA
ATOM     26  H   UNL     1      11.434   6.810  16.984  1.00  0.00     0.293 HD
ENDBRANCH   7  25
TORSDOF 6
ENDMDL
