MODEL 1
REMARK VINA RESULT:    -4.880      0.000      0.000
REMARK INTER + INTRA:         -13.015
REMARK INTER:                 -10.587
REMARK INTRA:                  -2.429
REMARK UNBOUND:                -2.429
REMARK SMILES CCCCCCCCCCCCCCCCCCCCCC(=O)[O-]
REMARK SMILES IDX 12 1 11 2 10 3 9 4 8 5 7 6 6 7 5 8 4 9 3 10 2 11 1 12 13 13
REMARK SMILES IDX 14 14 15 15 16 16 17 17 18 18 19 19 20 20 21 21 22 22 23 23
REMARK SMILES IDX 24 24
REMARK H PARENT
REMARK Flexibility Score: inf
ROOT
ATOM      1  C   UNL     1       6.851  -1.909  51.185  1.00  0.00     0.000 C 
ENDROOT
BRANCH   1   2
ATOM      2  C   UNL     1       5.537  -2.327  50.489  1.00  0.00     0.000 C 
BRANCH   2   3
ATOM      3  C   UNL     1       5.304  -3.847  50.543  1.00  0.00     0.000 C 
BRANCH   3   4
ATOM      4  C   UNL     1       5.906  -4.577  49.331  1.00  0.00    -0.000 C 
BRANCH   4   5
ATOM      5  C   UNL     1       7.372  -4.980  49.561  1.00  0.00    -0.000 C 
BRANCH   5   6
ATOM      6  C   UNL     1       8.317  -4.463  48.460  1.00  0.00    -0.000 C 
BRANCH   6   7
ATOM      7  C   UNL     1       9.381  -3.472  48.973  1.00  0.00    -0.000 C 
BRANCH   7   8
ATOM      8  C   UNL     1       9.231  -2.082  48.331  1.00  0.00    -0.000 C 
BRANCH   8   9
ATOM      9  C   UNL     1       8.094  -2.029  47.298  1.00  0.00    -0.000 C 
BRANCH   9  10
ATOM     10  C   UNL     1       7.425  -0.647  47.236  1.00  0.00    -0.000 C 
BRANCH  10  11
ATOM     11  C   UNL     1       5.916  -0.758  47.482  1.00  0.00    -0.003 C 
ATOM     12  C   UNL     1       5.323  -1.953  46.740  1.00  0.00     0.004 C 
ENDBRANCH  10  11
ENDBRANCH   9  10
ENDBRANCH   8   9
ENDBRANCH   7   8
ENDBRANCH   6   7
ENDBRANCH   5   6
ENDBRANCH   4   5
ENDBRANCH   3   4
ENDBRANCH   2   3
ENDBRANCH   1   2
BRANCH   1  13
ATOM     13  C   UNL     1       6.656  -0.890  52.324  1.00  0.00     0.000 C 
BRANCH  13  14
ATOM     14  C   UNL     1       7.755  -0.902  53.403  1.00  0.00     0.000 C 
BRANCH  14  15
ATOM     15  C   UNL     1       8.162   0.489  53.927  1.00  0.00     0.000 C 
BRANCH  15  16
ATOM     16  C   UNL     1       8.919   0.480  55.269  1.00  0.00     0.000 C 
BRANCH  16  17
ATOM     17  C   UNL     1       9.882   1.675  55.443  1.00  0.00     0.000 C 
BRANCH  17  18
ATOM     18  C   UNL     1      10.487   2.137  54.105  1.00  0.00     0.000 C 
BRANCH  18  19
ATOM     19  C   UNL     1      10.524   3.669  53.964  1.00  0.00     0.000 C 
BRANCH  19  20
ATOM     20  C   UNL     1       9.149   4.358  54.058  1.00  0.00     0.006 C 
BRANCH  20  21
ATOM     21  C   UNL     1       8.330   4.237  52.766  1.00  0.00     0.053 C 
BRANCH  21  22
ATOM     22  C   UNL     1       6.868   4.358  53.064  1.00  0.00     0.041 C 
ATOM     23  O   UNL     1       6.130   3.336  53.033  1.00  0.00    -0.550 OA
ATOM     24  O   UNL     1       6.332   5.583  53.435  1.00  0.00    -0.550 OA
ENDBRANCH  21  22
ENDBRANCH  20  21
ENDBRANCH  19  20
ENDBRANCH  18  19
ENDBRANCH  17  18
ENDBRANCH  16  17
ENDBRANCH  15  16
ENDBRANCH  14  15
ENDBRANCH  13  14
ENDBRANCH   1  13
TORSDOF 20
ENDMDL
MODEL 2
REMARK VINA RESULT:    -4.834      1.956      2.501
REMARK INTER + INTRA:         -12.914
REMARK INTER:                 -10.135
REMARK INTRA:                  -2.779
REMARK UNBOUND:                -2.429
REMARK SMILES CCCCCCCCCCCCCCCCCCCCCC(=O)[O-]
REMARK SMILES IDX 12 1 11 2 10 3 9 4 8 5 7 6 6 7 5 8 4 9 3 10 2 11 1 12 13 13
REMARK SMILES IDX 14 14 15 15 16 16 17 17 18 18 19 19 20 20 21 21 22 22 23 23
REMARK SMILES IDX 24 24
REMARK H PARENT
REMARK Flexibility Score: inf
ROOT
ATOM      1  C   UNL     1       5.390  -2.971  50.345  1.00  0.00     0.000 C 
ENDROOT
BRANCH   1   2
ATOM      2  C   UNL     1       5.920  -4.149  51.191  1.00  0.00     0.000 C 
BRANCH   2   3
ATOM      3  C   UNL     1       5.872  -5.485  50.427  1.00  0.00     0.000 C 
BRANCH   3   4
ATOM      4  C   UNL     1       7.215  -5.832  49.766  1.00  0.00    -0.000 C 
BRANCH   4   5
ATOM      5  C   UNL     1       7.238  -5.483  48.269  1.00  0.00    -0.000 C 
BRANCH   5   6
ATOM      6  C   UNL     1       8.469  -4.651  47.865  1.00  0.00    -0.000 C 
BRANCH   6   7
ATOM      7  C   UNL     1       9.052  -3.810  49.020  1.00  0.00    -0.000 C 
BRANCH   7   8
ATOM      8  C   UNL     1       8.911  -2.300  48.761  1.00  0.00    -0.000 C 
BRANCH   8   9
ATOM      9  C   UNL     1       8.201  -1.992  47.432  1.00  0.00    -0.000 C 
BRANCH   9  10
ATOM     10  C   UNL     1       7.357  -0.710  47.503  1.00  0.00    -0.000 C 
BRANCH  10  11
ATOM     11  C   UNL     1       6.081  -0.846  46.665  1.00  0.00    -0.003 C 
ATOM     12  C   UNL     1       5.539  -2.273  46.715  1.00  0.00     0.004 C 
ENDBRANCH  10  11
ENDBRANCH   9  10
ENDBRANCH   8   9
ENDBRANCH   7   8
ENDBRANCH   6   7
ENDBRANCH   5   6
ENDBRANCH   4   5
ENDBRANCH   3   4
ENDBRANCH   2   3
ENDBRANCH   1   2
BRANCH   1  13
ATOM     13  C   UNL     1       5.880  -1.590  50.824  1.00  0.00     0.000 C 
BRANCH  13  14
ATOM     14  C   UNL     1       6.778  -1.617  52.076  1.00  0.00     0.000 C 
BRANCH  14  15
ATOM     15  C   UNL     1       7.021  -0.241  52.726  1.00  0.00     0.000 C 
BRANCH  15  16
ATOM     16  C   UNL     1       8.113  -0.222  53.813  1.00  0.00     0.000 C 
BRANCH  16  17
ATOM     17  C   UNL     1       8.326   1.167  54.452  1.00  0.00     0.000 C 
BRANCH  17  18
ATOM     18  C   UNL     1       7.168   2.134  54.144  1.00  0.00     0.000 C 
BRANCH  18  19
ATOM     19  C   UNL     1       7.649   3.567  53.854  1.00  0.00     0.000 C 
BRANCH  19  20
ATOM     20  C   UNL     1       9.167   3.781  54.005  1.00  0.00     0.006 C 
BRANCH  20  21
ATOM     21  C   UNL     1       9.875   4.010  52.662  1.00  0.00     0.053 C 
BRANCH  21  22
ATOM     22  C   UNL     1      11.184   3.285  52.633  1.00  0.00     0.041 C 
ATOM     23  O   UNL     1      11.963   3.425  51.653  1.00  0.00    -0.550 OA
ATOM     24  O   UNL     1      11.571   2.504  53.714  1.00  0.00    -0.550 OA
ENDBRANCH  21  22
ENDBRANCH  20  21
ENDBRANCH  19  20
ENDBRANCH  18  19
ENDBRANCH  17  18
ENDBRANCH  16  17
ENDBRANCH  15  16
ENDBRANCH  14  15
ENDBRANCH  13  14
ENDBRANCH   1  13
TORSDOF 20
ENDMDL
MODEL 3
REMARK VINA RESULT:    -4.721      1.016      2.470
REMARK INTER + INTRA:         -12.670
REMARK INTER:                  -9.977
REMARK INTRA:                  -2.693
REMARK UNBOUND:                -2.429
REMARK SMILES CCCCCCCCCCCCCCCCCCCCCC(=O)[O-]
REMARK SMILES IDX 12 1 11 2 10 3 9 4 8 5 7 6 6 7 5 8 4 9 3 10 2 11 1 12 13 13
REMARK SMILES IDX 14 14 15 15 16 16 17 17 18 18 19 19 20 20 21 21 22 22 23 23
REMARK SMILES IDX 24 24
REMARK H PARENT
REMARK Flexibility Score: inf
ROOT
ATOM      1  C   UNL     1       5.170  -2.902  50.627  1.00  0.00     0.000 C 
ENDROOT
BRANCH   1   2
ATOM      2  C   UNL     1       6.120  -4.121  50.615  1.00  0.00     0.000 C 
BRANCH   2   3
ATOM      3  C   UNL     1       5.831  -5.075  49.442  1.00  0.00     0.000 C 
BRANCH   3   4
ATOM      4  C   UNL     1       4.920  -4.440  48.379  1.00  0.00    -0.000 C 
BRANCH   4   5
ATOM      5  C   UNL     1       5.449  -4.656  46.951  1.00  0.00    -0.000 C 
BRANCH   5   6
ATOM      6  C   UNL     1       5.299  -3.409  46.060  1.00  0.00    -0.000 C 
BRANCH   6   7
ATOM      7  C   UNL     1       5.632  -2.089  46.784  1.00  0.00    -0.000 C 
BRANCH   7   8
ATOM      8  C   UNL     1       7.050  -1.591  46.451  1.00  0.00    -0.000 C 
BRANCH   8   9
ATOM      9  C   UNL     1       7.751  -0.953  47.661  1.00  0.00    -0.000 C 
BRANCH   9  10
ATOM     10  C   UNL     1       8.502  -1.987  48.514  1.00  0.00    -0.000 C 
BRANCH  10  11
ATOM     11  C   UNL     1       9.204  -3.022  47.629  1.00  0.00    -0.003 C 
ATOM     12  C   UNL     1       9.263  -4.384  48.315  1.00  0.00     0.004 C 
ENDBRANCH  10  11
ENDBRANCH   9  10
ENDBRANCH   8   9
ENDBRANCH   7   8
ENDBRANCH   6   7
ENDBRANCH   5   6
ENDBRANCH   4   5
ENDBRANCH   3   4
ENDBRANCH   2   3
ENDBRANCH   1   2
BRANCH   1  13
ATOM     13  C   UNL     1       5.890  -1.554  50.823  1.00  0.00     0.000 C 
BRANCH  13  14
ATOM     14  C   UNL     1       6.913  -1.524  51.975  1.00  0.00     0.000 C 
BRANCH  14  15
ATOM     15  C   UNL     1       6.875  -0.250  52.840  1.00  0.00     0.000 C 
BRANCH  15  16
ATOM     16  C   UNL     1       8.092  -0.059  53.766  1.00  0.00     0.000 C 
BRANCH  16  17
ATOM     17  C   UNL     1       8.112   1.306  54.487  1.00  0.00     0.000 C 
BRANCH  17  18
ATOM     18  C   UNL     1       9.492   1.984  54.415  1.00  0.00     0.000 C 
BRANCH  18  19
ATOM     19  C   UNL     1       9.578   3.047  53.305  1.00  0.00     0.000 C 
BRANCH  19  20
ATOM     20  C   UNL     1       8.824   4.357  53.607  1.00  0.00     0.006 C 
BRANCH  20  21
ATOM     21  C   UNL     1       7.870   4.771  52.479  1.00  0.00     0.053 C 
BRANCH  21  22
ATOM     22  C   UNL     1       6.447   4.631  52.924  1.00  0.00     0.041 C 
ATOM     23  O   UNL     1       5.778   5.653  53.234  1.00  0.00    -0.550 OA
ATOM     24  O   UNL     1       5.842   3.381  52.939  1.00  0.00    -0.550 OA
ENDBRANCH  21  22
ENDBRANCH  20  21
ENDBRANCH  19  20
ENDBRANCH  18  19
ENDBRANCH  17  18
ENDBRANCH  16  17
ENDBRANCH  15  16
ENDBRANCH  14  15
ENDBRANCH  13  14
ENDBRANCH   1  13
TORSDOF 20
ENDMDL
MODEL 4
REMARK VINA RESULT:    -4.697      2.398      7.780
REMARK INTER + INTRA:         -12.618
REMARK INTER:                 -10.270
REMARK INTRA:                  -2.348
REMARK UNBOUND:                -2.429
REMARK SMILES CCCCCCCCCCCCCCCCCCCCCC(=O)[O-]
REMARK SMILES IDX 12 1 11 2 10 3 9 4 8 5 7 6 6 7 5 8 4 9 3 10 2 11 1 12 13 13
REMARK SMILES IDX 14 14 15 15 16 16 17 17 18 18 19 19 20 20 21 21 22 22 23 23
REMARK SMILES IDX 24 24
REMARK H PARENT
REMARK Flexibility Score: inf
ROOT
ATOM      1  C   UNL     1       6.788  -1.910  51.201  1.00  0.00     0.000 C 
ENDROOT
BRANCH   1   2
ATOM      2  C   UNL     1       6.558  -0.892  52.339  1.00  0.00     0.000 C 
BRANCH   2   3
ATOM      3  C   UNL     1       7.773  -0.779  53.277  1.00  0.00     0.000 C 
BRANCH   3   4
ATOM      4  C   UNL     1       7.920   0.628  53.880  1.00  0.00    -0.000 C 
BRANCH   4   5
ATOM      5  C   UNL     1       8.819   0.638  55.127  1.00  0.00    -0.000 C 
BRANCH   5   6
ATOM      6  C   UNL     1       8.711   1.945  55.934  1.00  0.00    -0.000 C 
BRANCH   6   7
ATOM      7  C   UNL     1       9.969   2.834  55.841  1.00  0.00    -0.000 C 
BRANCH   7   8
ATOM      8  C   UNL     1      10.345   3.148  54.383  1.00  0.00    -0.000 C 
BRANCH   8   9
ATOM      9  C   UNL     1       9.799   4.506  53.911  1.00  0.00    -0.000 C 
BRANCH   9  10
ATOM     10  C   UNL     1       9.330   4.472  52.448  1.00  0.00    -0.000 C 
BRANCH  10  11
ATOM     11  C   UNL     1       7.851   4.857  52.338  1.00  0.00    -0.003 C 
ATOM     12  C   UNL     1       7.012   4.126  53.382  1.00  0.00     0.004 C 
ENDBRANCH  10  11
ENDBRANCH   9  10
ENDBRANCH   8   9
ENDBRANCH   7   8
ENDBRANCH   6   7
ENDBRANCH   5   6
ENDBRANCH   4   5
ENDBRANCH   3   4
ENDBRANCH   2   3
ENDBRANCH   1   2
BRANCH   1  13
ATOM     13  C   UNL     1       5.600  -2.036  50.228  1.00  0.00     0.000 C 
BRANCH  13  14
ATOM     14  C   UNL     1       5.412  -3.434  49.608  1.00  0.00     0.000 C 
BRANCH  14  15
ATOM     15  C   UNL     1       6.599  -4.396  49.810  1.00  0.00     0.000 C 
BRANCH  15  16
ATOM     16  C   UNL     1       7.091  -5.096  48.529  1.00  0.00     0.000 C 
BRANCH  16  17
ATOM     17  C   UNL     1       8.627  -5.101  48.378  1.00  0.00     0.000 C 
BRANCH  17  18
ATOM     18  C   UNL     1       9.281  -3.861  49.015  1.00  0.00     0.000 C 
BRANCH  18  19
ATOM     19  C   UNL     1       9.535  -2.733  48.000  1.00  0.00     0.000 C 
BRANCH  19  20
ATOM     20  C   UNL     1       8.394  -1.706  47.876  1.00  0.00     0.006 C 
BRANCH  20  21
ATOM     21  C   UNL     1       7.606  -1.842  46.567  1.00  0.00     0.053 C 
BRANCH  21  22
ATOM     22  C   UNL     1       6.347  -1.033  46.630  1.00  0.00     0.041 C 
ATOM     23  O   UNL     1       6.406   0.223  46.701  1.00  0.00    -0.550 OA
ATOM     24  O   UNL     1       5.112  -1.662  46.550  1.00  0.00    -0.550 OA
ENDBRANCH  21  22
ENDBRANCH  20  21
ENDBRANCH  19  20
ENDBRANCH  18  19
ENDBRANCH  17  18
ENDBRANCH  16  17
ENDBRANCH  15  16
ENDBRANCH  14  15
ENDBRANCH  13  14
ENDBRANCH   1  13
TORSDOF 20
ENDMDL
MODEL 5
REMARK VINA RESULT:    -4.584      8.998     12.869
REMARK INTER + INTRA:         -12.371
REMARK INTER:                  -9.910
REMARK INTRA:                  -2.461
REMARK UNBOUND:                -2.429
REMARK SMILES CCCCCCCCCCCCCCCCCCCCCC(=O)[O-]
REMARK SMILES IDX 12 1 11 2 10 3 9 4 8 5 7 6 6 7 5 8 4 9 3 10 2 11 1 12 13 13
REMARK SMILES IDX 14 14 15 15 16 16 17 17 18 18 19 19 20 20 21 21 22 22 23 23
REMARK SMILES IDX 24 24
REMARK H PARENT
REMARK Flexibility Score: inf
ROOT
ATOM      1  C   UNL     1       5.689  11.699  47.294  1.00  0.00     0.000 C 
ENDROOT
BRANCH   1   2
ATOM      2  C   UNL     1       5.912  10.974  48.640  1.00  0.00     0.000 C 
BRANCH   2   3
ATOM      3  C   UNL     1       4.993  11.510  49.752  1.00  0.00     0.000 C 
BRANCH   3   4
ATOM      4  C   UNL     1       4.246  12.786  49.332  1.00  0.00    -0.000 C 
BRANCH   4   5
ATOM      5  C   UNL     1       2.721  12.638  49.453  1.00  0.00    -0.000 C 
BRANCH   5   6
ATOM      6  C   UNL     1       2.220  11.237  49.052  1.00  0.00    -0.000 C 
BRANCH   6   7
ATOM      7  C   UNL     1       1.913  11.099  47.547  1.00  0.00    -0.000 C 
BRANCH   7   8
ATOM      8  C   UNL     1       1.749   9.629  47.125  1.00  0.00    -0.000 C 
BRANCH   8   9
ATOM      9  C   UNL     1       0.629   8.914  47.899  1.00  0.00    -0.000 C 
BRANCH   9  10
ATOM     10  C   UNL     1      -0.683   8.850  47.103  1.00  0.00    -0.000 C 
BRANCH  10  11
ATOM     11  C   UNL     1      -0.411   8.870  45.595  1.00  0.00    -0.003 C 
ATOM     12  C   UNL     1      -1.330   7.901  44.856  1.00  0.00     0.004 C 
ENDBRANCH  10  11
ENDBRANCH   9  10
ENDBRANCH   8   9
ENDBRANCH   7   8
ENDBRANCH   6   7
ENDBRANCH   5   6
ENDBRANCH   4   5
ENDBRANCH   3   4
ENDBRANCH   2   3
ENDBRANCH   1   2
BRANCH   1  13
ATOM     13  C   UNL     1       5.484  10.747  46.100  1.00  0.00     0.000 C 
BRANCH  13  14
ATOM     14  C   UNL     1       6.353  11.055  44.866  1.00  0.00     0.000 C 
BRANCH  14  15
ATOM     15  C   UNL     1       7.711  11.711  45.179  1.00  0.00     0.000 C 
BRANCH  15  16
ATOM     16  C   UNL     1       8.906  10.739  45.220  1.00  0.00     0.000 C 
BRANCH  16  17
ATOM     17  C   UNL     1       9.462  10.503  46.641  1.00  0.00     0.000 C 
BRANCH  17  18
ATOM     18  C   UNL     1       8.764   9.331  47.354  1.00  0.00     0.000 C 
BRANCH  18  19
ATOM     19  C   UNL     1       8.229   8.270  46.374  1.00  0.00     0.000 C 
BRANCH  19  20
ATOM     20  C   UNL     1       8.547   6.814  46.764  1.00  0.00     0.006 C 
BRANCH  20  21
ATOM     21  C   UNL     1       9.248   6.699  48.124  1.00  0.00     0.053 C 
BRANCH  21  22
ATOM     22  C   UNL     1      10.120   5.481  48.158  1.00  0.00     0.041 C 
ATOM     23  O   UNL     1       9.610   4.344  48.343  1.00  0.00    -0.550 OA
ATOM     24  O   UNL     1      11.484   5.595  47.926  1.00  0.00    -0.550 OA
ENDBRANCH  21  22
ENDBRANCH  20  21
ENDBRANCH  19  20
ENDBRANCH  18  19
ENDBRANCH  17  18
ENDBRANCH  16  17
ENDBRANCH  15  16
ENDBRANCH  14  15
ENDBRANCH  13  14
ENDBRANCH   1  13
TORSDOF 20
ENDMDL
MODEL 6
REMARK VINA RESULT:    -4.559      2.785      8.240
REMARK INTER + INTRA:         -12.318
REMARK INTER:                 -10.111
REMARK INTRA:                  -2.207
REMARK UNBOUND:                -2.429
REMARK SMILES CCCCCCCCCCCCCCCCCCCCCC(=O)[O-]
REMARK SMILES IDX 12 1 11 2 10 3 9 4 8 5 7 6 6 7 5 8 4 9 3 10 2 11 1 12 13 13
REMARK SMILES IDX 14 14 15 15 16 16 17 17 18 18 19 19 20 20 21 21 22 22 23 23
REMARK SMILES IDX 24 24
REMARK H PARENT
REMARK Flexibility Score: inf
ROOT
ATOM      1  C   UNL     1       6.642  -0.745  52.423  1.00  0.00     0.000 C 
ENDROOT
BRANCH   1   2
ATOM      2  C   UNL     1       7.809  -0.654  53.430  1.00  0.00     0.000 C 
BRANCH   2   3
ATOM      3  C   UNL     1       8.029   0.781  53.942  1.00  0.00     0.000 C 
BRANCH   3   4
ATOM      4  C   UNL     1       9.297   0.909  54.803  1.00  0.00    -0.000 C 
BRANCH   4   5
ATOM      5  C   UNL     1       9.367   2.254  55.544  1.00  0.00    -0.000 C 
BRANCH   5   6
ATOM      6  C   UNL     1      10.773   2.881  55.518  1.00  0.00    -0.000 C 
BRANCH   6   7
ATOM      7  C   UNL     1      10.780   4.367  55.104  1.00  0.00    -0.000 C 
BRANCH   7   8
ATOM      8  C   UNL     1       9.497   4.760  54.350  1.00  0.00    -0.000 C 
BRANCH   8   9
ATOM      9  C   UNL     1       9.585   4.470  52.843  1.00  0.00    -0.000 C 
BRANCH   9  10
ATOM     10  C   UNL     1       8.254   4.724  52.120  1.00  0.00    -0.000 C 
BRANCH  10  11
ATOM     11  C   UNL     1       7.074   4.190  52.940  1.00  0.00    -0.003 C 
ATOM     12  C   UNL     1       5.982   5.247  53.087  1.00  0.00     0.004 C 
ENDBRANCH  10  11
ENDBRANCH   9  10
ENDBRANCH   8   9
ENDBRANCH   7   8
ENDBRANCH   6   7
ENDBRANCH   5   6
ENDBRANCH   4   5
ENDBRANCH   3   4
ENDBRANCH   2   3
ENDBRANCH   1   2
BRANCH   1  13
ATOM     13  C   UNL     1       6.844  -1.812  51.330  1.00  0.00     0.000 C 
BRANCH  13  14
ATOM     14  C   UNL     1       5.649  -2.001  50.376  1.00  0.00     0.000 C 
BRANCH  14  15
ATOM     15  C   UNL     1       5.187  -3.461  50.201  1.00  0.00     0.000 C 
BRANCH  15  16
ATOM     16  C   UNL     1       4.953  -3.896  48.742  1.00  0.00     0.000 C 
BRANCH  16  17
ATOM     17  C   UNL     1       4.710  -2.716  47.776  1.00  0.00     0.000 C 
BRANCH  17  18
ATOM     18  C   UNL     1       5.825  -2.585  46.723  1.00  0.00     0.000 C 
BRANCH  18  19
ATOM     19  C   UNL     1       6.570  -1.241  46.806  1.00  0.00     0.000 C 
BRANCH  19  20
ATOM     20  C   UNL     1       7.938  -1.304  47.512  1.00  0.00     0.006 C 
BRANCH  20  21
ATOM     21  C   UNL     1       8.624  -2.669  47.365  1.00  0.00     0.053 C 
BRANCH  21  22
ATOM     22  C   UNL     1       9.051  -3.184  48.705  1.00  0.00     0.041 C 
ATOM     23  O   UNL     1       8.463  -4.172  49.219  1.00  0.00    -0.550 OA
ATOM     24  O   UNL     1      10.135  -2.611  49.357  1.00  0.00    -0.550 OA
ENDBRANCH  21  22
ENDBRANCH  20  21
ENDBRANCH  19  20
ENDBRANCH  18  19
ENDBRANCH  17  18
ENDBRANCH  16  17
ENDBRANCH  15  16
ENDBRANCH  14  15
ENDBRANCH  13  14
ENDBRANCH   1  13
TORSDOF 20
ENDMDL
MODEL 7
REMARK VINA RESULT:    -4.515      1.875      2.476
REMARK INTER + INTRA:         -12.223
REMARK INTER:                  -9.758
REMARK INTRA:                  -2.465
REMARK UNBOUND:                -2.429
REMARK SMILES CCCCCCCCCCCCCCCCCCCCCC(=O)[O-]
REMARK SMILES IDX 12 1 11 2 10 3 9 4 8 5 7 6 6 7 5 8 4 9 3 10 2 11 1 12 13 13
REMARK SMILES IDX 14 14 15 15 16 16 17 17 18 18 19 19 20 20 21 21 22 22 23 23
REMARK SMILES IDX 24 24
REMARK H PARENT
REMARK Flexibility Score: inf
ROOT
ATOM      1  C   UNL     1       7.005  -1.644  51.090  1.00  0.00     0.000 C 
ENDROOT
BRANCH   1   2
ATOM      2  C   UNL     1       5.597  -1.793  50.473  1.00  0.00     0.000 C 
BRANCH   2   3
ATOM      3  C   UNL     1       5.413  -3.142  49.755  1.00  0.00     0.000 C 
BRANCH   3   4
ATOM      4  C   UNL     1       5.788  -4.337  50.646  1.00  0.00    -0.000 C 
BRANCH   4   5
ATOM      5  C   UNL     1       6.874  -5.222  50.011  1.00  0.00    -0.000 C 
BRANCH   5   6
ATOM      6  C   UNL     1       6.926  -5.101  48.477  1.00  0.00    -0.000 C 
BRANCH   6   7
ATOM      7  C   UNL     1       8.325  -4.747  47.932  1.00  0.00    -0.000 C 
BRANCH   7   8
ATOM      8  C   UNL     1       9.090  -3.805  48.878  1.00  0.00    -0.000 C 
BRANCH   8   9
ATOM      9  C   UNL     1       9.273  -2.397  48.289  1.00  0.00    -0.000 C 
BRANCH   9  10
ATOM     10  C   UNL     1       8.247  -2.085  47.189  1.00  0.00    -0.000 C 
BRANCH  10  11
ATOM     11  C   UNL     1       7.475  -0.801  47.509  1.00  0.00    -0.003 C 
ATOM     12  C   UNL     1       6.084  -0.823  46.879  1.00  0.00     0.004 C 
ENDBRANCH  10  11
ENDBRANCH   9  10
ENDBRANCH   8   9
ENDBRANCH   7   8
ENDBRANCH   6   7
ENDBRANCH   5   6
ENDBRANCH   4   5
ENDBRANCH   3   4
ENDBRANCH   2   3
ENDBRANCH   1   2
BRANCH   1  13
ATOM     13  C   UNL     1       6.997  -1.442  52.618  1.00  0.00     0.000 C 
BRANCH  13  14
ATOM     14  C   UNL     1       7.339  -0.014  53.087  1.00  0.00     0.000 C 
BRANCH  14  15
ATOM     15  C   UNL     1       8.393   0.063  54.208  1.00  0.00     0.000 C 
BRANCH  15  16
ATOM     16  C   UNL     1       8.352   1.353  55.049  1.00  0.00     0.000 C 
BRANCH  16  17
ATOM     17  C   UNL     1       7.421   2.439  54.469  1.00  0.00     0.000 C 
BRANCH  17  18
ATOM     18  C   UNL     1       8.191   3.704  54.048  1.00  0.00     0.000 C 
BRANCH  18  19
ATOM     19  C   UNL     1       7.549   4.423  52.848  1.00  0.00     0.000 C 
BRANCH  19  20
ATOM     20  C   UNL     1       8.551   5.066  51.870  1.00  0.00     0.006 C 
BRANCH  20  21
ATOM     21  C   UNL     1       9.942   4.420  51.929  1.00  0.00     0.053 C 
BRANCH  21  22
ATOM     22  C   UNL     1      10.984   5.455  52.220  1.00  0.00     0.041 C 
ATOM     23  O   UNL     1      11.024   6.011  53.350  1.00  0.00    -0.550 OA
ATOM     24  O   UNL     1      11.946   5.761  51.268  1.00  0.00    -0.550 OA
ENDBRANCH  21  22
ENDBRANCH  20  21
ENDBRANCH  19  20
ENDBRANCH  18  19
ENDBRANCH  17  18
ENDBRANCH  16  17
ENDBRANCH  15  16
ENDBRANCH  14  15
ENDBRANCH  13  14
ENDBRANCH   1  13
TORSDOF 20
ENDMDL
MODEL 8
REMARK VINA RESULT:    -4.515     11.862     13.472
REMARK INTER + INTRA:         -12.222
REMARK INTER:                  -9.836
REMARK INTRA:                  -2.386
REMARK UNBOUND:                -2.429
REMARK SMILES CCCCCCCCCCCCCCCCCCCCCC(=O)[O-]
REMARK SMILES IDX 12 1 11 2 10 3 9 4 8 5 7 6 6 7 5 8 4 9 3 10 2 11 1 12 13 13
REMARK SMILES IDX 14 14 15 15 16 16 17 17 18 18 19 19 20 20 21 21 22 22 23 23
REMARK SMILES IDX 24 24
REMARK H PARENT
REMARK Flexibility Score: inf
ROOT
ATOM      1  C   UNL     1       1.064   8.878  47.262  1.00  0.00     0.000 C 
ENDROOT
BRANCH   1   2
ATOM      2  C   UNL     1       0.018   8.729  48.389  1.00  0.00     0.000 C 
BRANCH   2   3
ATOM      3  C   UNL     1      -1.425   8.740  47.854  1.00  0.00     0.000 C 
BRANCH   3   4
ATOM      4  C   UNL     1      -1.994  10.163  47.731  1.00  0.00    -0.000 C 
BRANCH   4   5
ATOM      5  C   UNL     1      -2.500  10.470  46.312  1.00  0.00    -0.000 C 
BRANCH   5   6
ATOM      6  C   UNL     1      -1.359  10.761  45.319  1.00  0.00    -0.000 C 
BRANCH   6   7
ATOM      7  C   UNL     1      -1.478   9.979  43.994  1.00  0.00    -0.000 C 
BRANCH   7   8
ATOM      8  C   UNL     1      -0.595   8.719  43.988  1.00  0.00    -0.000 C 
BRANCH   8   9
ATOM      9  C   UNL     1      -1.413   7.423  44.113  1.00  0.00    -0.000 C 
BRANCH   9  10
ATOM     10  C   UNL     1      -0.935   6.334  43.141  1.00  0.00    -0.000 C 
BRANCH  10  11
ATOM     11  C   UNL     1      -1.741   6.371  41.837  1.00  0.00    -0.003 C 
ATOM     12  C   UNL     1      -0.983   7.119  40.743  1.00  0.00     0.004 C 
ENDBRANCH  10  11
ENDBRANCH   9  10
ENDBRANCH   8   9
ENDBRANCH   7   8
ENDBRANCH   6   7
ENDBRANCH   5   6
ENDBRANCH   4   5
ENDBRANCH   3   4
ENDBRANCH   2   3
ENDBRANCH   1   2
BRANCH   1  13
ATOM     13  C   UNL     1       1.998  10.091  47.436  1.00  0.00     0.000 C 
BRANCH  13  14
ATOM     14  C   UNL     1       1.559  11.101  48.514  1.00  0.00     0.000 C 
BRANCH  14  15
ATOM     15  C   UNL     1       2.644  12.114  48.930  1.00  0.00     0.000 C 
BRANCH  15  16
ATOM     16  C   UNL     1       3.977  11.487  49.380  1.00  0.00     0.000 C 
BRANCH  16  17
ATOM     17  C   UNL     1       5.178  11.890  48.498  1.00  0.00     0.000 C 
BRANCH  17  18
ATOM     18  C   UNL     1       5.673  10.727  47.619  1.00  0.00     0.000 C 
BRANCH  18  19
ATOM     19  C   UNL     1       5.331  10.916  46.131  1.00  0.00     0.000 C 
BRANCH  19  20
ATOM     20  C   UNL     1       6.515  10.715  45.166  1.00  0.00     0.006 C 
BRANCH  20  21
ATOM     21  C   UNL     1       7.878  10.788  45.868  1.00  0.00     0.053 C 
BRANCH  21  22
ATOM     22  C   UNL     1       8.643   9.519  45.654  1.00  0.00     0.041 C 
ATOM     23  O   UNL     1       8.149   8.416  46.008  1.00  0.00    -0.550 OA
ATOM     24  O   UNL     1       9.873   9.549  45.010  1.00  0.00    -0.550 OA
ENDBRANCH  21  22
ENDBRANCH  20  21
ENDBRANCH  19  20
ENDBRANCH  18  19
ENDBRANCH  17  18
ENDBRANCH  16  17
ENDBRANCH  15  16
ENDBRANCH  14  15
ENDBRANCH  13  14
ENDBRANCH   1  13
TORSDOF 20
ENDMDL
MODEL 9
REMARK VINA RESULT:    -4.471      5.713      8.461
REMARK INTER + INTRA:         -12.127
REMARK INTER:                  -8.692
REMARK INTRA:                  -3.435
REMARK UNBOUND:                -2.429
REMARK SMILES CCCCCCCCCCCCCCCCCCCCCC(=O)[O-]
REMARK SMILES IDX 12 1 11 2 10 3 9 4 8 5 7 6 6 7 5 8 4 9 3 10 2 11 1 12 13 13
REMARK SMILES IDX 14 14 15 15 16 16 17 17 18 18 19 19 20 20 21 21 22 22 23 23
REMARK SMILES IDX 24 24
REMARK H PARENT
REMARK Flexibility Score: inf
ROOT
ATOM      1  C   UNL     1       9.744   2.777  56.087  1.00  0.00     0.000 C 
ENDROOT
BRANCH   1   2
ATOM      2  C   UNL     1       9.735   1.723  54.958  1.00  0.00     0.000 C 
BRANCH   2   3
ATOM      3  C   UNL     1       8.615   1.975  53.932  1.00  0.00     0.000 C 
BRANCH   3   4
ATOM      4  C   UNL     1       7.777   3.218  54.272  1.00  0.00    -0.000 C 
BRANCH   4   5
ATOM      5  C   UNL     1       6.702   3.506  53.210  1.00  0.00    -0.000 C 
BRANCH   5   6
ATOM      6  C   UNL     1       6.432   5.010  53.021  1.00  0.00    -0.000 C 
BRANCH   6   7
ATOM      7  C   UNL     1       7.561   5.913  53.562  1.00  0.00    -0.000 C 
BRANCH   7   8
ATOM      8  C   UNL     1       7.285   7.402  53.294  1.00  0.00    -0.000 C 
BRANCH   8   9
ATOM      9  C   UNL     1       8.390   8.067  52.457  1.00  0.00    -0.000 C 
BRANCH   9  10
ATOM     10  C   UNL     1       8.496   9.576  52.721  1.00  0.00    -0.000 C 
BRANCH  10  11
ATOM     11  C   UNL     1       9.961  10.025  52.760  1.00  0.00    -0.003 C 
ATOM     12  C   UNL     1      10.905   8.827  52.690  1.00  0.00     0.004 C 
ENDBRANCH  10  11
ENDBRANCH   9  10
ENDBRANCH   8   9
ENDBRANCH   7   8
ENDBRANCH   6   7
ENDBRANCH   5   6
ENDBRANCH   4   5
ENDBRANCH   3   4
ENDBRANCH   2   3
ENDBRANCH   1   2
BRANCH   1  13
ATOM     13  C   UNL     1      10.956   3.727  56.042  1.00  0.00     0.000 C 
BRANCH  13  14
ATOM     14  C   UNL     1      10.635   5.172  55.614  1.00  0.00     0.000 C 
BRANCH  14  15
ATOM     15  C   UNL     1      11.097   5.542  54.191  1.00  0.00     0.000 C 
BRANCH  15  16
ATOM     16  C   UNL     1      11.747   4.390  53.401  1.00  0.00     0.000 C 
BRANCH  16  17
ATOM     17  C   UNL     1      11.014   4.054  52.084  1.00  0.00     0.000 C 
BRANCH  17  18
ATOM     18  C   UNL     1      10.413   5.303  51.415  1.00  0.00     0.000 C 
BRANCH  18  19
ATOM     19  C   UNL     1       9.218   4.974  50.502  1.00  0.00     0.000 C 
BRANCH  19  20
ATOM     20  C   UNL     1       9.562   4.858  49.006  1.00  0.00     0.006 C 
BRANCH  20  21
ATOM     21  C   UNL     1       8.652   5.712  48.114  1.00  0.00     0.053 C 
BRANCH  21  22
ATOM     22  C   UNL     1       9.386   6.925  47.632  1.00  0.00     0.041 C 
ATOM     23  O   UNL     1       9.009   8.074  47.986  1.00  0.00    -0.550 OA
ATOM     24  O   UNL     1      10.520   6.784  46.843  1.00  0.00    -0.550 OA
ENDBRANCH  21  22
ENDBRANCH  20  21
ENDBRANCH  19  20
ENDBRANCH  18  19
ENDBRANCH  17  18
ENDBRANCH  16  17
ENDBRANCH  15  16
ENDBRANCH  14  15
ENDBRANCH  13  14
ENDBRANCH   1  13
TORSDOF 20
ENDMDL
