MODEL 1
REMARK VINA RESULT:    -0.718      0.000      0.000
REMARK INTER + INTRA:          -8.563
REMARK INTER:                  -1.895
REMARK INTRA:                  -6.668
REMARK UNBOUND:                -6.668
REMARK SMILES CCCCCCCCCCCCCCCCCCCCCCCCCCCCCC(=O)[O-]
REMARK SMILES IDX 16 1 17 2 18 3 19 4 20 5 21 6 22 7 23 8 24 9 25 10 26 11
REMARK SMILES IDX 27 12 28 13 29 14 30 15 31 16 32 17 15 18 14 19 13 20 12 21
REMARK SMILES IDX 11 22 10 23 9 24 8 25 7 26 6 27 5 28 4 29 3 30 2 31 1 32
REMARK H PARENT
REMARK Flexibility Score: inf
ROOT
ATOM      1  C   UNL     1     -15.558 -21.939  79.895  1.00  0.00     0.000 C 
ENDROOT
BRANCH   1   2
ATOM      2  C   UNL     1     -14.141 -21.983  80.488  1.00  0.00     0.000 C 
BRANCH   2   3
ATOM      3  C   UNL     1     -14.025 -21.195  81.802  1.00  0.00     0.000 C 
BRANCH   3   4
ATOM      4  C   UNL     1     -13.074 -21.899  82.780  1.00  0.00     0.000 C 
BRANCH   4   5
ATOM      5  C   UNL     1     -13.359 -21.550  84.251  1.00  0.00     0.000 C 
BRANCH   5   6
ATOM      6  C   UNL     1     -13.535 -22.760  85.189  1.00  0.00     0.000 C 
BRANCH   6   7
ATOM      7  C   UNL     1     -13.104 -24.114  84.596  1.00  0.00     0.000 C 
BRANCH   7   8
ATOM      8  C   UNL     1     -14.021 -25.271  85.018  1.00  0.00     0.000 C 
BRANCH   8   9
ATOM      9  C   UNL     1     -14.475 -26.087  83.798  1.00  0.00     0.000 C 
BRANCH   9  10
ATOM     10  C   UNL     1     -14.453 -25.255  82.498  1.00  0.00     0.000 C 
BRANCH  10  11
ATOM     11  C   UNL     1     -15.827 -25.129  81.818  1.00  0.00     0.000 C 
BRANCH  11  12
ATOM     12  C   UNL     1     -16.927 -24.650  82.779  1.00  0.00     0.000 C 
BRANCH  12  13
ATOM     13  C   UNL     1     -16.741 -23.182  83.208  1.00  0.00     0.006 C 
BRANCH  13  14
ATOM     14  C   UNL     1     -17.185 -22.890  84.651  1.00  0.00     0.053 C 
BRANCH  14  15
ATOM     15  C   UNL     1     -18.603 -22.411  84.713  1.00  0.00     0.041 C 
ATOM     16  O   UNL     1     -18.853 -21.188  84.883  1.00  0.00    -0.550 OA
ATOM     17  O   UNL     1     -19.647 -23.311  84.546  1.00  0.00    -0.550 OA
ENDBRANCH  14  15
ENDBRANCH  13  14
ENDBRANCH  12  13
ENDBRANCH  11  12
ENDBRANCH  10  11
ENDBRANCH   9  10
ENDBRANCH   8   9
ENDBRANCH   7   8
ENDBRANCH   6   7
ENDBRANCH   5   6
ENDBRANCH   4   5
ENDBRANCH   3   4
ENDBRANCH   2   3
ENDBRANCH   1   2
BRANCH   1  18
ATOM     18  C   UNL     1     -15.781 -23.010  78.812  1.00  0.00     0.000 C 
BRANCH  18  19
ATOM     19  C   UNL     1     -17.254 -23.128  78.381  1.00  0.00     0.000 C 
BRANCH  19  20
ATOM     20  C   UNL     1     -18.237 -23.498  79.508  1.00  0.00     0.000 C 
BRANCH  20  21
ATOM     21  C   UNL     1     -19.383 -22.483  79.658  1.00  0.00     0.000 C 
BRANCH  21  22
ATOM     22  C   UNL     1     -19.647 -22.100  81.123  1.00  0.00     0.000 C 
BRANCH  22  23
ATOM     23  C   UNL     1     -19.522 -20.590  81.373  1.00  0.00     0.000 C 
BRANCH  23  24
ATOM     24  C   UNL     1     -18.052 -20.178  81.547  1.00  0.00    -0.000 C 
BRANCH  24  25
ATOM     25  C   UNL     1     -17.672 -18.933  80.724  1.00  0.00    -0.000 C 
BRANCH  25  26
ATOM     26  C   UNL     1     -18.430 -18.774  79.392  1.00  0.00    -0.000 C 
BRANCH  26  27
ATOM     27  C   UNL     1     -17.710 -19.442  78.206  1.00  0.00    -0.000 C 
BRANCH  27  28
ATOM     28  C   UNL     1     -16.451 -18.658  77.772  1.00  0.00    -0.000 C 
BRANCH  28  29
ATOM     29  C   UNL     1     -15.344 -19.547  77.177  1.00  0.00    -0.000 C 
BRANCH  29  30
ATOM     30  C   UNL     1     -15.181 -19.362  75.663  1.00  0.00    -0.000 C 
BRANCH  30  31
ATOM     31  C   UNL     1     -16.056 -20.353  74.887  1.00  0.00    -0.003 C 
ATOM     32  C   UNL     1     -15.706 -21.794  75.251  1.00  0.00     0.004 C 
ENDBRANCH  30  31
ENDBRANCH  29  30
ENDBRANCH  28  29
ENDBRANCH  27  28
ENDBRANCH  26  27
ENDBRANCH  25  26
ENDBRANCH  24  25
ENDBRANCH  23  24
ENDBRANCH  22  23
ENDBRANCH  21  22
ENDBRANCH  20  21
ENDBRANCH  19  20
ENDBRANCH  18  19
ENDBRANCH   1  18
TORSDOF 28
ENDMDL
MODEL 2
REMARK VINA RESULT:    -0.702      6.357      9.892
REMARK INTER + INTRA:          -8.520
REMARK INTER:                  -1.545
REMARK INTRA:                  -6.975
REMARK UNBOUND:                -6.668
REMARK SMILES CCCCCCCCCCCCCCCCCCCCCCCCCCCCCC(=O)[O-]
REMARK SMILES IDX 16 1 17 2 18 3 19 4 20 5 21 6 22 7 23 8 24 9 25 10 26 11
REMARK SMILES IDX 27 12 28 13 29 14 30 15 31 16 32 17 15 18 14 19 13 20 12 21
REMARK SMILES IDX 11 22 10 23 9 24 8 25 7 26 6 27 5 28 4 29 3 30 2 31 1 32
REMARK H PARENT
REMARK Flexibility Score: inf
ROOT
ATOM      1  C   UNL     1     -21.962 -15.139  82.187  1.00  0.00     0.000 C 
ENDROOT
BRANCH   1   2
ATOM      2  C   UNL     1     -20.447 -14.891  82.246  1.00  0.00     0.000 C 
BRANCH   2   3
ATOM      3  C   UNL     1     -19.968 -13.893  81.180  1.00  0.00     0.000 C 
BRANCH   3   4
ATOM      4  C   UNL     1     -20.807 -14.017  79.899  1.00  0.00     0.000 C 
BRANCH   4   5
ATOM      5  C   UNL     1     -19.981 -14.471  78.683  1.00  0.00     0.000 C 
BRANCH   5   6
ATOM      6  C   UNL     1     -20.410 -15.817  78.066  1.00  0.00     0.000 C 
BRANCH   6   7
ATOM      7  C   UNL     1     -20.754 -16.921  79.083  1.00  0.00     0.000 C 
BRANCH   7   8
ATOM      8  C   UNL     1     -19.579 -17.872  79.354  1.00  0.00     0.000 C 
BRANCH   8   9
ATOM      9  C   UNL     1     -19.218 -17.887  80.847  1.00  0.00     0.000 C 
BRANCH   9  10
ATOM     10  C   UNL     1     -17.801 -17.334  81.112  1.00  0.00     0.000 C 
BRANCH  10  11
ATOM     11  C   UNL     1     -17.230 -16.507  79.948  1.00  0.00     0.000 C 
BRANCH  11  12
ATOM     12  C   UNL     1     -16.089 -15.572  80.382  1.00  0.00     0.000 C 
BRANCH  12  13
ATOM     13  C   UNL     1     -16.441 -14.753  81.639  1.00  0.00     0.006 C 
BRANCH  13  14
ATOM     14  C   UNL     1     -15.378 -13.712  82.026  1.00  0.00     0.053 C 
BRANCH  14  15
ATOM     15  C   UNL     1     -14.329 -14.292  82.924  1.00  0.00     0.041 C 
ATOM     16  O   UNL     1     -13.246 -14.718  82.443  1.00  0.00    -0.550 OA
ATOM     17  O   UNL     1     -14.533 -14.327  84.298  1.00  0.00    -0.550 OA
ENDBRANCH  14  15
ENDBRANCH  13  14
ENDBRANCH  12  13
ENDBRANCH  11  12
ENDBRANCH  10  11
ENDBRANCH   9  10
ENDBRANCH   8   9
ENDBRANCH   7   8
ENDBRANCH   6   7
ENDBRANCH   5   6
ENDBRANCH   4   5
ENDBRANCH   3   4
ENDBRANCH   2   3
ENDBRANCH   1   2
BRANCH   1  18
ATOM     18  C   UNL     1     -22.661 -14.862  83.529  1.00  0.00     0.000 C 
BRANCH  18  19
ATOM     19  C   UNL     1     -22.044 -13.675  84.291  1.00  0.00     0.000 C 
BRANCH  19  20
ATOM     20  C   UNL     1     -21.552 -13.997  85.715  1.00  0.00     0.000 C 
BRANCH  20  21
ATOM     21  C   UNL     1     -20.324 -13.167  86.125  1.00  0.00     0.000 C 
BRANCH  21  22
ATOM     22  C   UNL     1     -19.734 -12.364  84.954  1.00  0.00     0.000 C 
BRANCH  22  23
ATOM     23  C   UNL     1     -18.351 -12.873  84.523  1.00  0.00     0.000 C 
BRANCH  23  24
ATOM     24  C   UNL     1     -17.874 -14.015  85.434  1.00  0.00    -0.000 C 
BRANCH  24  25
ATOM     25  C   UNL     1     -17.872 -15.386  84.733  1.00  0.00    -0.000 C 
BRANCH  25  26
ATOM     26  C   UNL     1     -18.569 -16.519  85.511  1.00  0.00    -0.000 C 
BRANCH  26  27
ATOM     27  C   UNL     1     -19.237 -17.559  84.594  1.00  0.00    -0.000 C 
BRANCH  27  28
ATOM     28  C   UNL     1     -20.768 -17.613  84.792  1.00  0.00    -0.000 C 
BRANCH  28  29
ATOM     29  C   UNL     1     -21.462 -18.700  83.952  1.00  0.00    -0.000 C 
BRANCH  29  30
ATOM     30  C   UNL     1     -22.989 -18.683  84.098  1.00  0.00    -0.000 C 
BRANCH  30  31
ATOM     31  C   UNL     1     -23.671 -18.412  82.753  1.00  0.00    -0.003 C 
ATOM     32  C   UNL     1     -22.763 -18.801  81.589  1.00  0.00     0.004 C 
ENDBRANCH  30  31
ENDBRANCH  29  30
ENDBRANCH  28  29
ENDBRANCH  27  28
ENDBRANCH  26  27
ENDBRANCH  25  26
ENDBRANCH  24  25
ENDBRANCH  23  24
ENDBRANCH  22  23
ENDBRANCH  21  22
ENDBRANCH  20  21
ENDBRANCH  19  20
ENDBRANCH  18  19
ENDBRANCH   1  18
TORSDOF 28
ENDMDL
MODEL 3
REMARK VINA RESULT:    -0.679      7.590     10.756
REMARK INTER + INTRA:          -8.459
REMARK INTER:                  -1.750
REMARK INTRA:                  -6.709
REMARK UNBOUND:                -6.668
REMARK SMILES CCCCCCCCCCCCCCCCCCCCCCCCCCCCCC(=O)[O-]
REMARK SMILES IDX 16 1 17 2 18 3 19 4 20 5 21 6 22 7 23 8 24 9 25 10 26 11
REMARK SMILES IDX 27 12 28 13 29 14 30 15 31 16 32 17 15 18 14 19 13 20 12 21
REMARK SMILES IDX 11 22 10 23 9 24 8 25 7 26 6 27 5 28 4 29 3 30 2 31 1 32
REMARK H PARENT
REMARK Flexibility Score: inf
ROOT
ATOM      1  C   UNL     1     -18.136 -16.386  81.882  1.00  0.00     0.000 C 
ENDROOT
BRANCH   1   2
ATOM      2  C   UNL     1     -19.162 -15.909  80.842  1.00  0.00     0.000 C 
BRANCH   2   3
ATOM      3  C   UNL     1     -19.621 -14.462  81.084  1.00  0.00     0.000 C 
BRANCH   3   4
ATOM      4  C   UNL     1     -21.102 -14.289  80.717  1.00  0.00     0.000 C 
BRANCH   4   5
ATOM      5  C   UNL     1     -21.964 -13.821  81.903  1.00  0.00     0.000 C 
BRANCH   5   6
ATOM      6  C   UNL     1     -21.877 -14.704  83.163  1.00  0.00     0.000 C 
BRANCH   6   7
ATOM      7  C   UNL     1     -21.429 -13.973  84.442  1.00  0.00     0.000 C 
BRANCH   7   8
ATOM      8  C   UNL     1     -20.937 -12.544  84.173  1.00  0.00     0.000 C 
BRANCH   8   9
ATOM      9  C   UNL     1     -19.938 -12.094  85.250  1.00  0.00     0.000 C 
BRANCH   9  10
ATOM     10  C   UNL     1     -18.693 -11.412  84.644  1.00  0.00     0.000 C 
BRANCH  10  11
ATOM     11  C   UNL     1     -18.515 -11.668  83.138  1.00  0.00     0.000 C 
BRANCH  11  12
ATOM     12  C   UNL     1     -18.279 -10.378  82.336  1.00  0.00     0.000 C 
BRANCH  12  13
ATOM     13  C   UNL     1     -18.971 -10.401  80.960  1.00  0.00     0.006 C 
BRANCH  13  14
ATOM     14  C   UNL     1     -20.504 -10.496  81.031  1.00  0.00     0.053 C 
BRANCH  14  15
ATOM     15  C   UNL     1     -21.109 -10.776  79.689  1.00  0.00     0.041 C 
ATOM     16  O   UNL     1     -20.389 -10.773  78.656  1.00  0.00    -0.550 OA
ATOM     17  O   UNL     1     -22.461 -11.078  79.587  1.00  0.00    -0.550 OA
ENDBRANCH  14  15
ENDBRANCH  13  14
ENDBRANCH  12  13
ENDBRANCH  11  12
ENDBRANCH  10  11
ENDBRANCH   9  10
ENDBRANCH   8   9
ENDBRANCH   7   8
ENDBRANCH   6   7
ENDBRANCH   5   6
ENDBRANCH   4   5
ENDBRANCH   3   4
ENDBRANCH   2   3
ENDBRANCH   1   2
BRANCH   1  18
ATOM     18  C   UNL     1     -18.519 -15.986  83.318  1.00  0.00     0.000 C 
BRANCH  18  19
ATOM     19  C   UNL     1     -17.476 -15.069  83.982  1.00  0.00     0.000 C 
BRANCH  19  20
ATOM     20  C   UNL     1     -17.595 -14.945  85.513  1.00  0.00     0.000 C 
BRANCH  20  21
ATOM     21  C   UNL     1     -16.513 -14.039  86.125  1.00  0.00     0.000 C 
BRANCH  21  22
ATOM     22  C   UNL     1     -15.422 -13.652  85.113  1.00  0.00     0.000 C 
BRANCH  22  23
ATOM     23  C   UNL     1     -14.043 -14.216  85.483  1.00  0.00     0.000 C 
BRANCH  23  24
ATOM     24  C   UNL     1     -13.271 -14.656  84.229  1.00  0.00    -0.000 C 
BRANCH  24  25
ATOM     25  C   UNL     1     -13.674 -13.871  82.966  1.00  0.00    -0.000 C 
BRANCH  25  26
ATOM     26  C   UNL     1     -13.735 -14.704  81.671  1.00  0.00    -0.000 C 
BRANCH  26  27
ATOM     27  C   UNL     1     -15.134 -14.719  81.029  1.00  0.00    -0.000 C 
BRANCH  27  28
ATOM     28  C   UNL     1     -15.843 -13.351  81.143  1.00  0.00    -0.000 C 
BRANCH  28  29
ATOM     29  C   UNL     1     -16.516 -12.893  79.837  1.00  0.00    -0.000 C 
BRANCH  29  30
ATOM     30  C   UNL     1     -15.772 -13.371  78.583  1.00  0.00    -0.000 C 
BRANCH  30  31
ATOM     31  C   UNL     1     -16.704 -14.152  77.651  1.00  0.00    -0.003 C 
ATOM     32  C   UNL     1     -18.159 -13.734  77.854  1.00  0.00     0.004 C 
ENDBRANCH  30  31
ENDBRANCH  29  30
ENDBRANCH  28  29
ENDBRANCH  27  28
ENDBRANCH  26  27
ENDBRANCH  25  26
ENDBRANCH  24  25
ENDBRANCH  23  24
ENDBRANCH  22  23
ENDBRANCH  21  22
ENDBRANCH  20  21
ENDBRANCH  19  20
ENDBRANCH  18  19
ENDBRANCH   1  18
TORSDOF 28
ENDMDL
MODEL 4
REMARK VINA RESULT:    -0.659      2.258      5.844
REMARK INTER + INTRA:          -8.406
REMARK INTER:                  -1.377
REMARK INTRA:                  -7.029
REMARK UNBOUND:                -6.668
REMARK SMILES CCCCCCCCCCCCCCCCCCCCCCCCCCCCCC(=O)[O-]
REMARK SMILES IDX 16 1 17 2 18 3 19 4 20 5 21 6 22 7 23 8 24 9 25 10 26 11
REMARK SMILES IDX 27 12 28 13 29 14 30 15 31 16 32 17 15 18 14 19 13 20 12 21
REMARK SMILES IDX 11 22 10 23 9 24 8 25 7 26 6 27 5 28 4 29 3 30 2 31 1 32
REMARK H PARENT
REMARK Flexibility Score: inf
ROOT
ATOM      1  C   UNL     1     -17.133 -18.645  76.531  1.00  0.00     0.000 C 
ENDROOT
BRANCH   1   2
ATOM      2  C   UNL     1     -16.482 -19.842  75.819  1.00  0.00     0.000 C 
BRANCH   2   3
ATOM      3  C   UNL     1     -17.408 -21.066  75.754  1.00  0.00     0.000 C 
BRANCH   3   4
ATOM      4  C   UNL     1     -18.743 -20.781  76.458  1.00  0.00     0.000 C 
BRANCH   4   5
ATOM      5  C   UNL     1     -19.293 -21.999  77.220  1.00  0.00     0.000 C 
BRANCH   5   6
ATOM      6  C   UNL     1     -20.575 -21.738  78.036  1.00  0.00     0.000 C 
BRANCH   6   7
ATOM      7  C   UNL     1     -20.949 -22.848  79.035  1.00  0.00     0.000 C 
BRANCH   7   8
ATOM      8  C   UNL     1     -20.650 -22.467  80.492  1.00  0.00     0.000 C 
BRANCH   8   9
ATOM      9  C   UNL     1     -19.239 -22.916  80.900  1.00  0.00     0.000 C 
BRANCH   9  10
ATOM     10  C   UNL     1     -18.846 -22.407  82.303  1.00  0.00     0.000 C 
BRANCH  10  11
ATOM     11  C   UNL     1     -17.968 -23.390  83.097  1.00  0.00     0.000 C 
BRANCH  11  12
ATOM     12  C   UNL     1     -16.571 -22.827  83.405  1.00  0.00     0.000 C 
BRANCH  12  13
ATOM     13  C   UNL     1     -15.545 -23.151  82.302  1.00  0.00     0.006 C 
BRANCH  13  14
ATOM     14  C   UNL     1     -14.095 -23.246  82.804  1.00  0.00     0.053 C 
BRANCH  14  15
ATOM     15  C   UNL     1     -13.585 -21.925  83.293  1.00  0.00     0.041 C 
ATOM     16  O   UNL     1     -13.591 -20.922  82.531  1.00  0.00    -0.550 OA
ATOM     17  O   UNL     1     -13.140 -21.794  84.602  1.00  0.00    -0.550 OA
ENDBRANCH  14  15
ENDBRANCH  13  14
ENDBRANCH  12  13
ENDBRANCH  11  12
ENDBRANCH  10  11
ENDBRANCH   9  10
ENDBRANCH   8   9
ENDBRANCH   7   8
ENDBRANCH   6   7
ENDBRANCH   5   6
ENDBRANCH   4   5
ENDBRANCH   3   4
ENDBRANCH   2   3
ENDBRANCH   1   2
BRANCH   1  18
ATOM     18  C   UNL     1     -16.136 -17.506  76.807  1.00  0.00     0.000 C 
BRANCH  18  19
ATOM     19  C   UNL     1     -15.662 -17.467  78.271  1.00  0.00     0.000 C 
BRANCH  19  20
ATOM     20  C   UNL     1     -16.251 -16.324  79.118  1.00  0.00     0.000 C 
BRANCH  20  21
ATOM     21  C   UNL     1     -17.291 -15.488  78.353  1.00  0.00     0.000 C 
BRANCH  21  22
ATOM     22  C   UNL     1     -18.716 -15.671  78.901  1.00  0.00     0.000 C 
BRANCH  22  23
ATOM     23  C   UNL     1     -19.673 -16.285  77.869  1.00  0.00     0.000 C 
BRANCH  23  24
ATOM     24  C   UNL     1     -20.145 -17.678  78.314  1.00  0.00    -0.000 C 
BRANCH  24  25
ATOM     25  C   UNL     1     -19.685 -18.045  79.737  1.00  0.00    -0.000 C 
BRANCH  25  26
ATOM     26  C   UNL     1     -18.737 -19.255  79.825  1.00  0.00    -0.000 C 
BRANCH  26  27
ATOM     27  C   UNL     1     -17.755 -19.168  81.008  1.00  0.00    -0.000 C 
BRANCH  27  28
ATOM     28  C   UNL     1     -16.471 -19.992  80.762  1.00  0.00    -0.000 C 
BRANCH  28  29
ATOM     29  C   UNL     1     -16.534 -20.873  79.501  1.00  0.00    -0.000 C 
BRANCH  29  30
ATOM     30  C   UNL     1     -15.147 -21.306  79.008  1.00  0.00    -0.000 C 
BRANCH  30  31
ATOM     31  C   UNL     1     -15.228 -22.610  78.207  1.00  0.00    -0.003 C 
ATOM     32  C   UNL     1     -16.319 -23.525  78.757  1.00  0.00     0.004 C 
ENDBRANCH  30  31
ENDBRANCH  29  30
ENDBRANCH  28  29
ENDBRANCH  27  28
ENDBRANCH  26  27
ENDBRANCH  25  26
ENDBRANCH  24  25
ENDBRANCH  23  24
ENDBRANCH  22  23
ENDBRANCH  21  22
ENDBRANCH  20  21
ENDBRANCH  19  20
ENDBRANCH  18  19
ENDBRANCH   1  18
TORSDOF 28
ENDMDL
MODEL 5
REMARK VINA RESULT:    -0.647      2.906      6.299
REMARK INTER + INTRA:          -8.374
REMARK INTER:                  -1.618
REMARK INTRA:                  -6.756
REMARK UNBOUND:                -6.668
REMARK SMILES CCCCCCCCCCCCCCCCCCCCCCCCCCCCCC(=O)[O-]
REMARK SMILES IDX 16 1 17 2 18 3 19 4 20 5 21 6 22 7 23 8 24 9 25 10 26 11
REMARK SMILES IDX 27 12 28 13 29 14 30 15 31 16 32 17 15 18 14 19 13 20 12 21
REMARK SMILES IDX 11 22 10 23 9 24 8 25 7 26 6 27 5 28 4 29 3 30 2 31 1 32
REMARK H PARENT
REMARK Flexibility Score: inf
ROOT
ATOM      1  C   UNL     1     -17.610 -21.572  80.276  1.00  0.00     0.000 C 
ENDROOT
BRANCH   1   2
ATOM      2  C   UNL     1     -18.648 -22.531  80.881  1.00  0.00     0.000 C 
BRANCH   2   3
ATOM      3  C   UNL     1     -19.901 -21.801  81.389  1.00  0.00     0.000 C 
BRANCH   3   4
ATOM      4  C   UNL     1     -20.306 -22.313  82.779  1.00  0.00     0.000 C 
BRANCH   4   5
ATOM      5  C   UNL     1     -19.098 -22.696  83.653  1.00  0.00     0.000 C 
BRANCH   5   6
ATOM      6  C   UNL     1     -19.187 -24.082  84.322  1.00  0.00     0.000 C 
BRANCH   6   7
ATOM      7  C   UNL     1     -20.027 -25.122  83.558  1.00  0.00     0.000 C 
BRANCH   7   8
ATOM      8  C   UNL     1     -19.214 -26.354  83.135  1.00  0.00     0.000 C 
BRANCH   8   9
ATOM      9  C   UNL     1     -19.049 -26.406  81.609  1.00  0.00     0.000 C 
BRANCH   9  10
ATOM     10  C   UNL     1     -20.260 -25.801  80.868  1.00  0.00     0.000 C 
BRANCH  10  11
ATOM     11  C   UNL     1     -20.546 -26.454  79.506  1.00  0.00     0.000 C 
BRANCH  11  12
ATOM     12  C   UNL     1     -21.330 -25.535  78.555  1.00  0.00     0.000 C 
BRANCH  12  13
ATOM     13  C   UNL     1     -21.677 -24.178  79.196  1.00  0.00     0.006 C 
BRANCH  13  14
ATOM     14  C   UNL     1     -22.292 -23.162  78.219  1.00  0.00     0.053 C 
BRANCH  14  15
ATOM     15  C   UNL     1     -21.540 -21.867  78.213  1.00  0.00     0.041 C 
ATOM     16  O   UNL     1     -20.403 -21.796  77.676  1.00  0.00    -0.550 OA
ATOM     17  O   UNL     1     -22.113 -20.729  78.767  1.00  0.00    -0.550 OA
ENDBRANCH  14  15
ENDBRANCH  13  14
ENDBRANCH  12  13
ENDBRANCH  11  12
ENDBRANCH  10  11
ENDBRANCH   9  10
ENDBRANCH   8   9
ENDBRANCH   7   8
ENDBRANCH   6   7
ENDBRANCH   5   6
ENDBRANCH   4   5
ENDBRANCH   3   4
ENDBRANCH   2   3
ENDBRANCH   1   2
BRANCH   1  18
ATOM     18  C   UNL     1     -16.518 -21.169  81.283  1.00  0.00     0.000 C 
BRANCH  18  19
ATOM     19  C   UNL     1     -15.100 -21.246  80.691  1.00  0.00     0.000 C 
BRANCH  19  20
ATOM     20  C   UNL     1     -13.960 -20.970  81.689  1.00  0.00     0.000 C 
BRANCH  20  21
ATOM     21  C   UNL     1     -12.979 -22.148  81.816  1.00  0.00     0.000 C 
BRANCH  21  22
ATOM     22  C   UNL     1     -12.875 -22.679  83.255  1.00  0.00     0.000 C 
BRANCH  22  23
ATOM     23  C   UNL     1     -13.472 -21.713  84.289  1.00  0.00     0.000 C 
BRANCH  23  24
ATOM     24  C   UNL     1     -14.342 -22.463  85.309  1.00  0.00    -0.000 C 
BRANCH  24  25
ATOM     25  C   UNL     1     -15.535 -23.193  84.664  1.00  0.00    -0.000 C 
BRANCH  25  26
ATOM     26  C   UNL     1     -15.564 -24.717  84.880  1.00  0.00    -0.000 C 
BRANCH  26  27
ATOM     27  C   UNL     1     -15.635 -25.512  83.564  1.00  0.00    -0.000 C 
BRANCH  27  28
ATOM     28  C   UNL     1     -15.972 -24.611  82.355  1.00  0.00    -0.000 C 
BRANCH  28  29
ATOM     29  C   UNL     1     -15.221 -24.996  81.068  1.00  0.00    -0.000 C 
BRANCH  29  30
ATOM     30  C   UNL     1     -16.109 -24.933  79.819  1.00  0.00    -0.000 C 
BRANCH  30  31
ATOM     31  C   UNL     1     -15.343 -24.353  78.624  1.00  0.00    -0.003 C 
ATOM     32  C   UNL     1     -13.843 -24.303  78.907  1.00  0.00     0.004 C 
ENDBRANCH  30  31
ENDBRANCH  29  30
ENDBRANCH  28  29
ENDBRANCH  27  28
ENDBRANCH  26  27
ENDBRANCH  25  26
ENDBRANCH  24  25
ENDBRANCH  23  24
ENDBRANCH  22  23
ENDBRANCH  21  22
ENDBRANCH  20  21
ENDBRANCH  19  20
ENDBRANCH  18  19
ENDBRANCH   1  18
TORSDOF 28
ENDMDL
MODEL 6
REMARK VINA RESULT:    -0.642      8.136     11.356
REMARK INTER + INTRA:          -8.362
REMARK INTER:                  -1.359
REMARK INTRA:                  -7.003
REMARK UNBOUND:                -6.668
REMARK SMILES CCCCCCCCCCCCCCCCCCCCCCCCCCCCCC(=O)[O-]
REMARK SMILES IDX 16 1 17 2 18 3 19 4 20 5 21 6 22 7 23 8 24 9 25 10 26 11
REMARK SMILES IDX 27 12 28 13 29 14 30 15 31 16 32 17 15 18 14 19 13 20 12 21
REMARK SMILES IDX 11 22 10 23 9 24 8 25 7 26 6 27 5 28 4 29 3 30 2 31 1 32
REMARK H PARENT
REMARK Flexibility Score: inf
ROOT
ATOM      1  C   UNL     1     -16.997 -14.258  80.496  1.00  0.00     0.000 C 
ENDROOT
BRANCH   1   2
ATOM      2  C   UNL     1     -16.163 -14.649  81.726  1.00  0.00     0.000 C 
BRANCH   2   3
ATOM      3  C   UNL     1     -14.651 -14.536  81.475  1.00  0.00     0.000 C 
BRANCH   3   4
ATOM      4  C   UNL     1     -13.885 -14.402  82.799  1.00  0.00     0.000 C 
BRANCH   4   5
ATOM      5  C   UNL     1     -14.813 -14.339  84.025  1.00  0.00     0.000 C 
BRANCH   5   6
ATOM      6  C   UNL     1     -14.274 -13.515  85.212  1.00  0.00     0.000 C 
BRANCH   6   7
ATOM      7  C   UNL     1     -14.583 -12.008  85.153  1.00  0.00     0.000 C 
BRANCH   7   8
ATOM      8  C   UNL     1     -13.406 -11.177  84.621  1.00  0.00     0.000 C 
BRANCH   8   9
ATOM      9  C   UNL     1     -13.685 -10.679  83.194  1.00  0.00     0.000 C 
BRANCH   9  10
ATOM     10  C   UNL     1     -15.193 -10.493  82.924  1.00  0.00     0.000 C 
BRANCH  10  11
ATOM     11  C   UNL     1     -15.635 -10.953  81.524  1.00  0.00     0.000 C 
BRANCH  11  12
ATOM     12  C   UNL     1     -16.597  -9.963  80.847  1.00  0.00     0.000 C 
BRANCH  12  13
ATOM     13  C   UNL     1     -17.679 -10.669  80.008  1.00  0.00     0.006 C 
BRANCH  13  14
ATOM     14  C   UNL     1     -17.598 -10.368  78.502  1.00  0.00     0.053 C 
BRANCH  14  15
ATOM     15  C   UNL     1     -16.525 -11.168  77.829  1.00  0.00     0.041 C 
ATOM     16  O   UNL     1     -15.398 -10.653  77.603  1.00  0.00    -0.550 OA
ATOM     17  O   UNL     1     -16.758 -12.494  77.487  1.00  0.00    -0.550 OA
ENDBRANCH  14  15
ENDBRANCH  13  14
ENDBRANCH  12  13
ENDBRANCH  11  12
ENDBRANCH  10  11
ENDBRANCH   9  10
ENDBRANCH   8   9
ENDBRANCH   7   8
ENDBRANCH   6   7
ENDBRANCH   5   6
ENDBRANCH   4   5
ENDBRANCH   3   4
ENDBRANCH   2   3
ENDBRANCH   1   2
BRANCH   1  18
ATOM     18  C   UNL     1     -18.474 -14.671  80.627  1.00  0.00     0.000 C 
BRANCH  18  19
ATOM     19  C   UNL     1     -18.713 -15.692  81.753  1.00  0.00     0.000 C 
BRANCH  19  20
ATOM     20  C   UNL     1     -20.051 -15.540  82.500  1.00  0.00     0.000 C 
BRANCH  20  21
ATOM     21  C   UNL     1     -19.925 -15.799  84.011  1.00  0.00     0.000 C 
BRANCH  21  22
ATOM     22  C   UNL     1     -18.500 -16.202  84.426  1.00  0.00     0.000 C 
BRANCH  22  23
ATOM     23  C   UNL     1     -17.897 -15.254  85.473  1.00  0.00     0.000 C 
BRANCH  23  24
ATOM     24  C   UNL     1     -18.883 -14.134  85.837  1.00  0.00    -0.000 C 
BRANCH  24  25
ATOM     25  C   UNL     1     -18.381 -12.734  85.438  1.00  0.00    -0.000 C 
BRANCH  25  26
ATOM     26  C   UNL     1     -18.037 -12.564  83.946  1.00  0.00    -0.000 C 
BRANCH  26  27
ATOM     27  C   UNL     1     -19.191 -11.961  83.126  1.00  0.00    -0.000 C 
BRANCH  27  28
ATOM     28  C   UNL     1     -19.791 -10.706  83.799  1.00  0.00    -0.000 C 
BRANCH  28  29
ATOM     29  C   UNL     1     -19.095  -9.394  83.392  1.00  0.00    -0.000 C 
BRANCH  29  30
ATOM     30  C   UNL     1     -18.974  -8.400  84.554  1.00  0.00    -0.000 C 
BRANCH  30  31
ATOM     31  C   UNL     1     -18.520  -9.101  85.839  1.00  0.00    -0.003 C 
ATOM     32  C   UNL     1     -17.000  -9.248  85.876  1.00  0.00     0.004 C 
ENDBRANCH  30  31
ENDBRANCH  29  30
ENDBRANCH  28  29
ENDBRANCH  27  28
ENDBRANCH  26  27
ENDBRANCH  25  26
ENDBRANCH  24  25
ENDBRANCH  23  24
ENDBRANCH  22  23
ENDBRANCH  21  22
ENDBRANCH  20  21
ENDBRANCH  19  20
ENDBRANCH  18  19
ENDBRANCH   1  18
TORSDOF 28
ENDMDL
MODEL 7
REMARK VINA RESULT:    -0.633      5.107      8.116
REMARK INTER + INTRA:          -8.336
REMARK INTER:                  -1.021
REMARK INTRA:                  -7.316
REMARK UNBOUND:                -6.668
REMARK SMILES CCCCCCCCCCCCCCCCCCCCCCCCCCCCCC(=O)[O-]
REMARK SMILES IDX 16 1 17 2 18 3 19 4 20 5 21 6 22 7 23 8 24 9 25 10 26 11
REMARK SMILES IDX 27 12 28 13 29 14 30 15 31 16 32 17 15 18 14 19 13 20 12 21
REMARK SMILES IDX 11 22 10 23 9 24 8 25 7 26 6 27 5 28 4 29 3 30 2 31 1 32
REMARK H PARENT
REMARK Flexibility Score: inf
ROOT
ATOM      1  C   UNL     1     -21.144 -18.880  81.770  1.00  0.00     0.000 C 
ENDROOT
BRANCH   1   2
ATOM      2  C   UNL     1     -22.569 -18.680  82.308  1.00  0.00     0.000 C 
BRANCH   2   3
ATOM      3  C   UNL     1     -23.052 -19.867  83.157  1.00  0.00     0.000 C 
BRANCH   3   4
ATOM      4  C   UNL     1     -23.324 -19.430  84.604  1.00  0.00     0.000 C 
BRANCH   4   5
ATOM      5  C   UNL     1     -22.899 -17.977  84.882  1.00  0.00     0.000 C 
BRANCH   5   6
ATOM      6  C   UNL     1     -21.719 -17.816  85.860  1.00  0.00     0.000 C 
BRANCH   6   7
ATOM      7  C   UNL     1     -20.639 -18.909  85.766  1.00  0.00     0.000 C 
BRANCH   7   8
ATOM      8  C   UNL     1     -19.276 -18.366  85.313  1.00  0.00     0.000 C 
BRANCH   8   9
ATOM      9  C   UNL     1     -19.250 -16.831  85.367  1.00  0.00     0.000 C 
BRANCH   9  10
ATOM     10  C   UNL     1     -18.556 -16.215  84.133  1.00  0.00     0.000 C 
BRANCH  10  11
ATOM     11  C   UNL     1     -19.534 -15.727  83.051  1.00  0.00     0.000 C 
BRANCH  11  12
ATOM     12  C   UNL     1     -20.764 -15.013  83.635  1.00  0.00     0.000 C 
BRANCH  12  13
ATOM     13  C   UNL     1     -21.960 -15.003  82.664  1.00  0.00     0.006 C 
BRANCH  13  14
ATOM     14  C   UNL     1     -21.579 -15.281  81.200  1.00  0.00     0.053 C 
BRANCH  14  15
ATOM     15  C   UNL     1     -21.496 -14.020  80.396  1.00  0.00     0.041 C 
ATOM     16  O   UNL     1     -21.828 -12.918  80.908  1.00  0.00    -0.550 OA
ATOM     17  O   UNL     1     -21.016 -14.057  79.093  1.00  0.00    -0.550 OA
ENDBRANCH  14  15
ENDBRANCH  13  14
ENDBRANCH  12  13
ENDBRANCH  11  12
ENDBRANCH  10  11
ENDBRANCH   9  10
ENDBRANCH   8   9
ENDBRANCH   7   8
ENDBRANCH   6   7
ENDBRANCH   5   6
ENDBRANCH   4   5
ENDBRANCH   3   4
ENDBRANCH   2   3
ENDBRANCH   1   2
BRANCH   1  18
ATOM     18  C   UNL     1     -20.522 -20.214  82.220  1.00  0.00     0.000 C 
BRANCH  18  19
ATOM     19  C   UNL     1     -18.987 -20.229  82.103  1.00  0.00     0.000 C 
BRANCH  19  20
ATOM     20  C   UNL     1     -18.350 -18.887  81.699  1.00  0.00     0.000 C 
BRANCH  20  21
ATOM     21  C   UNL     1     -17.324 -19.030  80.561  1.00  0.00     0.000 C 
BRANCH  21  22
ATOM     22  C   UNL     1     -17.400 -17.877  79.547  1.00  0.00     0.000 C 
BRANCH  22  23
ATOM     23  C   UNL     1     -18.701 -17.070  79.662  1.00  0.00     0.000 C 
BRANCH  23  24
ATOM     24  C   UNL     1     -19.741 -17.549  78.637  1.00  0.00    -0.000 C 
BRANCH  24  25
ATOM     25  C   UNL     1     -19.111 -18.262  77.426  1.00  0.00    -0.000 C 
BRANCH  25  26
ATOM     26  C   UNL     1     -19.579 -19.712  77.205  1.00  0.00    -0.000 C 
BRANCH  26  27
ATOM     27  C   UNL     1     -20.034 -20.404  78.503  1.00  0.00    -0.000 C 
BRANCH  27  28
ATOM     28  C   UNL     1     -21.546 -20.725  78.494  1.00  0.00    -0.000 C 
BRANCH  28  29
ATOM     29  C   UNL     1     -22.237 -20.405  77.156  1.00  0.00    -0.000 C 
BRANCH  29  30
ATOM     30  C   UNL     1     -23.200 -19.215  77.252  1.00  0.00    -0.000 C 
BRANCH  30  31
ATOM     31  C   UNL     1     -23.366 -18.753  78.704  1.00  0.00    -0.003 C 
ATOM     32  C   UNL     1     -23.473 -17.232  78.786  1.00  0.00     0.004 C 
ENDBRANCH  30  31
ENDBRANCH  29  30
ENDBRANCH  28  29
ENDBRANCH  27  28
ENDBRANCH  26  27
ENDBRANCH  25  26
ENDBRANCH  24  25
ENDBRANCH  23  24
ENDBRANCH  22  23
ENDBRANCH  21  22
ENDBRANCH  20  21
ENDBRANCH  19  20
ENDBRANCH  18  19
ENDBRANCH   1  18
TORSDOF 28
ENDMDL
MODEL 8
REMARK VINA RESULT:    -0.611      7.168     10.501
REMARK INTER + INTRA:          -8.278
REMARK INTER:                  -1.302
REMARK INTRA:                  -6.976
REMARK UNBOUND:                -6.668
REMARK SMILES CCCCCCCCCCCCCCCCCCCCCCCCCCCCCC(=O)[O-]
REMARK SMILES IDX 16 1 17 2 18 3 19 4 20 5 21 6 22 7 23 8 24 9 25 10 26 11
REMARK SMILES IDX 27 12 28 13 29 14 30 15 31 16 32 17 15 18 14 19 13 20 12 21
REMARK SMILES IDX 11 22 10 23 9 24 8 25 7 26 6 27 5 28 4 29 3 30 2 31 1 32
REMARK H PARENT
REMARK Flexibility Score: inf
ROOT
ATOM      1  C   UNL     1     -18.072 -13.633  81.931  1.00  0.00     0.000 C 
ENDROOT
BRANCH   1   2
ATOM      2  C   UNL     1     -18.025 -14.072  83.403  1.00  0.00     0.000 C 
BRANCH   2   3
ATOM      3  C   UNL     1     -18.180 -12.893  84.377  1.00  0.00     0.000 C 
BRANCH   3   4
ATOM      4  C   UNL     1     -17.047 -12.888  85.414  1.00  0.00     0.000 C 
BRANCH   4   5
ATOM      5  C   UNL     1     -16.276 -14.219  85.467  1.00  0.00     0.000 C 
BRANCH   5   6
ATOM      6  C   UNL     1     -14.749 -14.098  85.294  1.00  0.00     0.000 C 
BRANCH   6   7
ATOM      7  C   UNL     1     -14.242 -14.249  83.848  1.00  0.00     0.000 C 
BRANCH   7   8
ATOM      8  C   UNL     1     -13.592 -12.968  83.305  1.00  0.00     0.000 C 
BRANCH   8   9
ATOM      9  C   UNL     1     -13.605 -11.854  84.363  1.00  0.00     0.000 C 
BRANCH   9  10
ATOM     10  C   UNL     1     -14.369 -10.601  83.883  1.00  0.00     0.000 C 
BRANCH  10  11
ATOM     11  C   UNL     1     -15.007 -10.758  82.493  1.00  0.00     0.000 C 
BRANCH  11  12
ATOM     12  C   UNL     1     -16.457 -10.250  82.441  1.00  0.00     0.000 C 
BRANCH  12  13
ATOM     13  C   UNL     1     -16.845  -9.706  81.053  1.00  0.00     0.006 C 
BRANCH  13  14
ATOM     14  C   UNL     1     -15.655  -9.528  80.095  1.00  0.00     0.053 C 
BRANCH  14  15
ATOM     15  C   UNL     1     -16.070  -9.650  78.661  1.00  0.00     0.041 C 
ATOM     16  O   UNL     1     -17.247  -9.990  78.367  1.00  0.00    -0.550 OA
ATOM     17  O   UNL     1     -15.167  -9.352  77.649  1.00  0.00    -0.550 OA
ENDBRANCH  14  15
ENDBRANCH  13  14
ENDBRANCH  12  13
ENDBRANCH  11  12
ENDBRANCH  10  11
ENDBRANCH   9  10
ENDBRANCH   8   9
ENDBRANCH   7   8
ENDBRANCH   6   7
ENDBRANCH   5   6
ENDBRANCH   4   5
ENDBRANCH   3   4
ENDBRANCH   2   3
ENDBRANCH   1   2
BRANCH   1  18
ATOM     18  C   UNL     1     -16.798 -14.016  81.157  1.00  0.00     0.000 C 
BRANCH  18  19
ATOM     19  C   UNL     1     -16.527 -13.095  79.954  1.00  0.00     0.000 C 
BRANCH  19  20
ATOM     20  C   UNL     1     -15.312 -13.486  79.093  1.00  0.00     0.000 C 
BRANCH  20  21
ATOM     21  C   UNL     1     -13.992 -12.898  79.619  1.00  0.00     0.000 C 
BRANCH  21  22
ATOM     22  C   UNL     1     -12.875 -13.949  79.722  1.00  0.00     0.000 C 
BRANCH  22  23
ATOM     23  C   UNL     1     -13.341 -15.244  80.403  1.00  0.00     0.000 C 
BRANCH  23  24
ATOM     24  C   UNL     1     -13.136 -16.457  79.483  1.00  0.00    -0.000 C 
BRANCH  24  25
ATOM     25  C   UNL     1     -14.141 -17.593  79.749  1.00  0.00    -0.000 C 
BRANCH  25  26
ATOM     26  C   UNL     1     -15.621 -17.215  79.556  1.00  0.00    -0.000 C 
BRANCH  26  27
ATOM     27  C   UNL     1     -15.981 -16.916  78.089  1.00  0.00    -0.000 C 
BRANCH  27  28
ATOM     28  C   UNL     1     -17.419 -16.371  77.941  1.00  0.00    -0.000 C 
BRANCH  28  29
ATOM     29  C   UNL     1     -18.338 -16.721  79.125  1.00  0.00    -0.000 C 
BRANCH  29  30
ATOM     30  C   UNL     1     -19.532 -15.766  79.255  1.00  0.00    -0.000 C 
BRANCH  30  31
ATOM     31  C   UNL     1     -19.449 -14.633  78.226  1.00  0.00    -0.003 C 
ATOM     32  C   UNL     1     -20.115 -13.365  78.753  1.00  0.00     0.004 C 
ENDBRANCH  30  31
ENDBRANCH  29  30
ENDBRANCH  28  29
ENDBRANCH  27  28
ENDBRANCH  26  27
ENDBRANCH  25  26
ENDBRANCH  24  25
ENDBRANCH  23  24
ENDBRANCH  22  23
ENDBRANCH  21  22
ENDBRANCH  20  21
ENDBRANCH  19  20
ENDBRANCH  18  19
ENDBRANCH   1  18
TORSDOF 28
ENDMDL
MODEL 9
REMARK VINA RESULT:    -0.596      5.793      9.905
REMARK INTER + INTRA:          -8.240
REMARK INTER:                  -1.079
REMARK INTRA:                  -7.161
REMARK UNBOUND:                -6.668
REMARK SMILES CCCCCCCCCCCCCCCCCCCCCCCCCCCCCC(=O)[O-]
REMARK SMILES IDX 16 1 17 2 18 3 19 4 20 5 21 6 22 7 23 8 24 9 25 10 26 11
REMARK SMILES IDX 27 12 28 13 29 14 30 15 31 16 32 17 15 18 14 19 13 20 12 21
REMARK SMILES IDX 11 22 10 23 9 24 8 25 7 26 6 27 5 28 4 29 3 30 2 31 1 32
REMARK H PARENT
REMARK Flexibility Score: inf
ROOT
ATOM      1  C   UNL     1     -19.333 -15.668  81.923  1.00  0.00     0.000 C 
ENDROOT
BRANCH   1   2
ATOM      2  C   UNL     1     -20.435 -16.030  80.914  1.00  0.00     0.000 C 
BRANCH   2   3
ATOM      3  C   UNL     1     -21.665 -16.662  81.583  1.00  0.00     0.000 C 
BRANCH   3   4
ATOM      4  C   UNL     1     -22.401 -15.636  82.457  1.00  0.00     0.000 C 
BRANCH   4   5
ATOM      5  C   UNL     1     -22.896 -14.415  81.661  1.00  0.00     0.000 C 
BRANCH   5   6
ATOM      6  C   UNL     1     -22.588 -13.048  82.301  1.00  0.00     0.000 C 
BRANCH   6   7
ATOM      7  C   UNL     1     -21.570 -13.082  83.456  1.00  0.00     0.000 C 
BRANCH   7   8
ATOM      8  C   UNL     1     -20.256 -12.362  83.117  1.00  0.00     0.000 C 
BRANCH   8   9
ATOM      9  C   UNL     1     -20.299 -11.778  81.697  1.00  0.00     0.000 C 
BRANCH   9  10
ATOM     10  C   UNL     1     -19.025 -12.107  80.891  1.00  0.00     0.000 C 
BRANCH  10  11
ATOM     11  C   UNL     1     -19.303 -12.767  79.530  1.00  0.00     0.000 C 
BRANCH  11  12
ATOM     12  C   UNL     1     -20.787 -12.709  79.131  1.00  0.00     0.000 C 
BRANCH  12  13
ATOM     13  C   UNL     1     -21.085 -13.501  77.844  1.00  0.00     0.006 C 
BRANCH  13  14
ATOM     14  C   UNL     1     -20.075 -14.622  77.550  1.00  0.00     0.053 C 
BRANCH  14  15
ATOM     15  C   UNL     1     -20.741 -15.843  76.992  1.00  0.00     0.041 C 
ATOM     16  O   UNL     1     -20.297 -16.384  75.945  1.00  0.00    -0.550 OA
ATOM     17  O   UNL     1     -21.827 -16.403  77.651  1.00  0.00    -0.550 OA
ENDBRANCH  14  15
ENDBRANCH  13  14
ENDBRANCH  12  13
ENDBRANCH  11  12
ENDBRANCH  10  11
ENDBRANCH   9  10
ENDBRANCH   8   9
ENDBRANCH   7   8
ENDBRANCH   6   7
ENDBRANCH   5   6
ENDBRANCH   4   5
ENDBRANCH   3   4
ENDBRANCH   2   3
ENDBRANCH   1   2
BRANCH   1  18
ATOM     18  C   UNL     1     -18.685 -16.908  82.563  1.00  0.00     0.000 C 
BRANCH  18  19
ATOM     19  C   UNL     1     -18.885 -16.969  84.088  1.00  0.00     0.000 C 
BRANCH  19  20
ATOM     20  C   UNL     1     -19.294 -15.639  84.747  1.00  0.00     0.000 C 
BRANCH  20  21
ATOM     21  C   UNL     1     -18.303 -15.179  85.830  1.00  0.00     0.000 C 
BRANCH  21  22
ATOM     22  C   UNL     1     -16.990 -14.639  85.240  1.00  0.00     0.000 C 
BRANCH  22  23
ATOM     23  C   UNL     1     -17.080 -13.155  84.853  1.00  0.00     0.000 C 
BRANCH  23  24
ATOM     24  C   UNL     1     -16.518 -12.917  83.443  1.00  0.00    -0.000 C 
BRANCH  24  25
ATOM     25  C   UNL     1     -16.072 -14.215  82.744  1.00  0.00    -0.000 C 
BRANCH  25  26
ATOM     26  C   UNL     1     -15.880 -14.104  81.219  1.00  0.00    -0.000 C 
BRANCH  26  27
ATOM     27  C   UNL     1     -15.919 -15.467  80.505  1.00  0.00    -0.000 C 
BRANCH  27  28
ATOM     28  C   UNL     1     -16.816 -15.440  79.247  1.00  0.00    -0.000 C 
BRANCH  28  29
ATOM     29  C   UNL     1     -16.737 -16.726  78.405  1.00  0.00    -0.000 C 
BRANCH  29  30
ATOM     30  C   UNL     1     -17.952 -17.643  78.602  1.00  0.00    -0.000 C 
BRANCH  30  31
ATOM     31  C   UNL     1     -17.654 -18.744  79.626  1.00  0.00    -0.003 C 
ATOM     32  C   UNL     1     -16.607 -19.720  79.093  1.00  0.00     0.004 C 
ENDBRANCH  30  31
ENDBRANCH  29  30
ENDBRANCH  28  29
ENDBRANCH  27  28
ENDBRANCH  26  27
ENDBRANCH  25  26
ENDBRANCH  24  25
ENDBRANCH  23  24
ENDBRANCH  22  23
ENDBRANCH  21  22
ENDBRANCH  20  21
ENDBRANCH  19  20
ENDBRANCH  18  19
ENDBRANCH   1  18
TORSDOF 28
ENDMDL
