MODEL 1
REMARK VINA RESULT:    -5.533      0.000      0.000
REMARK INTER + INTRA:         -17.589
REMARK INTER:                 -13.943
REMARK INTRA:                  -3.645
REMARK UNBOUND:                -3.645
REMARK SMILES CCCCCCCCCCCCCCCCCCCCCCCCCCCC(=O)[O-]
REMARK SMILES IDX 15 1 16 2 17 3 18 4 19 5 20 6 21 7 22 8 23 9 24 10 25 11
REMARK SMILES IDX 26 12 27 13 28 14 29 15 30 16 14 17 13 18 12 19 11 20 10 21
REMARK SMILES IDX 9 22 8 23 7 24 6 25 5 26 4 27 3 28 2 29 1 30
REMARK H PARENT
REMARK Flexibility Score: inf
ROOT
ATOM      1  C   UNL     1       1.630  10.278  25.131  1.00  0.00     0.000 C 
ENDROOT
BRANCH   1   2
ATOM      2  C   UNL     1       0.322   9.495  25.349  1.00  0.00     0.000 C 
BRANCH   2   3
ATOM      3  C   UNL     1      -0.431   9.215  24.038  1.00  0.00     0.000 C 
BRANCH   3   4
ATOM      4  C   UNL     1      -1.633   8.271  24.229  1.00  0.00     0.000 C 
BRANCH   4   5
ATOM      5  C   UNL     1      -2.468   8.009  22.959  1.00  0.00     0.000 C 
BRANCH   5   6
ATOM      6  C   UNL     1      -1.792   8.414  21.634  1.00  0.00     0.000 C 
BRANCH   6   7
ATOM      7  C   UNL     1      -2.715   9.115  20.615  1.00  0.00     0.000 C 
BRANCH   7   8
ATOM      8  C   UNL     1      -3.758  10.067  21.228  1.00  0.00     0.000 C 
BRANCH   8   9
ATOM      9  C   UNL     1      -3.140  11.389  21.717  1.00  0.00     0.000 C 
BRANCH   9  10
ATOM     10  C   UNL     1      -3.765  11.881  23.032  1.00  0.00     0.000 C 
BRANCH  10  11
ATOM     11  C   UNL     1      -2.822  11.718  24.238  1.00  0.00     0.000 C 
BRANCH  11  12
ATOM     12  C   UNL     1      -3.491  10.996  25.418  1.00  0.00     0.006 C 
BRANCH  12  13
ATOM     13  C   UNL     1      -3.023  11.528  26.780  1.00  0.00     0.053 C 
BRANCH  13  14
ATOM     14  C   UNL     1      -2.991  10.428  27.795  1.00  0.00     0.041 C 
ATOM     15  O   UNL     1      -2.328   9.380  27.574  1.00  0.00    -0.550 OA
ATOM     16  O   UNL     1      -3.712  10.550  28.976  1.00  0.00    -0.550 OA
ENDBRANCH  13  14
ENDBRANCH  12  13
ENDBRANCH  11  12
ENDBRANCH  10  11
ENDBRANCH   9  10
ENDBRANCH   8   9
ENDBRANCH   7   8
ENDBRANCH   6   7
ENDBRANCH   5   6
ENDBRANCH   4   5
ENDBRANCH   3   4
ENDBRANCH   2   3
ENDBRANCH   1   2
BRANCH   1  17
ATOM     17  C   UNL     1       1.634  11.721  25.675  1.00  0.00     0.000 C 
BRANCH  17  18
ATOM     18  C   UNL     1       0.429  12.095  26.555  1.00  0.00     0.000 C 
BRANCH  18  19
ATOM     19  C   UNL     1       0.030  13.575  26.419  1.00  0.00     0.000 C 
BRANCH  19  20
ATOM     20  C   UNL     1       0.806  14.305  25.309  1.00  0.00     0.000 C 
BRANCH  20  21
ATOM     21  C   UNL     1       1.617  15.532  25.771  1.00  0.00     0.000 C 
BRANCH  21  22
ATOM     22  C   UNL     1       3.131  15.462  25.486  1.00  0.00    -0.000 C 
BRANCH  22  23
ATOM     23  C   UNL     1       3.503  15.226  24.011  1.00  0.00    -0.000 C 
BRANCH  23  24
ATOM     24  C   UNL     1       3.253  16.423  23.074  1.00  0.00    -0.000 C 
BRANCH  24  25
ATOM     25  C   UNL     1       4.228  17.601  23.290  1.00  0.00    -0.000 C 
BRANCH  25  26
ATOM     26  C   UNL     1       3.530  18.972  23.229  1.00  0.00    -0.000 C 
BRANCH  26  27
ATOM     27  C   UNL     1       2.653  19.232  24.472  1.00  0.00    -0.000 C 
BRANCH  27  28
ATOM     28  C   UNL     1       1.211  19.644  24.133  1.00  0.00    -0.000 C 
BRANCH  28  29
ATOM     29  C   UNL     1       0.493  18.623  23.240  1.00  0.00    -0.003 C 
ATOM     30  C   UNL     1      -0.869  19.147  22.790  1.00  0.00     0.004 C 
ENDBRANCH  28  29
ENDBRANCH  27  28
ENDBRANCH  26  27
ENDBRANCH  25  26
ENDBRANCH  24  25
ENDBRANCH  23  24
ENDBRANCH  22  23
ENDBRANCH  21  22
ENDBRANCH  20  21
ENDBRANCH  19  20
ENDBRANCH  18  19
ENDBRANCH  17  18
ENDBRANCH   1  17
TORSDOF 26
ENDMDL
MODEL 2
REMARK VINA RESULT:    -5.492      3.138      8.821
REMARK INTER + INTRA:         -17.486
REMARK INTER:                 -14.556
REMARK INTRA:                  -2.930
REMARK UNBOUND:                -3.645
REMARK SMILES CCCCCCCCCCCCCCCCCCCCCCCCCCCC(=O)[O-]
REMARK SMILES IDX 15 1 16 2 17 3 18 4 19 5 20 6 21 7 22 8 23 9 24 10 25 11
REMARK SMILES IDX 26 12 27 13 28 14 29 15 30 16 14 17 13 18 12 19 11 20 10 21
REMARK SMILES IDX 9 22 8 23 7 24 6 25 5 26 4 27 3 28 2 29 1 30
REMARK H PARENT
REMARK Flexibility Score: inf
ROOT
ATOM      1  C   UNL     1      -3.868  11.877  23.263  1.00  0.00     0.000 C 
ENDROOT
BRANCH   1   2
ATOM      2  C   UNL     1      -2.546  11.820  24.050  1.00  0.00     0.000 C 
BRANCH   2   3
ATOM      3  C   UNL     1      -2.759  11.681  25.567  1.00  0.00     0.000 C 
BRANCH   3   4
ATOM      4  C   UNL     1      -1.716  12.458  26.390  1.00  0.00     0.000 C 
BRANCH   4   5
ATOM      5  C   UNL     1      -0.705  13.276  25.561  1.00  0.00     0.000 C 
BRANCH   5   6
ATOM      6  C   UNL     1       0.765  13.146  26.006  1.00  0.00     0.000 C 
BRANCH   6   7
ATOM      7  C   UNL     1       1.717  14.224  25.446  1.00  0.00     0.000 C 
BRANCH   7   8
ATOM      8  C   UNL     1       3.120  13.720  25.062  1.00  0.00     0.000 C 
BRANCH   8   9
ATOM      9  C   UNL     1       3.914  14.747  24.235  1.00  0.00     0.000 C 
BRANCH   9  10
ATOM     10  C   UNL     1       3.021  15.858  23.658  1.00  0.00     0.000 C 
BRANCH  10  11
ATOM     11  C   UNL     1       3.760  17.200  23.512  1.00  0.00     0.000 C 
BRANCH  11  12
ATOM     12  C   UNL     1       2.800  18.400  23.453  1.00  0.00     0.006 C 
BRANCH  12  13
ATOM     13  C   UNL     1       1.650  18.288  24.465  1.00  0.00     0.053 C 
BRANCH  13  14
ATOM     14  C   UNL     1       2.145  18.525  25.856  1.00  0.00     0.041 C 
ATOM     15  O   UNL     1       2.542  19.668  26.202  1.00  0.00    -0.550 OA
ATOM     16  O   UNL     1       2.190  17.476  26.768  1.00  0.00    -0.550 OA
ENDBRANCH  13  14
ENDBRANCH  12  13
ENDBRANCH  11  12
ENDBRANCH  10  11
ENDBRANCH   9  10
ENDBRANCH   8   9
ENDBRANCH   7   8
ENDBRANCH   6   7
ENDBRANCH   5   6
ENDBRANCH   4   5
ENDBRANCH   3   4
ENDBRANCH   2   3
ENDBRANCH   1   2
BRANCH   1  17
ATOM     17  C   UNL     1      -3.835  11.228  21.865  1.00  0.00     0.000 C 
BRANCH  17  18
ATOM     18  C   UNL     1      -4.874  10.118  21.631  1.00  0.00     0.000 C 
BRANCH  18  19
ATOM     19  C   UNL     1      -4.304   8.927  20.841  1.00  0.00     0.000 C 
BRANCH  19  20
ATOM     20  C   UNL     1      -2.861   9.163  20.360  1.00  0.00     0.000 C 
BRANCH  20  21
ATOM     21  C   UNL     1      -1.768   8.452  21.182  1.00  0.00     0.000 C 
BRANCH  21  22
ATOM     22  C   UNL     1      -2.236   7.873  22.533  1.00  0.00    -0.000 C 
BRANCH  22  23
ATOM     23  C   UNL     1      -1.699   8.608  23.775  1.00  0.00    -0.000 C 
BRANCH  23  24
ATOM     24  C   UNL     1      -0.222   9.037  23.692  1.00  0.00    -0.000 C 
BRANCH  24  25
ATOM     25  C   UNL     1       0.359   9.540  25.031  1.00  0.00    -0.000 C 
BRANCH  25  26
ATOM     26  C   UNL     1       1.880   9.772  24.971  1.00  0.00    -0.000 C 
BRANCH  26  27
ATOM     27  C   UNL     1       2.593   9.279  26.248  1.00  0.00    -0.000 C 
BRANCH  27  28
ATOM     28  C   UNL     1       3.604   8.150  25.991  1.00  0.00    -0.000 C 
BRANCH  28  29
ATOM     29  C   UNL     1       4.236   7.609  27.281  1.00  0.00    -0.003 C 
ATOM     30  C   UNL     1       3.449   6.416  27.820  1.00  0.00     0.004 C 
ENDBRANCH  28  29
ENDBRANCH  27  28
ENDBRANCH  26  27
ENDBRANCH  25  26
ENDBRANCH  24  25
ENDBRANCH  23  24
ENDBRANCH  22  23
ENDBRANCH  21  22
ENDBRANCH  20  21
ENDBRANCH  19  20
ENDBRANCH  18  19
ENDBRANCH  17  18
ENDBRANCH   1  17
TORSDOF 26
ENDMDL
MODEL 3
REMARK VINA RESULT:    -5.457      4.107      9.808
REMARK INTER + INTRA:         -17.398
REMARK INTER:                 -13.887
REMARK INTRA:                  -3.511
REMARK UNBOUND:                -3.645
REMARK SMILES CCCCCCCCCCCCCCCCCCCCCCCCCCCC(=O)[O-]
REMARK SMILES IDX 15 1 16 2 17 3 18 4 19 5 20 6 21 7 22 8 23 9 24 10 25 11
REMARK SMILES IDX 26 12 27 13 28 14 29 15 30 16 14 17 13 18 12 19 11 20 10 21
REMARK SMILES IDX 9 22 8 23 7 24 6 25 5 26 4 27 3 28 2 29 1 30
REMARK H PARENT
REMARK Flexibility Score: inf
ROOT
ATOM      1  C   UNL     1       0.329  13.951  25.656  1.00  0.00     0.000 C 
ENDROOT
BRANCH   1   2
ATOM      2  C   UNL     1       1.639  14.758  25.584  1.00  0.00     0.000 C 
BRANCH   2   3
ATOM      3  C   UNL     1       2.355  14.613  24.231  1.00  0.00     0.000 C 
BRANCH   3   4
ATOM      4  C   UNL     1       3.886  14.723  24.351  1.00  0.00     0.000 C 
BRANCH   4   5
ATOM      5  C   UNL     1       4.492  16.035  23.814  1.00  0.00     0.000 C 
BRANCH   5   6
ATOM      6  C   UNL     1       3.478  17.164  23.544  1.00  0.00     0.000 C 
BRANCH   6   7
ATOM      7  C   UNL     1       3.127  18.036  24.769  1.00  0.00     0.000 C 
BRANCH   7   8
ATOM      8  C   UNL     1       1.684  18.572  24.795  1.00  0.00     0.000 C 
BRANCH   8   9
ATOM      9  C   UNL     1       0.820  18.009  23.653  1.00  0.00     0.000 C 
BRANCH   9  10
ATOM     10  C   UNL     1       0.198  19.114  22.783  1.00  0.00     0.000 C 
BRANCH  10  11
ATOM     11  C   UNL     1       0.891  20.476  22.963  1.00  0.00     0.000 C 
BRANCH  11  12
ATOM     12  C   UNL     1       1.930  20.761  21.866  1.00  0.00     0.006 C 
BRANCH  12  13
ATOM     13  C   UNL     1       3.291  21.185  22.435  1.00  0.00     0.053 C 
BRANCH  13  14
ATOM     14  C   UNL     1       4.365  21.036  21.403  1.00  0.00     0.041 C 
ATOM     15  O   UNL     1       5.012  22.042  21.012  1.00  0.00    -0.550 OA
ATOM     16  O   UNL     1       4.636  19.787  20.856  1.00  0.00    -0.550 OA
ENDBRANCH  13  14
ENDBRANCH  12  13
ENDBRANCH  11  12
ENDBRANCH  10  11
ENDBRANCH   9  10
ENDBRANCH   8   9
ENDBRANCH   7   8
ENDBRANCH   6   7
ENDBRANCH   5   6
ENDBRANCH   4   5
ENDBRANCH   3   4
ENDBRANCH   2   3
ENDBRANCH   1   2
BRANCH   1  17
ATOM     17  C   UNL     1       0.141  13.109  26.934  1.00  0.00     0.000 C 
BRANCH  17  18
ATOM     18  C   UNL     1      -1.249  12.470  27.101  1.00  0.00     0.000 C 
BRANCH  18  19
ATOM     19  C   UNL     1      -2.075  12.496  25.805  1.00  0.00     0.000 C 
BRANCH  19  20
ATOM     20  C   UNL     1      -3.142  11.387  25.753  1.00  0.00     0.000 C 
BRANCH  20  21
ATOM     21  C   UNL     1      -3.718  11.093  24.354  1.00  0.00     0.000 C 
BRANCH  21  22
ATOM     22  C   UNL     1      -3.033  11.841  23.192  1.00  0.00    -0.000 C 
BRANCH  22  23
ATOM     23  C   UNL     1      -3.558  11.483  21.790  1.00  0.00    -0.000 C 
BRANCH  23  24
ATOM     24  C   UNL     1      -4.478  10.249  21.733  1.00  0.00    -0.000 C 
BRANCH  24  25
ATOM     25  C   UNL     1      -3.969   9.133  20.794  1.00  0.00    -0.000 C 
BRANCH  25  26
ATOM     26  C   UNL     1      -2.464   8.857  20.957  1.00  0.00    -0.000 C 
BRANCH  26  27
ATOM     27  C   UNL     1      -2.125   8.288  22.351  1.00  0.00    -0.000 C 
BRANCH  27  28
ATOM     28  C   UNL     1      -0.819   8.843  22.942  1.00  0.00    -0.000 C 
BRANCH  28  29
ATOM     29  C   UNL     1      -0.805   8.830  24.477  1.00  0.00    -0.003 C 
ATOM     30  C   UNL     1       0.294   9.738  25.025  1.00  0.00     0.004 C 
ENDBRANCH  28  29
ENDBRANCH  27  28
ENDBRANCH  26  27
ENDBRANCH  25  26
ENDBRANCH  24  25
ENDBRANCH  23  24
ENDBRANCH  22  23
ENDBRANCH  21  22
ENDBRANCH  20  21
ENDBRANCH  19  20
ENDBRANCH  18  19
ENDBRANCH  17  18
ENDBRANCH   1  17
TORSDOF 26
ENDMDL
MODEL 4
REMARK VINA RESULT:    -5.301      2.936      8.732
REMARK INTER + INTRA:         -17.005
REMARK INTER:                 -13.463
REMARK INTRA:                  -3.542
REMARK UNBOUND:                -3.645
REMARK SMILES CCCCCCCCCCCCCCCCCCCCCCCCCCCC(=O)[O-]
REMARK SMILES IDX 15 1 16 2 17 3 18 4 19 5 20 6 21 7 22 8 23 9 24 10 25 11
REMARK SMILES IDX 26 12 27 13 28 14 29 15 30 16 14 17 13 18 12 19 11 20 10 21
REMARK SMILES IDX 9 22 8 23 7 24 6 25 5 26 4 27 3 28 2 29 1 30
REMARK H PARENT
REMARK Flexibility Score: inf
ROOT
ATOM      1  C   UNL     1       0.762  11.191  25.662  1.00  0.00     0.000 C 
ENDROOT
BRANCH   1   2
ATOM      2  C   UNL     1      -0.196  11.803  26.700  1.00  0.00     0.000 C 
BRANCH   2   3
ATOM      3  C   UNL     1      -0.007  13.319  26.867  1.00  0.00     0.000 C 
BRANCH   3   4
ATOM      4  C   UNL     1       0.255  14.039  25.532  1.00  0.00     0.000 C 
BRANCH   4   5
ATOM      5  C   UNL     1       1.592  14.802  25.451  1.00  0.00     0.000 C 
BRANCH   5   6
ATOM      6  C   UNL     1       2.565  14.308  24.362  1.00  0.00     0.000 C 
BRANCH   6   7
ATOM      7  C   UNL     1       4.062  14.493  24.687  1.00  0.00     0.000 C 
BRANCH   7   8
ATOM      8  C   UNL     1       4.760  15.632  23.922  1.00  0.00     0.000 C 
BRANCH   8   9
ATOM      9  C   UNL     1       3.765  16.644  23.327  1.00  0.00     0.000 C 
BRANCH   9  10
ATOM     10  C   UNL     1       4.097  18.095  23.713  1.00  0.00     0.000 C 
BRANCH  10  11
ATOM     11  C   UNL     1       3.117  18.675  24.749  1.00  0.00     0.000 C 
BRANCH  11  12
ATOM     12  C   UNL     1       1.647  18.486  24.343  1.00  0.00     0.006 C 
BRANCH  12  13
ATOM     13  C   UNL     1       1.034  19.753  23.729  1.00  0.00     0.053 C 
BRANCH  13  14
ATOM     14  C   UNL     1      -0.397  19.523  23.359  1.00  0.00     0.041 C 
ATOM     15  O   UNL     1      -0.688  18.921  22.292  1.00  0.00    -0.550 OA
ATOM     16  O   UNL     1      -1.413  19.994  24.182  1.00  0.00    -0.550 OA
ENDBRANCH  13  14
ENDBRANCH  12  13
ENDBRANCH  11  12
ENDBRANCH  10  11
ENDBRANCH   9  10
ENDBRANCH   8   9
ENDBRANCH   7   8
ENDBRANCH   6   7
ENDBRANCH   5   6
ENDBRANCH   4   5
ENDBRANCH   3   4
ENDBRANCH   2   3
ENDBRANCH   1   2
BRANCH   1  17
ATOM     17  C   UNL     1       0.501   9.712  25.312  1.00  0.00     0.000 C 
BRANCH  17  18
ATOM     18  C   UNL     1      -0.429   9.476  24.109  1.00  0.00     0.000 C 
BRANCH  18  19
ATOM     19  C   UNL     1      -1.512   8.421  24.392  1.00  0.00     0.000 C 
BRANCH  19  20
ATOM     20  C   UNL     1      -2.391   8.121  23.164  1.00  0.00     0.000 C 
BRANCH  20  21
ATOM     21  C   UNL     1      -2.114   8.998  21.927  1.00  0.00     0.000 C 
BRANCH  21  22
ATOM     22  C   UNL     1      -3.319   9.816  21.420  1.00  0.00    -0.000 C 
BRANCH  22  23
ATOM     23  C   UNL     1      -3.142  11.344  21.490  1.00  0.00    -0.000 C 
BRANCH  23  24
ATOM     24  C   UNL     1      -4.082  12.066  22.473  1.00  0.00    -0.000 C 
BRANCH  24  25
ATOM     25  C   UNL     1      -4.498  11.207  23.686  1.00  0.00    -0.000 C 
BRANCH  25  26
ATOM     26  C   UNL     1      -3.522  11.334  24.870  1.00  0.00    -0.000 C 
BRANCH  26  27
ATOM     27  C   UNL     1      -4.034  10.598  26.126  1.00  0.00    -0.000 C 
BRANCH  27  28
ATOM     28  C   UNL     1      -3.720  11.333  27.440  1.00  0.00    -0.000 C 
BRANCH  28  29
ATOM     29  C   UNL     1      -3.138  10.408  28.517  1.00  0.00    -0.003 C 
ATOM     30  C   UNL     1      -2.357   9.255  27.889  1.00  0.00     0.004 C 
ENDBRANCH  28  29
ENDBRANCH  27  28
ENDBRANCH  26  27
ENDBRANCH  25  26
ENDBRANCH  24  25
ENDBRANCH  23  24
ENDBRANCH  22  23
ENDBRANCH  21  22
ENDBRANCH  20  21
ENDBRANCH  19  20
ENDBRANCH  18  19
ENDBRANCH  17  18
ENDBRANCH   1  17
TORSDOF 26
ENDMDL
MODEL 5
REMARK VINA RESULT:    -5.294      1.506      3.825
REMARK INTER + INTRA:         -16.987
REMARK INTER:                 -14.094
REMARK INTRA:                  -2.892
REMARK UNBOUND:                -3.645
REMARK SMILES CCCCCCCCCCCCCCCCCCCCCCCCCCCC(=O)[O-]
REMARK SMILES IDX 15 1 16 2 17 3 18 4 19 5 20 6 21 7 22 8 23 9 24 10 25 11
REMARK SMILES IDX 26 12 27 13 28 14 29 15 30 16 14 17 13 18 12 19 11 20 10 21
REMARK SMILES IDX 9 22 8 23 7 24 6 25 5 26 4 27 3 28 2 29 1 30
REMARK H PARENT
REMARK Flexibility Score: inf
ROOT
ATOM      1  C   UNL     1       0.445  14.241  25.457  1.00  0.00     0.000 C 
ENDROOT
BRANCH   1   2
ATOM      2  C   UNL     1       0.492  13.257  26.640  1.00  0.00     0.000 C 
BRANCH   2   3
ATOM      3  C   UNL     1       0.225  11.803  26.218  1.00  0.00     0.000 C 
BRANCH   3   4
ATOM      4  C   UNL     1       1.503  11.062  25.782  1.00  0.00     0.000 C 
BRANCH   4   5
ATOM      5  C   UNL     1       1.268   9.709  25.080  1.00  0.00     0.000 C 
BRANCH   5   6
ATOM      6  C   UNL     1      -0.202   9.388  24.749  1.00  0.00     0.000 C 
BRANCH   6   7
ATOM      7  C   UNL     1      -0.482   9.049  23.270  1.00  0.00     0.000 C 
BRANCH   7   8
ATOM      8  C   UNL     1      -1.845   8.388  22.998  1.00  0.00     0.000 C 
BRANCH   8   9
ATOM      9  C   UNL     1      -2.287   8.518  21.530  1.00  0.00     0.000 C 
BRANCH   9  10
ATOM     10  C   UNL     1      -3.537   9.396  21.365  1.00  0.00     0.000 C 
BRANCH  10  11
ATOM     11  C   UNL     1      -3.213  10.901  21.362  1.00  0.00     0.000 C 
BRANCH  11  12
ATOM     12  C   UNL     1      -3.891  11.654  22.519  1.00  0.00     0.006 C 
BRANCH  12  13
ATOM     13  C   UNL     1      -2.990  11.770  23.757  1.00  0.00     0.053 C 
BRANCH  13  14
ATOM     14  C   UNL     1      -3.599  11.055  24.922  1.00  0.00     0.041 C 
ATOM     15  O   UNL     1      -4.430  10.128  24.734  1.00  0.00    -0.550 OA
ATOM     16  O   UNL     1      -3.266  11.428  26.219  1.00  0.00    -0.550 OA
ENDBRANCH  13  14
ENDBRANCH  12  13
ENDBRANCH  11  12
ENDBRANCH  10  11
ENDBRANCH   9  10
ENDBRANCH   8   9
ENDBRANCH   7   8
ENDBRANCH   6   7
ENDBRANCH   5   6
ENDBRANCH   4   5
ENDBRANCH   3   4
ENDBRANCH   2   3
ENDBRANCH   1   2
BRANCH   1  17
ATOM     17  C   UNL     1       1.652  15.193  25.340  1.00  0.00     0.000 C 
BRANCH  17  18
ATOM     18  C   UNL     1       2.312  15.251  23.952  1.00  0.00     0.000 C 
BRANCH  18  19
ATOM     19  C   UNL     1       3.593  16.103  23.936  1.00  0.00     0.000 C 
BRANCH  19  20
ATOM     20  C   UNL     1       3.305  17.613  23.864  1.00  0.00     0.000 C 
BRANCH  20  21
ATOM     21  C   UNL     1       4.493  18.488  23.415  1.00  0.00     0.000 C 
BRANCH  21  22
ATOM     22  C   UNL     1       4.229  20.008  23.429  1.00  0.00    -0.000 C 
BRANCH  22  23
ATOM     23  C   UNL     1       4.161  20.668  22.040  1.00  0.00    -0.000 C 
BRANCH  23  24
ATOM     24  C   UNL     1       2.741  20.851  21.472  1.00  0.00    -0.000 C 
BRANCH  24  25
ATOM     25  C   UNL     1       1.632  20.836  22.546  1.00  0.00    -0.000 C 
BRANCH  25  26
ATOM     26  C   UNL     1       0.586  19.732  22.307  1.00  0.00    -0.000 C 
BRANCH  26  27
ATOM     27  C   UNL     1      -0.257  19.448  23.569  1.00  0.00    -0.000 C 
BRANCH  27  28
ATOM     28  C   UNL     1       0.509  19.672  24.884  1.00  0.00    -0.000 C 
BRANCH  28  29
ATOM     29  C   UNL     1      -0.242  20.583  25.865  1.00  0.00    -0.003 C 
ATOM     30  C   UNL     1      -1.638  20.920  25.344  1.00  0.00     0.004 C 
ENDBRANCH  28  29
ENDBRANCH  27  28
ENDBRANCH  26  27
ENDBRANCH  25  26
ENDBRANCH  24  25
ENDBRANCH  23  24
ENDBRANCH  22  23
ENDBRANCH  21  22
ENDBRANCH  20  21
ENDBRANCH  19  20
ENDBRANCH  18  19
ENDBRANCH  17  18
ENDBRANCH   1  17
TORSDOF 26
ENDMDL
MODEL 6
REMARK VINA RESULT:    -5.252      2.445      5.079
REMARK INTER + INTRA:         -16.881
REMARK INTER:                 -13.430
REMARK INTRA:                  -3.452
REMARK UNBOUND:                -3.645
REMARK SMILES CCCCCCCCCCCCCCCCCCCCCCCCCCCC(=O)[O-]
REMARK SMILES IDX 15 1 16 2 17 3 18 4 19 5 20 6 21 7 22 8 23 9 24 10 25 11
REMARK SMILES IDX 26 12 27 13 28 14 29 15 30 16 14 17 13 18 12 19 11 20 10 21
REMARK SMILES IDX 9 22 8 23 7 24 6 25 5 26 4 27 3 28 2 29 1 30
REMARK H PARENT
REMARK Flexibility Score: inf
ROOT
ATOM      1  C   UNL     1       1.053  14.524  25.947  1.00  0.00     0.000 C 
ENDROOT
BRANCH   1   2
ATOM      2  C   UNL     1       0.304  13.198  26.171  1.00  0.00     0.000 C 
BRANCH   2   3
ATOM      3  C   UNL     1      -1.175  13.269  25.756  1.00  0.00     0.000 C 
BRANCH   3   4
ATOM      4  C   UNL     1      -2.133  12.845  26.885  1.00  0.00     0.000 C 
BRANCH   4   5
ATOM      5  C   UNL     1      -1.518  11.916  27.951  1.00  0.00     0.000 C 
BRANCH   5   6
ATOM      6  C   UNL     1      -2.481  10.866  28.540  1.00  0.00     0.000 C 
BRANCH   6   7
ATOM      7  C   UNL     1      -2.843   9.704  27.591  1.00  0.00     0.000 C 
BRANCH   7   8
ATOM      8  C   UNL     1      -1.651   9.070  26.852  1.00  0.00     0.000 C 
BRANCH   8   9
ATOM      9  C   UNL     1      -1.976   8.722  25.389  1.00  0.00     0.000 C 
BRANCH   9  10
ATOM     10  C   UNL     1      -1.680   9.883  24.426  1.00  0.00     0.000 C 
BRANCH  10  11
ATOM     11  C   UNL     1      -2.953  10.476  23.797  1.00  0.00     0.000 C 
BRANCH  11  12
ATOM     12  C   UNL     1      -2.710  11.037  22.387  1.00  0.00     0.006 C 
BRANCH  12  13
ATOM     13  C   UNL     1      -3.745  10.542  21.366  1.00  0.00     0.053 C 
BRANCH  13  14
ATOM     14  C   UNL     1      -3.403   9.165  20.892  1.00  0.00     0.041 C 
ATOM     15  O   UNL     1      -4.308   8.395  20.475  1.00  0.00    -0.550 OA
ATOM     16  O   UNL     1      -2.086   8.721  20.933  1.00  0.00    -0.550 OA
ENDBRANCH  13  14
ENDBRANCH  12  13
ENDBRANCH  11  12
ENDBRANCH  10  11
ENDBRANCH   9  10
ENDBRANCH   8   9
ENDBRANCH   7   8
ENDBRANCH   6   7
ENDBRANCH   5   6
ENDBRANCH   4   5
ENDBRANCH   3   4
ENDBRANCH   2   3
ENDBRANCH   1   2
BRANCH   1  17
ATOM     17  C   UNL     1       2.207  14.468  24.926  1.00  0.00     0.000 C 
BRANCH  17  18
ATOM     18  C   UNL     1       2.308  15.678  23.981  1.00  0.00     0.000 C 
BRANCH  18  19
ATOM     19  C   UNL     1       3.753  16.172  23.800  1.00  0.00     0.000 C 
BRANCH  19  20
ATOM     20  C   UNL     1       3.831  17.584  23.192  1.00  0.00     0.000 C 
BRANCH  20  21
ATOM     21  C   UNL     1       4.772  18.564  23.921  1.00  0.00     0.000 C 
BRANCH  21  22
ATOM     22  C   UNL     1       4.326  20.040  23.900  1.00  0.00    -0.000 C 
BRANCH  22  23
ATOM     23  C   UNL     1       3.724  20.517  22.566  1.00  0.00    -0.000 C 
BRANCH  23  24
ATOM     24  C   UNL     1       2.318  21.138  22.670  1.00  0.00    -0.000 C 
BRANCH  24  25
ATOM     25  C   UNL     1       1.181  20.189  22.234  1.00  0.00    -0.000 C 
BRANCH  25  26
ATOM     26  C   UNL     1       0.432  19.569  23.427  1.00  0.00    -0.000 C 
BRANCH  26  27
ATOM     27  C   UNL     1       0.378  20.524  24.639  1.00  0.00    -0.000 C 
BRANCH  27  28
ATOM     28  C   UNL     1       0.475  19.804  25.994  1.00  0.00    -0.000 C 
BRANCH  28  29
ATOM     29  C   UNL     1       1.921  19.499  26.406  1.00  0.00    -0.003 C 
ATOM     30  C   UNL     1       2.083  18.031  26.798  1.00  0.00     0.004 C 
ENDBRANCH  28  29
ENDBRANCH  27  28
ENDBRANCH  26  27
ENDBRANCH  25  26
ENDBRANCH  24  25
ENDBRANCH  23  24
ENDBRANCH  22  23
ENDBRANCH  21  22
ENDBRANCH  20  21
ENDBRANCH  19  20
ENDBRANCH  18  19
ENDBRANCH  17  18
ENDBRANCH   1  17
TORSDOF 26
ENDMDL
MODEL 7
REMARK VINA RESULT:    -5.247      3.952      9.613
REMARK INTER + INTRA:         -16.867
REMARK INTER:                 -13.430
REMARK INTRA:                  -3.437
REMARK UNBOUND:                -3.645
REMARK SMILES CCCCCCCCCCCCCCCCCCCCCCCCCCCC(=O)[O-]
REMARK SMILES IDX 15 1 16 2 17 3 18 4 19 5 20 6 21 7 22 8 23 9 24 10 25 11
REMARK SMILES IDX 26 12 27 13 28 14 29 15 30 16 14 17 13 18 12 19 11 20 10 21
REMARK SMILES IDX 9 22 8 23 7 24 6 25 5 26 4 27 3 28 2 29 1 30
REMARK H PARENT
REMARK Flexibility Score: inf
ROOT
ATOM      1  C   UNL     1       1.259  11.361  25.890  1.00  0.00     0.000 C 
ENDROOT
BRANCH   1   2
ATOM      2  C   UNL     1       0.224  12.270  26.576  1.00  0.00     0.000 C 
BRANCH   2   3
ATOM      3  C   UNL     1       0.464  13.764  26.299  1.00  0.00     0.000 C 
BRANCH   3   4
ATOM      4  C   UNL     1       1.731  14.020  25.463  1.00  0.00     0.000 C 
BRANCH   4   5
ATOM      5  C   UNL     1       1.632  15.193  24.467  1.00  0.00     0.000 C 
BRANCH   5   6
ATOM      6  C   UNL     1       2.927  15.507  23.692  1.00  0.00     0.000 C 
BRANCH   6   7
ATOM      7  C   UNL     1       3.299  17.003  23.616  1.00  0.00     0.000 C 
BRANCH   7   8
ATOM      8  C   UNL     1       2.201  17.973  24.088  1.00  0.00     0.000 C 
BRANCH   8   9
ATOM      9  C   UNL     1       2.753  19.120  24.952  1.00  0.00     0.000 C 
BRANCH   9  10
ATOM     10  C   UNL     1       2.407  20.506  24.383  1.00  0.00     0.000 C 
BRANCH  10  11
ATOM     11  C   UNL     1       1.617  20.430  23.065  1.00  0.00     0.000 C 
BRANCH  11  12
ATOM     12  C   UNL     1       2.062  21.492  22.047  1.00  0.00     0.006 C 
BRANCH  12  13
ATOM     13  C   UNL     1       3.589  21.642  21.976  1.00  0.00     0.053 C 
BRANCH  13  14
ATOM     14  C   UNL     1       4.182  20.590  21.092  1.00  0.00     0.041 C 
ATOM     15  O   UNL     1       4.607  19.513  21.586  1.00  0.00    -0.550 OA
ATOM     16  O   UNL     1       4.287  20.809  19.723  1.00  0.00    -0.550 OA
ENDBRANCH  13  14
ENDBRANCH  12  13
ENDBRANCH  11  12
ENDBRANCH  10  11
ENDBRANCH   9  10
ENDBRANCH   8   9
ENDBRANCH   7   8
ENDBRANCH   6   7
ENDBRANCH   5   6
ENDBRANCH   4   5
ENDBRANCH   3   4
ENDBRANCH   2   3
ENDBRANCH   1   2
BRANCH   1  17
ATOM     17  C   UNL     1       0.790   9.919  25.610  1.00  0.00     0.000 C 
BRANCH  17  18
ATOM     18  C   UNL     1       0.646   9.551  24.123  1.00  0.00     0.000 C 
BRANCH  18  19
ATOM     19  C   UNL     1      -0.691   8.860  23.807  1.00  0.00     0.000 C 
BRANCH  19  20
ATOM     20  C   UNL     1      -0.993   8.803  22.299  1.00  0.00     0.000 C 
BRANCH  20  21
ATOM     21  C   UNL     1      -2.346   8.165  21.923  1.00  0.00     0.000 C 
BRANCH  21  22
ATOM     22  C   UNL     1      -3.526   9.151  21.808  1.00  0.00    -0.000 C 
BRANCH  22  23
ATOM     23  C   UNL     1      -3.217  10.446  21.035  1.00  0.00    -0.000 C 
BRANCH  23  24
ATOM     24  C   UNL     1      -3.388  11.746  21.844  1.00  0.00    -0.000 C 
BRANCH  24  25
ATOM     25  C   UNL     1      -3.812  11.519  23.311  1.00  0.00    -0.000 C 
BRANCH  25  26
ATOM     26  C   UNL     1      -2.675  11.797  24.310  1.00  0.00    -0.000 C 
BRANCH  26  27
ATOM     27  C   UNL     1      -3.039  11.352  25.743  1.00  0.00    -0.000 C 
BRANCH  27  28
ATOM     28  C   UNL     1      -3.292   9.840  25.872  1.00  0.00    -0.000 C 
BRANCH  28  29
ATOM     29  C   UNL     1      -2.516   9.202  27.031  1.00  0.00    -0.003 C 
ATOM     30  C   UNL     1      -2.446  10.144  28.232  1.00  0.00     0.004 C 
ENDBRANCH  28  29
ENDBRANCH  27  28
ENDBRANCH  26  27
ENDBRANCH  25  26
ENDBRANCH  24  25
ENDBRANCH  23  24
ENDBRANCH  22  23
ENDBRANCH  21  22
ENDBRANCH  20  21
ENDBRANCH  19  20
ENDBRANCH  18  19
ENDBRANCH  17  18
ENDBRANCH   1  17
TORSDOF 26
ENDMDL
MODEL 8
REMARK VINA RESULT:    -5.233      2.290      4.722
REMARK INTER + INTRA:         -16.831
REMARK INTER:                 -13.416
REMARK INTRA:                  -3.416
REMARK UNBOUND:                -3.645
REMARK SMILES CCCCCCCCCCCCCCCCCCCCCCCCCCCC(=O)[O-]
REMARK SMILES IDX 15 1 16 2 17 3 18 4 19 5 20 6 21 7 22 8 23 9 24 10 25 11
REMARK SMILES IDX 26 12 27 13 28 14 29 15 30 16 14 17 13 18 12 19 11 20 10 21
REMARK SMILES IDX 9 22 8 23 7 24 6 25 5 26 4 27 3 28 2 29 1 30
REMARK H PARENT
REMARK Flexibility Score: inf
ROOT
ATOM      1  C   UNL     1       2.152  12.071  25.437  1.00  0.00     0.000 C 
ENDROOT
BRANCH   1   2
ATOM      2  C   UNL     1       0.866  11.749  26.220  1.00  0.00     0.000 C 
BRANCH   2   3
ATOM      3  C   UNL     1       0.091  13.010  26.639  1.00  0.00     0.000 C 
BRANCH   3   4
ATOM      4  C   UNL     1      -1.372  12.998  26.158  1.00  0.00     0.000 C 
BRANCH   4   5
ATOM      5  C   UNL     1      -2.430  13.062  27.279  1.00  0.00     0.000 C 
BRANCH   5   6
ATOM      6  C   UNL     1      -3.076  11.713  27.649  1.00  0.00     0.000 C 
BRANCH   6   7
ATOM      7  C   UNL     1      -3.017  10.634  26.547  1.00  0.00     0.000 C 
BRANCH   7   8
ATOM      8  C   UNL     1      -2.368   9.304  26.970  1.00  0.00     0.000 C 
BRANCH   8   9
ATOM      9  C   UNL     1      -1.269   8.843  25.996  1.00  0.00     0.000 C 
BRANCH   9  10
ATOM     10  C   UNL     1      -1.420   9.466  24.599  1.00  0.00     0.000 C 
BRANCH  10  11
ATOM     11  C   UNL     1      -1.764   8.428  23.517  1.00  0.00     0.000 C 
BRANCH  11  12
ATOM     12  C   UNL     1      -3.233   8.504  23.070  1.00  0.00     0.006 C 
BRANCH  12  13
ATOM     13  C   UNL     1      -3.734   9.949  22.927  1.00  0.00     0.053 C 
BRANCH  13  14
ATOM     14  C   UNL     1      -3.373  10.503  21.585  1.00  0.00     0.041 C 
ATOM     15  O   UNL     1      -3.210   9.732  20.604  1.00  0.00    -0.550 OA
ATOM     16  O   UNL     1      -3.193  11.872  21.423  1.00  0.00    -0.550 OA
ENDBRANCH  13  14
ENDBRANCH  12  13
ENDBRANCH  11  12
ENDBRANCH  10  11
ENDBRANCH   9  10
ENDBRANCH   8   9
ENDBRANCH   7   8
ENDBRANCH   6   7
ENDBRANCH   5   6
ENDBRANCH   4   5
ENDBRANCH   3   4
ENDBRANCH   2   3
ENDBRANCH   1   2
BRANCH   1  17
ATOM     17  C   UNL     1       2.407  13.568  25.171  1.00  0.00     0.000 C 
BRANCH  17  18
ATOM     18  C   UNL     1       3.626  13.879  24.286  1.00  0.00     0.000 C 
BRANCH  18  19
ATOM     19  C   UNL     1       3.833  15.388  24.067  1.00  0.00     0.000 C 
BRANCH  19  20
ATOM     20  C   UNL     1       2.509  16.172  24.015  1.00  0.00     0.000 C 
BRANCH  20  21
ATOM     21  C   UNL     1       2.287  17.164  25.174  1.00  0.00     0.000 C 
BRANCH  21  22
ATOM     22  C   UNL     1       1.539  18.458  24.794  1.00  0.00    -0.000 C 
BRANCH  22  23
ATOM     23  C   UNL     1       0.766  18.394  23.464  1.00  0.00    -0.000 C 
BRANCH  23  24
ATOM     24  C   UNL     1       0.541  19.753  22.774  1.00  0.00    -0.000 C 
BRANCH  24  25
ATOM     25  C   UNL     1       1.072  20.959  23.578  1.00  0.00    -0.000 C 
BRANCH  25  26
ATOM     26  C   UNL     1       2.447  21.444  23.086  1.00  0.00    -0.000 C 
BRANCH  26  27
ATOM     27  C   UNL     1       2.801  20.874  21.696  1.00  0.00    -0.000 C 
BRANCH  27  28
ATOM     28  C   UNL     1       4.204  20.247  21.626  1.00  0.00    -0.000 C 
BRANCH  28  29
ATOM     29  C   UNL     1       4.321  18.954  22.443  1.00  0.00    -0.003 C 
ATOM     30  C   UNL     1       5.248  19.142  23.642  1.00  0.00     0.004 C 
ENDBRANCH  28  29
ENDBRANCH  27  28
ENDBRANCH  26  27
ENDBRANCH  25  26
ENDBRANCH  24  25
ENDBRANCH  23  24
ENDBRANCH  22  23
ENDBRANCH  21  22
ENDBRANCH  20  21
ENDBRANCH  19  20
ENDBRANCH  18  19
ENDBRANCH  17  18
ENDBRANCH   1  17
TORSDOF 26
ENDMDL
MODEL 9
REMARK VINA RESULT:    -5.217      3.091      9.146
REMARK INTER + INTRA:         -16.793
REMARK INTER:                 -13.563
REMARK INTRA:                  -3.229
REMARK UNBOUND:                -3.645
REMARK SMILES CCCCCCCCCCCCCCCCCCCCCCCCCCCC(=O)[O-]
REMARK SMILES IDX 15 1 16 2 17 3 18 4 19 5 20 6 21 7 22 8 23 9 24 10 25 11
REMARK SMILES IDX 26 12 27 13 28 14 29 15 30 16 14 17 13 18 12 19 11 20 10 21
REMARK SMILES IDX 9 22 8 23 7 24 6 25 5 26 4 27 3 28 2 29 1 30
REMARK H PARENT
REMARK Flexibility Score: inf
ROOT
ATOM      1  C   UNL     1      -1.013  13.376  26.026  1.00  0.00     0.000 C 
ENDROOT
BRANCH   1   2
ATOM      2  C   UNL     1       0.433  13.303  26.548  1.00  0.00     0.000 C 
BRANCH   2   3
ATOM      3  C   UNL     1       1.467  13.774  25.512  1.00  0.00     0.000 C 
BRANCH   3   4
ATOM      4  C   UNL     1       1.098  15.124  24.871  1.00  0.00     0.000 C 
BRANCH   4   5
ATOM      5  C   UNL     1       2.154  16.236  25.032  1.00  0.00     0.000 C 
BRANCH   5   6
ATOM      6  C   UNL     1       3.426  16.060  24.179  1.00  0.00     0.000 C 
BRANCH   6   7
ATOM      7  C   UNL     1       3.762  17.247  23.252  1.00  0.00     0.000 C 
BRANCH   7   8
ATOM      8  C   UNL     1       3.963  18.596  23.965  1.00  0.00     0.000 C 
BRANCH   8   9
ATOM      9  C   UNL     1       3.809  19.798  23.017  1.00  0.00     0.000 C 
BRANCH   9  10
ATOM     10  C   UNL     1       2.538  20.615  23.301  1.00  0.00     0.000 C 
BRANCH  10  11
ATOM     11  C   UNL     1       1.298  20.062  22.577  1.00  0.00     0.000 C 
BRANCH  11  12
ATOM     12  C   UNL     1       0.381  19.254  23.509  1.00  0.00     0.006 C 
BRANCH  12  13
ATOM     13  C   UNL     1       0.462  19.720  24.970  1.00  0.00     0.053 C 
BRANCH  13  14
ATOM     14  C   UNL     1      -0.737  20.538  25.331  1.00  0.00     0.041 C 
ATOM     15  O   UNL     1      -1.802  20.429  24.669  1.00  0.00    -0.550 OA
ATOM     16  O   UNL     1      -0.673  21.440  26.387  1.00  0.00    -0.550 OA
ENDBRANCH  13  14
ENDBRANCH  12  13
ENDBRANCH  11  12
ENDBRANCH  10  11
ENDBRANCH   9  10
ENDBRANCH   8   9
ENDBRANCH   7   8
ENDBRANCH   6   7
ENDBRANCH   5   6
ENDBRANCH   4   5
ENDBRANCH   3   4
ENDBRANCH   2   3
ENDBRANCH   1   2
BRANCH   1  17
ATOM     17  C   UNL     1      -2.107  13.042  27.060  1.00  0.00     0.000 C 
BRANCH  17  18
ATOM     18  C   UNL     1      -2.944  11.789  26.750  1.00  0.00     0.000 C 
BRANCH  18  19
ATOM     19  C   UNL     1      -3.029  11.487  25.244  1.00  0.00     0.000 C 
BRANCH  19  20
ATOM     20  C   UNL     1      -4.337  10.778  24.849  1.00  0.00     0.000 C 
BRANCH  20  21
ATOM     21  C   UNL     1      -4.859  11.099  23.434  1.00  0.00     0.000 C 
BRANCH  21  22
ATOM     22  C   UNL     1      -3.958  12.032  22.600  1.00  0.00    -0.000 C 
BRANCH  22  23
ATOM     23  C   UNL     1      -3.222  11.350  21.433  1.00  0.00    -0.000 C 
BRANCH  23  24
ATOM     24  C   UNL     1      -3.652   9.899  21.148  1.00  0.00    -0.000 C 
BRANCH  24  25
ATOM     25  C   UNL     1      -2.472   8.914  20.999  1.00  0.00    -0.000 C 
BRANCH  25  26
ATOM     26  C   UNL     1      -2.098   8.227  22.324  1.00  0.00    -0.000 C 
BRANCH  26  27
ATOM     27  C   UNL     1      -0.908   8.920  23.022  1.00  0.00    -0.000 C 
BRANCH  27  28
ATOM     28  C   UNL     1      -0.998   8.900  24.557  1.00  0.00    -0.000 C 
BRANCH  28  29
ATOM     29  C   UNL     1       0.127   9.696  25.231  1.00  0.00    -0.003 C 
ATOM     30  C   UNL     1       1.433   9.574  24.449  1.00  0.00     0.004 C 
ENDBRANCH  28  29
ENDBRANCH  27  28
ENDBRANCH  26  27
ENDBRANCH  25  26
ENDBRANCH  24  25
ENDBRANCH  23  24
ENDBRANCH  22  23
ENDBRANCH  21  22
ENDBRANCH  20  21
ENDBRANCH  19  20
ENDBRANCH  18  19
ENDBRANCH  17  18
ENDBRANCH   1  17
TORSDOF 26
ENDMDL
