MODEL 1
REMARK VINA RESULT:    -5.649      0.000      0.000
REMARK INTER + INTRA:          -9.433
REMARK INTER:                  -7.795
REMARK INTRA:                  -1.638
REMARK UNBOUND:                -1.638
REMARK SMILES CC[C@H](CC[C@H](C)[C@@H]1CC[C@@H]2[C@H]3CC=C4C[C@@H](O)CC[C@@]4(C)[C@H]3CC[C@]21C)C(C)C
REMARK SMILES IDX 5 1 4 2 3 3 2 4 1 5 28 6 29 7 30 8 6 9 7 10 8 11 9 12 26 13
REMARK SMILES IDX 10 14 11 15 25 16 27 17 12 18 24 19 23 20 13 21 21 22 14 23
REMARK SMILES IDX 15 24 20 25 22 26 16 27 19 28 17 29 18 30
REMARK H PARENT 18 31
REMARK Flexibility Score: inf
ROOT
ATOM      1  C   UNL     1      13.040   5.927  24.309  1.00  0.00     0.004 C 
ENDROOT
BRANCH   1   2
ATOM      2  C   UNL     1      13.888   6.359  23.093  1.00  0.00     0.004 C 
BRANCH   2   3
ATOM      3  C   UNL     1      13.410   5.724  21.745  1.00  0.00    -0.009 C 
BRANCH   3   4
ATOM      4  C   UNL     1      12.593   4.430  22.032  1.00  0.00     0.000 C 
ATOM      5  C   UNL     1      13.383   3.145  21.763  1.00  0.00     0.004 C 
ENDBRANCH   3   4
BRANCH   3   6
ATOM      6  C   UNL     1      12.588   6.753  20.887  1.00  0.00    -0.014 C 
ATOM      7  C   UNL     1      11.071   6.616  21.122  1.00  0.00     0.007 C 
ATOM      8  C   UNL     1      12.984   8.215  21.173  1.00  0.00     0.007 C 
ENDBRANCH   3   6
ENDBRANCH   2   3
ENDBRANCH   1   2
BRANCH   1   9
ATOM      9  C   UNL     1      11.960   6.973  24.722  1.00  0.00    -0.011 C 
ATOM     10  C   UNL     1      12.640   8.344  24.908  1.00  0.00     0.008 C 
BRANCH   9  11
ATOM     11  C   UNL     1      11.205   6.516  26.016  1.00  0.00    -0.002 C 
ATOM     12  C   UNL     1      11.931   5.356  26.750  1.00  0.00     0.005 C 
ATOM     13  C   UNL     1       9.739   5.997  25.873  1.00  0.00    -0.026 C 
ATOM     14  C   UNL     1      10.855   4.504  27.435  1.00  0.00     0.005 C 
ATOM     15  C   UNL     1       9.565   5.291  27.229  1.00  0.00    -0.001 C 
ATOM     16  C   UNL     1       8.658   7.115  25.756  1.00  0.00     0.007 C 
ATOM     17  C   UNL     1       9.623   4.998  24.675  1.00  0.00     0.012 C 
ATOM     18  C   UNL     1       8.219   4.523  27.366  1.00  0.00     0.000 C 
ATOM     19  C   UNL     1       7.405   6.878  26.641  1.00  0.00     0.005 C 
ATOM     20  C   UNL     1       7.012   5.371  26.771  1.00  0.00     0.003 C 
ATOM     21  C   UNL     1       8.020   4.068  28.844  1.00  0.00     0.031 C 
ATOM     22  C   UNL     1       5.659   5.147  27.550  1.00  0.00    -0.008 C 
ATOM     23  C   UNL     1       7.048   4.920  29.606  1.00  0.00    -0.027 C 
ATOM     24  C   UNL     1       5.922   5.400  29.045  1.00  0.00    -0.065 C 
ATOM     25  C   UNL     1       4.501   6.038  26.962  1.00  0.00     0.014 C 
ATOM     26  C   UNL     1       5.190   3.677  27.356  1.00  0.00     0.016 C 
ATOM     27  C   UNL     1       5.070   6.315  29.908  1.00  0.00     0.063 C 
ATOM     28  C   UNL     1       4.177   7.285  27.786  1.00  0.00     0.033 C 
ATOM     29  C   UNL     1       3.826   6.862  29.209  1.00  0.00     0.118 C 
BRANCH  29  30
ATOM     30  O   UNL     1       3.332   7.958  29.935  1.00  0.00    -0.393 OA
ATOM     31  H   UNL     1       2.842   8.531  29.290  1.00  0.00     0.210 HD
ENDBRANCH  29  30
ENDBRANCH   9  11
ENDBRANCH   1   9
TORSDOF 7
ENDMDL
MODEL 2
REMARK VINA RESULT:    -5.566     11.774     15.621
REMARK INTER + INTRA:          -9.319
REMARK INTER:                  -7.909
REMARK INTRA:                  -1.410
REMARK UNBOUND:                -1.638
REMARK SMILES CC[C@H](CC[C@H](C)[C@@H]1CC[C@@H]2[C@H]3CC=C4C[C@@H](O)CC[C@@]4(C)[C@H]3CC[C@]21C)C(C)C
REMARK SMILES IDX 5 1 4 2 3 3 2 4 1 5 28 6 29 7 30 8 6 9 7 10 8 11 9 12 26 13
REMARK SMILES IDX 10 14 11 15 25 16 27 17 12 18 24 19 23 20 13 21 21 22 14 23
REMARK SMILES IDX 15 24 20 25 22 26 16 27 19 28 17 29 18 30
REMARK H PARENT 18 31
REMARK Flexibility Score: inf
ROOT
ATOM      1  C   UNL     1      13.239   5.070  37.673  1.00  0.00     0.004 C 
ENDROOT
BRANCH   1   2
ATOM      2  C   UNL     1      13.367   4.684  39.163  1.00  0.00     0.004 C 
BRANCH   2   3
ATOM      3  C   UNL     1      12.136   5.121  40.025  1.00  0.00    -0.009 C 
BRANCH   3   4
ATOM      4  C   UNL     1      11.597   3.901  40.829  1.00  0.00     0.000 C 
ATOM      5  C   UNL     1      11.931   2.554  40.178  1.00  0.00     0.004 C 
ENDBRANCH   3   4
BRANCH   3   6
ATOM      6  C   UNL     1      12.496   6.326  40.969  1.00  0.00    -0.014 C 
ATOM      7  C   UNL     1      14.002   6.653  40.935  1.00  0.00     0.007 C 
ATOM      8  C   UNL     1      11.722   7.610  40.611  1.00  0.00     0.007 C 
ENDBRANCH   3   6
ENDBRANCH   2   3
ENDBRANCH   1   2
BRANCH   1   9
ATOM      9  C   UNL     1      13.993   6.382  37.301  1.00  0.00    -0.011 C 
ATOM     10  C   UNL     1      12.960   7.504  37.073  1.00  0.00     0.008 C 
BRANCH   9  11
ATOM     11  C   UNL     1      14.905   6.166  36.045  1.00  0.00    -0.002 C 
ATOM     12  C   UNL     1      14.588   4.841  35.300  1.00  0.00     0.005 C 
ATOM     13  C   UNL     1      16.451   6.105  36.256  1.00  0.00    -0.026 C 
ATOM     14  C   UNL     1      15.896   4.345  34.673  1.00  0.00     0.005 C 
ATOM     15  C   UNL     1      16.885   5.479  34.919  1.00  0.00    -0.001 C 
ATOM     16  C   UNL     1      17.147   7.494  36.399  1.00  0.00     0.007 C 
ATOM     17  C   UNL     1      16.805   5.189  37.473  1.00  0.00     0.012 C 
ATOM     18  C   UNL     1      18.402   5.144  34.848  1.00  0.00     0.000 C 
ATOM     19  C   UNL     1      18.451   7.637  35.569  1.00  0.00     0.005 C 
ATOM     20  C   UNL     1      19.278   6.313  35.478  1.00  0.00     0.003 C 
ATOM     21  C   UNL     1      18.791   4.764  33.387  1.00  0.00     0.031 C 
ATOM     22  C   UNL     1      20.669   6.498  34.758  1.00  0.00    -0.008 C 
ATOM     23  C   UNL     1      19.500   5.863  32.652  1.00  0.00    -0.027 C 
ATOM     24  C   UNL     1      20.407   6.658  33.251  1.00  0.00    -0.065 C 
ATOM     25  C   UNL     1      21.484   7.694  35.379  1.00  0.00     0.014 C 
ATOM     26  C   UNL     1      21.543   5.233  34.994  1.00  0.00     0.016 C 
ATOM     27  C   UNL     1      20.987   7.781  32.408  1.00  0.00     0.063 C 
ATOM     28  C   UNL     1      21.461   8.979  34.550  1.00  0.00     0.033 C 
ATOM     29  C   UNL     1      21.982   8.674  33.148  1.00  0.00     0.118 C 
BRANCH  29  30
ATOM     30  O   UNL     1      22.161   9.865  32.426  1.00  0.00    -0.393 OA
ATOM     31  H   UNL     1      22.248   9.611  31.471  1.00  0.00     0.210 HD
ENDBRANCH  29  30
ENDBRANCH   9  11
ENDBRANCH   1   9
TORSDOF 7
ENDMDL
MODEL 3
REMARK VINA RESULT:    -5.438      0.598      1.771
REMARK INTER + INTRA:          -9.142
REMARK INTER:                  -7.335
REMARK INTRA:                  -1.808
REMARK UNBOUND:                -1.638
REMARK SMILES CC[C@H](CC[C@H](C)[C@@H]1CC[C@@H]2[C@H]3CC=C4C[C@@H](O)CC[C@@]4(C)[C@H]3CC[C@]21C)C(C)C
REMARK SMILES IDX 5 1 4 2 3 3 2 4 1 5 28 6 29 7 30 8 6 9 7 10 8 11 9 12 26 13
REMARK SMILES IDX 10 14 11 15 25 16 27 17 12 18 24 19 23 20 13 21 21 22 14 23
REMARK SMILES IDX 15 24 20 25 22 26 16 27 19 28 17 29 18 30
REMARK H PARENT 18 31
REMARK Flexibility Score: inf
ROOT
ATOM      1  C   UNL     1      13.568   6.084  24.596  1.00  0.00     0.004 C 
ENDROOT
BRANCH   1   2
ATOM      2  C   UNL     1      13.913   5.753  23.128  1.00  0.00     0.004 C 
BRANCH   2   3
ATOM      3  C   UNL     1      12.712   5.146  22.330  1.00  0.00    -0.009 C 
BRANCH   3   4
ATOM      4  C   UNL     1      12.463   5.978  21.037  1.00  0.00     0.000 C 
ATOM      5  C   UNL     1      11.177   6.810  21.094  1.00  0.00     0.004 C 
ENDBRANCH   3   4
BRANCH   3   6
ATOM      6  C   UNL     1      12.948   3.626  22.006  1.00  0.00    -0.014 C 
ATOM      7  C   UNL     1      14.434   3.321  21.730  1.00  0.00     0.007 C 
ATOM      8  C   UNL     1      12.475   2.697  23.142  1.00  0.00     0.007 C 
ENDBRANCH   3   6
ENDBRANCH   2   3
ENDBRANCH   1   2
BRANCH   1   9
ATOM      9  C   UNL     1      12.264   6.923  24.758  1.00  0.00    -0.011 C 
ATOM     10  C   UNL     1      12.636   8.418  24.810  1.00  0.00     0.008 C 
BRANCH   9  11
ATOM     11  C   UNL     1      11.467   6.477  26.030  1.00  0.00    -0.002 C 
ATOM     12  C   UNL     1      12.180   5.339  26.811  1.00  0.00     0.005 C 
ATOM     13  C   UNL     1      10.015   5.933  25.840  1.00  0.00    -0.026 C 
ATOM     14  C   UNL     1      11.091   4.484  27.469  1.00  0.00     0.005 C 
ATOM     15  C   UNL     1       9.799   5.247  27.200  1.00  0.00    -0.001 C 
ATOM     16  C   UNL     1       8.923   7.033  25.663  1.00  0.00     0.007 C 
ATOM     17  C   UNL     1       9.959   4.913  24.656  1.00  0.00     0.012 C 
ATOM     18  C   UNL     1       8.460   4.461  27.299  1.00  0.00     0.000 C 
ATOM     19  C   UNL     1       7.640   6.792  26.504  1.00  0.00     0.005 C 
ATOM     20  C   UNL     1       7.265   5.281  26.644  1.00  0.00     0.003 C 
ATOM     21  C   UNL     1       8.210   4.029  28.776  1.00  0.00     0.031 C 
ATOM     22  C   UNL     1       5.886   5.050  27.375  1.00  0.00    -0.008 C 
ATOM     23  C   UNL     1       7.198   4.878  29.485  1.00  0.00    -0.027 C 
ATOM     24  C   UNL     1       6.088   5.332  28.874  1.00  0.00    -0.065 C 
ATOM     25  C   UNL     1       4.739   5.914  26.727  1.00  0.00     0.014 C 
ATOM     26  C   UNL     1       5.446   3.570  27.189  1.00  0.00     0.016 C 
ATOM     27  C   UNL     1       5.190   6.248  29.688  1.00  0.00     0.063 C 
ATOM     28  C   UNL     1       4.365   7.170  27.517  1.00  0.00     0.033 C 
ATOM     29  C   UNL     1       3.966   6.765  28.933  1.00  0.00     0.118 C 
BRANCH  29  30
ATOM     30  O   UNL     1       3.429   7.865  29.621  1.00  0.00    -0.393 OA
ATOM     31  H   UNL     1       3.796   7.834  30.542  1.00  0.00     0.210 HD
ENDBRANCH  29  30
ENDBRANCH   9  11
ENDBRANCH   1   9
TORSDOF 7
ENDMDL
MODEL 4
REMARK VINA RESULT:    -5.383     10.979     13.044
REMARK INTER + INTRA:          -9.067
REMARK INTER:                  -7.180
REMARK INTRA:                  -1.888
REMARK UNBOUND:                -1.638
REMARK SMILES CC[C@H](CC[C@H](C)[C@@H]1CC[C@@H]2[C@H]3CC=C4C[C@@H](O)CC[C@@]4(C)[C@H]3CC[C@]21C)C(C)C
REMARK SMILES IDX 5 1 4 2 3 3 2 4 1 5 28 6 29 7 30 8 6 9 7 10 8 11 9 12 26 13
REMARK SMILES IDX 10 14 11 15 25 16 27 17 12 18 24 19 23 20 13 21 21 22 14 23
REMARK SMILES IDX 15 24 20 25 22 26 16 27 19 28 17 29 18 30
REMARK H PARENT 18 31
REMARK Flexibility Score: inf
ROOT
ATOM      1  C   UNL     1      19.094   3.611  35.700  1.00  0.00     0.004 C 
ENDROOT
BRANCH   1   2
ATOM      2  C   UNL     1      20.263   4.420  35.097  1.00  0.00     0.004 C 
BRANCH   2   3
ATOM      3  C   UNL     1      20.045   5.969  35.163  1.00  0.00    -0.009 C 
BRANCH   3   4
ATOM      4  C   UNL     1      21.423   6.694  35.191  1.00  0.00     0.000 C 
ATOM      5  C   UNL     1      22.551   5.871  34.558  1.00  0.00     0.004 C 
ENDBRANCH   3   4
BRANCH   3   6
ATOM      6  C   UNL     1      19.146   6.472  33.976  1.00  0.00    -0.014 C 
ATOM      7  C   UNL     1      19.406   7.956  33.647  1.00  0.00     0.007 C 
ATOM      8  C   UNL     1      19.355   5.655  32.685  1.00  0.00     0.007 C 
ENDBRANCH   3   6
ENDBRANCH   2   3
ENDBRANCH   1   2
BRANCH   1   9
ATOM      9  C   UNL     1      18.359   4.346  36.861  1.00  0.00    -0.011 C 
ATOM     10  C   UNL     1      18.674   3.623  38.187  1.00  0.00     0.008 C 
BRANCH   9  11
ATOM     11  C   UNL     1      16.818   4.420  36.590  1.00  0.00    -0.002 C 
ATOM     12  C   UNL     1      16.474   4.306  35.079  1.00  0.00     0.005 C 
ATOM     13  C   UNL     1      16.048   5.700  37.044  1.00  0.00    -0.026 C 
ATOM     14  C   UNL     1      15.202   5.127  34.838  1.00  0.00     0.005 C 
ATOM     15  C   UNL     1      14.750   5.541  36.234  1.00  0.00    -0.001 C 
ATOM     16  C   UNL     1      15.683   5.740  38.559  1.00  0.00     0.007 C 
ATOM     17  C   UNL     1      16.835   6.989  36.638  1.00  0.00     0.012 C 
ATOM     18  C   UNL     1      13.785   6.755  36.352  1.00  0.00     0.000 C 
ATOM     19  C   UNL     1      14.226   6.194  38.847  1.00  0.00     0.005 C 
ATOM     20  C   UNL     1      13.705   7.280  37.851  1.00  0.00     0.003 C 
ATOM     21  C   UNL     1      12.405   6.396  35.722  1.00  0.00     0.031 C 
ATOM     22  C   UNL     1      12.282   7.842  38.233  1.00  0.00    -0.008 C 
ATOM     23  C   UNL     1      11.347   6.082  36.737  1.00  0.00    -0.027 C 
ATOM     24  C   UNL     1      11.238   6.763  37.894  1.00  0.00    -0.065 C 
ATOM     25  C   UNL     1      12.230   8.307  39.737  1.00  0.00     0.014 C 
ATOM     26  C   UNL     1      11.988   9.117  37.393  1.00  0.00     0.016 C 
ATOM     27  C   UNL     1      10.172   6.286  38.865  1.00  0.00     0.063 C 
ATOM     28  C   UNL     1      11.534   7.327  40.683  1.00  0.00     0.033 C 
ATOM     29  C   UNL     1      10.119   7.069  40.176  1.00  0.00     0.118 C 
BRANCH  29  30
ATOM     30  O   UNL     1       9.389   6.333  41.125  1.00  0.00    -0.393 OA
ATOM     31  H   UNL     1       8.972   5.575  40.640  1.00  0.00     0.210 HD
ENDBRANCH  29  30
ENDBRANCH   9  11
ENDBRANCH   1   9
TORSDOF 7
ENDMDL
MODEL 5
REMARK VINA RESULT:    -5.286     10.348     14.177
REMARK INTER + INTRA:          -8.933
REMARK INTER:                  -7.180
REMARK INTRA:                  -1.752
REMARK UNBOUND:                -1.638
REMARK SMILES CC[C@H](CC[C@H](C)[C@@H]1CC[C@@H]2[C@H]3CC=C4C[C@@H](O)CC[C@@]4(C)[C@H]3CC[C@]21C)C(C)C
REMARK SMILES IDX 5 1 4 2 3 3 2 4 1 5 28 6 29 7 30 8 6 9 7 10 8 11 9 12 26 13
REMARK SMILES IDX 10 14 11 15 25 16 27 17 12 18 24 19 23 20 13 21 21 22 14 23
REMARK SMILES IDX 15 24 20 25 22 26 16 27 19 28 17 29 18 30
REMARK H PARENT 18 31
REMARK Flexibility Score: inf
ROOT
ATOM      1  C   UNL     1      12.478   4.964  37.036  1.00  0.00     0.004 C 
ENDROOT
BRANCH   1   2
ATOM      2  C   UNL     1      11.352   5.906  36.558  1.00  0.00     0.004 C 
BRANCH   2   3
ATOM      3  C   UNL     1      10.886   5.622  35.091  1.00  0.00    -0.009 C 
BRANCH   3   4
ATOM      4  C   UNL     1      11.721   6.483  34.097  1.00  0.00     0.000 C 
ATOM      5  C   UNL     1      11.221   7.927  33.982  1.00  0.00     0.004 C 
ENDBRANCH   3   4
BRANCH   3   6
ATOM      6  C   UNL     1      10.972   4.091  34.748  1.00  0.00    -0.014 C 
ATOM      7  C   UNL     1       9.619   3.380  34.947  1.00  0.00     0.007 C 
ATOM      8  C   UNL     1      11.437   3.832  33.301  1.00  0.00     0.007 C 
ENDBRANCH   3   6
ENDBRANCH   2   3
ENDBRANCH   1   2
BRANCH   1   9
ATOM      9  C   UNL     1      13.831   5.691  37.300  1.00  0.00    -0.011 C 
ATOM     10  C   UNL     1      13.542   7.150  37.708  1.00  0.00     0.008 C 
BRANCH   9  11
ATOM     11  C   UNL     1      14.763   5.612  36.043  1.00  0.00    -0.002 C 
ATOM     12  C   UNL     1      14.564   4.300  35.236  1.00  0.00     0.005 C 
ATOM     13  C   UNL     1      16.308   5.673  36.263  1.00  0.00    -0.026 C 
ATOM     14  C   UNL     1      15.913   3.947  34.598  1.00  0.00     0.005 C 
ATOM     15  C   UNL     1      16.800   5.149  34.903  1.00  0.00    -0.001 C 
ATOM     16  C   UNL     1      16.882   7.108  36.475  1.00  0.00     0.007 C 
ATOM     17  C   UNL     1      16.735   4.736  37.440  1.00  0.00     0.012 C 
ATOM     18  C   UNL     1      18.340   4.948  34.830  1.00  0.00     0.000 C 
ATOM     19  C   UNL     1      18.173   7.400  35.663  1.00  0.00     0.005 C 
ATOM     20  C   UNL     1      19.110   6.157  35.519  1.00  0.00     0.003 C 
ATOM     21  C   UNL     1      18.767   4.671  33.356  1.00  0.00     0.031 C 
ATOM     22  C   UNL     1      20.483   6.493  34.820  1.00  0.00    -0.008 C 
ATOM     23  C   UNL     1      19.381   5.859  32.677  1.00  0.00    -0.027 C 
ATOM     24  C   UNL     1      20.215   6.700  33.319  1.00  0.00    -0.065 C 
ATOM     25  C   UNL     1      21.190   7.725  35.501  1.00  0.00     0.014 C 
ATOM     26  C   UNL     1      21.461   5.298  35.004  1.00  0.00     0.016 C 
ATOM     27  C   UNL     1      20.701   7.906  32.534  1.00  0.00     0.063 C 
ATOM     28  C   UNL     1      21.060   9.040  34.731  1.00  0.00     0.033 C 
ATOM     29  C   UNL     1      21.612   8.846  33.322  1.00  0.00     0.118 C 
BRANCH  29  30
ATOM     30  O   UNL     1      21.691  10.080  32.656  1.00  0.00    -0.393 OA
ATOM     31  H   UNL     1      22.594  10.447  32.840  1.00  0.00     0.210 HD
ENDBRANCH  29  30
ENDBRANCH   9  11
ENDBRANCH   1   9
TORSDOF 7
ENDMDL
MODEL 6
REMARK VINA RESULT:    -5.208      1.400      2.539
REMARK INTER + INTRA:          -8.826
REMARK INTER:                  -7.185
REMARK INTRA:                  -1.640
REMARK UNBOUND:                -1.638
REMARK SMILES CC[C@H](CC[C@H](C)[C@@H]1CC[C@@H]2[C@H]3CC=C4C[C@@H](O)CC[C@@]4(C)[C@H]3CC[C@]21C)C(C)C
REMARK SMILES IDX 5 1 4 2 3 3 2 4 1 5 28 6 29 7 30 8 6 9 7 10 8 11 9 12 26 13
REMARK SMILES IDX 10 14 11 15 25 16 27 17 12 18 24 19 23 20 13 21 21 22 14 23
REMARK SMILES IDX 15 24 20 25 22 26 16 27 19 28 17 29 18 30
REMARK H PARENT 18 31
REMARK Flexibility Score: inf
ROOT
ATOM      1  C   UNL     1      12.623   5.069  25.717  1.00  0.00     0.004 C 
ENDROOT
BRANCH   1   2
ATOM      2  C   UNL     1      13.323   4.476  24.474  1.00  0.00     0.004 C 
BRANCH   2   3
ATOM      3  C   UNL     1      12.337   3.769  23.485  1.00  0.00    -0.009 C 
BRANCH   3   4
ATOM      4  C   UNL     1      12.774   4.049  22.016  1.00  0.00     0.000 C 
ATOM      5  C   UNL     1      13.002   5.536  21.728  1.00  0.00     0.004 C 
ENDBRANCH   3   4
BRANCH   3   6
ATOM      6  C   UNL     1      12.237   2.228  23.779  1.00  0.00    -0.014 C 
ATOM      7  C   UNL     1      10.832   1.826  24.268  1.00  0.00     0.007 C 
ATOM      8  C   UNL     1      12.577   1.366  22.546  1.00  0.00     0.007 C 
ENDBRANCH   3   6
ENDBRANCH   2   3
ENDBRANCH   1   2
BRANCH   1   9
ATOM      9  C   UNL     1      11.246   5.729  25.403  1.00  0.00    -0.011 C 
ATOM     10  C   UNL     1      11.482   7.186  24.955  1.00  0.00     0.008 C 
BRANCH   9  11
ATOM     11  C   UNL     1      10.292   5.647  26.642  1.00  0.00    -0.002 C 
ATOM     12  C   UNL     1      10.503   4.352  27.472  1.00  0.00     0.005 C 
ATOM     13  C   UNL     1       8.750   5.672  26.391  1.00  0.00    -0.026 C 
ATOM     14  C   UNL     1       9.150   3.979  28.089  1.00  0.00     0.005 C 
ATOM     15  C   UNL     1       8.244   5.156  27.749  1.00  0.00    -0.001 C 
ATOM     16  C   UNL     1       8.150   7.091  26.147  1.00  0.00     0.007 C 
ATOM     17  C   UNL     1       8.368   4.708  25.220  1.00  0.00     0.012 C 
ATOM     18  C   UNL     1       6.706   4.923  27.796  1.00  0.00     0.000 C 
ATOM     19  C   UNL     1       6.838   7.366  26.930  1.00  0.00     0.005 C 
ATOM     20  C   UNL     1       5.925   6.105  27.074  1.00  0.00     0.003 C 
ATOM     21  C   UNL     1       6.257   4.658  29.265  1.00  0.00     0.031 C 
ATOM     22  C   UNL     1       4.531   6.421  27.741  1.00  0.00    -0.008 C 
ATOM     23  C   UNL     1       5.604   5.842  29.914  1.00  0.00    -0.027 C 
ATOM     24  C   UNL     1       4.765   6.655  29.244  1.00  0.00    -0.065 C 
ATOM     25  C   UNL     1       3.811   7.627  27.028  1.00  0.00     0.014 C 
ATOM     26  C   UNL     1       3.583   5.203  27.556  1.00  0.00     0.016 C 
ATOM     27  C   UNL     1       4.239   7.862  30.002  1.00  0.00     0.063 C 
ATOM     28  C   UNL     1       3.898   8.956  27.781  1.00  0.00     0.033 C 
ATOM     29  C   UNL     1       3.323   8.770  29.182  1.00  0.00     0.118 C 
BRANCH  29  30
ATOM     30  O   UNL     1       3.204  10.012  29.829  1.00  0.00    -0.393 OA
ATOM     31  H   UNL     1       3.901  10.034  30.535  1.00  0.00     0.210 HD
ENDBRANCH  29  30
ENDBRANCH   9  11
ENDBRANCH   1   9
TORSDOF 7
ENDMDL
MODEL 7
REMARK VINA RESULT:    -5.207     15.104     17.338
REMARK INTER + INTRA:          -8.823
REMARK INTER:                  -7.011
REMARK INTRA:                  -1.812
REMARK UNBOUND:                -1.638
REMARK SMILES CC[C@H](CC[C@H](C)[C@@H]1CC[C@@H]2[C@H]3CC=C4C[C@@H](O)CC[C@@]4(C)[C@H]3CC[C@]21C)C(C)C
REMARK SMILES IDX 5 1 4 2 3 3 2 4 1 5 28 6 29 7 30 8 6 9 7 10 8 11 9 12 26 13
REMARK SMILES IDX 10 14 11 15 25 16 27 17 12 18 24 19 23 20 13 21 21 22 14 23
REMARK SMILES IDX 15 24 20 25 22 26 16 27 19 28 17 29 18 30
REMARK H PARENT 18 31
REMARK Flexibility Score: inf
ROOT
ATOM      1  C   UNL     1      15.747  -3.147  40.426  1.00  0.00     0.004 C 
ENDROOT
BRANCH   1   2
ATOM      2  C   UNL     1      17.244  -3.513  40.326  1.00  0.00     0.004 C 
BRANCH   2   3
ATOM      3  C   UNL     1      18.012  -2.692  39.238  1.00  0.00    -0.009 C 
BRANCH   3   4
ATOM      4  C   UNL     1      18.075  -3.504  37.911  1.00  0.00     0.000 C 
ATOM      5  C   UNL     1      17.945  -5.016  38.123  1.00  0.00     0.004 C 
ENDBRANCH   3   4
BRANCH   3   6
ATOM      6  C   UNL     1      17.363  -1.276  39.023  1.00  0.00    -0.014 C 
ATOM      7  C   UNL     1      18.240  -0.148  39.600  1.00  0.00     0.007 C 
ATOM      8  C   UNL     1      17.103  -0.963  37.536  1.00  0.00     0.007 C 
ENDBRANCH   3   6
ENDBRANCH   2   3
ENDBRANCH   1   2
BRANCH   1   9
ATOM      9  C   UNL     1      14.805  -4.386  40.508  1.00  0.00    -0.011 C 
ATOM     10  C   UNL     1      15.635  -5.617  40.924  1.00  0.00     0.008 C 
BRANCH   9  11
ATOM     11  C   UNL     1      14.064  -4.616  39.147  1.00  0.00    -0.002 C 
ATOM     12  C   UNL     1      14.401  -3.524  38.094  1.00  0.00     0.005 C 
ATOM     13  C   UNL     1      12.503  -4.649  39.151  1.00  0.00    -0.026 C 
ATOM     14  C   UNL     1      13.164  -3.351  37.205  1.00  0.00     0.005 C 
ATOM     15  C   UNL     1      12.221  -4.462  37.650  1.00  0.00    -0.001 C 
ATOM     16  C   UNL     1      11.879  -6.004  39.605  1.00  0.00     0.007 C 
ATOM     17  C   UNL     1      11.929  -3.470  40.004  1.00  0.00     0.012 C 
ATOM     18  C   UNL     1      10.711  -4.309  37.311  1.00  0.00     0.000 C 
ATOM     19  C   UNL     1      10.713  -6.497  38.707  1.00  0.00     0.005 C 
ATOM     20  C   UNL     1       9.829  -5.337  38.145  1.00  0.00     0.003 C 
ATOM     21  C   UNL     1      10.506  -4.389  35.768  1.00  0.00     0.031 C 
ATOM     22  C   UNL     1       8.564  -5.848  37.353  1.00  0.00    -0.008 C 
ATOM     23  C   UNL     1       9.973  -5.712  35.303  1.00  0.00    -0.027 C 
ATOM     24  C   UNL     1       9.041  -6.393  35.995  1.00  0.00    -0.065 C 
ATOM     25  C   UNL     1       7.744  -6.899  38.193  1.00  0.00     0.014 C 
ATOM     26  C   UNL     1       7.592  -4.659  37.112  1.00  0.00     0.016 C 
ATOM     27  C   UNL     1       8.652  -7.757  35.450  1.00  0.00     0.063 C 
ATOM     28  C   UNL     1       7.960  -8.354  37.776  1.00  0.00     0.033 C 
ATOM     29  C   UNL     1       7.620  -8.502  36.296  1.00  0.00     0.118 C 
BRANCH  29  30
ATOM     30  O   UNL     1       7.615  -9.858  35.930  1.00  0.00    -0.393 OA
ATOM     31  H   UNL     1       6.778 -10.249  36.292  1.00  0.00     0.210 HD
ENDBRANCH  29  30
ENDBRANCH   9  11
ENDBRANCH   1   9
TORSDOF 7
ENDMDL
MODEL 8
REMARK VINA RESULT:    -5.199      2.063      3.578
REMARK INTER + INTRA:          -8.813
REMARK INTER:                  -7.124
REMARK INTRA:                  -1.690
REMARK UNBOUND:                -1.638
REMARK SMILES CC[C@H](CC[C@H](C)[C@@H]1CC[C@@H]2[C@H]3CC=C4C[C@@H](O)CC[C@@]4(C)[C@H]3CC[C@]21C)C(C)C
REMARK SMILES IDX 5 1 4 2 3 3 2 4 1 5 28 6 29 7 30 8 6 9 7 10 8 11 9 12 26 13
REMARK SMILES IDX 10 14 11 15 25 16 27 17 12 18 24 19 23 20 13 21 21 22 14 23
REMARK SMILES IDX 15 24 20 25 22 26 16 27 19 28 17 29 18 30
REMARK H PARENT 18 31
REMARK Flexibility Score: inf
ROOT
ATOM      1  C   UNL     1      12.279   4.720  25.144  1.00  0.00     0.004 C 
ENDROOT
BRANCH   1   2
ATOM      2  C   UNL     1      13.482   5.437  25.794  1.00  0.00     0.004 C 
BRANCH   2   3
ATOM      3  C   UNL     1      14.103   4.646  26.993  1.00  0.00    -0.009 C 
BRANCH   3   4
ATOM      4  C   UNL     1      15.631   4.453  26.762  1.00  0.00     0.000 C 
ATOM      5  C   UNL     1      16.494   5.131  27.832  1.00  0.00     0.004 C 
ENDBRANCH   3   4
BRANCH   3   6
ATOM      6  C   UNL     1      13.807   5.357  28.363  1.00  0.00    -0.014 C 
ATOM      7  C   UNL     1      13.041   6.680  28.171  1.00  0.00     0.007 C 
ATOM      8  C   UNL     1      12.993   4.471  29.327  1.00  0.00     0.007 C 
ENDBRANCH   3   6
ENDBRANCH   2   3
ENDBRANCH   1   2
BRANCH   1   9
ATOM      9  C   UNL     1      11.013   5.619  25.013  1.00  0.00    -0.011 C 
ATOM     10  C   UNL     1      11.457   7.069  24.735  1.00  0.00     0.008 C 
BRANCH   9  11
ATOM     11  C   UNL     1      10.120   5.519  26.296  1.00  0.00    -0.002 C 
ATOM     12  C   UNL     1      10.283   4.159  27.029  1.00  0.00     0.005 C 
ATOM     13  C   UNL     1       8.574   5.663  26.135  1.00  0.00    -0.026 C 
ATOM     14  C   UNL     1       8.941   3.837  27.697  1.00  0.00     0.005 C 
ATOM     15  C   UNL     1       8.103   5.093  27.484  1.00  0.00    -0.001 C 
ATOM     16  C   UNL     1       8.063   7.132  26.016  1.00  0.00     0.007 C 
ATOM     17  C   UNL     1       8.063   4.808  24.929  1.00  0.00     0.012 C 
ATOM     18  C   UNL     1       6.558   4.960  27.603  1.00  0.00     0.000 C 
ATOM     19  C   UNL     1       6.816   7.442  26.887  1.00  0.00     0.005 C 
ATOM     20  C   UNL     1       5.825   6.238  27.002  1.00  0.00     0.003 C 
ATOM     21  C   UNL     1       6.168   4.628  29.075  1.00  0.00     0.031 C 
ATOM     22  C   UNL     1       4.494   6.601  27.766  1.00  0.00    -0.008 C 
ATOM     23  C   UNL     1       5.635   5.807  29.833  1.00  0.00    -0.027 C 
ATOM     24  C   UNL     1       4.821   6.718  29.265  1.00  0.00    -0.065 C 
ATOM     25  C   UNL     1       3.825   7.898  27.173  1.00  0.00     0.014 C 
ATOM     26  C   UNL     1       3.454   5.465  27.557  1.00  0.00     0.016 C 
ATOM     27  C   UNL     1       4.422   7.904  30.126  1.00  0.00     0.063 C 
ATOM     28  C   UNL     1       4.044   9.164  28.002  1.00  0.00     0.033 C 
ATOM     29  C   UNL     1       3.531   8.924  29.419  1.00  0.00     0.118 C 
BRANCH  29  30
ATOM     30  O   UNL     1       3.534  10.125  30.148  1.00  0.00    -0.393 OA
ATOM     31  H   UNL     1       3.699  10.855  29.497  1.00  0.00     0.210 HD
ENDBRANCH  29  30
ENDBRANCH   9  11
ENDBRANCH   1   9
TORSDOF 7
ENDMDL
MODEL 9
REMARK VINA RESULT:    -5.139     11.016     12.865
REMARK INTER + INTRA:          -8.730
REMARK INTER:                  -6.552
REMARK INTRA:                  -2.179
REMARK UNBOUND:                -1.638
REMARK SMILES CC[C@H](CC[C@H](C)[C@@H]1CC[C@@H]2[C@H]3CC=C4C[C@@H](O)CC[C@@]4(C)[C@H]3CC[C@]21C)C(C)C
REMARK SMILES IDX 5 1 4 2 3 3 2 4 1 5 28 6 29 7 30 8 6 9 7 10 8 11 9 12 26 13
REMARK SMILES IDX 10 14 11 15 25 16 27 17 12 18 24 19 23 20 13 21 21 22 14 23
REMARK SMILES IDX 15 24 20 25 22 26 16 27 19 28 17 29 18 30
REMARK H PARENT 18 31
REMARK Flexibility Score: inf
ROOT
ATOM      1  C   UNL     1      22.497   6.304  34.378  1.00  0.00     0.004 C 
ENDROOT
BRANCH   1   2
ATOM      2  C   UNL     1      22.851   6.317  32.875  1.00  0.00     0.004 C 
BRANCH   2   3
ATOM      3  C   UNL     1      21.616   6.571  31.948  1.00  0.00    -0.009 C 
BRANCH   3   4
ATOM      4  C   UNL     1      21.811   7.902  31.163  1.00  0.00     0.000 C 
ATOM      5  C   UNL     1      20.818   8.995  31.573  1.00  0.00     0.004 C 
ENDBRANCH   3   4
BRANCH   3   6
ATOM      6  C   UNL     1      21.365   5.357  30.983  1.00  0.00    -0.014 C 
ATOM      7  C   UNL     1      21.033   4.066  31.756  1.00  0.00     0.007 C 
ATOM      8  C   UNL     1      20.220   5.621  29.984  1.00  0.00     0.007 C 
ENDBRANCH   3   6
ENDBRANCH   2   3
ENDBRANCH   1   2
BRANCH   1   9
ATOM      9  C   UNL     1      21.155   7.023  34.710  1.00  0.00    -0.011 C 
ATOM     10  C   UNL     1      21.463   8.323  35.481  1.00  0.00     0.008 C 
BRANCH   9  11
ATOM     11  C   UNL     1      20.200   6.080  35.518  1.00  0.00    -0.002 C 
ATOM     12  C   UNL     1      20.598   4.584  35.395  1.00  0.00     0.005 C 
ATOM     13  C   UNL     1      18.680   6.084  35.160  1.00  0.00    -0.026 C 
ATOM     14  C   UNL     1      19.309   3.759  35.492  1.00  0.00     0.005 C 
ATOM     15  C   UNL     1      18.234   4.781  35.845  1.00  0.00    -0.001 C 
ATOM     16  C   UNL     1      17.867   7.267  35.772  1.00  0.00     0.007 C 
ATOM     17  C   UNL     1      18.479   6.027  33.610  1.00  0.00     0.012 C 
ATOM     18  C   UNL     1      16.753   4.400  35.562  1.00  0.00     0.000 C 
ATOM     19  C   UNL     1      16.512   6.844  36.401  1.00  0.00     0.005 C 
ATOM     20  C   UNL     1      15.808   5.678  35.634  1.00  0.00     0.003 C 
ATOM     21  C   UNL     1      16.321   3.228  36.495  1.00  0.00     0.031 C 
ATOM     22  C   UNL     1      14.369   5.350  36.189  1.00  0.00    -0.008 C 
ATOM     23  C   UNL     1      15.475   3.666  37.653  1.00  0.00    -0.027 C 
ATOM     24  C   UNL     1      14.531   4.619  37.533  1.00  0.00    -0.065 C 
ATOM     25  C   UNL     1      13.481   6.647  36.290  1.00  0.00     0.014 C 
ATOM     26  C   UNL     1      13.630   4.418  35.187  1.00  0.00     0.016 C 
ATOM     27  C   UNL     1      13.805   5.020  38.805  1.00  0.00     0.063 C 
ATOM     28  C   UNL     1      13.340   7.214  37.703  1.00  0.00     0.033 C 
ATOM     29  C   UNL     1      12.774   6.131  38.617  1.00  0.00     0.118 C 
BRANCH  29  30
ATOM     30  O   UNL     1      12.446   6.675  39.871  1.00  0.00    -0.393 OA
ATOM     31  H   UNL     1      12.832   7.588  39.897  1.00  0.00     0.210 HD
ENDBRANCH  29  30
ENDBRANCH   9  11
ENDBRANCH   1   9
TORSDOF 7
ENDMDL
