MODEL 1
REMARK VINA RESULT:    -2.925      0.000      0.000
REMARK INTER + INTRA:          -6.740
REMARK INTER:                  -4.978
REMARK INTRA:                  -1.762
REMARK UNBOUND:                -1.762
REMARK SMILES CCCCCCCCCCCCCC(=O)[O-]
REMARK SMILES IDX 8 1 9 2 10 3 11 4 12 5 13 6 14 7 15 8 16 9 7 10 6 11 5 12
REMARK SMILES IDX 4 13 3 14 2 15 1 16
REMARK H PARENT
REMARK Flexibility Score: inf
ROOT
ATOM      1  C   UNL     1     147.377 164.686 151.761  1.00  0.00     0.000 C 
ENDROOT
BRANCH   1   2
ATOM      2  C   UNL     1     146.323 163.805 151.070  1.00  0.00     0.000 C 
BRANCH   2   3
ATOM      3  C   UNL     1     146.402 162.332 151.512  1.00  0.00     0.000 C 
BRANCH   3   4
ATOM      4  C   UNL     1     147.555 162.073 152.495  1.00  0.00     0.000 C 
BRANCH   4   5
ATOM      5  C   UNL     1     148.562 161.035 151.968  1.00  0.00     0.006 C 
BRANCH   5   6
ATOM      6  C   UNL     1     149.880 161.059 152.752  1.00  0.00     0.053 C 
BRANCH   6   7
ATOM      7  C   UNL     1     149.982 159.906 153.701  1.00  0.00     0.041 C 
ATOM      8  O   UNL     1     149.312 159.901 154.768  1.00  0.00    -0.550 OA
ATOM      9  O   UNL     1     150.791 158.820 153.392  1.00  0.00    -0.550 OA
ENDBRANCH   6   7
ENDBRANCH   5   6
ENDBRANCH   4   5
ENDBRANCH   3   4
ENDBRANCH   2   3
ENDBRANCH   1   2
BRANCH   1  10
ATOM     10  C   UNL     1     146.752 165.799 152.614  1.00  0.00     0.000 C 
BRANCH  10  11
ATOM     11  C   UNL     1     145.892 165.208 153.742  1.00  0.00    -0.000 C 
BRANCH  11  12
ATOM     12  C   UNL     1     146.231 165.795 155.123  1.00  0.00    -0.000 C 
BRANCH  12  13
ATOM     13  C   UNL     1     147.657 165.495 155.627  1.00  0.00    -0.000 C 
BRANCH  13  14
ATOM     14  C   UNL     1     148.072 164.010 155.573  1.00  0.00    -0.000 C 
BRANCH  14  15
ATOM     15  C   UNL     1     149.577 163.767 155.368  1.00  0.00    -0.003 C 
ATOM     16  C   UNL     1     150.155 164.565 154.199  1.00  0.00     0.004 C 
ENDBRANCH  14  15
ENDBRANCH  13  14
ENDBRANCH  12  13
ENDBRANCH  11  12
ENDBRANCH  10  11
ENDBRANCH   1  10
TORSDOF 12
ENDMDL
MODEL 2
REMARK VINA RESULT:    -2.914      1.444      3.322
REMARK INTER + INTRA:          -6.721
REMARK INTER:                  -4.658
REMARK INTRA:                  -2.064
REMARK UNBOUND:                -1.762
REMARK SMILES CCCCCCCCCCCCCC(=O)[O-]
REMARK SMILES IDX 8 1 9 2 10 3 11 4 12 5 13 6 14 7 15 8 16 9 7 10 6 11 5 12
REMARK SMILES IDX 4 13 3 14 2 15 1 16
REMARK H PARENT
REMARK Flexibility Score: inf
ROOT
ATOM      1  C   UNL     1     147.460 165.676 153.636  1.00  0.00     0.000 C 
ENDROOT
BRANCH   1   2
ATOM      2  C   UNL     1     146.179 165.494 154.468  1.00  0.00     0.000 C 
BRANCH   2   3
ATOM      3  C   UNL     1     145.995 164.047 154.960  1.00  0.00     0.000 C 
BRANCH   3   4
ATOM      4  C   UNL     1     147.268 163.478 155.607  1.00  0.00     0.000 C 
BRANCH   4   5
ATOM      5  C   UNL     1     147.597 162.056 155.119  1.00  0.00     0.006 C 
BRANCH   5   6
ATOM      6  C   UNL     1     149.101 161.757 155.184  1.00  0.00     0.053 C 
BRANCH   6   7
ATOM      7  C   UNL     1     149.405 160.352 154.765  1.00  0.00     0.041 C 
ATOM      8  O   UNL     1     149.669 160.091 153.561  1.00  0.00    -0.550 OA
ATOM      9  O   UNL     1     149.430 159.335 155.711  1.00  0.00    -0.550 OA
ENDBRANCH   6   7
ENDBRANCH   5   6
ENDBRANCH   4   5
ENDBRANCH   3   4
ENDBRANCH   2   3
ENDBRANCH   1   2
BRANCH   1  10
ATOM     10  C   UNL     1     147.173 166.114 152.193  1.00  0.00     0.000 C 
BRANCH  10  11
ATOM     11  C   UNL     1     145.939 165.388 151.635  1.00  0.00    -0.000 C 
BRANCH  11  12
ATOM     12  C   UNL     1     146.304 164.205 150.722  1.00  0.00    -0.000 C 
BRANCH  12  13
ATOM     13  C   UNL     1     146.285 162.823 151.406  1.00  0.00    -0.000 C 
BRANCH  13  14
ATOM     14  C   UNL     1     147.655 162.123 151.507  1.00  0.00    -0.000 C 
BRANCH  14  15
ATOM     15  C   UNL     1     148.835 162.925 150.933  1.00  0.00    -0.003 C 
ATOM     16  C   UNL     1     149.831 163.369 152.004  1.00  0.00     0.004 C 
ENDBRANCH  14  15
ENDBRANCH  13  14
ENDBRANCH  12  13
ENDBRANCH  11  12
ENDBRANCH  10  11
ENDBRANCH   1  10
TORSDOF 12
ENDMDL
MODEL 3
REMARK VINA RESULT:    -2.851      2.543      4.879
REMARK INTER + INTRA:          -6.614
REMARK INTER:                  -4.823
REMARK INTRA:                  -1.790
REMARK UNBOUND:                -1.762
REMARK SMILES CCCCCCCCCCCCCC(=O)[O-]
REMARK SMILES IDX 8 1 9 2 10 3 11 4 12 5 13 6 14 7 15 8 16 9 7 10 6 11 5 12
REMARK SMILES IDX 4 13 3 14 2 15 1 16
REMARK H PARENT
REMARK Flexibility Score: inf
ROOT
ATOM      1  C   UNL     1     146.401 163.579 150.772  1.00  0.00     0.000 C 
ENDROOT
BRANCH   1   2
ATOM      2  C   UNL     1     145.875 164.989 151.087  1.00  0.00     0.000 C 
BRANCH   2   3
ATOM      3  C   UNL     1     146.786 166.097 150.528  1.00  0.00     0.000 C 
BRANCH   3   4
ATOM      4  C   UNL     1     147.736 166.671 151.591  1.00  0.00     0.000 C 
BRANCH   4   5
ATOM      5  C   UNL     1     147.332 166.275 153.023  1.00  0.00     0.006 C 
BRANCH   5   6
ATOM      6  C   UNL     1     148.408 165.425 153.712  1.00  0.00     0.053 C 
BRANCH   6   7
ATOM      7  C   UNL     1     148.068 165.157 155.145  1.00  0.00     0.041 C 
ATOM      8  O   UNL     1     148.486 164.111 155.711  1.00  0.00    -0.550 OA
ATOM      9  O   UNL     1     147.319 166.077 155.867  1.00  0.00    -0.550 OA
ENDBRANCH   6   7
ENDBRANCH   5   6
ENDBRANCH   4   5
ENDBRANCH   3   4
ENDBRANCH   2   3
ENDBRANCH   1   2
BRANCH   1  10
ATOM     10  C   UNL     1     145.992 162.543 151.830  1.00  0.00     0.000 C 
BRANCH  10  11
ATOM     11  C   UNL     1     147.000 161.384 151.880  1.00  0.00    -0.000 C 
BRANCH  11  12
ATOM     12  C   UNL     1     148.207 161.682 152.787  1.00  0.00    -0.000 C 
BRANCH  12  13
ATOM     13  C   UNL     1     149.579 161.307 152.191  1.00  0.00    -0.000 C 
BRANCH  13  14
ATOM     14  C   UNL     1     149.906 161.964 150.835  1.00  0.00    -0.000 C 
BRANCH  14  15
ATOM     15  C   UNL     1     150.033 163.497 150.874  1.00  0.00    -0.003 C 
ATOM     16  C   UNL     1     149.820 164.146 149.507  1.00  0.00     0.004 C 
ENDBRANCH  14  15
ENDBRANCH  13  14
ENDBRANCH  12  13
ENDBRANCH  11  12
ENDBRANCH  10  11
ENDBRANCH   1  10
TORSDOF 12
ENDMDL
MODEL 4
REMARK VINA RESULT:    -2.798      1.712      3.493
REMARK INTER + INTRA:          -6.523
REMARK INTER:                  -4.717
REMARK INTRA:                  -1.807
REMARK UNBOUND:                -1.762
REMARK SMILES CCCCCCCCCCCCCC(=O)[O-]
REMARK SMILES IDX 8 1 9 2 10 3 11 4 12 5 13 6 14 7 15 8 16 9 7 10 6 11 5 12
REMARK SMILES IDX 4 13 3 14 2 15 1 16
REMARK H PARENT
REMARK Flexibility Score: inf
ROOT
ATOM      1  C   UNL     1     147.100 163.410 155.094  1.00  0.00     0.000 C 
ENDROOT
BRANCH   1   2
ATOM      2  C   UNL     1     147.019 162.170 154.189  1.00  0.00     0.000 C 
BRANCH   2   3
ATOM      3  C   UNL     1     146.215 162.430 152.901  1.00  0.00     0.000 C 
BRANCH   3   4
ATOM      4  C   UNL     1     147.058 162.234 151.631  1.00  0.00     0.000 C 
BRANCH   4   5
ATOM      5  C   UNL     1     148.542 162.582 151.844  1.00  0.00     0.006 C 
BRANCH   5   6
ATOM      6  C   UNL     1     149.454 161.861 150.843  1.00  0.00     0.053 C 
BRANCH   6   7
ATOM      7  C   UNL     1     149.944 160.553 151.383  1.00  0.00     0.041 C 
ATOM      8  O   UNL     1     150.587 159.762 150.642  1.00  0.00    -0.550 OA
ATOM      9  O   UNL     1     149.719 160.221 152.712  1.00  0.00    -0.550 OA
ENDBRANCH   6   7
ENDBRANCH   5   6
ENDBRANCH   4   5
ENDBRANCH   3   4
ENDBRANCH   2   3
ENDBRANCH   1   2
BRANCH   1  10
ATOM     10  C   UNL     1     146.037 164.465 154.752  1.00  0.00     0.000 C 
BRANCH  10  11
ATOM     11  C   UNL     1     146.683 165.844 154.542  1.00  0.00    -0.000 C 
BRANCH  11  12
ATOM     12  C   UNL     1     147.767 165.835 153.450  1.00  0.00    -0.000 C 
BRANCH  12  13
ATOM     13  C   UNL     1     147.360 166.502 152.121  1.00  0.00    -0.000 C 
BRANCH  13  14
ATOM     14  C   UNL     1     146.302 165.736 151.301  1.00  0.00    -0.000 C 
BRANCH  14  15
ATOM     15  C   UNL     1     146.385 165.950 149.779  1.00  0.00    -0.003 C 
ATOM     16  C   UNL     1     147.373 165.003 149.099  1.00  0.00     0.004 C 
ENDBRANCH  14  15
ENDBRANCH  13  14
ENDBRANCH  12  13
ENDBRANCH  11  12
ENDBRANCH  10  11
ENDBRANCH   1  10
TORSDOF 12
ENDMDL
MODEL 5
REMARK VINA RESULT:    -2.715      7.974     10.364
REMARK INTER + INTRA:          -6.382
REMARK INTER:                  -4.244
REMARK INTRA:                  -2.138
REMARK UNBOUND:                -1.762
REMARK SMILES CCCCCCCCCCCCCC(=O)[O-]
REMARK SMILES IDX 8 1 9 2 10 3 11 4 12 5 13 6 14 7 15 8 16 9 7 10 6 11 5 12
REMARK SMILES IDX 4 13 3 14 2 15 1 16
REMARK H PARENT
REMARK Flexibility Score: inf
ROOT
ATOM      1  C   UNL     1     145.875 157.048 161.535  1.00  0.00     0.000 C 
ENDROOT
BRANCH   1   2
ATOM      2  C   UNL     1     146.385 158.246 162.353  1.00  0.00     0.000 C 
BRANCH   2   3
ATOM      3  C   UNL     1     146.218 159.583 161.609  1.00  0.00     0.000 C 
BRANCH   3   4
ATOM      4  C   UNL     1     147.566 160.242 161.272  1.00  0.00     0.000 C 
BRANCH   4   5
ATOM      5  C   UNL     1     148.750 159.573 161.994  1.00  0.00     0.006 C 
BRANCH   5   6
ATOM      6  C   UNL     1     150.101 160.000 161.405  1.00  0.00     0.053 C 
BRANCH   6   7
ATOM      7  C   UNL     1     150.740 161.084 162.216  1.00  0.00     0.041 C 
ATOM      8  O   UNL     1     150.553 161.140 163.460  1.00  0.00    -0.550 OA
ATOM      9  O   UNL     1     151.572 162.012 161.603  1.00  0.00    -0.550 OA
ENDBRANCH   6   7
ENDBRANCH   5   6
ENDBRANCH   4   5
ENDBRANCH   3   4
ENDBRANCH   2   3
ENDBRANCH   1   2
BRANCH   1  10
ATOM     10  C   UNL     1     146.647 155.754 161.832  1.00  0.00     0.000 C 
BRANCH  10  11
ATOM     11  C   UNL     1     147.949 156.056 162.591  1.00  0.00    -0.000 C 
BRANCH  11  12
ATOM     12  C   UNL     1     149.206 155.624 161.816  1.00  0.00    -0.000 C 
BRANCH  12  13
ATOM     13  C   UNL     1     149.031 155.538 160.286  1.00  0.00    -0.000 C 
BRANCH  13  14
ATOM     14  C   UNL     1     149.430 156.808 159.508  1.00  0.00    -0.000 C 
BRANCH  14  15
ATOM     15  C   UNL     1     148.299 157.440 158.678  1.00  0.00    -0.003 C 
ATOM     16  C   UNL     1     148.690 158.785 158.068  1.00  0.00     0.004 C 
ENDBRANCH  14  15
ENDBRANCH  13  14
ENDBRANCH  12  13
ENDBRANCH  11  12
ENDBRANCH  10  11
ENDBRANCH   1  10
TORSDOF 12
ENDMDL
MODEL 6
REMARK VINA RESULT:    -2.707      3.523      4.715
REMARK INTER + INTRA:          -6.368
REMARK INTER:                  -4.221
REMARK INTRA:                  -2.147
REMARK UNBOUND:                -1.762
REMARK SMILES CCCCCCCCCCCCCC(=O)[O-]
REMARK SMILES IDX 8 1 9 2 10 3 11 4 12 5 13 6 14 7 15 8 16 9 7 10 6 11 5 12
REMARK SMILES IDX 4 13 3 14 2 15 1 16
REMARK H PARENT
REMARK Flexibility Score: inf
ROOT
ATOM      1  C   UNL     1     147.238 162.090 153.053  1.00  0.00     0.000 C 
ENDROOT
BRANCH   1   2
ATOM      2  C   UNL     1     147.545 162.053 151.546  1.00  0.00     0.000 C 
BRANCH   2   3
ATOM      3  C   UNL     1     148.709 162.982 151.157  1.00  0.00     0.000 C 
BRANCH   3   4
ATOM      4  C   UNL     1     148.297 164.040 150.120  1.00  0.00     0.000 C 
BRANCH   4   5
ATOM      5  C   UNL     1     146.792 164.361 150.166  1.00  0.00     0.006 C 
BRANCH   5   6
ATOM      6  C   UNL     1     146.505 165.679 150.898  1.00  0.00     0.053 C 
BRANCH   6   7
ATOM      7  C   UNL     1     147.221 166.831 150.265  1.00  0.00     0.041 C 
ATOM      8  O   UNL     1     146.932 167.192 149.093  1.00  0.00    -0.550 OA
ATOM      9  O   UNL     1     148.185 167.528 150.982  1.00  0.00    -0.550 OA
ENDBRANCH   6   7
ENDBRANCH   5   6
ENDBRANCH   4   5
ENDBRANCH   3   4
ENDBRANCH   2   3
ENDBRANCH   1   2
BRANCH   1  10
ATOM     10  C   UNL     1     145.875 162.723 153.365  1.00  0.00     0.000 C 
BRANCH  10  11
ATOM     11  C   UNL     1     145.921 163.493 154.695  1.00  0.00    -0.000 C 
BRANCH  11  12
ATOM     12  C   UNL     1     146.170 164.999 154.505  1.00  0.00    -0.000 C 
BRANCH  12  13
ATOM     13  C   UNL     1     147.550 165.496 154.982  1.00  0.00    -0.000 C 
BRANCH  13  14
ATOM     14  C   UNL     1     148.644 165.536 153.895  1.00  0.00    -0.000 C 
BRANCH  14  15
ATOM     15  C   UNL     1     149.926 164.760 154.241  1.00  0.00    -0.003 C 
ATOM     16  C   UNL     1     149.721 163.740 155.360  1.00  0.00     0.004 C 
ENDBRANCH  14  15
ENDBRANCH  13  14
ENDBRANCH  12  13
ENDBRANCH  11  12
ENDBRANCH  10  11
ENDBRANCH   1  10
TORSDOF 12
ENDMDL
MODEL 7
REMARK VINA RESULT:    -2.693      1.601      2.644
REMARK INTER + INTRA:          -6.344
REMARK INTER:                  -4.617
REMARK INTRA:                  -1.727
REMARK UNBOUND:                -1.762
REMARK SMILES CCCCCCCCCCCCCC(=O)[O-]
REMARK SMILES IDX 8 1 9 2 10 3 11 4 12 5 13 6 14 7 15 8 16 9 7 10 6 11 5 12
REMARK SMILES IDX 4 13 3 14 2 15 1 16
REMARK H PARENT
REMARK Flexibility Score: inf
ROOT
ATOM      1  C   UNL     1     146.282 162.657 151.293  1.00  0.00     0.000 C 
ENDROOT
BRANCH   1   2
ATOM      2  C   UNL     1     146.917 161.478 152.048  1.00  0.00     0.000 C 
BRANCH   2   3
ATOM      3  C   UNL     1     148.451 161.451 151.918  1.00  0.00     0.000 C 
BRANCH   3   4
ATOM      4  C   UNL     1     149.161 161.698 153.259  1.00  0.00     0.000 C 
BRANCH   4   5
ATOM      5  C   UNL     1     149.132 160.466 154.182  1.00  0.00     0.006 C 
BRANCH   5   6
ATOM      6  C   UNL     1     150.541 160.017 154.589  1.00  0.00     0.053 C 
BRANCH   6   7
ATOM      7  C   UNL     1     150.946 158.759 153.885  1.00  0.00     0.041 C 
ATOM      8  O   UNL     1     151.057 158.742 152.630  1.00  0.00    -0.550 OA
ATOM      9  O   UNL     1     151.234 157.614 154.617  1.00  0.00    -0.550 OA
ENDBRANCH   6   7
ENDBRANCH   5   6
ENDBRANCH   4   5
ENDBRANCH   3   4
ENDBRANCH   2   3
ENDBRANCH   1   2
BRANCH   1  10
ATOM     10  C   UNL     1     147.324 163.646 150.751  1.00  0.00     0.000 C 
BRANCH  10  11
ATOM     11  C   UNL     1     147.200 165.009 151.450  1.00  0.00    -0.000 C 
BRANCH  11  12
ATOM     12  C   UNL     1     145.957 165.107 152.352  1.00  0.00    -0.000 C 
BRANCH  12  13
ATOM     13  C   UNL     1     146.249 165.429 153.831  1.00  0.00    -0.000 C 
BRANCH  13  14
ATOM     14  C   UNL     1     146.919 164.293 154.629  1.00  0.00    -0.000 C 
BRANCH  14  15
ATOM     15  C   UNL     1     145.952 163.227 155.172  1.00  0.00    -0.003 C 
ATOM     16  C   UNL     1     146.614 162.274 156.167  1.00  0.00     0.004 C 
ENDBRANCH  14  15
ENDBRANCH  13  14
ENDBRANCH  12  13
ENDBRANCH  11  12
ENDBRANCH  10  11
ENDBRANCH   1  10
TORSDOF 12
ENDMDL
MODEL 8
REMARK VINA RESULT:    -2.679      1.939      2.808
REMARK INTER + INTRA:          -6.320
REMARK INTER:                  -4.410
REMARK INTRA:                  -1.911
REMARK UNBOUND:                -1.762
REMARK SMILES CCCCCCCCCCCCCC(=O)[O-]
REMARK SMILES IDX 8 1 9 2 10 3 11 4 12 5 13 6 14 7 15 8 16 9 7 10 6 11 5 12
REMARK SMILES IDX 4 13 3 14 2 15 1 16
REMARK H PARENT
REMARK Flexibility Score: inf
ROOT
ATOM      1  C   UNL     1     146.264 163.649 150.944  1.00  0.00     0.000 C 
ENDROOT
BRANCH   1   2
ATOM      2  C   UNL     1     146.151 162.644 152.102  1.00  0.00     0.000 C 
BRANCH   2   3
ATOM      3  C   UNL     1     147.039 161.403 151.897  1.00  0.00     0.000 C 
BRANCH   3   4
ATOM      4  C   UNL     1     148.019 161.181 153.060  1.00  0.00     0.000 C 
BRANCH   4   5
ATOM      5  C   UNL     1     147.975 162.317 154.098  1.00  0.00     0.006 C 
BRANCH   5   6
ATOM      6  C   UNL     1     147.369 161.859 155.431  1.00  0.00     0.053 C 
BRANCH   6   7
ATOM      7  C   UNL     1     148.078 160.660 155.979  1.00  0.00     0.041 C 
ATOM      8  O   UNL     1     149.312 160.711 156.229  1.00  0.00    -0.550 OA
ATOM      9  O   UNL     1     147.370 159.495 156.246  1.00  0.00    -0.550 OA
ENDBRANCH   6   7
ENDBRANCH   5   6
ENDBRANCH   4   5
ENDBRANCH   3   4
ENDBRANCH   2   3
ENDBRANCH   1   2
BRANCH   1  10
ATOM     10  C   UNL     1     145.875 165.076 151.357  1.00  0.00     0.000 C 
BRANCH  10  11
ATOM     11  C   UNL     1     145.927 165.237 152.884  1.00  0.00    -0.000 C 
BRANCH  11  12
ATOM     12  C   UNL     1     147.000 166.241 153.343  1.00  0.00    -0.000 C 
BRANCH  12  13
ATOM     13  C   UNL     1     148.455 165.756 153.187  1.00  0.00    -0.000 C 
BRANCH  13  14
ATOM     14  C   UNL     1     149.245 166.413 152.038  1.00  0.00    -0.000 C 
BRANCH  14  15
ATOM     15  C   UNL     1     149.653 165.457 150.904  1.00  0.00    -0.003 C 
ATOM     16  C   UNL     1     149.910 164.031 151.392  1.00  0.00     0.004 C 
ENDBRANCH  14  15
ENDBRANCH  13  14
ENDBRANCH  12  13
ENDBRANCH  11  12
ENDBRANCH  10  11
ENDBRANCH   1  10
TORSDOF 12
ENDMDL
MODEL 9
REMARK VINA RESULT:    -2.604      8.218     10.087
REMARK INTER + INTRA:          -6.193
REMARK INTER:                  -4.263
REMARK INTRA:                  -1.931
REMARK UNBOUND:                -1.762
REMARK SMILES CCCCCCCCCCCCCC(=O)[O-]
REMARK SMILES IDX 8 1 9 2 10 3 11 4 12 5 13 6 14 7 15 8 16 9 7 10 6 11 5 12
REMARK SMILES IDX 4 13 3 14 2 15 1 16
REMARK H PARENT
REMARK Flexibility Score: inf
ROOT
ATOM      1  C   UNL     1     149.076 156.905 158.701  1.00  0.00     0.000 C 
ENDROOT
BRANCH   1   2
ATOM      2  C   UNL     1     148.991 156.685 160.221  1.00  0.00     0.000 C 
BRANCH   2   3
ATOM      3  C   UNL     1     147.947 155.620 160.606  1.00  0.00     0.000 C 
BRANCH   3   4
ATOM      4  C   UNL     1     146.520 156.189 160.663  1.00  0.00     0.000 C 
BRANCH   4   5
ATOM      5  C   UNL     1     145.875 156.036 162.053  1.00  0.00     0.006 C 
BRANCH   5   6
ATOM      6  C   UNL     1     146.924 155.861 163.159  1.00  0.00     0.053 C 
BRANCH   6   7
ATOM      7  C   UNL     1     146.553 156.616 164.398  1.00  0.00     0.041 C 
ATOM      8  O   UNL     1     146.419 157.868 164.362  1.00  0.00    -0.550 OA
ATOM      9  O   UNL     1     146.322 155.934 165.585  1.00  0.00    -0.550 OA
ENDBRANCH   6   7
ENDBRANCH   5   6
ENDBRANCH   4   5
ENDBRANCH   3   4
ENDBRANCH   2   3
ENDBRANCH   1   2
BRANCH   1  10
ATOM     10  C   UNL     1     149.727 158.245 158.331  1.00  0.00     0.000 C 
BRANCH  10  11
ATOM     11  C   UNL     1     148.661 159.332 158.121  1.00  0.00    -0.000 C 
BRANCH  11  12
ATOM     12  C   UNL     1     147.257 158.751 157.873  1.00  0.00    -0.000 C 
BRANCH  12  13
ATOM     13  C   UNL     1     146.144 159.332 158.768  1.00  0.00    -0.000 C 
BRANCH  13  14
ATOM     14  C   UNL     1     146.611 160.380 159.797  1.00  0.00    -0.000 C 
BRANCH  14  15
ATOM     15  C   UNL     1     146.621 159.893 161.257  1.00  0.00    -0.003 C 
ATOM     16  C   UNL     1     148.030 159.799 161.843  1.00  0.00     0.004 C 
ENDBRANCH  14  15
ENDBRANCH  13  14
ENDBRANCH  12  13
ENDBRANCH  11  12
ENDBRANCH  10  11
ENDBRANCH   1  10
TORSDOF 12
ENDMDL
