MODEL 1
REMARK VINA RESULT:    -5.961      0.000      0.000
REMARK INTER + INTRA:          -6.135
REMARK INTER:                  -6.135
REMARK INTRA:                   0.000
REMARK UNBOUND:                 0.000
REMARK SMILES O=c1ccc2ccc(O)cc2o1
REMARK SMILES IDX 6 1 7 2 8 3 10 4 11 5 5 6 4 7 3 8 2 9 1 10 12 11 9 12
REMARK H PARENT 9 13
REMARK Flexibility Score: inf
ROOT
ATOM      1  C   UNL     1      10.892  -6.014  19.781  1.00  0.00     0.016 A 
ATOM      2  C   UNL     1       9.786  -6.868  19.835  1.00  0.00     0.047 A 
ATOM      3  C   UNL     1       8.484  -6.346  19.781  1.00  0.00     0.119 A 
ATOM      4  C   UNL     1       8.289  -4.965  19.672  1.00  0.00     0.094 A 
ATOM      5  C   UNL     1       9.390  -4.102  19.617  1.00  0.00     0.142 A 
ATOM      6  C   UNL     1      10.700  -4.629  19.672  1.00  0.00     0.018 A 
ATOM      7  C   UNL     1      11.778  -3.741  19.615  1.00  0.00     0.019 A 
ATOM      8  C   UNL     1      11.533  -2.372  19.506  1.00  0.00     0.094 A 
ATOM      9  C   UNL     1      10.209  -1.923  19.458  1.00  0.00     0.336 A 
ATOM     10  O   UNL     1       9.968  -0.690  19.360  1.00  0.00    -0.246 OA
ATOM     11  O   UNL     1       9.201  -2.788  19.514  1.00  0.00    -0.423 OA
ENDROOT
BRANCH   3  12
ATOM     12  O   UNL     1       7.379  -7.193  19.834  1.00  0.00    -0.508 OA
ATOM     13  H   UNL     1       6.438  -6.831  19.936  1.00  0.00     0.293 HD
ENDBRANCH   3  12
TORSDOF 1
ENDMDL
MODEL 2
REMARK VINA RESULT:    -5.938      1.173      1.483
REMARK INTER + INTRA:          -6.111
REMARK INTER:                  -6.111
REMARK INTRA:                   0.000
REMARK UNBOUND:                 0.000
REMARK SMILES O=c1ccc2ccc(O)cc2o1
REMARK SMILES IDX 6 1 7 2 8 3 10 4 11 5 5 6 4 7 3 8 2 9 1 10 12 11 9 12
REMARK H PARENT 9 13
REMARK Flexibility Score: inf
ROOT
ATOM      1  C   UNL     1      11.474  -5.014  19.762  1.00  0.00     0.016 A 
ATOM      2  C   UNL     1      11.083  -6.355  19.834  1.00  0.00     0.047 A 
ATOM      3  C   UNL     1       9.722  -6.698  19.819  1.00  0.00     0.119 A 
ATOM      4  C   UNL     1       8.750  -5.695  19.733  1.00  0.00     0.094 A 
ATOM      5  C   UNL     1       9.131  -4.350  19.661  1.00  0.00     0.142 A 
ATOM      6  C   UNL     1      10.502  -4.007  19.676  1.00  0.00     0.018 A 
ATOM      7  C   UNL     1      10.851  -2.655  19.603  1.00  0.00     0.019 A 
ATOM      8  C   UNL     1       9.845  -1.692  19.518  1.00  0.00     0.094 A 
ATOM      9  C   UNL     1       8.509  -2.106  19.510  1.00  0.00     0.336 A 
ATOM     10  O   UNL     1       7.587  -1.251  19.433  1.00  0.00    -0.246 OA
ATOM     11  O   UNL     1       8.203  -3.399  19.580  1.00  0.00    -0.423 OA
ENDROOT
BRANCH   3  12
ATOM     12  O   UNL     1       9.327  -8.032  19.889  1.00  0.00    -0.508 OA
ATOM     13  H   UNL     1       9.554  -8.610  20.690  1.00  0.00     0.293 HD
ENDBRANCH   3  12
TORSDOF 1
ENDMDL
MODEL 3
REMARK VINA RESULT:    -5.887      1.713      2.368
REMARK INTER + INTRA:          -6.059
REMARK INTER:                  -6.059
REMARK INTRA:                   0.000
REMARK UNBOUND:                 0.000
REMARK SMILES O=c1ccc2ccc(O)cc2o1
REMARK SMILES IDX 6 1 7 2 8 3 10 4 11 5 5 6 4 7 3 8 2 9 1 10 12 11 9 12
REMARK H PARENT 9 13
REMARK Flexibility Score: inf
ROOT
ATOM      1  C   UNL     1       8.661  -4.355  19.868  1.00  0.00     0.016 A 
ATOM      2  C   UNL     1       8.599  -5.740  20.050  1.00  0.00     0.047 A 
ATOM      3  C   UNL     1       9.760  -6.521  19.943  1.00  0.00     0.119 A 
ATOM      4  C   UNL     1      10.986  -5.913  19.652  1.00  0.00     0.094 A 
ATOM      5  C   UNL     1      11.059  -4.528  19.468  1.00  0.00     0.142 A 
ATOM      6  C   UNL     1       9.888  -3.743  19.576  1.00  0.00     0.018 A 
ATOM      7  C   UNL     1       9.993  -2.361  19.387  1.00  0.00     0.019 A 
ATOM      8  C   UNL     1      11.238  -1.802  19.099  1.00  0.00     0.094 A 
ATOM      9  C   UNL     1      12.353  -2.641  19.007  1.00  0.00     0.336 A 
ATOM     10  O   UNL     1      13.485  -2.155  18.749  1.00  0.00    -0.246 OA
ATOM     11  O   UNL     1      12.227  -3.952  19.192  1.00  0.00    -0.423 OA
ENDROOT
BRANCH   3  12
ATOM     12  O   UNL     1       9.704  -7.901  20.124  1.00  0.00    -0.508 OA
ATOM     13  H   UNL     1      10.537  -8.445  20.315  1.00  0.00     0.293 HD
ENDBRANCH   3  12
TORSDOF 1
ENDMDL
MODEL 4
REMARK VINA RESULT:    -5.832     11.035     12.405
REMARK INTER + INTRA:          -6.002
REMARK INTER:                  -6.002
REMARK INTRA:                   0.000
REMARK UNBOUND:                 0.000
REMARK SMILES O=c1ccc2ccc(O)cc2o1
REMARK SMILES IDX 6 1 7 2 8 3 10 4 11 5 5 6 4 7 3 8 2 9 1 10 12 11 9 12
REMARK H PARENT 9 13
REMARK Flexibility Score: inf
ROOT
ATOM      1  C   UNL     1       8.499   2.360  11.383  1.00  0.00     0.016 A 
ATOM      2  C   UNL     1       7.970   1.189  10.833  1.00  0.00     0.047 A 
ATOM      3  C   UNL     1       6.840   1.244  10.002  1.00  0.00     0.119 A 
ATOM      4  C   UNL     1       6.239   2.476   9.722  1.00  0.00     0.094 A 
ATOM      5  C   UNL     1       6.761   3.654  10.268  1.00  0.00     0.142 A 
ATOM      6  C   UNL     1       7.898   3.596  11.104  1.00  0.00     0.018 A 
ATOM      7  C   UNL     1       8.397   4.790  11.634  1.00  0.00     0.019 A 
ATOM      8  C   UNL     1       7.762   5.994  11.326  1.00  0.00     0.094 A 
ATOM      9  C   UNL     1       6.640   5.974  10.491  1.00  0.00     0.336 A 
ATOM     10  O   UNL     1       6.054   7.050  10.201  1.00  0.00    -0.246 OA
ATOM     11  O   UNL     1       6.186   4.824   9.999  1.00  0.00    -0.423 OA
ENDROOT
BRANCH   3  12
ATOM     12  O   UNL     1       6.309   0.080   9.450  1.00  0.00    -0.508 OA
ATOM     13  H   UNL     1       6.071   0.020   8.467  1.00  0.00     0.293 HD
ENDBRANCH   3  12
TORSDOF 1
ENDMDL
MODEL 5
REMARK VINA RESULT:    -5.771     10.820     12.422
REMARK INTER + INTRA:          -5.939
REMARK INTER:                  -5.939
REMARK INTRA:                   0.000
REMARK UNBOUND:                 0.000
REMARK SMILES O=c1ccc2ccc(O)cc2o1
REMARK SMILES IDX 6 1 7 2 8 3 10 4 11 5 5 6 4 7 3 8 2 9 1 10 12 11 9 12
REMARK H PARENT 9 13
REMARK Flexibility Score: inf
ROOT
ATOM      1  C   UNL     1       6.623   2.056   9.732  1.00  0.00     0.016 A 
ATOM      2  C   UNL     1       7.421   1.118  10.394  1.00  0.00     0.047 A 
ATOM      3  C   UNL     1       8.331   1.531  11.379  1.00  0.00     0.119 A 
ATOM      4  C   UNL     1       8.443   2.888  11.702  1.00  0.00     0.094 A 
ATOM      5  C   UNL     1       7.649   3.835  11.045  1.00  0.00     0.142 A 
ATOM      6  C   UNL     1       6.733   3.417  10.053  1.00  0.00     0.018 A 
ATOM      7  C   UNL     1       5.954   4.387   9.415  1.00  0.00     0.019 A 
ATOM      8  C   UNL     1       6.102   5.727   9.771  1.00  0.00     0.094 A 
ATOM      9  C   UNL     1       7.030   6.067  10.761  1.00  0.00     0.336 A 
ATOM     10  O   UNL     1       7.177   7.272  11.097  1.00  0.00    -0.246 OA
ATOM     11  O   UNL     1       7.758   5.125  11.354  1.00  0.00    -0.423 OA
ENDROOT
BRANCH   3  12
ATOM     12  O   UNL     1       9.127   0.599  12.043  1.00  0.00    -0.508 OA
ATOM     13  H   UNL     1       8.888  -0.385  12.060  1.00  0.00     0.293 HD
ENDBRANCH   3  12
TORSDOF 1
ENDMDL
MODEL 6
REMARK VINA RESULT:    -5.632     10.846     12.989
REMARK INTER + INTRA:          -5.797
REMARK INTER:                  -5.797
REMARK INTRA:                   0.000
REMARK UNBOUND:                 0.000
REMARK SMILES O=c1ccc2ccc(O)cc2o1
REMARK SMILES IDX 6 1 7 2 8 3 10 4 11 5 5 6 4 7 3 8 2 9 1 10 12 11 9 12
REMARK H PARENT 9 13
REMARK Flexibility Score: inf
ROOT
ATOM      1  C   UNL     1       5.937   4.371   9.477  1.00  0.00     0.016 A 
ATOM      2  C   UNL     1       6.101   5.720   9.807  1.00  0.00     0.047 A 
ATOM      3  C   UNL     1       7.067   6.106  10.749  1.00  0.00     0.119 A 
ATOM      4  C   UNL     1       7.870   5.139  11.363  1.00  0.00     0.094 A 
ATOM      5  C   UNL     1       7.714   3.786  11.039  1.00  0.00     0.142 A 
ATOM      6  C   UNL     1       6.741   3.399  10.090  1.00  0.00     0.018 A 
ATOM      7  C   UNL     1       6.609   2.041   9.787  1.00  0.00     0.019 A 
ATOM      8  C   UNL     1       7.433   1.114  10.426  1.00  0.00     0.094 A 
ATOM      9  C   UNL     1       8.373   1.570  11.355  1.00  0.00     0.336 A 
ATOM     10  O   UNL     1       9.127   0.749  11.941  1.00  0.00    -0.246 OA
ATOM     11  O   UNL     1       8.480   2.868  11.625  1.00  0.00    -0.423 OA
ENDROOT
BRANCH   3  12
ATOM     12  O   UNL     1       7.235   7.449  11.081  1.00  0.00    -0.508 OA
ATOM     13  H   UNL     1       8.108   7.796  11.460  1.00  0.00     0.293 HD
ENDBRANCH   3  12
TORSDOF 1
ENDMDL
MODEL 7
REMARK VINA RESULT:    -5.520      1.458      4.443
REMARK INTER + INTRA:          -5.681
REMARK INTER:                  -5.681
REMARK INTRA:                   0.000
REMARK UNBOUND:                 0.000
REMARK SMILES O=c1ccc2ccc(O)cc2o1
REMARK SMILES IDX 6 1 7 2 8 3 10 4 11 5 5 6 4 7 3 8 2 9 1 10 12 11 9 12
REMARK H PARENT 9 13
REMARK Flexibility Score: inf
ROOT
ATOM      1  C   UNL     1      12.619  -3.284  18.629  1.00  0.00     0.016 A 
ATOM      2  C   UNL     1      12.791  -1.946  18.261  1.00  0.00     0.047 A 
ATOM      3  C   UNL     1      11.703  -1.060  18.284  1.00  0.00     0.119 A 
ATOM      4  C   UNL     1      10.439  -1.515  18.677  1.00  0.00     0.094 A 
ATOM      5  C   UNL     1      10.257  -2.852  19.047  1.00  0.00     0.142 A 
ATOM      6  C   UNL     1      11.354  -3.743  19.023  1.00  0.00     0.018 A 
ATOM      7  C   UNL     1      11.141  -5.073  19.398  1.00  0.00     0.019 A 
ATOM      8  C   UNL     1       9.863  -5.480  19.782  1.00  0.00     0.094 A 
ATOM      9  C   UNL     1       8.825  -4.542  19.781  1.00  0.00     0.336 A 
ATOM     10  O   UNL     1       7.664  -4.890  20.125  1.00  0.00    -0.246 OA
ATOM     11  O   UNL     1       9.054  -3.283  19.420  1.00  0.00    -0.423 OA
ENDROOT
BRANCH   3  12
ATOM     12  O   UNL     1      11.868   0.275  17.919  1.00  0.00    -0.508 OA
ATOM     13  H   UNL     1      11.707   0.588  16.969  1.00  0.00     0.293 HD
ENDBRANCH   3  12
TORSDOF 1
ENDMDL
MODEL 8
REMARK VINA RESULT:    -5.390      1.772      3.681
REMARK INTER + INTRA:          -5.547
REMARK INTER:                  -5.547
REMARK INTRA:                   0.000
REMARK UNBOUND:                 0.000
REMARK SMILES O=c1ccc2ccc(O)cc2o1
REMARK SMILES IDX 6 1 7 2 8 3 10 4 11 5 5 6 4 7 3 8 2 9 1 10 12 11 9 12
REMARK H PARENT 9 13
REMARK Flexibility Score: inf
ROOT
ATOM      1  C   UNL     1      10.179  -6.299  19.930  1.00  0.00     0.016 A 
ATOM      2  C   UNL     1      11.442  -5.729  19.738  1.00  0.00     0.047 A 
ATOM      3  C   UNL     1      11.573  -4.344  19.552  1.00  0.00     0.119 A 
ATOM      4  C   UNL     1      10.436  -3.528  19.558  1.00  0.00     0.094 A 
ATOM      5  C   UNL     1       9.168  -4.089  19.749  1.00  0.00     0.142 A 
ATOM      6  C   UNL     1       9.038  -5.484  19.936  1.00  0.00     0.018 A 
ATOM      7  C   UNL     1       7.759  -6.015  20.125  1.00  0.00     0.019 A 
ATOM      8  C   UNL     1       6.656  -5.161  20.123  1.00  0.00     0.094 A 
ATOM      9  C   UNL     1       6.861  -3.790  19.931  1.00  0.00     0.336 A 
ATOM     10  O   UNL     1       5.878  -3.003  19.926  1.00  0.00    -0.246 OA
ATOM     11  O   UNL     1       8.088  -3.310  19.754  1.00  0.00    -0.423 OA
ENDROOT
BRANCH   3  12
ATOM     12  O   UNL     1      12.828  -3.771  19.361  1.00  0.00    -0.508 OA
ATOM     13  H   UNL     1      13.612  -4.314  19.020  1.00  0.00     0.293 HD
ENDBRANCH   3  12
TORSDOF 1
ENDMDL
MODEL 9
REMARK VINA RESULT:    -5.361      1.561      2.431
REMARK INTER + INTRA:          -5.518
REMARK INTER:                  -5.518
REMARK INTRA:                   0.000
REMARK UNBOUND:                 0.000
REMARK SMILES O=c1ccc2ccc(O)cc2o1
REMARK SMILES IDX 6 1 7 2 8 3 10 4 11 5 5 6 4 7 3 8 2 9 1 10 12 11 9 12
REMARK H PARENT 9 13
REMARK Flexibility Score: inf
ROOT
ATOM      1  C   UNL     1       8.357  -5.344  19.800  1.00  0.00     0.016 A 
ATOM      2  C   UNL     1       9.278  -6.395  19.864  1.00  0.00     0.047 A 
ATOM      3  C   UNL     1      10.656  -6.131  19.842  1.00  0.00     0.119 A 
ATOM      4  C   UNL     1      11.113  -4.812  19.755  1.00  0.00     0.094 A 
ATOM      5  C   UNL     1      10.200  -3.753  19.691  1.00  0.00     0.142 A 
ATOM      6  C   UNL     1       8.813  -4.021  19.713  1.00  0.00     0.018 A 
ATOM      7  C   UNL     1       7.925  -2.942  19.647  1.00  0.00     0.019 A 
ATOM      8  C   UNL     1       8.429  -1.645  19.562  1.00  0.00     0.094 A 
ATOM      9  C   UNL     1       9.815  -1.456  19.544  1.00  0.00     0.336 A 
ATOM     10  O   UNL     1      10.290  -0.292  19.468  1.00  0.00    -0.246 OA
ATOM     11  O   UNL     1      10.638  -2.499  19.608  1.00  0.00    -0.423 OA
ENDROOT
BRANCH   3  12
ATOM     12  O   UNL     1      11.578  -7.174  19.906  1.00  0.00    -0.508 OA
ATOM     13  H   UNL     1      11.485  -7.922  20.583  1.00  0.00     0.293 HD
ENDBRANCH   3  12
TORSDOF 1
ENDMDL
