MODEL 1
REMARK VINA RESULT:    -7.001      0.000      0.000
REMARK INTER + INTRA:          -8.162
REMARK INTER:                  -8.025
REMARK INTRA:                  -0.137
REMARK UNBOUND:                -0.137
REMARK SMILES O=C([O-])C=Cc1ccc(O)cc1
REMARK SMILES IDX 6 1 7 2 12 3 8 4 11 5 9 6 5 7 4 8 2 9 1 10 3 11 10 12
REMARK H PARENT 10 13
REMARK Flexibility Score: inf
ROOT
ATOM      1  C   UNL     1     -36.139  71.544 -18.751  1.00  0.00    -0.025 A 
ATOM      2  C   UNL     1     -36.929  70.414 -18.453  1.00  0.00     0.012 A 
ATOM      3  C   UNL     1     -34.785  71.357 -19.079  1.00  0.00     0.012 A 
ATOM      4  C   UNL     1     -36.363  69.134 -18.464  1.00  0.00     0.047 A 
ATOM      5  C   UNL     1     -34.224  70.077 -19.087  1.00  0.00     0.047 A 
ATOM      6  C   UNL     1     -35.010  68.963 -18.778  1.00  0.00     0.115 A 
ENDROOT
BRANCH   1   7
ATOM      7  C   UNL     1     -36.691  72.922 -18.765  1.00  0.00     0.010 C 
ATOM      8  C   UNL     1     -37.748  73.293 -19.497  1.00  0.00     0.025 C 
BRANCH   8   9
ATOM      9  C   UNL     1     -38.268  74.670 -19.470  1.00  0.00     0.064 C 
ATOM     10  O   UNL     1     -38.859  75.130 -20.482  1.00  0.00    -0.545 OA
ATOM     11  O   UNL     1     -38.115  75.473 -18.346  1.00  0.00    -0.545 OA
ENDBRANCH   8   9
ENDBRANCH   1   7
BRANCH   6  12
ATOM     12  O   UNL     1     -34.437  67.693 -18.788  1.00  0.00    -0.508 OA
ATOM     13  H   UNL     1     -34.732  66.974 -18.138  1.00  0.00     0.293 HD
ENDBRANCH   6  12
TORSDOF 3
ENDMDL
MODEL 2
REMARK VINA RESULT:    -6.910      0.082      1.400
REMARK INTER + INTRA:          -8.057
REMARK INTER:                  -7.917
REMARK INTRA:                  -0.140
REMARK UNBOUND:                -0.137
REMARK SMILES O=C([O-])C=Cc1ccc(O)cc1
REMARK SMILES IDX 6 1 7 2 12 3 8 4 11 5 9 6 5 7 4 8 2 9 1 10 3 11 10 12
REMARK H PARENT 10 13
REMARK Flexibility Score: inf
ROOT
ATOM      1  C   UNL     1     -36.075  71.601 -18.756  1.00  0.00    -0.025 A 
ATOM      2  C   UNL     1     -34.719  71.379 -19.072  1.00  0.00     0.012 A 
ATOM      3  C   UNL     1     -36.885  70.498 -18.434  1.00  0.00     0.012 A 
ATOM      4  C   UNL     1     -34.200  70.080 -19.087  1.00  0.00     0.047 A 
ATOM      5  C   UNL     1     -36.363  69.202 -18.451  1.00  0.00     0.047 A 
ATOM      6  C   UNL     1     -35.021  68.989 -18.779  1.00  0.00     0.115 A 
ENDROOT
BRANCH   1   7
ATOM      7  C   UNL     1     -36.673  72.959 -18.715  1.00  0.00     0.010 C 
ATOM      8  C   UNL     1     -37.717  73.336 -19.464  1.00  0.00     0.025 C 
BRANCH   8   9
ATOM      9  C   UNL     1     -38.284  74.692 -19.381  1.00  0.00     0.064 C 
ATOM     10  O   UNL     1     -38.905  75.167 -20.368  1.00  0.00    -0.545 OA
ATOM     11  O   UNL     1     -38.143  75.460 -18.231  1.00  0.00    -0.545 OA
ENDBRANCH   8   9
ENDBRANCH   1   7
BRANCH   6  12
ATOM     12  O   UNL     1     -34.514  67.691 -18.793  1.00  0.00    -0.508 OA
ATOM     13  H   UNL     1     -34.395  67.179 -19.659  1.00  0.00     0.293 HD
ENDBRANCH   6  12
TORSDOF 3
ENDMDL
MODEL 3
REMARK VINA RESULT:    -6.414      0.818      1.250
REMARK INTER + INTRA:          -7.488
REMARK INTER:                  -7.350
REMARK INTRA:                  -0.138
REMARK UNBOUND:                -0.137
REMARK SMILES O=C([O-])C=Cc1ccc(O)cc1
REMARK SMILES IDX 6 1 7 2 12 3 8 4 11 5 9 6 5 7 4 8 2 9 1 10 3 11 10 12
REMARK H PARENT 10 13
REMARK Flexibility Score: inf
ROOT
ATOM      1  C   UNL     1     -36.712  72.124 -18.824  1.00  0.00    -0.025 A 
ATOM      2  C   UNL     1     -37.424  70.908 -18.750  1.00  0.00     0.012 A 
ATOM      3  C   UNL     1     -35.309  72.084 -18.898  1.00  0.00     0.012 A 
ATOM      4  C   UNL     1     -36.739  69.688 -18.729  1.00  0.00     0.047 A 
ATOM      5  C   UNL     1     -34.629  70.863 -18.875  1.00  0.00     0.047 A 
ATOM      6  C   UNL     1     -35.341  69.663 -18.788  1.00  0.00     0.115 A 
ENDROOT
BRANCH   1   7
ATOM      7  C   UNL     1     -37.389  73.444 -18.861  1.00  0.00     0.010 C 
ATOM      8  C   UNL     1     -38.141  73.867 -19.885  1.00  0.00     0.025 C 
BRANCH   8   9
ATOM      9  C   UNL     1     -38.803  75.181 -19.873  1.00  0.00     0.064 C 
ATOM     10  O   UNL     1     -38.474  76.035 -19.008  1.00  0.00    -0.545 OA
ATOM     11  O   UNL     1     -39.790  75.497 -20.801  1.00  0.00    -0.545 OA
ENDBRANCH   8   9
ENDBRANCH   1   7
BRANCH   6  12
ATOM     12  O   UNL     1     -34.650  68.454 -18.765  1.00  0.00    -0.508 OA
ATOM     13  H   UNL     1     -35.094  67.585 -19.040  1.00  0.00     0.293 HD
ENDBRANCH   6  12
TORSDOF 3
ENDMDL
MODEL 4
REMARK VINA RESULT:    -5.010      1.195      5.883
REMARK INTER + INTRA:          -5.880
REMARK INTER:                  -5.733
REMARK INTRA:                  -0.147
REMARK UNBOUND:                -0.137
REMARK SMILES O=C([O-])C=Cc1ccc(O)cc1
REMARK SMILES IDX 6 1 7 2 12 3 8 4 11 5 9 6 5 7 4 8 2 9 1 10 3 11 10 12
REMARK H PARENT 10 13
REMARK Flexibility Score: inf
ROOT
ATOM      1  C   UNL     1     -36.326  70.482 -18.818  1.00  0.00    -0.025 A 
ATOM      2  C   UNL     1     -37.681  70.578 -19.196  1.00  0.00     0.012 A 
ATOM      3  C   UNL     1     -35.605  71.664 -18.574  1.00  0.00     0.012 A 
ATOM      4  C   UNL     1     -38.286  71.831 -19.347  1.00  0.00     0.047 A 
ATOM      5  C   UNL     1     -36.213  72.913 -18.728  1.00  0.00     0.047 A 
ATOM      6  C   UNL     1     -37.552  73.001 -19.116  1.00  0.00     0.115 A 
ENDROOT
BRANCH   1   7
ATOM      7  C   UNL     1     -35.640  69.179 -18.632  1.00  0.00     0.010 C 
ATOM      8  C   UNL     1     -34.386  68.933 -19.033  1.00  0.00     0.025 C 
BRANCH   8   9
ATOM      9  C   UNL     1     -33.742  67.628 -18.816  1.00  0.00     0.064 C 
ATOM     10  O   UNL     1     -34.454  66.597 -18.695  1.00  0.00    -0.545 OA
ATOM     11  O   UNL     1     -32.359  67.513 -18.741  1.00  0.00    -0.545 OA
ENDBRANCH   8   9
ENDBRANCH   1   7
BRANCH   6  12
ATOM     12  O   UNL     1     -38.144  74.253 -19.267  1.00  0.00    -0.508 OA
ATOM     13  H   UNL     1     -38.236  74.892 -18.486  1.00  0.00     0.293 HD
ENDBRANCH   6  12
TORSDOF 3
ENDMDL
MODEL 5
REMARK VINA RESULT:    -4.586      9.025      9.299
REMARK INTER + INTRA:          -5.393
REMARK INTER:                  -5.242
REMARK INTRA:                  -0.151
REMARK UNBOUND:                -0.137
REMARK SMILES O=C([O-])C=Cc1ccc(O)cc1
REMARK SMILES IDX 6 1 7 2 12 3 8 4 11 5 9 6 5 7 4 8 2 9 1 10 3 11 10 12
REMARK H PARENT 10 13
REMARK Flexibility Score: inf
ROOT
ATOM      1  C   UNL     1     -36.709  74.539 -27.138  1.00  0.00    -0.025 A 
ATOM      2  C   UNL     1     -35.804  73.525 -27.517  1.00  0.00     0.012 A 
ATOM      3  C   UNL     1     -36.204  75.804 -26.793  1.00  0.00     0.012 A 
ATOM      4  C   UNL     1     -34.428  73.774 -27.525  1.00  0.00     0.047 A 
ATOM      5  C   UNL     1     -34.828  76.047 -26.801  1.00  0.00     0.047 A 
ATOM      6  C   UNL     1     -33.936  75.034 -27.164  1.00  0.00     0.115 A 
ENDROOT
BRANCH   1   7
ATOM      7  C   UNL     1     -38.179  74.332 -27.123  1.00  0.00     0.010 C 
ATOM      8  C   UNL     1     -39.072  75.328 -27.073  1.00  0.00     0.025 C 
BRANCH   8   9
ATOM      9  C   UNL     1     -40.521  75.075 -27.073  1.00  0.00     0.064 C 
ATOM     10  O   UNL     1     -41.302  75.935 -26.589  1.00  0.00    -0.545 OA
ATOM     11  O   UNL     1     -41.044  73.898 -27.596  1.00  0.00    -0.545 OA
ENDBRANCH   8   9
ENDBRANCH   1   7
BRANCH   6  12
ATOM     12  O   UNL     1     -32.567  75.291 -27.166  1.00  0.00    -0.508 OA
ATOM     13  H   UNL     1     -31.909  74.650 -27.595  1.00  0.00     0.293 HD
ENDBRANCH   6  12
TORSDOF 3
ENDMDL
MODEL 6
REMARK VINA RESULT:    -4.549      9.045      9.350
REMARK INTER + INTRA:          -5.351
REMARK INTER:                  -5.211
REMARK INTRA:                  -0.140
REMARK UNBOUND:                -0.137
REMARK SMILES O=C([O-])C=Cc1ccc(O)cc1
REMARK SMILES IDX 6 1 7 2 12 3 8 4 11 5 9 6 5 7 4 8 2 9 1 10 3 11 10 12
REMARK H PARENT 10 13
REMARK Flexibility Score: inf
ROOT
ATOM      1  C   UNL     1     -36.713  74.684 -27.188  1.00  0.00    -0.025 A 
ATOM      2  C   UNL     1     -36.164  75.943 -26.869  1.00  0.00     0.012 A 
ATOM      3  C   UNL     1     -35.844  73.622 -27.491  1.00  0.00     0.012 A 
ATOM      4  C   UNL     1     -34.777  76.132 -26.879  1.00  0.00     0.047 A 
ATOM      5  C   UNL     1     -34.460  73.816 -27.501  1.00  0.00     0.047 A 
ATOM      6  C   UNL     1     -33.923  75.070 -27.197  1.00  0.00     0.115 A 
ENDROOT
BRANCH   1   7
ATOM      7  C   UNL     1     -38.176  74.426 -27.181  1.00  0.00     0.010 C 
ATOM      8  C   UNL     1     -39.100  75.382 -27.025  1.00  0.00     0.025 C 
BRANCH   8   9
ATOM      9  C   UNL     1     -40.540  75.081 -27.036  1.00  0.00     0.064 C 
ATOM     10  O   UNL     1     -41.351  75.906 -26.540  1.00  0.00    -0.545 OA
ATOM     11  O   UNL     1     -41.021  73.898 -27.585  1.00  0.00    -0.545 OA
ENDBRANCH   8   9
ENDBRANCH   1   7
BRANCH   6  12
ATOM     12  O   UNL     1     -32.542  75.248 -27.213  1.00  0.00    -0.508 OA
ATOM     13  H   UNL     1     -32.086  75.786 -27.941  1.00  0.00     0.293 HD
ENDBRANCH   6  12
TORSDOF 3
ENDMDL
MODEL 7
REMARK VINA RESULT:    -4.499      9.023      9.780
REMARK INTER + INTRA:          -5.293
REMARK INTER:                  -5.144
REMARK INTRA:                  -0.149
REMARK UNBOUND:                -0.137
REMARK SMILES O=C([O-])C=Cc1ccc(O)cc1
REMARK SMILES IDX 6 1 7 2 12 3 8 4 11 5 9 6 5 7 4 8 2 9 1 10 3 11 10 12
REMARK H PARENT 10 13
REMARK Flexibility Score: inf
ROOT
ATOM      1  C   UNL     1     -39.467  73.032 -10.378  1.00  0.00    -0.025 A 
ATOM      2  C   UNL     1     -39.189  71.649 -10.342  1.00  0.00     0.012 A 
ATOM      3  C   UNL     1     -40.789  73.463 -10.177  1.00  0.00     0.012 A 
ATOM      4  C   UNL     1     -40.220  70.727 -10.133  1.00  0.00     0.047 A 
ATOM      5  C   UNL     1     -41.816  72.538  -9.971  1.00  0.00     0.047 A 
ATOM      6  C   UNL     1     -41.536  71.169  -9.950  1.00  0.00     0.115 A 
ENDROOT
BRANCH   1   7
ATOM      7  C   UNL     1     -38.409  74.053 -10.584  1.00  0.00     0.010 C 
ATOM      8  C   UNL     1     -38.624  75.242 -11.162  1.00  0.00     0.025 C 
BRANCH   8   9
ATOM      9  C   UNL     1     -37.545  76.228 -11.335  1.00  0.00     0.064 C 
ATOM     10  O   UNL     1     -36.635  76.311 -10.469  1.00  0.00    -0.545 OA
ATOM     11  O   UNL     1     -37.515  77.073 -12.438  1.00  0.00    -0.545 OA
ENDBRANCH   8   9
ENDBRANCH   1   7
BRANCH   6  12
ATOM     12  O   UNL     1     -42.569  70.258  -9.744  1.00  0.00    -0.508 OA
ATOM     13  H   UNL     1     -42.426  69.406  -9.214  1.00  0.00     0.293 HD
ENDBRANCH   6  12
TORSDOF 3
ENDMDL
MODEL 8
REMARK VINA RESULT:    -4.231      1.442      5.953
REMARK INTER + INTRA:          -4.987
REMARK INTER:                  -4.846
REMARK INTRA:                  -0.141
REMARK UNBOUND:                -0.137
REMARK SMILES O=C([O-])C=Cc1ccc(O)cc1
REMARK SMILES IDX 6 1 7 2 12 3 8 4 11 5 9 6 5 7 4 8 2 9 1 10 3 11 10 12
REMARK H PARENT 10 13
REMARK Flexibility Score: inf
ROOT
ATOM      1  C   UNL     1     -37.456  73.209 -19.012  1.00  0.00    -0.025 A 
ATOM      2  C   UNL     1     -38.223  73.713 -20.083  1.00  0.00     0.012 A 
ATOM      3  C   UNL     1     -37.235  74.028 -17.892  1.00  0.00     0.012 A 
ATOM      4  C   UNL     1     -38.733  75.015 -20.035  1.00  0.00     0.047 A 
ATOM      5  C   UNL     1     -37.745  75.329 -17.849  1.00  0.00     0.047 A 
ATOM      6  C   UNL     1     -38.493  75.826 -18.920  1.00  0.00     0.115 A 
ENDROOT
BRANCH   1   7
ATOM      7  C   UNL     1     -36.901  71.832 -19.007  1.00  0.00     0.010 C 
ATOM      8  C   UNL     1     -35.605  71.551 -18.824  1.00  0.00     0.025 C 
BRANCH   8   9
ATOM      9  C   UNL     1     -35.103  70.168 -18.815  1.00  0.00     0.064 C 
ATOM     10  O   UNL     1     -33.988  69.908 -19.339  1.00  0.00    -0.545 OA
ATOM     11  O   UNL     1     -35.841  69.140 -18.238  1.00  0.00    -0.545 OA
ENDBRANCH   8   9
ENDBRANCH   1   7
BRANCH   6  12
ATOM     12  O   UNL     1     -38.994  77.125 -18.864  1.00  0.00    -0.508 OA
ATOM     13  H   UNL     1     -39.980  77.318 -19.000  1.00  0.00     0.293 HD
ENDBRANCH   6  12
TORSDOF 3
ENDMDL
MODEL 9
REMARK VINA RESULT:    -4.103      8.241      9.983
REMARK INTER + INTRA:          -4.839
REMARK INTER:                  -4.698
REMARK INTRA:                  -0.141
REMARK UNBOUND:                -0.137
REMARK SMILES O=C([O-])C=Cc1ccc(O)cc1
REMARK SMILES IDX 6 1 7 2 12 3 8 4 11 5 9 6 5 7 4 8 2 9 1 10 3 11 10 12
REMARK H PARENT 10 13
REMARK Flexibility Score: inf
ROOT
ATOM      1  C   UNL     1     -38.401  74.894 -26.592  1.00  0.00    -0.025 A 
ATOM      2  C   UNL     1     -38.318  75.613 -25.382  1.00  0.00     0.012 A 
ATOM      3  C   UNL     1     -39.630  74.852 -27.273  1.00  0.00     0.012 A 
ATOM      4  C   UNL     1     -39.449  76.253 -24.861  1.00  0.00     0.047 A 
ATOM      5  C   UNL     1     -40.757  75.490 -26.748  1.00  0.00     0.047 A 
ATOM      6  C   UNL     1     -40.671  76.190 -25.541  1.00  0.00     0.115 A 
ENDROOT
BRANCH   1   7
ATOM      7  C   UNL     1     -37.231  74.208 -27.194  1.00  0.00     0.010 C 
ATOM      8  C   UNL     1     -35.968  74.632 -27.060  1.00  0.00     0.025 C 
BRANCH   8   9
ATOM      9  C   UNL     1     -34.837  73.912 -27.666  1.00  0.00     0.064 C 
ATOM     10  O   UNL     1     -34.939  73.471 -28.841  1.00  0.00    -0.545 OA
ATOM     11  O   UNL     1     -33.656  73.708 -26.962  1.00  0.00    -0.545 OA
ENDBRANCH   8   9
ENDBRANCH   1   7
BRANCH   6  12
ATOM     12  O   UNL     1     -41.803  76.821 -25.030  1.00  0.00    -0.508 OA
ATOM     13  H   UNL     1     -41.742  77.717 -24.559  1.00  0.00     0.293 HD
ENDBRANCH   6  12
TORSDOF 3
ENDMDL
