MODEL 1
REMARK VINA RESULT:    -4.456      0.000      0.000
REMARK INTER + INTRA:          -5.457
REMARK INTER:                  -5.368
REMARK INTRA:                  -0.089
REMARK UNBOUND:                -0.089
REMARK SMILES O=c1c(O)c(-c2ccc(O)c(O)c2)oc2cc(O)cc(O)c12
REMARK SMILES IDX 5 1 3 2 2 3 1 4 22 5 20 6 19 7 17 8 16 9 15 10 14 11 6 12
REMARK SMILES IDX 7 13 8 14 9 15 13 16 11 17 10 18 12 20 4 22 21 24 18 26
REMARK H PARENT 10 19 12 21 4 23 21 25 18 27
REMARK Flexibility Score: inf
ROOT
ATOM      1  C   UNL     1      -0.860 -18.199  16.800  1.00  0.00     0.180 A 
ATOM      2  C   UNL     1      -1.741 -17.122  16.602  1.00  0.00     0.208 A 
ATOM      3  C   UNL     1      -1.304 -16.014  15.857  1.00  0.00     0.238 A 
ATOM      4  O   UNL     1      -2.079 -15.031  15.729  1.00  0.00    -0.285 OA
ATOM      5  C   UNL     1       0.000 -16.003  15.308  1.00  0.00     0.111 A 
ATOM      6  C   UNL     1       0.533 -14.950  14.505  1.00  0.00     0.134 A 
ATOM      7  C   UNL     1       1.880 -14.986  14.125  1.00  0.00     0.093 A 
ATOM      8  C   UNL     1       2.695 -16.066  14.462  1.00  0.00     0.123 A 
ATOM      9  C   UNL     1       2.169 -17.128  15.197  1.00  0.00     0.094 A 
ATOM     10  C   UNL     1       0.839 -17.104  15.623  1.00  0.00     0.146 A 
ATOM     11  O   UNL     1       0.380 -18.131  16.328  1.00  0.00    -0.452 OA
ENDROOT
BRANCH   1  12
ATOM     12  C   UNL     1      -1.255 -19.412  17.551  1.00  0.00     0.025 A 
ATOM     13  C   UNL     1      -1.693 -19.338  18.885  1.00  0.00     0.016 A 
ATOM     14  C   UNL     1      -2.084 -20.492  19.566  1.00  0.00     0.051 A 
ATOM     15  C   UNL     1      -2.056 -21.738  18.923  1.00  0.00     0.157 A 
ATOM     16  C   UNL     1      -1.247 -20.660  16.905  1.00  0.00     0.062 A 
ATOM     17  C   UNL     1      -1.637 -21.819  17.585  1.00  0.00     0.158 A 
BRANCH  15  18
ATOM     18  O   UNL     1      -2.444 -22.888  19.607  1.00  0.00    -0.504 OA
ATOM     19  H   UNL     1      -1.922 -23.234  20.404  1.00  0.00     0.293 HD
ENDBRANCH  15  18
BRANCH  17  20
ATOM     20  O   UNL     1      -1.604 -23.041  16.913  1.00  0.00    -0.504 OA
ATOM     21  H   UNL     1      -2.449 -23.547  16.676  1.00  0.00     0.293 HD
ENDBRANCH  17  20
ENDBRANCH   1  12
BRANCH   2  22
ATOM     22  O   UNL     1      -3.017 -17.144  17.170  1.00  0.00    -0.502 OA
ATOM     23  H   UNL     1      -3.792 -17.642  16.749  1.00  0.00     0.293 HD
ENDBRANCH   2  22
BRANCH   6  24
ATOM     24  O   UNL     1      -0.220 -13.871  14.035  1.00  0.00    -0.507 OA
ATOM     25  H   UNL     1      -0.359 -13.005  14.534  1.00  0.00     0.293 HD
ENDBRANCH   6  24
BRANCH   8  26
ATOM     26  O   UNL     1       4.027 -16.074  14.053  1.00  0.00    -0.508 OA
ATOM     27  H   UNL     1       4.442 -15.278  13.582  1.00  0.00     0.293 HD
ENDBRANCH   8  26
TORSDOF 6
ENDMDL
MODEL 2
REMARK VINA RESULT:    -4.324      1.530      6.887
REMARK INTER + INTRA:          -5.297
REMARK INTER:                  -4.999
REMARK INTRA:                  -0.299
REMARK UNBOUND:                -0.089
REMARK SMILES O=c1c(O)c(-c2ccc(O)c(O)c2)oc2cc(O)cc(O)c12
REMARK SMILES IDX 5 1 3 2 2 3 1 4 22 5 20 6 19 7 17 8 16 9 15 10 14 11 6 12
REMARK SMILES IDX 7 13 8 14 9 15 13 16 11 17 10 18 12 20 4 22 21 24 18 26
REMARK H PARENT 10 19 12 21 4 23 21 25 18 27
REMARK Flexibility Score: inf
ROOT
ATOM      1  C   UNL     1      -0.073 -18.045  16.901  1.00  0.00     0.180 A 
ATOM      2  C   UNL     1      -0.514 -17.905  18.228  1.00  0.00     0.208 A 
ATOM      3  C   UNL     1      -1.343 -18.896  18.778  1.00  0.00     0.238 A 
ATOM      4  O   UNL     1      -1.779 -18.739  19.948  1.00  0.00    -0.285 OA
ATOM      5  C   UNL     1      -1.708 -20.022  18.000  1.00  0.00     0.111 A 
ATOM      6  C   UNL     1      -2.511 -21.104  18.468  1.00  0.00     0.134 A 
ATOM      7  C   UNL     1      -2.917 -22.101  17.572  1.00  0.00     0.093 A 
ATOM      8  C   UNL     1      -2.497 -22.088  16.242  1.00  0.00     0.123 A 
ATOM      9  C   UNL     1      -1.663 -21.066  15.789  1.00  0.00     0.094 A 
ATOM     10  C   UNL     1      -1.271 -20.038  16.650  1.00  0.00     0.146 A 
ATOM     11  O   UNL     1      -0.486 -19.079  16.176  1.00  0.00    -0.452 OA
ENDROOT
BRANCH   1  12
ATOM     12  C   UNL     1       0.823 -17.056  16.260  1.00  0.00     0.025 A 
ATOM     13  C   UNL     1       2.204 -17.290  16.137  1.00  0.00     0.016 A 
ATOM     14  C   UNL     1       3.027 -16.354  15.507  1.00  0.00     0.051 A 
ATOM     15  C   UNL     1       2.482 -15.175  14.979  1.00  0.00     0.157 A 
ATOM     16  C   UNL     1       0.279 -15.883  15.711  1.00  0.00     0.062 A 
ATOM     17  C   UNL     1       1.100 -14.942  15.080  1.00  0.00     0.158 A 
BRANCH  15  18
ATOM     18  O   UNL     1       3.306 -14.242  14.354  1.00  0.00    -0.504 OA
ATOM     19  H   UNL     1       3.070 -13.845  13.451  1.00  0.00     0.293 HD
ENDBRANCH  15  18
BRANCH  17  20
ATOM     20  O   UNL     1       0.525 -13.783  14.559  1.00  0.00    -0.504 OA
ATOM     21  H   UNL     1       0.786 -13.414  13.652  1.00  0.00     0.293 HD
ENDBRANCH  17  20
ENDBRANCH   1  12
BRANCH   2  22
ATOM     22  O   UNL     1      -0.160 -16.776  18.972  1.00  0.00    -0.502 OA
ATOM     23  H   UNL     1       0.641 -16.202  18.740  1.00  0.00     0.293 HD
ENDBRANCH   2  22
BRANCH   6  24
ATOM     24  O   UNL     1      -2.909 -21.262  19.799  1.00  0.00    -0.507 OA
ATOM     25  H   UNL     1      -2.900 -22.137  20.302  1.00  0.00     0.293 HD
ENDBRANCH   6  24
BRANCH   8  26
ATOM     26  O   UNL     1      -2.908 -23.105  15.382  1.00  0.00    -0.508 OA
ATOM     27  H   UNL     1      -2.617 -24.066  15.521  1.00  0.00     0.293 HD
ENDBRANCH   8  26
TORSDOF 6
ENDMDL
MODEL 3
REMARK VINA RESULT:    -4.200      1.499      3.289
REMARK INTER + INTRA:          -5.148
REMARK INTER:                  -5.025
REMARK INTRA:                  -0.124
REMARK UNBOUND:                -0.089
REMARK SMILES O=c1c(O)c(-c2ccc(O)c(O)c2)oc2cc(O)cc(O)c12
REMARK SMILES IDX 5 1 3 2 2 3 1 4 22 5 20 6 19 7 17 8 16 9 15 10 14 11 6 12
REMARK SMILES IDX 7 13 8 14 9 15 13 16 11 17 10 18 12 20 4 22 21 24 18 26
REMARK H PARENT 10 19 12 21 4 23 21 25 18 27
REMARK Flexibility Score: inf
ROOT
ATOM      1  C   UNL     1       0.193 -18.212  16.390  1.00  0.00     0.180 A 
ATOM      2  C   UNL     1       1.447 -18.634  15.913  1.00  0.00     0.208 A 
ATOM      3  C   UNL     1       2.239 -17.729  15.189  1.00  0.00     0.238 A 
ATOM      4  O   UNL     1       3.336 -18.129  14.719  1.00  0.00    -0.285 OA
ATOM      5  C   UNL     1       1.776 -16.410  14.963  1.00  0.00     0.111 A 
ATOM      6  C   UNL     1       2.513 -15.399  14.276  1.00  0.00     0.134 A 
ATOM      7  C   UNL     1       1.903 -14.170  13.998  1.00  0.00     0.093 A 
ATOM      8  C   UNL     1       0.609 -13.892  14.437  1.00  0.00     0.123 A 
ATOM      9  C   UNL     1      -0.098 -14.852  15.161  1.00  0.00     0.094 A 
ATOM     10  C   UNL     1       0.469 -16.101  15.422  1.00  0.00     0.146 A 
ATOM     11  O   UNL     1      -0.241 -16.990  16.105  1.00  0.00    -0.452 OA
ENDROOT
BRANCH   1  12
ATOM     12  C   UNL     1      -0.688 -19.100  17.182  1.00  0.00     0.025 A 
ATOM     13  C   UNL     1      -1.182 -20.305  16.652  1.00  0.00     0.016 A 
ATOM     14  C   UNL     1      -1.992 -21.138  17.427  1.00  0.00     0.051 A 
ATOM     15  C   UNL     1      -2.310 -20.788  18.746  1.00  0.00     0.157 A 
ATOM     16  C   UNL     1      -0.993 -18.763  18.512  1.00  0.00     0.062 A 
ATOM     17  C   UNL     1      -1.805 -19.596  19.290  1.00  0.00     0.158 A 
BRANCH  15  18
ATOM     18  O   UNL     1      -3.121 -21.621  19.515  1.00  0.00    -0.504 OA
ATOM     19  H   UNL     1      -3.975 -21.283  19.944  1.00  0.00     0.293 HD
ENDBRANCH  15  18
BRANCH  17  20
ATOM     20  O   UNL     1      -2.097 -19.223  20.603  1.00  0.00    -0.504 OA
ATOM     21  H   UNL     1      -3.049 -19.142  20.939  1.00  0.00     0.293 HD
ENDBRANCH  17  20
ENDBRANCH   1  12
BRANCH   2  22
ATOM     22  O   UNL     1       1.875 -19.947  16.128  1.00  0.00    -0.502 OA
ATOM     23  H   UNL     1       2.854 -20.191  16.221  1.00  0.00     0.293 HD
ENDBRANCH   2  22
BRANCH   6  24
ATOM     24  O   UNL     1       3.844 -15.541  13.875  1.00  0.00    -0.507 OA
ATOM     25  H   UNL     1       4.146 -16.029  13.045  1.00  0.00     0.293 HD
ENDBRANCH   6  24
BRANCH   8  26
ATOM     26  O   UNL     1       0.040 -12.651  14.155  1.00  0.00    -0.508 OA
ATOM     27  H   UNL     1      -0.375 -12.082  14.882  1.00  0.00     0.293 HD
ENDBRANCH   8  26
TORSDOF 6
ENDMDL
MODEL 4
REMARK VINA RESULT:    -4.172      5.365      8.579
REMARK INTER + INTRA:          -5.115
REMARK INTER:                  -4.817
REMARK INTRA:                  -0.299
REMARK UNBOUND:                -0.089
REMARK SMILES O=c1c(O)c(-c2ccc(O)c(O)c2)oc2cc(O)cc(O)c12
REMARK SMILES IDX 5 1 3 2 2 3 1 4 22 5 20 6 19 7 17 8 16 9 15 10 14 11 6 12
REMARK SMILES IDX 7 13 8 14 9 15 13 16 11 17 10 18 12 20 4 22 21 24 18 26
REMARK H PARENT 10 19 12 21 4 23 21 25 18 27
REMARK Flexibility Score: inf
ROOT
ATOM      1  C   UNL     1       5.454 -20.463  15.009  1.00  0.00     0.180 A 
ATOM      2  C   UNL     1       4.932 -21.766  15.085  1.00  0.00     0.208 A 
ATOM      3  C   UNL     1       3.561 -21.964  14.854  1.00  0.00     0.238 A 
ATOM      4  O   UNL     1       3.090 -23.125  14.977  1.00  0.00    -0.285 OA
ATOM      5  C   UNL     1       2.733 -20.861  14.534  1.00  0.00     0.111 A 
ATOM      6  C   UNL     1       1.339 -20.953  14.243  1.00  0.00     0.134 A 
ATOM      7  C   UNL     1       0.592 -19.781  14.068  1.00  0.00     0.093 A 
ATOM      8  C   UNL     1       1.199 -18.527  14.110  1.00  0.00     0.123 A 
ATOM      9  C   UNL     1       2.573 -18.429  14.336  1.00  0.00     0.094 A 
ATOM     10  C   UNL     1       3.338 -19.578  14.550  1.00  0.00     0.146 A 
ATOM     11  O   UNL     1       4.639 -19.440  14.772  1.00  0.00    -0.452 OA
ENDROOT
BRANCH   1  12
ATOM     12  C   UNL     1       6.892 -20.177  15.214  1.00  0.00     0.025 A 
ATOM     13  C   UNL     1       7.760 -19.971  14.128  1.00  0.00     0.016 A 
ATOM     14  C   UNL     1       9.108 -19.678  14.347  1.00  0.00     0.051 A 
ATOM     15  C   UNL     1       9.607 -19.574  15.653  1.00  0.00     0.157 A 
ATOM     16  C   UNL     1       7.392 -20.052  16.522  1.00  0.00     0.062 A 
ATOM     17  C   UNL     1       8.743 -19.760  16.744  1.00  0.00     0.158 A 
BRANCH  15  18
ATOM     18  O   UNL     1      10.953 -19.285  15.867  1.00  0.00    -0.504 OA
ATOM     19  H   UNL     1      11.680 -19.662  15.269  1.00  0.00     0.293 HD
ENDBRANCH  15  18
BRANCH  17  20
ATOM     20  O   UNL     1       9.206 -19.656  18.056  1.00  0.00    -0.504 OA
ATOM     21  H   UNL     1       9.057 -18.824  18.614  1.00  0.00     0.293 HD
ENDBRANCH  17  20
ENDBRANCH   1  12
BRANCH   2  22
ATOM     22  O   UNL     1       5.762 -22.837  15.423  1.00  0.00    -0.502 OA
ATOM     23  H   UNL     1       6.584 -23.080  14.883  1.00  0.00     0.293 HD
ENDBRANCH   2  22
BRANCH   6  24
ATOM     24  O   UNL     1       0.652 -22.160  14.087  1.00  0.00    -0.507 OA
ATOM     25  H   UNL     1       0.460 -22.813  14.832  1.00  0.00     0.293 HD
ENDBRANCH   6  24
BRANCH   8  26
ATOM     26  O   UNL     1       0.427 -17.383  13.916  1.00  0.00    -0.508 OA
ATOM     27  H   UNL     1       0.812 -16.455  14.050  1.00  0.00     0.293 HD
ENDBRANCH   8  26
TORSDOF 6
ENDMDL
MODEL 5
REMARK VINA RESULT:    -4.077     15.466     18.234
REMARK INTER + INTRA:          -5.000
REMARK INTER:                  -4.691
REMARK INTRA:                  -0.309
REMARK UNBOUND:                -0.089
REMARK SMILES O=c1c(O)c(-c2ccc(O)c(O)c2)oc2cc(O)cc(O)c12
REMARK SMILES IDX 5 1 3 2 2 3 1 4 22 5 20 6 19 7 17 8 16 9 15 10 14 11 6 12
REMARK SMILES IDX 7 13 8 14 9 15 13 16 11 17 10 18 12 20 4 22 21 24 18 26
REMARK H PARENT 10 19 12 21 4 23 21 25 18 27
REMARK Flexibility Score: inf
ROOT
ATOM      1  C   UNL     1      10.941  -5.071  15.266  1.00  0.00     0.180 A 
ATOM      2  C   UNL     1      11.341  -6.243  14.601  1.00  0.00     0.208 A 
ATOM      3  C   UNL     1      12.708  -6.563  14.549  1.00  0.00     0.238 A 
ATOM      4  O   UNL     1      13.064  -7.585  13.906  1.00  0.00    -0.285 OA
ATOM      5  C   UNL     1      13.654  -5.716  15.174  1.00  0.00     0.111 A 
ATOM      6  C   UNL     1      15.059  -5.964  15.216  1.00  0.00     0.134 A 
ATOM      7  C   UNL     1      15.916  -4.992  15.749  1.00  0.00     0.093 A 
ATOM      8  C   UNL     1      15.414  -3.813  16.298  1.00  0.00     0.123 A 
ATOM      9  C   UNL     1      14.037  -3.587  16.315  1.00  0.00     0.094 A 
ATOM     10  C   UNL     1      13.160  -4.521  15.758  1.00  0.00     0.146 A 
ATOM     11  O   UNL     1      11.858  -4.263  15.785  1.00  0.00    -0.452 OA
ENDROOT
BRANCH   1  12
ATOM     12  C   UNL     1       9.518  -4.680  15.385  1.00  0.00     0.025 A 
ATOM     13  C   UNL     1       8.926  -3.782  14.479  1.00  0.00     0.016 A 
ATOM     14  C   UNL     1       7.576  -3.446  14.597  1.00  0.00     0.051 A 
ATOM     15  C   UNL     1       6.792  -4.011  15.612  1.00  0.00     0.157 A 
ATOM     16  C   UNL     1       8.723  -5.259  16.389  1.00  0.00     0.062 A 
ATOM     17  C   UNL     1       7.370  -4.924  16.510  1.00  0.00     0.158 A 
BRANCH  15  18
ATOM     18  O   UNL     1       5.446  -3.672  15.728  1.00  0.00    -0.504 OA
ATOM     19  H   UNL     1       5.153  -2.734  15.978  1.00  0.00     0.293 HD
ENDBRANCH  15  18
BRANCH  17  20
ATOM     20  O   UNL     1       6.616  -5.509  17.527  1.00  0.00    -0.504 OA
ATOM     21  H   UNL     1       7.014  -5.731  18.432  1.00  0.00     0.293 HD
ENDBRANCH  17  20
ENDBRANCH   1  12
BRANCH   2  22
ATOM     22  O   UNL     1      10.393  -7.054  13.972  1.00  0.00    -0.502 OA
ATOM     23  H   UNL     1      10.639  -7.921  13.511  1.00  0.00     0.293 HD
ENDBRANCH   2  22
BRANCH   6  24
ATOM     24  O   UNL     1      15.656  -7.149  14.779  1.00  0.00    -0.507 OA
ATOM     25  H   UNL     1      15.411  -8.072  15.107  1.00  0.00     0.293 HD
ENDBRANCH   6  24
BRANCH   8  26
ATOM     26  O   UNL     1      16.295  -2.875  16.834  1.00  0.00    -0.508 OA
ATOM     27  H   UNL     1      17.246  -3.122  17.079  1.00  0.00     0.293 HD
ENDBRANCH   8  26
TORSDOF 6
ENDMDL
