MODEL 1
REMARK VINA RESULT:    -7.079      0.000      0.000
REMARK INTER + INTRA:          -8.064
REMARK INTER:                  -8.321
REMARK INTRA:                   0.257
REMARK UNBOUND:                 0.257
REMARK SMILES O=c1c(O)c(-c2ccc(O)cc2)oc2cc(O)cc(O)c12
REMARK SMILES IDX 5 1 3 2 2 3 1 4 21 5 19 6 18 7 16 8 15 9 14 10 13 11 6 12
REMARK SMILES IDX 7 13 8 14 9 15 12 16 11 17 10 18 4 20 20 22 17 24
REMARK H PARENT 10 19 4 21 20 23 17 25
REMARK Flexibility Score: inf
ROOT
ATOM      1  C   UNL     1     -10.887  -8.624  38.202  1.00  0.00     0.180 A 
ATOM      2  C   UNL     1     -10.090  -8.834  37.063  1.00  0.00     0.208 A 
ATOM      3  C   UNL     1      -8.984  -9.693  37.155  1.00  0.00     0.238 A 
ATOM      4  O   UNL     1      -8.320  -9.935  36.114  1.00  0.00    -0.285 OA
ATOM      5  C   UNL     1      -8.654 -10.289  38.397  1.00  0.00     0.111 A 
ATOM      6  C   UNL     1      -7.530 -11.142  38.616  1.00  0.00     0.134 A 
ATOM      7  C   UNL     1      -7.365 -11.760  39.863  1.00  0.00     0.093 A 
ATOM      8  C   UNL     1      -8.243 -11.507  40.914  1.00  0.00     0.123 A 
ATOM      9  C   UNL     1      -9.314 -10.632  40.727  1.00  0.00     0.094 A 
ATOM     10  C   UNL     1      -9.528 -10.030  39.485  1.00  0.00     0.146 A 
ATOM     11  O   UNL     1     -10.572  -9.222  39.345  1.00  0.00    -0.452 OA
ENDROOT
BRANCH   1  12
ATOM     12  C   UNL     1     -12.078  -7.744  38.181  1.00  0.00     0.021 A 
ATOM     13  C   UNL     1     -12.864  -7.602  37.022  1.00  0.00     0.016 A 
ATOM     14  C   UNL     1     -13.998  -6.783  37.034  1.00  0.00     0.047 A 
ATOM     15  C   UNL     1     -14.367  -6.109  38.202  1.00  0.00     0.115 A 
ATOM     16  C   UNL     1     -12.467  -7.079  39.356  1.00  0.00     0.016 A 
ATOM     17  C   UNL     1     -13.600  -6.261  39.365  1.00  0.00     0.047 A 
BRANCH  15  18
ATOM     18  O   UNL     1     -15.498  -5.296  38.198  1.00  0.00    -0.508 OA
ATOM     19  H   UNL     1     -16.379  -5.615  37.813  1.00  0.00     0.293 HD
ENDBRANCH  15  18
ENDBRANCH   1  12
BRANCH   2  20
ATOM     20  O   UNL     1     -10.386  -8.176  35.866  1.00  0.00    -0.502 OA
ATOM     21  H   UNL     1      -9.969  -7.288  35.615  1.00  0.00     0.293 HD
ENDBRANCH   2  20
BRANCH   6  22
ATOM     22  O   UNL     1      -6.541 -11.394  37.662  1.00  0.00    -0.507 OA
ATOM     23  H   UNL     1      -5.784 -10.768  37.434  1.00  0.00     0.293 HD
ENDBRANCH   6  22
BRANCH   8  24
ATOM     24  O   UNL     1      -8.038 -12.125  42.146  1.00  0.00    -0.508 OA
ATOM     25  H   UNL     1      -7.173 -12.608  42.359  1.00  0.00     0.293 HD
ENDBRANCH   8  24
TORSDOF 5
ENDMDL
MODEL 2
REMARK VINA RESULT:    -7.063      8.971     11.121
REMARK INTER + INTRA:          -8.045
REMARK INTER:                  -7.773
REMARK INTRA:                  -0.272
REMARK UNBOUND:                 0.257
REMARK SMILES O=c1c(O)c(-c2ccc(O)cc2)oc2cc(O)cc(O)c12
REMARK SMILES IDX 5 1 3 2 2 3 1 4 21 5 19 6 18 7 16 8 15 9 14 10 13 11 6 12
REMARK SMILES IDX 7 13 8 14 9 15 12 16 11 17 10 18 4 20 20 22 17 24
REMARK H PARENT 10 19 4 21 20 23 17 25
REMARK Flexibility Score: inf
ROOT
ATOM      1  C   UNL     1     -13.317  -8.135  47.353  1.00  0.00     0.180 A 
ATOM      2  C   UNL     1     -13.678  -9.491  47.439  1.00  0.00     0.208 A 
ATOM      3  C   UNL     1     -14.810  -9.939  46.741  1.00  0.00     0.238 A 
ATOM      4  O   UNL     1     -15.085 -11.167  46.763  1.00  0.00    -0.285 OA
ATOM      5  C   UNL     1     -15.600  -9.018  46.010  1.00  0.00     0.111 A 
ATOM      6  C   UNL     1     -16.794  -9.353  45.301  1.00  0.00     0.134 A 
ATOM      7  C   UNL     1     -17.433  -8.377  44.525  1.00  0.00     0.093 A 
ATOM      8  C   UNL     1     -16.961  -7.067  44.482  1.00  0.00     0.123 A 
ATOM      9  C   UNL     1     -15.827  -6.715  45.216  1.00  0.00     0.094 A 
ATOM     10  C   UNL     1     -15.144  -7.674  45.969  1.00  0.00     0.146 A 
ATOM     11  O   UNL     1     -14.058  -7.301  46.633  1.00  0.00    -0.452 OA
ENDROOT
BRANCH   1  12
ATOM     12  C   UNL     1     -12.128  -7.590  48.048  1.00  0.00     0.021 A 
ATOM     13  C   UNL     1     -12.170  -7.246  49.412  1.00  0.00     0.016 A 
ATOM     14  C   UNL     1     -11.027  -6.756  50.052  1.00  0.00     0.047 A 
ATOM     15  C   UNL     1      -9.829  -6.616  49.344  1.00  0.00     0.115 A 
ATOM     16  C   UNL     1     -10.916  -7.465  47.349  1.00  0.00     0.016 A 
ATOM     17  C   UNL     1      -9.775  -6.974  47.991  1.00  0.00     0.047 A 
BRANCH  15  18
ATOM     18  O   UNL     1      -8.700  -6.124  49.995  1.00  0.00    -0.508 OA
ATOM     19  H   UNL     1      -8.482  -5.134  50.001  1.00  0.00     0.293 HD
ENDBRANCH  15  18
ENDBRANCH   1  12
BRANCH   2  20
ATOM     20  O   UNL     1     -12.931 -10.370  48.228  1.00  0.00    -0.502 OA
ATOM     21  H   UNL     1     -12.497 -11.204  47.853  1.00  0.00     0.293 HD
ENDBRANCH   2  20
BRANCH   6  22
ATOM     22  O   UNL     1     -17.403 -10.610  45.345  1.00  0.00    -0.507 OA
ATOM     23  H   UNL     1     -18.374 -10.789  45.139  1.00  0.00     0.293 HD
ENDBRANCH   6  22
BRANCH   8  24
ATOM     24  O   UNL     1     -17.632  -6.118  43.714  1.00  0.00    -0.508 OA
ATOM     25  H   UNL     1     -17.592  -5.131  43.937  1.00  0.00     0.293 HD
ENDBRANCH   8  24
TORSDOF 5
ENDMDL
MODEL 3
REMARK VINA RESULT:    -7.036      5.109      8.002
REMARK INTER + INTRA:          -8.013
REMARK INTER:                  -7.835
REMARK INTRA:                  -0.179
REMARK UNBOUND:                 0.257
REMARK SMILES O=c1c(O)c(-c2ccc(O)cc2)oc2cc(O)cc(O)c12
REMARK SMILES IDX 5 1 3 2 2 3 1 4 21 5 19 6 18 7 16 8 15 9 14 10 13 11 6 12
REMARK SMILES IDX 7 13 8 14 9 15 12 16 11 17 10 18 4 20 20 22 17 24
REMARK H PARENT 10 19 4 21 20 23 17 25
REMARK Flexibility Score: inf
ROOT
ATOM      1  C   UNL     1     -14.383  -5.911  41.244  1.00  0.00     0.180 A 
ATOM      2  C   UNL     1     -13.444  -5.174  41.986  1.00  0.00     0.208 A 
ATOM      3  C   UNL     1     -13.623  -5.044  43.373  1.00  0.00     0.238 A 
ATOM      4  O   UNL     1     -12.740  -4.447  44.041  1.00  0.00    -0.285 OA
ATOM      5  C   UNL     1     -14.767  -5.604  43.993  1.00  0.00     0.111 A 
ATOM      6  C   UNL     1     -15.073  -5.496  45.383  1.00  0.00     0.134 A 
ATOM      7  C   UNL     1     -16.179  -6.182  45.902  1.00  0.00     0.093 A 
ATOM      8  C   UNL     1     -17.024  -6.919  45.074  1.00  0.00     0.123 A 
ATOM      9  C   UNL     1     -16.765  -6.986  43.704  1.00  0.00     0.094 A 
ATOM     10  C   UNL     1     -15.649  -6.344  43.162  1.00  0.00     0.146 A 
ATOM     11  O   UNL     1     -15.428  -6.453  41.858  1.00  0.00    -0.452 OA
ENDROOT
BRANCH   1  12
ATOM     12  C   UNL     1     -14.255  -6.106  39.781  1.00  0.00     0.021 A 
ATOM     13  C   UNL     1     -13.210  -6.871  39.232  1.00  0.00     0.016 A 
ATOM     14  C   UNL     1     -13.124  -7.060  37.849  1.00  0.00     0.047 A 
ATOM     15  C   UNL     1     -14.086  -6.500  37.001  1.00  0.00     0.115 A 
ATOM     16  C   UNL     1     -15.228  -5.564  38.925  1.00  0.00     0.016 A 
ATOM     17  C   UNL     1     -15.140  -5.754  37.543  1.00  0.00     0.047 A 
BRANCH  15  18
ATOM     18  O   UNL     1     -13.986  -6.695  35.626  1.00  0.00    -0.508 OA
ATOM     19  H   UNL     1     -13.887  -7.622  35.228  1.00  0.00     0.293 HD
ENDBRANCH  15  18
ENDBRANCH   1  12
BRANCH   2  20
ATOM     20  O   UNL     1     -12.363  -4.563  41.346  1.00  0.00    -0.502 OA
ATOM     21  H   UNL     1     -11.716  -5.077  40.760  1.00  0.00     0.293 HD
ENDBRANCH   2  20
BRANCH   6  22
ATOM     22  O   UNL     1     -14.347  -4.715  46.286  1.00  0.00    -0.507 OA
ATOM     23  H   UNL     1     -14.377  -3.708  46.334  1.00  0.00     0.293 HD
ENDBRANCH   6  22
BRANCH   8  24
ATOM     24  O   UNL     1     -18.125  -7.574  45.622  1.00  0.00    -0.508 OA
ATOM     25  H   UNL     1     -18.718  -7.127  46.312  1.00  0.00     0.293 HD
ENDBRANCH   8  24
TORSDOF 5
ENDMDL
MODEL 4
REMARK VINA RESULT:    -6.985      8.518     10.555
REMARK INTER + INTRA:          -7.953
REMARK INTER:                  -8.429
REMARK INTRA:                   0.475
REMARK UNBOUND:                 0.257
REMARK SMILES O=c1c(O)c(-c2ccc(O)cc2)oc2cc(O)cc(O)c12
REMARK SMILES IDX 5 1 3 2 2 3 1 4 21 5 19 6 18 7 16 8 15 9 14 10 13 11 6 12
REMARK SMILES IDX 7 13 8 14 9 15 12 16 11 17 10 18 4 20 20 22 17 24
REMARK H PARENT 10 19 4 21 20 23 17 25
REMARK Flexibility Score: inf
ROOT
ATOM      1  C   UNL     1     -16.773  -7.952  45.175  1.00  0.00     0.180 A 
ATOM      2  C   UNL     1     -16.944  -9.152  45.886  1.00  0.00     0.208 A 
ATOM      3  C   UNL     1     -16.614  -9.187  47.250  1.00  0.00     0.238 A 
ATOM      4  O   UNL     1     -16.839 -10.242  47.898  1.00  0.00    -0.285 OA
ATOM      5  C   UNL     1     -16.065  -8.040  47.874  1.00  0.00     0.111 A 
ATOM      6  C   UNL     1     -15.653  -7.975  49.240  1.00  0.00     0.134 A 
ATOM      7  C   UNL     1     -15.223  -6.754  49.775  1.00  0.00     0.093 A 
ATOM      8  C   UNL     1     -15.130  -5.612  48.981  1.00  0.00     0.123 A 
ATOM      9  C   UNL     1     -15.477  -5.677  47.631  1.00  0.00     0.094 A 
ATOM     10  C   UNL     1     -15.946  -6.871  47.077  1.00  0.00     0.146 A 
ATOM     11  O   UNL     1     -16.287  -6.883  45.794  1.00  0.00    -0.452 OA
ENDROOT
BRANCH   1  12
ATOM     12  C   UNL     1     -17.112  -7.832  43.738  1.00  0.00     0.021 A 
ATOM     13  C   UNL     1     -17.790  -8.859  43.056  1.00  0.00     0.016 A 
ATOM     14  C   UNL     1     -18.121  -8.712  41.705  1.00  0.00     0.047 A 
ATOM     15  C   UNL     1     -17.791  -7.535  41.024  1.00  0.00     0.115 A 
ATOM     16  C   UNL     1     -16.802  -6.645  43.052  1.00  0.00     0.016 A 
ATOM     17  C   UNL     1     -17.133  -6.501  41.702  1.00  0.00     0.047 A 
BRANCH  15  18
ATOM     18  O   UNL     1     -18.125  -7.404  39.678  1.00  0.00    -0.508 OA
ATOM     19  H   UNL     1     -17.566  -6.843  39.046  1.00  0.00     0.293 HD
ENDBRANCH  15  18
ENDBRANCH   1  12
BRANCH   2  20
ATOM     20  O   UNL     1     -17.414 -10.296  45.236  1.00  0.00    -0.502 OA
ATOM     21  H   UNL     1     -18.274 -10.759  45.502  1.00  0.00     0.293 HD
ENDBRANCH   2  20
BRANCH   6  22
ATOM     22  O   UNL     1     -15.622  -9.076  50.100  1.00  0.00    -0.507 OA
ATOM     23  H   UNL     1     -14.928  -9.231  50.816  1.00  0.00     0.293 HD
ENDBRANCH   6  22
BRANCH   8  24
ATOM     24  O   UNL     1     -14.681  -4.419  49.542  1.00  0.00    -0.508 OA
ATOM     25  H   UNL     1     -13.761  -4.342  49.959  1.00  0.00     0.293 HD
ENDBRANCH   8  24
TORSDOF 5
ENDMDL
MODEL 5
REMARK VINA RESULT:    -6.967      1.908      6.598
REMARK INTER + INTRA:          -7.932
REMARK INTER:                  -7.695
REMARK INTRA:                  -0.237
REMARK UNBOUND:                 0.257
REMARK SMILES O=c1c(O)c(-c2ccc(O)cc2)oc2cc(O)cc(O)c12
REMARK SMILES IDX 5 1 3 2 2 3 1 4 21 5 19 6 18 7 16 8 15 9 14 10 13 11 6 12
REMARK SMILES IDX 7 13 8 14 9 15 12 16 11 17 10 18 4 20 20 22 17 24
REMARK H PARENT 10 19 4 21 20 23 17 25
REMARK Flexibility Score: inf
ROOT
ATOM      1  C   UNL     1     -10.721  -8.679  39.888  1.00  0.00     0.180 A 
ATOM      2  C   UNL     1     -10.647  -9.058  38.536  1.00  0.00     0.208 A 
ATOM      3  C   UNL     1     -11.534  -8.476  37.617  1.00  0.00     0.238 A 
ATOM      4  O   UNL     1     -11.413  -8.763  36.397  1.00  0.00    -0.285 OA
ATOM      5  C   UNL     1     -12.521  -7.565  38.067  1.00  0.00     0.111 A 
ATOM      6  C   UNL     1     -13.501  -6.949  37.230  1.00  0.00     0.134 A 
ATOM      7  C   UNL     1     -14.359  -5.981  37.769  1.00  0.00     0.093 A 
ATOM      8  C   UNL     1     -14.317  -5.655  39.124  1.00  0.00     0.123 A 
ATOM      9  C   UNL     1     -13.401  -6.292  39.962  1.00  0.00     0.094 A 
ATOM     10  C   UNL     1     -12.505  -7.233  39.447  1.00  0.00     0.146 A 
ATOM     11  O   UNL     1     -11.636  -7.798  40.275  1.00  0.00    -0.452 OA
ENDROOT
BRANCH   1  12
ATOM     12  C   UNL     1      -9.811  -9.237  40.914  1.00  0.00     0.021 A 
ATOM     13  C   UNL     1      -9.983 -10.540  41.416  1.00  0.00     0.016 A 
ATOM     14  C   UNL     1      -9.095 -11.054  42.367  1.00  0.00     0.047 A 
ATOM     15  C   UNL     1      -8.021 -10.279  42.818  1.00  0.00     0.115 A 
ATOM     16  C   UNL     1      -8.718  -8.473  41.357  1.00  0.00     0.016 A 
ATOM     17  C   UNL     1      -7.833  -8.988  42.308  1.00  0.00     0.047 A 
BRANCH  15  18
ATOM     18  O   UNL     1      -7.147 -10.803  43.767  1.00  0.00    -0.508 OA
ATOM     19  H   UNL     1      -6.853 -10.261  44.572  1.00  0.00     0.293 HD
ENDBRANCH  15  18
ENDBRANCH   1  12
BRANCH   2  20
ATOM     20  O   UNL     1      -9.717 -10.016  38.123  1.00  0.00    -0.502 OA
ATOM     21  H   UNL     1      -8.753  -9.786  37.918  1.00  0.00     0.293 HD
ENDBRANCH   2  20
BRANCH   6  22
ATOM     22  O   UNL     1     -13.689  -7.264  35.882  1.00  0.00    -0.507 OA
ATOM     23  H   UNL     1     -14.314  -7.977  35.537  1.00  0.00     0.293 HD
ENDBRANCH   6  22
BRANCH   8  24
ATOM     24  O   UNL     1     -15.199  -4.702  39.629  1.00  0.00    -0.508 OA
ATOM     25  H   UNL     1     -15.320  -4.568  40.626  1.00  0.00     0.293 HD
ENDBRANCH   8  24
TORSDOF 5
ENDMDL
MODEL 6
REMARK VINA RESULT:    -6.650      8.702     10.645
REMARK INTER + INTRA:          -7.559
REMARK INTER:                  -7.276
REMARK INTRA:                  -0.283
REMARK UNBOUND:                 0.257
REMARK SMILES O=c1c(O)c(-c2ccc(O)cc2)oc2cc(O)cc(O)c12
REMARK SMILES IDX 5 1 3 2 2 3 1 4 21 5 19 6 18 7 16 8 15 9 14 10 13 11 6 12
REMARK SMILES IDX 7 13 8 14 9 15 12 16 11 17 10 18 4 20 20 22 17 24
REMARK H PARENT 10 19 4 21 20 23 17 25
REMARK Flexibility Score: inf
ROOT
ATOM      1  C   UNL     1     -14.685  -7.584  46.381  1.00  0.00     0.180 A 
ATOM      2  C   UNL     1     -14.883  -8.976  46.379  1.00  0.00     0.208 A 
ATOM      3  C   UNL     1     -15.729  -9.542  45.412  1.00  0.00     0.238 A 
ATOM      4  O   UNL     1     -15.843 -10.794  45.370  1.00  0.00    -0.285 OA
ATOM      5  C   UNL     1     -16.411  -8.706  44.495  1.00  0.00     0.111 A 
ATOM      6  C   UNL     1     -17.327  -9.167  43.501  1.00  0.00     0.134 A 
ATOM      7  C   UNL     1     -17.860  -8.257  42.578  1.00  0.00     0.093 A 
ATOM      8  C   UNL     1     -17.562  -6.898  42.652  1.00  0.00     0.123 A 
ATOM      9  C   UNL     1     -16.711  -6.429  43.653  1.00  0.00     0.094 A 
ATOM     10  C   UNL     1     -16.133  -7.316  44.565  1.00  0.00     0.146 A 
ATOM     11  O   UNL     1     -15.312  -6.830  45.487  1.00  0.00    -0.452 OA
ENDROOT
BRANCH   1  12
ATOM     12  C   UNL     1     -13.796  -6.915  47.359  1.00  0.00     0.021 A 
ATOM     13  C   UNL     1     -12.403  -6.862  47.167  1.00  0.00     0.016 A 
ATOM     14  C   UNL     1     -11.588  -6.203  48.093  1.00  0.00     0.047 A 
ATOM     15  C   UNL     1     -12.152  -5.580  49.210  1.00  0.00     0.115 A 
ATOM     16  C   UNL     1     -14.357  -6.270  48.474  1.00  0.00     0.016 A 
ATOM     17  C   UNL     1     -13.540  -5.613  49.397  1.00  0.00     0.047 A 
BRANCH  15  18
ATOM     18  O   UNL     1     -11.327  -4.930  50.125  1.00  0.00    -0.508 OA
ATOM     19  H   UNL     1     -10.565  -5.413  50.587  1.00  0.00     0.293 HD
ENDBRANCH  15  18
ENDBRANCH   1  12
BRANCH   2  20
ATOM     20  O   UNL     1     -14.262  -9.777  47.341  1.00  0.00    -0.502 OA
ATOM     21  H   UNL     1     -14.765 -10.176  48.124  1.00  0.00     0.293 HD
ENDBRANCH   2  20
BRANCH   6  22
ATOM     22  O   UNL     1     -17.764 -10.490  43.392  1.00  0.00    -0.507 OA
ATOM     23  H   UNL     1     -18.690 -10.772  43.110  1.00  0.00     0.293 HD
ENDBRANCH   6  22
BRANCH   8  24
ATOM     24  O   UNL     1     -18.125  -6.019  41.728  1.00  0.00    -0.508 OA
ATOM     25  H   UNL     1     -17.569  -5.590  40.998  1.00  0.00     0.293 HD
ENDBRANCH   8  24
TORSDOF 5
ENDMDL
MODEL 7
REMARK VINA RESULT:    -6.633      6.591      9.927
REMARK INTER + INTRA:          -7.539
REMARK INTER:                  -7.254
REMARK INTRA:                  -0.285
REMARK UNBOUND:                 0.257
REMARK SMILES O=c1c(O)c(-c2ccc(O)cc2)oc2cc(O)cc(O)c12
REMARK SMILES IDX 5 1 3 2 2 3 1 4 21 5 19 6 18 7 16 8 15 9 14 10 13 11 6 12
REMARK SMILES IDX 7 13 8 14 9 15 12 16 11 17 10 18 4 20 20 22 17 24
REMARK H PARENT 10 19 4 21 20 23 17 25
REMARK Flexibility Score: inf
ROOT
ATOM      1  C   UNL     1     -12.837  -8.726  45.363  1.00  0.00     0.180 A 
ATOM      2  C   UNL     1     -13.354  -9.869  45.998  1.00  0.00     0.208 A 
ATOM      3  C   UNL     1     -14.741 -10.081  45.992  1.00  0.00     0.238 A 
ATOM      4  O   UNL     1     -15.191 -11.143  46.496  1.00  0.00    -0.285 OA
ATOM      5  C   UNL     1     -15.600  -9.122  45.402  1.00  0.00     0.111 A 
ATOM      6  C   UNL     1     -17.026  -9.212  45.378  1.00  0.00     0.134 A 
ATOM      7  C   UNL     1     -17.766  -8.256  44.671  1.00  0.00     0.093 A 
ATOM      8  C   UNL     1     -17.141  -7.180  44.043  1.00  0.00     0.123 A 
ATOM      9  C   UNL     1     -15.753  -7.051  44.108  1.00  0.00     0.094 A 
ATOM     10  C   UNL     1     -14.983  -8.010  44.772  1.00  0.00     0.146 A 
ATOM     11  O   UNL     1     -13.664  -7.861  44.790  1.00  0.00    -0.452 OA
ENDROOT
BRANCH   1  12
ATOM     12  C   UNL     1     -11.384  -8.440  45.314  1.00  0.00     0.021 A 
ATOM     13  C   UNL     1     -10.759  -7.649  46.296  1.00  0.00     0.016 A 
ATOM     14  C   UNL     1      -9.381  -7.414  46.241  1.00  0.00     0.047 A 
ATOM     15  C   UNL     1      -8.612  -7.975  45.217  1.00  0.00     0.115 A 
ATOM     16  C   UNL     1     -10.601  -9.016  44.301  1.00  0.00     0.016 A 
ATOM     17  C   UNL     1      -9.225  -8.779  44.248  1.00  0.00     0.047 A 
BRANCH  15  18
ATOM     18  O   UNL     1      -7.241  -7.729  45.174  1.00  0.00    -0.508 OA
ATOM     19  H   UNL     1      -6.585  -8.299  45.696  1.00  0.00     0.293 HD
ENDBRANCH  15  18
ENDBRANCH   1  12
BRANCH   2  20
ATOM     20  O   UNL     1     -12.497 -10.765  46.642  1.00  0.00    -0.502 OA
ATOM     21  H   UNL     1     -11.520 -10.559  46.810  1.00  0.00     0.293 HD
ENDBRANCH   2  20
BRANCH   6  22
ATOM     22  O   UNL     1     -17.759 -10.197  46.045  1.00  0.00    -0.507 OA
ATOM     23  H   UNL     1     -18.758 -10.316  45.981  1.00  0.00     0.293 HD
ENDBRANCH   6  22
BRANCH   8  24
ATOM     24  O   UNL     1     -17.911  -6.237  43.365  1.00  0.00    -0.508 OA
ATOM     25  H   UNL     1     -18.016  -5.290  43.711  1.00  0.00     0.293 HD
ENDBRANCH   8  24
TORSDOF 5
ENDMDL
MODEL 8
REMARK VINA RESULT:    -6.620      7.170      9.318
REMARK INTER + INTRA:          -7.524
REMARK INTER:                  -7.236
REMARK INTRA:                  -0.288
REMARK UNBOUND:                 0.257
REMARK SMILES O=c1c(O)c(-c2ccc(O)cc2)oc2cc(O)cc(O)c12
REMARK SMILES IDX 5 1 3 2 2 3 1 4 21 5 19 6 18 7 16 8 15 9 14 10 13 11 6 12
REMARK SMILES IDX 7 13 8 14 9 15 12 16 11 17 10 18 4 20 20 22 17 24
REMARK H PARENT 10 19 4 21 20 23 17 25
REMARK Flexibility Score: inf
ROOT
ATOM      1  C   UNL     1     -15.307  -7.195  44.861  1.00  0.00     0.180 A 
ATOM      2  C   UNL     1     -15.534  -6.311  45.931  1.00  0.00     0.208 A 
ATOM      3  C   UNL     1     -15.352  -6.773  47.244  1.00  0.00     0.238 A 
ATOM      4  O   UNL     1     -15.485  -5.957  48.194  1.00  0.00    -0.285 OA
ATOM      5  C   UNL     1     -15.001  -8.125  47.476  1.00  0.00     0.111 A 
ATOM      6  C   UNL     1     -14.835  -8.713  48.767  1.00  0.00     0.134 A 
ATOM      7  C   UNL     1     -14.381 -10.034  48.871  1.00  0.00     0.093 A 
ATOM      8  C   UNL     1     -14.149 -10.808  47.735  1.00  0.00     0.123 A 
ATOM      9  C   UNL     1     -14.363 -10.261  46.469  1.00  0.00     0.094 A 
ATOM     10  C   UNL     1     -14.777  -8.935  46.331  1.00  0.00     0.146 A 
ATOM     11  O   UNL     1     -14.947  -8.448  45.108  1.00  0.00    -0.452 OA
ENDROOT
BRANCH   1  12
ATOM     12  C   UNL     1     -15.463  -6.779  43.448  1.00  0.00     0.021 A 
ATOM     13  C   UNL     1     -16.690  -6.921  42.773  1.00  0.00     0.016 A 
ATOM     14  C   UNL     1     -16.819  -6.498  41.446  1.00  0.00     0.047 A 
ATOM     15  C   UNL     1     -15.733  -5.917  40.784  1.00  0.00     0.115 A 
ATOM     16  C   UNL     1     -14.383  -6.176  42.783  1.00  0.00     0.016 A 
ATOM     17  C   UNL     1     -14.515  -5.754  41.456  1.00  0.00     0.047 A 
BRANCH  15  18
ATOM     18  O   UNL     1     -15.876  -5.503  39.462  1.00  0.00    -0.508 OA
ATOM     19  H   UNL     1     -16.339  -6.083  38.772  1.00  0.00     0.293 HD
ENDBRANCH  15  18
ENDBRANCH   1  12
BRANCH   2  20
ATOM     20  O   UNL     1     -15.956  -5.002  45.686  1.00  0.00    -0.502 OA
ATOM     21  H   UNL     1     -15.653  -4.218  46.250  1.00  0.00     0.293 HD
ENDBRANCH   2  20
BRANCH   6  22
ATOM     22  O   UNL     1     -15.121  -8.058  49.967  1.00  0.00    -0.507 OA
ATOM     23  H   UNL     1     -14.889  -7.099  50.173  1.00  0.00     0.293 HD
ENDBRANCH   6  22
BRANCH   8  24
ATOM     24  O   UNL     1     -13.716 -12.125  47.877  1.00  0.00    -0.508 OA
ATOM     25  H   UNL     1     -13.376 -12.479  48.763  1.00  0.00     0.293 HD
ENDBRANCH   8  24
TORSDOF 5
ENDMDL
MODEL 9
REMARK VINA RESULT:    -6.060      7.984      9.641
REMARK INTER + INTRA:          -6.866
REMARK INTER:                  -6.569
REMARK INTRA:                  -0.297
REMARK UNBOUND:                 0.257
REMARK SMILES O=c1c(O)c(-c2ccc(O)cc2)oc2cc(O)cc(O)c12
REMARK SMILES IDX 5 1 3 2 2 3 1 4 21 5 19 6 18 7 16 8 15 9 14 10 13 11 6 12
REMARK SMILES IDX 7 13 8 14 9 15 12 16 11 17 10 18 4 20 20 22 17 24
REMARK H PARENT 10 19 4 21 20 23 17 25
REMARK Flexibility Score: inf
ROOT
ATOM      1  C   UNL     1     -14.008  -8.397  46.473  1.00  0.00     0.180 A 
ATOM      2  C   UNL     1     -14.207  -8.180  47.847  1.00  0.00     0.208 A 
ATOM      3  C   UNL     1     -13.132  -7.722  48.626  1.00  0.00     0.238 A 
ATOM      4  O   UNL     1     -13.337  -7.459  49.840  1.00  0.00    -0.285 OA
ATOM      5  C   UNL     1     -11.858  -7.539  48.035  1.00  0.00     0.111 A 
ATOM      6  C   UNL     1     -10.688  -7.122  48.738  1.00  0.00     0.134 A 
ATOM      7  C   UNL     1      -9.507  -6.872  48.027  1.00  0.00     0.093 A 
ATOM      8  C   UNL     1      -9.435  -7.085  46.652  1.00  0.00     0.123 A 
ATOM      9  C   UNL     1     -10.558  -7.547  45.963  1.00  0.00     0.094 A 
ATOM     10  C   UNL     1     -11.761  -7.768  46.638  1.00  0.00     0.146 A 
ATOM     11  O   UNL     1     -12.810  -8.186  45.940  1.00  0.00    -0.452 OA
ENDROOT
BRANCH   1  12
ATOM     12  C   UNL     1     -15.095  -8.865  45.583  1.00  0.00     0.021 A 
ATOM     13  C   UNL     1     -15.936  -7.957  44.913  1.00  0.00     0.016 A 
ATOM     14  C   UNL     1     -16.941  -8.424  44.058  1.00  0.00     0.047 A 
ATOM     15  C   UNL     1     -17.108  -9.797  43.853  1.00  0.00     0.115 A 
ATOM     16  C   UNL     1     -15.257 -10.242  45.355  1.00  0.00     0.016 A 
ATOM     17  C   UNL     1     -16.261 -10.705  44.501  1.00  0.00     0.047 A 
BRANCH  15  18
ATOM     18  O   UNL     1     -18.114 -10.247  43.001  1.00  0.00    -0.508 OA
ATOM     19  H   UNL     1     -17.911 -10.858  42.218  1.00  0.00     0.293 HD
ENDBRANCH  15  18
ENDBRANCH   1  12
BRANCH   2  20
ATOM     20  O   UNL     1     -15.451  -8.439  48.428  1.00  0.00    -0.502 OA
ATOM     21  H   UNL     1     -16.295  -7.957  48.146  1.00  0.00     0.293 HD
ENDBRANCH   2  20
BRANCH   6  22
ATOM     22  O   UNL     1     -10.623  -6.962  50.125  1.00  0.00    -0.507 OA
ATOM     23  H   UNL     1     -10.523  -6.079  50.602  1.00  0.00     0.293 HD
ENDBRANCH   6  22
BRANCH   8  24
ATOM     24  O   UNL     1      -8.239  -6.844  45.979  1.00  0.00    -0.508 OA
ATOM     25  H   UNL     1      -7.625  -6.083  46.245  1.00  0.00     0.293 HD
ENDBRANCH   8  24
TORSDOF 5
ENDMDL
