MODEL 1
REMARK VINA RESULT:    -5.247      0.000      0.000
REMARK INTER + INTRA:          -6.631
REMARK INTER:                  -6.320
REMARK INTRA:                  -0.311
REMARK UNBOUND:                -0.311
REMARK SMILES O=c1c(O)c(-c2ccc(O)c(O)c2)oc2cc(O)cc(O)c12
REMARK SMILES IDX 5 1 3 2 2 3 1 4 22 5 20 6 19 7 17 8 16 9 15 10 14 11 6 12
REMARK SMILES IDX 7 13 8 14 9 15 13 16 11 17 10 18 12 20 4 22 21 24 18 26
REMARK H PARENT 10 19 12 21 4 23 21 25 18 27
REMARK Flexibility Score: inf
ROOT
ATOM      1  C   UNL     1     -30.390   2.825   7.979  1.00  0.00     0.180 A 
ATOM      2  C   UNL     1     -29.513   3.806   8.479  1.00  0.00     0.208 A 
ATOM      3  C   UNL     1     -28.239   3.415   8.923  1.00  0.00     0.238 A 
ATOM      4  O   UNL     1     -27.450   4.284   9.382  1.00  0.00    -0.285 OA
ATOM      5  C   UNL     1     -27.858   2.062   8.839  1.00  0.00     0.111 A 
ATOM      6  C   UNL     1     -26.591   1.587   9.260  1.00  0.00     0.134 A 
ATOM      7  C   UNL     1     -26.283   0.223   9.136  1.00  0.00     0.093 A 
ATOM      8  C   UNL     1     -27.212  -0.671   8.601  1.00  0.00     0.123 A 
ATOM      9  C   UNL     1     -28.465  -0.208   8.183  1.00  0.00     0.094 A 
ATOM     10  C   UNL     1     -28.792   1.146   8.300  1.00  0.00     0.146 A 
ATOM     11  O   UNL     1     -29.990   1.558   7.902  1.00  0.00    -0.452 OA
ENDROOT
BRANCH   1  12
ATOM     12  C   UNL     1     -31.755   3.154   7.512  1.00  0.00     0.025 A 
ATOM     13  C   UNL     1     -32.795   3.278   8.448  1.00  0.00     0.016 A 
ATOM     14  C   UNL     1     -34.087   3.608   8.031  1.00  0.00     0.051 A 
ATOM     15  C   UNL     1     -34.355   3.835   6.675  1.00  0.00     0.157 A 
ATOM     16  C   UNL     1     -32.025   3.403   6.153  1.00  0.00     0.062 A 
ATOM     17  C   UNL     1     -33.321   3.737   5.735  1.00  0.00     0.158 A 
BRANCH  15  18
ATOM     18  O   UNL     1     -35.643   4.164   6.254  1.00  0.00    -0.504 OA
ATOM     19  H   UNL     1     -36.220   3.501   5.749  1.00  0.00     0.293 HD
ENDBRANCH  15  18
BRANCH  17  20
ATOM     20  O   UNL     1     -33.587   3.977   4.388  1.00  0.00    -0.504 OA
ATOM     21  H   UNL     1     -33.414   3.273   3.680  1.00  0.00     0.293 HD
ENDBRANCH  17  20
ENDBRANCH   1  12
BRANCH   2  22
ATOM     22  O   UNL     1     -29.898   5.150   8.505  1.00  0.00    -0.502 OA
ATOM     23  H   UNL     1     -29.249   5.902   8.313  1.00  0.00     0.293 HD
ENDBRANCH   2  22
BRANCH   6  24
ATOM     24  O   UNL     1     -25.641   2.455   9.798  1.00  0.00    -0.507 OA
ATOM     25  H   UNL     1     -24.797   2.113  10.243  1.00  0.00     0.293 HD
ENDBRANCH   6  24
BRANCH   8  26
ATOM     26  O   UNL     1     -26.881  -2.020   8.487  1.00  0.00    -0.508 OA
ATOM     27  H   UNL     1     -27.231  -2.589   7.725  1.00  0.00     0.293 HD
ENDBRANCH   8  26
TORSDOF 6
ENDMDL
MODEL 2
REMARK VINA RESULT:    -5.208      4.652     10.256
REMARK INTER + INTRA:          -6.584
REMARK INTER:                  -6.260
REMARK INTRA:                  -0.324
REMARK UNBOUND:                -0.311
REMARK SMILES O=c1c(O)c(-c2ccc(O)c(O)c2)oc2cc(O)cc(O)c12
REMARK SMILES IDX 5 1 3 2 2 3 1 4 22 5 20 6 19 7 17 8 16 9 15 10 14 11 6 12
REMARK SMILES IDX 7 13 8 14 9 15 13 16 11 17 10 18 12 20 4 22 21 24 18 26
REMARK H PARENT 10 19 12 21 4 23 21 25 18 27
REMARK Flexibility Score: inf
ROOT
ATOM      1  C   UNL     1     -23.967  -2.758   8.229  1.00  0.00     0.180 A 
ATOM      2  C   UNL     1     -24.844  -3.811   8.555  1.00  0.00     0.208 A 
ATOM      3  C   UNL     1     -26.187  -3.513   8.836  1.00  0.00     0.238 A 
ATOM      4  O   UNL     1     -26.978  -4.447   9.139  1.00  0.00    -0.285 OA
ATOM      5  C   UNL     1     -26.635  -2.179   8.765  1.00  0.00     0.111 A 
ATOM      6  C   UNL     1     -27.973  -1.796   9.028  1.00  0.00     0.134 A 
ATOM      7  C   UNL     1     -28.342  -0.446   8.928  1.00  0.00     0.093 A 
ATOM      8  C   UNL     1     -27.404   0.525   8.571  1.00  0.00     0.123 A 
ATOM      9  C   UNL     1     -26.081   0.152   8.309  1.00  0.00     0.094 A 
ATOM     10  C   UNL     1     -25.692  -1.187   8.406  1.00  0.00     0.146 A 
ATOM     11  O   UNL     1     -24.429  -1.512   8.158  1.00  0.00    -0.452 OA
ENDROOT
BRANCH   1  12
ATOM     12  C   UNL     1     -22.535  -2.988   7.940  1.00  0.00     0.025 A 
ATOM     13  C   UNL     1     -21.609  -2.993   8.996  1.00  0.00     0.016 A 
ATOM     14  C   UNL     1     -20.254  -3.229   8.749  1.00  0.00     0.051 A 
ATOM     15  C   UNL     1     -19.807  -3.479   7.445  1.00  0.00     0.157 A 
ATOM     16  C   UNL     1     -22.084  -3.259   6.635  1.00  0.00     0.062 A 
ATOM     17  C   UNL     1     -20.724  -3.498   6.387  1.00  0.00     0.158 A 
BRANCH  15  18
ATOM     18  O   UNL     1     -18.456  -3.712   7.193  1.00  0.00    -0.504 OA
ATOM     19  H   UNL     1     -17.733  -3.333   7.793  1.00  0.00     0.293 HD
ENDBRANCH  15  18
BRANCH  17  20
ATOM     20  O   UNL     1     -20.279  -3.760   5.092  1.00  0.00    -0.504 OA
ATOM     21  H   UNL     1     -20.924  -3.997   4.347  1.00  0.00     0.293 HD
ENDBRANCH  17  20
ENDBRANCH   1  12
BRANCH   2  22
ATOM     22  O   UNL     1     -24.386  -5.132   8.570  1.00  0.00    -0.502 OA
ATOM     23  H   UNL     1     -24.404  -5.702   9.406  1.00  0.00     0.293 HD
ENDBRANCH   2  22
BRANCH   6  24
ATOM     24  O   UNL     1     -28.933  -2.742   9.387  1.00  0.00    -0.507 OA
ATOM     25  H   UNL     1     -29.302  -2.797  10.329  1.00  0.00     0.293 HD
ENDBRANCH   6  24
BRANCH   8  26
ATOM     26  O   UNL     1     -27.797   1.858   8.477  1.00  0.00    -0.508 OA
ATOM     27  H   UNL     1     -28.546   2.148   7.859  1.00  0.00     0.293 HD
ENDBRANCH   8  26
TORSDOF 6
ENDMDL
MODEL 3
REMARK VINA RESULT:    -5.077      2.942      5.012
REMARK INTER + INTRA:          -6.426
REMARK INTER:                  -6.319
REMARK INTRA:                  -0.107
REMARK UNBOUND:                -0.311
REMARK SMILES O=c1c(O)c(-c2ccc(O)c(O)c2)oc2cc(O)cc(O)c12
REMARK SMILES IDX 5 1 3 2 2 3 1 4 22 5 20 6 19 7 17 8 16 9 15 10 14 11 6 12
REMARK SMILES IDX 7 13 8 14 9 15 13 16 11 17 10 18 12 20 4 22 21 24 18 26
REMARK H PARENT 10 19 12 21 4 23 21 25 18 27
REMARK Flexibility Score: inf
ROOT
ATOM      1  C   UNL     1     -27.585   0.829   9.094  1.00  0.00     0.180 A 
ATOM      2  C   UNL     1     -28.479  -0.121   9.623  1.00  0.00     0.208 A 
ATOM      3  C   UNL     1     -28.090  -1.470   9.663  1.00  0.00     0.238 A 
ATOM      4  O   UNL     1     -28.887  -2.331  10.124  1.00  0.00    -0.285 OA
ATOM      5  C   UNL     1     -26.813  -1.841   9.196  1.00  0.00     0.111 A 
ATOM      6  C   UNL     1     -26.343  -3.178   9.207  1.00  0.00     0.134 A 
ATOM      7  C   UNL     1     -25.054  -3.465   8.733  1.00  0.00     0.093 A 
ATOM      8  C   UNL     1     -24.228  -2.447   8.251  1.00  0.00     0.123 A 
ATOM      9  C   UNL     1     -24.687  -1.125   8.238  1.00  0.00     0.094 A 
ATOM     10  C   UNL     1     -25.969  -0.818   8.704  1.00  0.00     0.146 A 
ATOM     11  O   UNL     1     -26.382   0.444   8.676  1.00  0.00    -0.452 OA
ENDROOT
BRANCH   1  12
ATOM     12  C   UNL     1     -27.928   2.265   8.999  1.00  0.00     0.025 A 
ATOM     13  C   UNL     1     -27.073   3.219   9.574  1.00  0.00     0.016 A 
ATOM     14  C   UNL     1     -27.366   4.582   9.478  1.00  0.00     0.051 A 
ATOM     15  C   UNL     1     -28.511   5.012   8.794  1.00  0.00     0.157 A 
ATOM     16  C   UNL     1     -29.066   2.702   8.296  1.00  0.00     0.062 A 
ATOM     17  C   UNL     1     -29.360   4.070   8.198  1.00  0.00     0.158 A 
BRANCH  15  18
ATOM     18  O   UNL     1     -28.810   6.370   8.699  1.00  0.00    -0.504 OA
ATOM     19  H   UNL     1     -29.340   6.847   9.418  1.00  0.00     0.293 HD
ENDBRANCH  15  18
BRANCH  17  20
ATOM     20  O   UNL     1     -30.491   4.500   7.507  1.00  0.00    -0.504 OA
ATOM     21  H   UNL     1     -31.091   3.850   7.013  1.00  0.00     0.293 HD
ENDBRANCH  17  20
ENDBRANCH   1  12
BRANCH   2  22
ATOM     22  O   UNL     1     -29.720   0.280  10.124  1.00  0.00    -0.502 OA
ATOM     23  H   UNL     1     -29.864   0.501  11.102  1.00  0.00     0.293 HD
ENDBRANCH   2  22
BRANCH   6  24
ATOM     24  O   UNL     1     -27.143  -4.217   9.682  1.00  0.00    -0.507 OA
ATOM     25  H   UNL     1     -26.744  -5.056  10.086  1.00  0.00     0.293 HD
ENDBRANCH   6  24
BRANCH   8  26
ATOM     26  O   UNL     1     -22.952  -2.759   7.787  1.00  0.00    -0.508 OA
ATOM     27  H   UNL     1     -22.761  -2.879   6.799  1.00  0.00     0.293 HD
ENDBRANCH   8  26
TORSDOF 6
ENDMDL
MODEL 4
REMARK VINA RESULT:    -4.953      3.430      6.862
REMARK INTER + INTRA:          -6.278
REMARK INTER:                  -6.705
REMARK INTRA:                   0.427
REMARK UNBOUND:                -0.311
REMARK SMILES O=c1c(O)c(-c2ccc(O)c(O)c2)oc2cc(O)cc(O)c12
REMARK SMILES IDX 5 1 3 2 2 3 1 4 22 5 20 6 19 7 17 8 16 9 15 10 14 11 6 12
REMARK SMILES IDX 7 13 8 14 9 15 13 16 11 17 10 18 12 20 4 22 21 24 18 26
REMARK H PARENT 10 19 12 21 4 23 21 25 18 27
REMARK Flexibility Score: inf
ROOT
ATOM      1  C   UNL     1     -26.420  -1.568   8.706  1.00  0.00     0.180 A 
ATOM      2  C   UNL     1     -27.104  -2.765   8.990  1.00  0.00     0.208 A 
ATOM      3  C   UNL     1     -26.376  -3.964   9.055  1.00  0.00     0.238 A 
ATOM      4  O   UNL     1     -26.980  -5.043   9.298  1.00  0.00    -0.285 OA
ATOM      5  C   UNL     1     -24.981  -3.943   8.857  1.00  0.00     0.111 A 
ATOM      6  C   UNL     1     -24.174  -5.106   8.910  1.00  0.00     0.134 A 
ATOM      7  C   UNL     1     -22.789  -5.000   8.710  1.00  0.00     0.093 A 
ATOM      8  C   UNL     1     -22.197  -3.761   8.460  1.00  0.00     0.123 A 
ATOM      9  C   UNL     1     -22.989  -2.609   8.406  1.00  0.00     0.094 A 
ATOM     10  C   UNL     1     -24.371  -2.692   8.601  1.00  0.00     0.146 A 
ATOM     11  O   UNL     1     -25.101  -1.584   8.539  1.00  0.00    -0.452 OA
ENDROOT
BRANCH   1  12
ATOM     12  C   UNL     1     -27.120  -0.268   8.601  1.00  0.00     0.025 A 
ATOM     13  C   UNL     1     -28.506  -0.245   8.377  1.00  0.00     0.016 A 
ATOM     14  C   UNL     1     -29.191   0.970   8.296  1.00  0.00     0.051 A 
ATOM     15  C   UNL     1     -28.502   2.180   8.453  1.00  0.00     0.157 A 
ATOM     16  C   UNL     1     -26.436   0.949   8.779  1.00  0.00     0.062 A 
ATOM     17  C   UNL     1     -27.123   2.169   8.700  1.00  0.00     0.158 A 
BRANCH  15  18
ATOM     18  O   UNL     1     -29.180   3.395   8.371  1.00  0.00    -0.504 OA
ATOM     19  H   UNL     1     -30.017   3.497   7.810  1.00  0.00     0.293 HD
ENDBRANCH  15  18
BRANCH  17  20
ATOM     20  O   UNL     1     -26.443   3.374   8.869  1.00  0.00    -0.504 OA
ATOM     21  H   UNL     1     -25.446   3.399   9.053  1.00  0.00     0.293 HD
ENDBRANCH  17  20
ENDBRANCH   1  12
BRANCH   2  22
ATOM     22  O   UNL     1     -28.481  -2.751   9.232  1.00  0.00    -0.502 OA
ATOM     23  H   UNL     1     -29.160  -2.648   8.488  1.00  0.00     0.293 HD
ENDBRANCH   2  22
BRANCH   6  24
ATOM     24  O   UNL     1     -24.734  -6.359   9.158  1.00  0.00    -0.507 OA
ATOM     25  H   UNL     1     -24.441  -7.184   8.650  1.00  0.00     0.293 HD
ENDBRANCH   6  24
BRANCH   8  26
ATOM     26  O   UNL     1     -20.819  -3.683   8.267  1.00  0.00    -0.508 OA
ATOM     27  H   UNL     1     -20.423  -3.243   7.445  1.00  0.00     0.293 HD
ENDBRANCH   8  26
TORSDOF 6
ENDMDL
MODEL 5
REMARK VINA RESULT:    -4.920      1.541      6.787
REMARK INTER + INTRA:          -6.237
REMARK INTER:                  -6.067
REMARK INTRA:                  -0.170
REMARK UNBOUND:                -0.311
REMARK SMILES O=c1c(O)c(-c2ccc(O)c(O)c2)oc2cc(O)cc(O)c12
REMARK SMILES IDX 5 1 3 2 2 3 1 4 22 5 20 6 19 7 17 8 16 9 15 10 14 11 6 12
REMARK SMILES IDX 7 13 8 14 9 15 13 16 11 17 10 18 12 20 4 22 21 24 18 26
REMARK H PARENT 10 19 12 21 4 23 21 25 18 27
REMARK Flexibility Score: inf
ROOT
ATOM      1  C   UNL     1     -29.340   1.287   8.127  1.00  0.00     0.180 A 
ATOM      2  C   UNL     1     -29.422   2.351   9.046  1.00  0.00     0.208 A 
ATOM      3  C   UNL     1     -30.423   3.320   8.874  1.00  0.00     0.238 A 
ATOM      4  O   UNL     1     -30.499   4.283   9.684  1.00  0.00    -0.285 OA
ATOM      5  C   UNL     1     -31.335   3.198   7.806  1.00  0.00     0.111 A 
ATOM      6  C   UNL     1     -32.375   4.129   7.566  1.00  0.00     0.134 A 
ATOM      7  C   UNL     1     -33.248   3.933   6.485  1.00  0.00     0.093 A 
ATOM      8  C   UNL     1     -33.103   2.829   5.643  1.00  0.00     0.123 A 
ATOM      9  C   UNL     1     -32.076   1.906   5.874  1.00  0.00     0.094 A 
ATOM     10  C   UNL     1     -31.195   2.084   6.945  1.00  0.00     0.146 A 
ATOM     11  O   UNL     1     -30.226   1.197   7.139  1.00  0.00    -0.452 OA
ENDROOT
BRANCH   1  12
ATOM     12  C   UNL     1     -28.301   0.238   8.228  1.00  0.00     0.025 A 
ATOM     13  C   UNL     1     -26.950   0.586   8.064  1.00  0.00     0.016 A 
ATOM     14  C   UNL     1     -25.951  -0.385   8.177  1.00  0.00     0.051 A 
ATOM     15  C   UNL     1     -26.286  -1.713   8.470  1.00  0.00     0.157 A 
ATOM     16  C   UNL     1     -28.631  -1.093   8.543  1.00  0.00     0.062 A 
ATOM     17  C   UNL     1     -27.628  -2.067   8.658  1.00  0.00     0.158 A 
BRANCH  15  18
ATOM     18  O   UNL     1     -25.293  -2.685   8.581  1.00  0.00    -0.504 OA
ATOM     19  H   UNL     1     -25.474  -3.578   9.024  1.00  0.00     0.293 HD
ENDBRANCH  15  18
BRANCH  17  20
ATOM     20  O   UNL     1     -27.958  -3.386   8.963  1.00  0.00    -0.504 OA
ATOM     21  H   UNL     1     -28.344  -3.642   9.864  1.00  0.00     0.293 HD
ENDBRANCH  17  20
ENDBRANCH   1  12
BRANCH   2  22
ATOM     22  O   UNL     1     -28.537   2.421  10.125  1.00  0.00    -0.502 OA
ATOM     23  H   UNL     1     -27.672   1.895  10.151  1.00  0.00     0.293 HD
ENDBRANCH   2  22
BRANCH   6  24
ATOM     24  O   UNL     1     -32.548   5.242   8.390  1.00  0.00    -0.507 OA
ATOM     25  H   UNL     1     -32.222   6.162   8.118  1.00  0.00     0.293 HD
ENDBRANCH   6  24
BRANCH   8  26
ATOM     26  O   UNL     1     -33.983   2.657   4.577  1.00  0.00    -0.508 OA
ATOM     27  H   UNL     1     -33.653   2.430   3.646  1.00  0.00     0.293 HD
ENDBRANCH   8  26
TORSDOF 6
ENDMDL
MODEL 6
REMARK VINA RESULT:    -4.864      1.584      6.818
REMARK INTER + INTRA:          -6.170
REMARK INTER:                  -6.449
REMARK INTRA:                   0.279
REMARK UNBOUND:                -0.311
REMARK SMILES O=c1c(O)c(-c2ccc(O)c(O)c2)oc2cc(O)cc(O)c12
REMARK SMILES IDX 5 1 3 2 2 3 1 4 22 5 20 6 19 7 17 8 16 9 15 10 14 11 6 12
REMARK SMILES IDX 7 13 8 14 9 15 13 16 11 17 10 18 12 20 4 22 21 24 18 26
REMARK H PARENT 10 19 12 21 4 23 21 25 18 27
REMARK Flexibility Score: inf
ROOT
ATOM      1  C   UNL     1     -27.779   1.201   8.718  1.00  0.00     0.180 A 
ATOM      2  C   UNL     1     -27.140   2.352   9.217  1.00  0.00     0.208 A 
ATOM      3  C   UNL     1     -27.840   3.569   9.219  1.00  0.00     0.238 A 
ATOM      4  O   UNL     1     -27.274   4.609   9.654  1.00  0.00    -0.285 OA
ATOM      5  C   UNL     1     -29.167   3.611   8.746  1.00  0.00     0.111 A 
ATOM      6  C   UNL     1     -29.943   4.796   8.720  1.00  0.00     0.134 A 
ATOM      7  C   UNL     1     -31.261   4.753   8.241  1.00  0.00     0.093 A 
ATOM      8  C   UNL     1     -31.818   3.554   7.791  1.00  0.00     0.123 A 
ATOM      9  C   UNL     1     -31.056   2.380   7.815  1.00  0.00     0.094 A 
ATOM     10  C   UNL     1     -29.740   2.402   8.286  1.00  0.00     0.146 A 
ATOM     11  O   UNL     1     -29.037   1.275   8.293  1.00  0.00    -0.452 OA
ENDROOT
BRANCH   1  12
ATOM     12  C   UNL     1     -27.101  -0.113   8.663  1.00  0.00     0.025 A 
ATOM     13  C   UNL     1     -25.712  -0.167   8.461  1.00  0.00     0.016 A 
ATOM     14  C   UNL     1     -25.048  -1.396   8.427  1.00  0.00     0.051 A 
ATOM     15  C   UNL     1     -25.760  -2.588   8.610  1.00  0.00     0.157 A 
ATOM     16  C   UNL     1     -27.809  -1.313   8.866  1.00  0.00     0.062 A 
ATOM     17  C   UNL     1     -27.143  -2.546   8.834  1.00  0.00     0.158 A 
BRANCH  15  18
ATOM     18  O   UNL     1     -25.103  -3.817   8.574  1.00  0.00    -0.504 OA
ATOM     19  H   UNL     1     -25.231  -4.507   9.306  1.00  0.00     0.293 HD
ENDBRANCH  15  18
BRANCH  17  20
ATOM     20  O   UNL     1     -27.847  -3.733   9.029  1.00  0.00    -0.504 OA
ATOM     21  H   UNL     1     -28.626  -3.788   9.674  1.00  0.00     0.293 HD
ENDBRANCH  17  20
ENDBRANCH   1  12
BRANCH   2  22
ATOM     22  O   UNL     1     -25.841   2.274   9.726  1.00  0.00    -0.502 OA
ATOM     23  H   UNL     1     -25.123   2.946   9.484  1.00  0.00     0.293 HD
ENDBRANCH   2  22
BRANCH   6  24
ATOM     24  O   UNL     1     -29.417   6.009   9.163  1.00  0.00    -0.507 OA
ATOM     25  H   UNL     1     -28.429   6.222   9.086  1.00  0.00     0.293 HD
ENDBRANCH   6  24
BRANCH   8  26
ATOM     26  O   UNL     1     -33.129   3.538   7.323  1.00  0.00    -0.508 OA
ATOM     27  H   UNL     1     -33.402   4.050   6.491  1.00  0.00     0.293 HD
ENDBRANCH   8  26
TORSDOF 6
ENDMDL
MODEL 7
REMARK VINA RESULT:    -4.829      1.822      7.318
REMARK INTER + INTRA:          -6.128
REMARK INTER:                  -5.943
REMARK INTRA:                  -0.185
REMARK UNBOUND:                -0.311
REMARK SMILES O=c1c(O)c(-c2ccc(O)c(O)c2)oc2cc(O)cc(O)c12
REMARK SMILES IDX 5 1 3 2 2 3 1 4 22 5 20 6 19 7 17 8 16 9 15 10 14 11 6 12
REMARK SMILES IDX 7 13 8 14 9 15 13 16 11 17 10 18 12 20 4 22 21 24 18 26
REMARK H PARENT 10 19 12 21 4 23 21 25 18 27
REMARK Flexibility Score: inf
ROOT
ATOM      1  C   UNL     1     -31.707   3.378   7.853  1.00  0.00     0.180 A 
ATOM      2  C   UNL     1     -32.653   3.011   8.830  1.00  0.00     0.208 A 
ATOM      3  C   UNL     1     -34.019   3.085   8.513  1.00  0.00     0.238 A 
ATOM      4  O   UNL     1     -34.875   2.770   9.383  1.00  0.00    -0.285 OA
ATOM      5  C   UNL     1     -34.414   3.500   7.225  1.00  0.00     0.111 A 
ATOM      6  C   UNL     1     -35.770   3.597   6.825  1.00  0.00     0.134 A 
ATOM      7  C   UNL     1     -36.081   4.010   5.521  1.00  0.00     0.093 A 
ATOM      8  C   UNL     1     -35.069   4.327   4.612  1.00  0.00     0.123 A 
ATOM      9  C   UNL     1     -33.729   4.234   5.002  1.00  0.00     0.094 A 
ATOM     10  C   UNL     1     -33.397   3.826   6.297  1.00  0.00     0.146 A 
ATOM     11  O   UNL     1     -32.117   3.751   6.644  1.00  0.00    -0.452 OA
ENDROOT
BRANCH   1  12
ATOM     12  C   UNL     1     -30.252   3.346   8.117  1.00  0.00     0.025 A 
ATOM     13  C   UNL     1     -29.538   4.553   8.201  1.00  0.00     0.016 A 
ATOM     14  C   UNL     1     -28.167   4.547   8.470  1.00  0.00     0.051 A 
ATOM     15  C   UNL     1     -27.492   3.337   8.674  1.00  0.00     0.157 A 
ATOM     16  C   UNL     1     -29.573   2.134   8.342  1.00  0.00     0.062 A 
ATOM     17  C   UNL     1     -28.197   2.128   8.614  1.00  0.00     0.158 A 
BRANCH  15  18
ATOM     18  O   UNL     1     -26.124   3.326   8.940  1.00  0.00    -0.504 OA
ATOM     19  H   UNL     1     -25.480   2.777   8.381  1.00  0.00     0.293 HD
ENDBRANCH  15  18
BRANCH  17  20
ATOM     20  O   UNL     1     -27.527   0.926   8.830  1.00  0.00    -0.504 OA
ATOM     21  H   UNL     1     -27.627   0.141   8.197  1.00  0.00     0.293 HD
ENDBRANCH  17  20
ENDBRANCH   1  12
BRANCH   2  22
ATOM     22  O   UNL     1     -32.234   2.556  10.083  1.00  0.00    -0.502 OA
ATOM     23  H   UNL     1     -32.626   1.730  10.518  1.00  0.00     0.293 HD
ENDBRANCH   2  22
BRANCH   6  24
ATOM     24  O   UNL     1     -36.803   3.287   7.708  1.00  0.00    -0.507 OA
ATOM     25  H   UNL     1     -36.654   2.697   8.519  1.00  0.00     0.293 HD
ENDBRANCH   6  24
BRANCH   8  26
ATOM     26  O   UNL     1     -35.406   4.734   3.323  1.00  0.00    -0.508 OA
ATOM     27  H   UNL     1     -34.897   4.401   2.512  1.00  0.00     0.293 HD
ENDBRANCH   8  26
TORSDOF 6
ENDMDL
MODEL 8
REMARK VINA RESULT:    -4.723      5.418      9.125
REMARK INTER + INTRA:          -6.000
REMARK INTER:                  -6.132
REMARK INTRA:                   0.132
REMARK UNBOUND:                -0.311
REMARK SMILES O=c1c(O)c(-c2ccc(O)c(O)c2)oc2cc(O)cc(O)c12
REMARK SMILES IDX 5 1 3 2 2 3 1 4 22 5 20 6 19 7 17 8 16 9 15 10 14 11 6 12
REMARK SMILES IDX 7 13 8 14 9 15 13 16 11 17 10 18 12 20 4 22 21 24 18 26
REMARK H PARENT 10 19 12 21 4 23 21 25 18 27
REMARK Flexibility Score: inf
ROOT
ATOM      1  C   UNL     1     -25.177  -4.087   8.984  1.00  0.00     0.180 A 
ATOM      2  C   UNL     1     -23.777  -4.038   8.844  1.00  0.00     0.208 A 
ATOM      3  C   UNL     1     -23.037  -5.219   9.014  1.00  0.00     0.238 A 
ATOM      4  O   UNL     1     -21.781  -5.185   8.902  1.00  0.00    -0.285 OA
ATOM      5  C   UNL     1     -23.706  -6.426   9.298  1.00  0.00     0.111 A 
ATOM      6  C   UNL     1     -23.034  -7.660   9.478  1.00  0.00     0.134 A 
ATOM      7  C   UNL     1     -23.774  -8.821   9.750  1.00  0.00     0.093 A 
ATOM      8  C   UNL     1     -25.166  -8.774   9.843  1.00  0.00     0.123 A 
ATOM      9  C   UNL     1     -25.835  -7.558   9.666  1.00  0.00     0.094 A 
ATOM     10  C   UNL     1     -25.117  -6.390   9.397  1.00  0.00     0.146 A 
ATOM     11  O   UNL     1     -25.776  -5.247   9.238  1.00  0.00    -0.452 OA
ENDROOT
BRANCH   1  12
ATOM     12  C   UNL     1     -26.025  -2.883   8.840  1.00  0.00     0.025 A 
ATOM     13  C   UNL     1     -27.293  -2.997   8.246  1.00  0.00     0.016 A 
ATOM     14  C   UNL     1     -28.119  -1.877   8.118  1.00  0.00     0.051 A 
ATOM     15  C   UNL     1     -27.696  -0.630   8.596  1.00  0.00     0.157 A 
ATOM     16  C   UNL     1     -25.613  -1.632   9.337  1.00  0.00     0.062 A 
ATOM     17  C   UNL     1     -26.442  -0.508   9.210  1.00  0.00     0.158 A 
BRANCH  15  18
ATOM     18  O   UNL     1     -28.515   0.490   8.469  1.00  0.00    -0.504 OA
ATOM     19  H   UNL     1     -28.702   0.909   7.566  1.00  0.00     0.293 HD
ENDBRANCH  15  18
BRANCH  17  20
ATOM     20  O   UNL     1     -26.030   0.731   9.697  1.00  0.00    -0.504 OA
ATOM     21  H   UNL     1     -25.585   0.824  10.603  1.00  0.00     0.293 HD
ENDBRANCH  17  20
ENDBRANCH   1  12
BRANCH   2  22
ATOM     22  O   UNL     1     -23.142  -2.838   8.514  1.00  0.00    -0.502 OA
ATOM     23  H   UNL     1     -22.477  -2.389   9.131  1.00  0.00     0.293 HD
ENDBRANCH   2  22
BRANCH   6  24
ATOM     24  O   UNL     1     -21.644  -7.741   9.390  1.00  0.00    -0.507 OA
ATOM     25  H   UNL     1     -21.049  -7.586  10.196  1.00  0.00     0.293 HD
ENDBRANCH   6  24
BRANCH   8  26
ATOM     26  O   UNL     1     -25.877  -9.942  10.112  1.00  0.00    -0.508 OA
ATOM     27  H   UNL     1     -25.670 -10.811   9.634  1.00  0.00     0.293 HD
ENDBRANCH   8  26
TORSDOF 6
ENDMDL
