MODEL 1
REMARK VINA RESULT:    13.559      0.000      0.000
REMARK INTER + INTRA:          14.922
REMARK INTER:                  14.748
REMARK INTRA:                   0.174
REMARK UNBOUND:                 0.174
REMARK SMILES C[C@@H]1[C@@H](C)CC[C@@]2(C(=O)[O-])CC[C@]3(C)C(=CC[C@@H]4[C@]5(C)CC[C@H](O)C(C)(C)[C@@H]5CC[C@@]43C)[C@@H]12
REMARK SMILES IDX 7 1 6 2 11 3 33 4 5 5 12 6 15 7 2 8 3 9 13 10 16 11 1 12
REMARK SMILES IDX 4 13 14 14 31 15 17 16 18 17 30 18 32 19 19 20 29 21 28 22
REMARK SMILES IDX 21 23 20 24 25 25 22 26 23 27 26 28 27 29 8 30 9 31 10 32
REMARK SMILES IDX 24 33
REMARK H PARENT 24 34
REMARK Flexibility Score: inf
ROOT
ATOM      1  C   UNL     1      99.802 112.345 117.277  1.00  0.00     0.017 C 
ATOM      2  C   UNL     1      98.940 113.627 117.497  1.00  0.00     0.014 C 
ATOM      3  C   UNL     1      98.914 111.093 117.412  1.00  0.00     0.014 C 
ATOM      4  C   UNL     1     100.490 112.396 115.861  1.00  0.00     0.030 C 
ATOM      5  C   UNL     1      99.751 114.921 117.372  1.00  0.00     0.004 C 
ATOM      6  C   UNL     1      97.854 110.972 116.323  1.00  0.00     0.013 C 
ATOM      7  C   UNL     1      99.506 112.057 114.701  1.00  0.00    -0.063 C 
ATOM      8  C   UNL     1     101.285 113.761 115.670  1.00  0.00    -0.003 C 
ATOM      9  C   UNL     1     100.460 115.035 116.012  1.00  0.00    -0.011 C 
ATOM     10  C   UNL     1      98.427 110.964 114.864  1.00  0.00    -0.006 C 
ATOM     11  C   UNL     1      99.883 112.310 113.431  1.00  0.00    -0.027 C 
ATOM     12  C   UNL     1     102.635 113.776 116.416  1.00  0.00     0.008 C 
ATOM     13  C   UNL     1      99.484 115.419 114.887  1.00  0.00     0.008 C 
ATOM     14  C   UNL     1      99.172 109.602 114.675  1.00  0.00     0.017 C 
ATOM     15  C   UNL     1      97.232 111.121 113.776  1.00  0.00    -0.020 C 
ATOM     16  C   UNL     1      98.916 112.361 112.296  1.00  0.00     0.032 C 
ATOM     17  C   UNL     1      97.804 111.278 112.314  1.00  0.00     0.006 C 
ATOM     18  C   UNL     1      96.356 112.381 114.095  1.00  0.00     0.008 C 
ATOM     19  C   UNL     1      96.335 109.838 113.846  1.00  0.00     0.012 C 
ATOM     20  C   UNL     1      96.682 111.471 111.154  1.00  0.00    -0.025 C 
ATOM     21  C   UNL     1      95.735 113.130 112.891  1.00  0.00     0.005 C 
ATOM     22  C   UNL     1      95.371 112.208 111.702  1.00  0.00     0.003 C 
ATOM     23  C   UNL     1      97.290 112.257 109.934  1.00  0.00     0.010 C 
ATOM     24  C   UNL     1      96.310 110.045 110.622  1.00  0.00     0.012 C 
ATOM     25  C   UNL     1      94.417 112.884 110.608  1.00  0.00    -0.006 C 
ATOM     26  C   UNL     1      96.284 112.706 108.875  1.00  0.00     0.033 C 
ATOM     27  C   UNL     1      95.219 113.613 109.494  1.00  0.00     0.120 C 
ATOM     28  C   UNL     1      93.493 111.810 109.962  1.00  0.00     0.014 C 
ATOM     29  C   UNL     1      93.430 113.910 111.236  1.00  0.00     0.014 C 
ENDROOT
BRANCH   1  30
ATOM     30  C   UNL     1     100.831 112.203 118.395  1.00  0.00     0.048 C 
ATOM     31  O   UNL     1     101.476 111.129 118.533  1.00  0.00    -0.550 OA
ATOM     32  O   UNL     1     100.982 113.199 119.355  1.00  0.00    -0.550 OA
ENDBRANCH   1  30
BRANCH  27  33
ATOM     33  O   UNL     1      95.827 114.774 110.008  1.00  0.00    -0.393 OA
ATOM     34  H   UNL     1      95.948 114.633 110.983  1.00  0.00     0.210 HD
ENDBRANCH  27  33
TORSDOF 2
ENDMDL
MODEL 2
REMARK VINA RESULT:    14.184      4.025      9.285
REMARK INTER + INTRA:          15.602
REMARK INTER:                  14.932
REMARK INTRA:                   0.670
REMARK UNBOUND:                 0.174
REMARK SMILES C[C@@H]1[C@@H](C)CC[C@@]2(C(=O)[O-])CC[C@]3(C)C(=CC[C@@H]4[C@]5(C)CC[C@H](O)C(C)(C)[C@@H]5CC[C@@]43C)[C@@H]12
REMARK SMILES IDX 7 1 6 2 11 3 33 4 5 5 12 6 15 7 2 8 3 9 13 10 16 11 1 12
REMARK SMILES IDX 4 13 14 14 31 15 17 16 18 17 30 18 32 19 19 20 29 21 28 22
REMARK SMILES IDX 21 23 20 24 25 25 22 26 23 27 26 28 27 29 8 30 9 31 10 32
REMARK SMILES IDX 24 33
REMARK H PARENT 24 34
REMARK Flexibility Score: inf
ROOT
ATOM      1  C   UNL     1     100.379 111.822 116.659  1.00  0.00     0.017 C 
ATOM      2  C   UNL     1     101.519 112.813 116.268  1.00  0.00     0.014 C 
ATOM      3  C   UNL     1     100.843 110.930 117.827  1.00  0.00     0.014 C 
ATOM      4  C   UNL     1      99.079 112.623 117.047  1.00  0.00     0.030 C 
ATOM      5  C   UNL     1     101.132 113.743 115.115  1.00  0.00     0.004 C 
ATOM      6  C   UNL     1     101.081 111.693 119.126  1.00  0.00     0.013 C 
ATOM      7  C   UNL     1      99.161 113.251 118.471  1.00  0.00    -0.063 C 
ATOM      8  C   UNL     1      98.688 113.652 115.898  1.00  0.00    -0.003 C 
ATOM      9  C   UNL     1      99.862 114.555 115.421  1.00  0.00    -0.011 C 
ATOM     10  C   UNL     1      99.836 112.495 119.638  1.00  0.00    -0.006 C 
ATOM     11  C   UNL     1      98.242 114.168 118.834  1.00  0.00    -0.027 C 
ATOM     12  C   UNL     1      98.006 112.971 114.693  1.00  0.00     0.008 C 
ATOM     13  C   UNL     1     100.143 115.712 116.394  1.00  0.00     0.008 C 
ATOM     14  C   UNL     1      98.785 111.444 120.125  1.00  0.00     0.017 C 
ATOM     15  C   UNL     1     100.253 113.493 120.849  1.00  0.00    -0.020 C 
ATOM     16  C   UNL     1      98.425 115.076 120.004  1.00  0.00     0.032 C 
ATOM     17  C   UNL     1      99.050 114.424 121.266  1.00  0.00     0.006 C 
ATOM     18  C   UNL     1     101.452 114.408 120.422  1.00  0.00     0.008 C 
ATOM     19  C   UNL     1     100.683 112.619 122.076  1.00  0.00     0.012 C 
ATOM     20  C   UNL     1      99.380 115.482 122.455  1.00  0.00    -0.025 C 
ATOM     21  C   UNL     1     101.499 115.834 121.023  1.00  0.00     0.005 C 
ATOM     22  C   UNL     1     100.916 115.928 122.455  1.00  0.00     0.003 C 
ATOM     23  C   UNL     1      98.439 116.738 122.343  1.00  0.00     0.010 C 
ATOM     24  C   UNL     1      99.028 114.784 123.813  1.00  0.00     0.012 C 
ATOM     25  C   UNL     1     101.271 117.286 123.225  1.00  0.00    -0.006 C 
ATOM     26  C   UNL     1      98.795 117.909 123.257  1.00  0.00     0.033 C 
ATOM     27  C   UNL     1     100.216 118.400 122.975  1.00  0.00     0.120 C 
ATOM     28  C   UNL     1     101.392 117.021 124.755  1.00  0.00     0.014 C 
ATOM     29  C   UNL     1     102.665 117.849 122.823  1.00  0.00     0.014 C 
ENDROOT
BRANCH   1  30
ATOM     30  C   UNL     1     100.114 110.845 115.517  1.00  0.00     0.048 C 
ATOM     31  O   UNL     1     100.376 111.170 114.327  1.00  0.00    -0.550 OA
ATOM     32  O   UNL     1      99.462 109.638 115.749  1.00  0.00    -0.550 OA
ENDBRANCH   1  30
BRANCH  27  33
ATOM     33  O   UNL     1     100.301 118.867 121.649  1.00  0.00    -0.393 OA
ATOM     34  H   UNL     1      99.710 118.291 121.099  1.00  0.00     0.210 HD
ENDBRANCH  27  33
TORSDOF 2
ENDMDL
MODEL 3
REMARK VINA RESULT:    15.204      3.068      8.444
REMARK INTER + INTRA:          16.712
REMARK INTER:                  16.073
REMARK INTRA:                   0.639
REMARK UNBOUND:                 0.174
REMARK SMILES C[C@@H]1[C@@H](C)CC[C@@]2(C(=O)[O-])CC[C@]3(C)C(=CC[C@@H]4[C@]5(C)CC[C@H](O)C(C)(C)[C@@H]5CC[C@@]43C)[C@@H]12
REMARK SMILES IDX 7 1 6 2 11 3 33 4 5 5 12 6 15 7 2 8 3 9 13 10 16 11 1 12
REMARK SMILES IDX 4 13 14 14 31 15 17 16 18 17 30 18 32 19 19 20 29 21 28 22
REMARK SMILES IDX 21 23 20 24 25 25 22 26 23 27 26 28 27 29 8 30 9 31 10 32
REMARK SMILES IDX 24 33
REMARK H PARENT 24 34
REMARK Flexibility Score: inf
ROOT
ATOM      1  C   UNL     1      99.787 112.791 114.024  1.00  0.00     0.017 C 
ATOM      2  C   UNL     1      98.253 113.007 114.212  1.00  0.00     0.014 C 
ATOM      3  C   UNL     1     100.514 114.149 114.073  1.00  0.00     0.014 C 
ATOM      4  C   UNL     1     100.333 111.820 115.138  1.00  0.00     0.030 C 
ATOM      5  C   UNL     1      97.457 111.700 114.183  1.00  0.00     0.004 C 
ATOM      6  C   UNL     1     100.440 114.836 115.432  1.00  0.00     0.013 C 
ATOM      7  C   UNL     1     100.499 112.522 116.520  1.00  0.00    -0.063 C 
ATOM      8  C   UNL     1      99.482 110.477 115.182  1.00  0.00    -0.003 C 
ATOM      9  C   UNL     1      97.944 110.697 115.243  1.00  0.00    -0.011 C 
ATOM     10  C   UNL     1     101.002 113.981 116.618  1.00  0.00    -0.006 C 
ATOM     11  C   UNL     1     100.709 111.766 117.615  1.00  0.00    -0.027 C 
ATOM     12  C   UNL     1      99.844 109.503 114.042  1.00  0.00     0.008 C 
ATOM     13  C   UNL     1      97.461 111.076 116.653  1.00  0.00     0.008 C 
ATOM     14  C   UNL     1     102.553 113.907 116.432  1.00  0.00     0.017 C 
ATOM     15  C   UNL     1     100.626 114.658 118.045  1.00  0.00    -0.020 C 
ATOM     16  C   UNL     1     100.530 112.284 119.003  1.00  0.00     0.032 C 
ATOM     17  C   UNL     1     101.042 113.728 119.250  1.00  0.00     0.006 C 
ATOM     18  C   UNL     1      99.084 114.922 118.143  1.00  0.00     0.008 C 
ATOM     19  C   UNL     1     101.391 116.022 118.155  1.00  0.00     0.012 C 
ATOM     20  C   UNL     1     100.679 114.309 120.724  1.00  0.00    -0.025 C 
ATOM     21  C   UNL     1      98.438 114.813 119.545  1.00  0.00     0.005 C 
ATOM     22  C   UNL     1      99.378 115.239 120.700  1.00  0.00     0.003 C 
ATOM     23  C   UNL     1     100.497 113.127 121.745  1.00  0.00     0.010 C 
ATOM     24  C   UNL     1     101.916 115.135 121.218  1.00  0.00     0.012 C 
ATOM     25  C   UNL     1      98.638 115.475 122.101  1.00  0.00    -0.006 C 
ATOM     26  C   UNL     1      99.932 113.518 123.110  1.00  0.00     0.033 C 
ATOM     27  C   UNL     1      98.560 114.179 122.955  1.00  0.00     0.120 C 
ATOM     28  C   UNL     1      99.367 116.587 122.912  1.00  0.00     0.014 C 
ATOM     29  C   UNL     1      97.190 116.018 121.923  1.00  0.00     0.014 C 
ENDROOT
BRANCH   1  30
ATOM     30  C   UNL     1     100.076 112.256 112.625  1.00  0.00     0.048 C 
ATOM     31  O   UNL     1     101.138 112.578 112.027  1.00  0.00    -0.550 OA
ATOM     32  O   UNL     1      99.122 111.515 111.933  1.00  0.00    -0.550 OA
ENDBRANCH   1  30
BRANCH  27  33
ATOM     33  O   UNL     1      97.657 113.266 122.377  1.00  0.00    -0.393 OA
ATOM     34  H   UNL     1      96.820 113.763 122.190  1.00  0.00     0.210 HD
ENDBRANCH  27  33
TORSDOF 2
ENDMDL
