MODEL 1
REMARK VINA RESULT:    -2.653      0.000      0.000
REMARK INTER + INTRA:          -5.615
REMARK INTER:                  -5.134
REMARK INTRA:                  -0.481
REMARK UNBOUND:                -0.481
REMARK SMILES CCCCCCCCCCCCCCCCCC(=O)[O-]
REMARK SMILES IDX 10 1 11 2 12 3 13 4 14 5 15 6 16 7 17 8 18 9 19 10 20 11
REMARK SMILES IDX 9 12 8 13 7 14 6 15 5 16 4 17 3 18 2 19 1 20
REMARK H PARENT
REMARK Flexibility Score: inf
ROOT
ATOM      1  C   UNL     1       8.104 -36.913  13.925  1.00  0.00     0.000 C 
ENDROOT
BRANCH   1   2
ATOM      2  C   UNL     1       8.985 -36.214  12.875  1.00  0.00     0.000 C 
BRANCH   2   3
ATOM      3  C   UNL     1      10.434 -36.725  12.881  1.00  0.00     0.000 C 
BRANCH   3   4
ATOM      4  C   UNL     1      11.462 -35.593  13.025  1.00  0.00     0.000 C 
BRANCH   4   5
ATOM      5  C   UNL     1      10.783 -34.290  13.471  1.00  0.00     0.000 C 
BRANCH   5   6
ATOM      6  C   UNL     1      11.651 -33.044  13.218  1.00  0.00     0.000 C 
BRANCH   6   7
ATOM      7  C   UNL     1      11.229 -31.784  14.001  1.00  0.00     0.006 C 
BRANCH   7   8
ATOM      8  C   UNL     1      12.368 -31.106  14.780  1.00  0.00     0.053 C 
BRANCH   8   9
ATOM      9  C   UNL     1      13.641 -31.067  13.992  1.00  0.00     0.041 C 
ATOM     10  O   UNL     1      14.130 -29.962  13.636  1.00  0.00    -0.550 OA
ATOM     11  O   UNL     1      14.268 -32.250  13.621  1.00  0.00    -0.550 OA
ENDBRANCH   8   9
ENDBRANCH   7   8
ENDBRANCH   6   7
ENDBRANCH   5   6
ENDBRANCH   4   5
ENDBRANCH   3   4
ENDBRANCH   2   3
ENDBRANCH   1   2
BRANCH   1  12
ATOM     12  C   UNL     1       6.605 -36.613  13.718  1.00  0.00     0.000 C 
BRANCH  12  13
ATOM     13  C   UNL     1       6.290 -35.114  13.574  1.00  0.00    -0.000 C 
BRANCH  13  14
ATOM     14  C   UNL     1       6.376 -34.355  14.909  1.00  0.00    -0.000 C 
BRANCH  14  15
ATOM     15  C   UNL     1       7.440 -34.940  15.851  1.00  0.00    -0.000 C 
BRANCH  15  16
ATOM     16  C   UNL     1       8.544 -33.926  16.202  1.00  0.00    -0.000 C 
BRANCH  16  17
ATOM     17  C   UNL     1       8.035 -32.474  16.231  1.00  0.00    -0.000 C 
BRANCH  17  18
ATOM     18  C   UNL     1       7.885 -31.870  17.640  1.00  0.00    -0.000 C 
BRANCH  18  19
ATOM     19  C   UNL     1       9.233 -31.640  18.339  1.00  0.00    -0.003 C 
ATOM     20  C   UNL     1      10.145 -30.754  17.495  1.00  0.00     0.004 C 
ENDBRANCH  18  19
ENDBRANCH  17  18
ENDBRANCH  16  17
ENDBRANCH  15  16
ENDBRANCH  14  15
ENDBRANCH  13  14
ENDBRANCH  12  13
ENDBRANCH   1  12
TORSDOF 16
ENDMDL
MODEL 2
REMARK VINA RESULT:    -2.593      3.077      6.033
REMARK INTER + INTRA:          -5.499
REMARK INTER:                  -4.305
REMARK INTRA:                  -1.194
REMARK UNBOUND:                -0.481
REMARK SMILES CCCCCCCCCCCCCCCCCC(=O)[O-]
REMARK SMILES IDX 10 1 11 2 12 3 13 4 14 5 15 6 16 7 17 8 18 9 19 10 20 11
REMARK SMILES IDX 9 12 8 13 7 14 6 15 5 16 4 17 3 18 2 19 1 20
REMARK H PARENT
REMARK Flexibility Score: inf
ROOT
ATOM      1  C   UNL     1       8.624 -32.611  13.610  1.00  0.00     0.000 C 
ENDROOT
BRANCH   1   2
ATOM      2  C   UNL     1       7.296 -32.862  12.875  1.00  0.00     0.000 C 
BRANCH   2   3
ATOM      3  C   UNL     1       6.671 -34.220  13.229  1.00  0.00     0.000 C 
BRANCH   3   4
ATOM      4  C   UNL     1       6.292 -34.330  14.714  1.00  0.00     0.000 C 
BRANCH   4   5
ATOM      5  C   UNL     1       7.282 -35.230  15.466  1.00  0.00     0.000 C 
BRANCH   5   6
ATOM      6  C   UNL     1       7.754 -34.621  16.798  1.00  0.00     0.000 C 
BRANCH   6   7
ATOM      7  C   UNL     1       8.799 -33.494  16.668  1.00  0.00     0.006 C 
BRANCH   7   8
ATOM      8  C   UNL     1       8.315 -32.117  17.149  1.00  0.00     0.053 C 
BRANCH   8   9
ATOM      9  C   UNL     1       8.673 -31.865  18.581  1.00  0.00     0.041 C 
ATOM     10  O   UNL     1       9.546 -31.004  18.872  1.00  0.00    -0.550 OA
ATOM     11  O   UNL     1       8.071 -32.604  19.590  1.00  0.00    -0.550 OA
ENDBRANCH   8   9
ENDBRANCH   7   8
ENDBRANCH   6   7
ENDBRANCH   5   6
ENDBRANCH   4   5
ENDBRANCH   3   4
ENDBRANCH   2   3
ENDBRANCH   1   2
BRANCH   1  12
ATOM     12  C   UNL     1       9.747 -33.550  13.120  1.00  0.00     0.000 C 
BRANCH  12  13
ATOM     13  C   UNL     1      11.157 -32.954  13.264  1.00  0.00    -0.000 C 
BRANCH  13  14
ATOM     14  C   UNL     1      11.140 -31.484  13.719  1.00  0.00    -0.000 C 
BRANCH  14  15
ATOM     15  C   UNL     1      12.318 -31.140  14.643  1.00  0.00    -0.000 C 
BRANCH  15  16
ATOM     16  C   UNL     1      13.685 -31.331  13.961  1.00  0.00    -0.000 C 
BRANCH  16  17
ATOM     17  C   UNL     1      14.442 -30.007  13.758  1.00  0.00    -0.000 C 
BRANCH  17  18
ATOM     18  C   UNL     1      14.849 -29.288  15.058  1.00  0.00    -0.000 C 
BRANCH  18  19
ATOM     19  C   UNL     1      15.454 -27.899  14.810  1.00  0.00    -0.003 C 
ATOM     20  C   UNL     1      15.981 -27.290  16.106  1.00  0.00     0.004 C 
ENDBRANCH  18  19
ENDBRANCH  17  18
ENDBRANCH  16  17
ENDBRANCH  15  16
ENDBRANCH  14  15
ENDBRANCH  13  14
ENDBRANCH  12  13
ENDBRANCH   1  12
TORSDOF 16
ENDMDL
MODEL 3
REMARK VINA RESULT:    -2.203      2.423      5.274
REMARK INTER + INTRA:          -4.745
REMARK INTER:                  -3.404
REMARK INTRA:                  -1.341
REMARK UNBOUND:                -0.481
REMARK SMILES CCCCCCCCCCCCCCCCCC(=O)[O-]
REMARK SMILES IDX 10 1 11 2 12 3 13 4 14 5 15 6 16 7 17 8 18 9 19 10 20 11
REMARK SMILES IDX 9 12 8 13 7 14 6 15 5 16 4 17 3 18 2 19 1 20
REMARK H PARENT
REMARK Flexibility Score: inf
ROOT
ATOM      1  C   UNL     1       9.503 -36.730  12.971  1.00  0.00     0.000 C 
ENDROOT
BRANCH   1   2
ATOM      2  C   UNL     1       7.976 -36.543  12.997  1.00  0.00     0.000 C 
BRANCH   2   3
ATOM      3  C   UNL     1       7.561 -35.067  13.088  1.00  0.00     0.000 C 
BRANCH   3   4
ATOM      4  C   UNL     1       6.456 -34.824  14.126  1.00  0.00     0.000 C 
BRANCH   4   5
ATOM      5  C   UNL     1       7.056 -34.565  15.516  1.00  0.00     0.000 C 
BRANCH   5   6
ATOM      6  C   UNL     1       8.489 -34.007  15.455  1.00  0.00     0.000 C 
BRANCH   6   7
ATOM      7  C   UNL     1       8.621 -32.506  15.785  1.00  0.00     0.006 C 
BRANCH   7   8
ATOM      8  C   UNL     1       8.134 -32.116  17.189  1.00  0.00     0.053 C 
BRANCH   8   9
ATOM      9  C   UNL     1       9.222 -31.493  18.008  1.00  0.00     0.041 C 
ATOM     10  O   UNL     1       9.226 -31.627  19.261  1.00  0.00    -0.550 OA
ATOM     11  O   UNL     1      10.211 -30.737  17.393  1.00  0.00    -0.550 OA
ENDBRANCH   8   9
ENDBRANCH   7   8
ENDBRANCH   6   7
ENDBRANCH   5   6
ENDBRANCH   4   5
ENDBRANCH   3   4
ENDBRANCH   2   3
ENDBRANCH   1   2
BRANCH   1  12
ATOM     12  C   UNL     1      10.252 -35.384  12.875  1.00  0.00     0.000 C 
BRANCH  12  13
ATOM     13  C   UNL     1      11.783 -35.527  12.901  1.00  0.00    -0.000 C 
BRANCH  13  14
ATOM     14  C   UNL     1      12.506 -34.175  13.025  1.00  0.00    -0.000 C 
BRANCH  14  15
ATOM     15  C   UNL     1      11.653 -33.114  13.737  1.00  0.00    -0.000 C 
BRANCH  15  16
ATOM     16  C   UNL     1      12.148 -31.680  13.477  1.00  0.00    -0.000 C 
BRANCH  16  17
ATOM     17  C   UNL     1      13.618 -31.472  13.885  1.00  0.00    -0.000 C 
BRANCH  17  18
ATOM     18  C   UNL     1      14.091 -30.007  13.874  1.00  0.00    -0.000 C 
BRANCH  18  19
ATOM     19  C   UNL     1      14.792 -29.594  15.176  1.00  0.00    -0.003 C 
ATOM     20  C   UNL     1      15.424 -28.211  15.046  1.00  0.00     0.004 C 
ENDBRANCH  18  19
ENDBRANCH  17  18
ENDBRANCH  16  17
ENDBRANCH  15  16
ENDBRANCH  14  15
ENDBRANCH  13  14
ENDBRANCH  12  13
ENDBRANCH   1  12
TORSDOF 16
ENDMDL
MODEL 4
REMARK VINA RESULT:    -1.950      1.832      4.675
REMARK INTER + INTRA:          -4.255
REMARK INTER:                  -2.371
REMARK INTRA:                  -1.884
REMARK UNBOUND:                -0.481
REMARK SMILES CCCCCCCCCCCCCCCCCC(=O)[O-]
REMARK SMILES IDX 10 1 11 2 12 3 13 4 14 5 15 6 16 7 17 8 18 9 19 10 20 11
REMARK SMILES IDX 9 12 8 13 7 14 6 15 5 16 4 17 3 18 2 19 1 20
REMARK H PARENT
REMARK Flexibility Score: inf
ROOT
ATOM      1  C   UNL     1       8.698 -33.794  17.250  1.00  0.00     0.000 C 
ENDROOT
BRANCH   1   2
ATOM      2  C   UNL     1       8.368 -33.014  18.535  1.00  0.00     0.000 C 
BRANCH   2   3
ATOM      3  C   UNL     1       8.971 -31.602  18.543  1.00  0.00     0.000 C 
BRANCH   3   4
ATOM      4  C   UNL     1       9.243 -31.064  17.130  1.00  0.00     0.000 C 
BRANCH   4   5
ATOM      5  C   UNL     1      10.752 -30.944  16.871  1.00  0.00     0.000 C 
BRANCH   5   6
ATOM      6  C   UNL     1      11.119 -31.096  15.384  1.00  0.00     0.000 C 
BRANCH   6   7
ATOM      7  C   UNL     1      10.301 -32.153  14.613  1.00  0.00     0.006 C 
BRANCH   7   8
ATOM      8  C   UNL     1      10.778 -32.404  13.175  1.00  0.00     0.053 C 
BRANCH   8   9
ATOM      9  C   UNL     1      11.622 -33.637  13.070  1.00  0.00     0.041 C 
ATOM     10  O   UNL     1      12.875 -33.539  12.980  1.00  0.00    -0.550 OA
ATOM     11  O   UNL     1      11.025 -34.890  13.037  1.00  0.00    -0.550 OA
ENDBRANCH   8   9
ENDBRANCH   7   8
ENDBRANCH   6   7
ENDBRANCH   5   6
ENDBRANCH   4   5
ENDBRANCH   3   4
ENDBRANCH   2   3
ENDBRANCH   1   2
BRANCH   1  12
ATOM     12  C   UNL     1       7.520 -34.676  16.786  1.00  0.00     0.000 C 
BRANCH  12  13
ATOM     13  C   UNL     1       7.427 -36.021  17.526  1.00  0.00    -0.000 C 
BRANCH  13  14
ATOM     14  C   UNL     1       6.569 -37.055  16.778  1.00  0.00    -0.000 C 
BRANCH  14  15
ATOM     15  C   UNL     1       6.079 -36.540  15.416  1.00  0.00    -0.000 C 
BRANCH  15  16
ATOM     16  C   UNL     1       6.875 -37.125  14.237  1.00  0.00    -0.000 C 
BRANCH  16  17
ATOM     17  C   UNL     1       6.820 -36.238  12.980  1.00  0.00    -0.000 C 
BRANCH  17  18
ATOM     18  C   UNL     1       7.457 -34.845  13.143  1.00  0.00    -0.000 C 
BRANCH  18  19
ATOM     19  C   UNL     1       6.435 -33.704  13.046  1.00  0.00    -0.003 C 
ATOM     20  C   UNL     1       6.949 -32.445  13.738  1.00  0.00     0.004 C 
ENDBRANCH  18  19
ENDBRANCH  17  18
ENDBRANCH  16  17
ENDBRANCH  15  16
ENDBRANCH  14  15
ENDBRANCH  13  14
ENDBRANCH  12  13
ENDBRANCH   1  12
TORSDOF 16
ENDMDL
MODEL 5
REMARK VINA RESULT:    -1.854      2.465      6.462
REMARK INTER + INTRA:          -4.069
REMARK INTER:                  -3.211
REMARK INTRA:                  -0.859
REMARK UNBOUND:                -0.481
REMARK SMILES CCCCCCCCCCCCCCCCCC(=O)[O-]
REMARK SMILES IDX 10 1 11 2 12 3 13 4 14 5 15 6 16 7 17 8 18 9 19 10 20 11
REMARK SMILES IDX 9 12 8 13 7 14 6 15 5 16 4 17 3 18 2 19 1 20
REMARK H PARENT
REMARK Flexibility Score: inf
ROOT
ATOM      1  C   UNL     1       9.424 -30.781  17.355  1.00  0.00     0.000 C 
ENDROOT
BRANCH   1   2
ATOM      2  C   UNL     1       8.929 -32.053  18.065  1.00  0.00     0.000 C 
BRANCH   2   3
ATOM      3  C   UNL     1       8.111 -32.967  17.140  1.00  0.00     0.000 C 
BRANCH   3   4
ATOM      4  C   UNL     1       7.775 -32.304  15.796  1.00  0.00     0.000 C 
BRANCH   4   5
ATOM      5  C   UNL     1       6.468 -32.867  15.219  1.00  0.00     0.000 C 
BRANCH   5   6
ATOM      6  C   UNL     1       6.430 -32.838  13.680  1.00  0.00     0.000 C 
BRANCH   6   7
ATOM      7  C   UNL     1       6.334 -34.221  13.003  1.00  0.00     0.006 C 
BRANCH   7   8
ATOM      8  C   UNL     1       6.775 -35.397  13.888  1.00  0.00     0.053 C 
BRANCH   8   9
ATOM      9  C   UNL     1       8.130 -35.909  13.505  1.00  0.00     0.041 C 
ATOM     10  O   UNL     1       8.271 -37.102  13.127  1.00  0.00    -0.550 OA
ATOM     11  O   UNL     1       9.240 -35.080  13.600  1.00  0.00    -0.550 OA
ENDBRANCH   8   9
ENDBRANCH   7   8
ENDBRANCH   6   7
ENDBRANCH   5   6
ENDBRANCH   4   5
ENDBRANCH   3   4
ENDBRANCH   2   3
ENDBRANCH   1   2
BRANCH   1  12
ATOM     12  C   UNL     1      10.930 -30.850  17.023  1.00  0.00     0.000 C 
BRANCH  12  13
ATOM     13  C   UNL     1      11.232 -30.814  15.516  1.00  0.00    -0.000 C 
BRANCH  13  14
ATOM     14  C   UNL     1      10.508 -31.924  14.735  1.00  0.00    -0.000 C 
BRANCH  14  15
ATOM     15  C   UNL     1      11.192 -32.246  13.398  1.00  0.00    -0.000 C 
BRANCH  15  16
ATOM     16  C   UNL     1      12.498 -33.040  13.574  1.00  0.00    -0.000 C 
BRANCH  16  17
ATOM     17  C   UNL     1      13.752 -32.212  13.241  1.00  0.00    -0.000 C 
BRANCH  17  18
ATOM     18  C   UNL     1      14.105 -31.128  14.276  1.00  0.00    -0.000 C 
BRANCH  18  19
ATOM     19  C   UNL     1      14.447 -29.776  13.634  1.00  0.00    -0.003 C 
ATOM     20  C   UNL     1      15.085 -28.831  14.648  1.00  0.00     0.004 C 
ENDBRANCH  18  19
ENDBRANCH  17  18
ENDBRANCH  16  17
ENDBRANCH  15  16
ENDBRANCH  14  15
ENDBRANCH  13  14
ENDBRANCH  12  13
ENDBRANCH   1  12
TORSDOF 16
ENDMDL
MODEL 6
REMARK VINA RESULT:    -1.798      3.392      6.741
REMARK INTER + INTRA:          -3.962
REMARK INTER:                  -2.138
REMARK INTRA:                  -1.823
REMARK UNBOUND:                -0.481
REMARK SMILES CCCCCCCCCCCCCCCCCC(=O)[O-]
REMARK SMILES IDX 10 1 11 2 12 3 13 4 14 5 15 6 16 7 17 8 18 9 19 10 20 11
REMARK SMILES IDX 9 12 8 13 7 14 6 15 5 16 4 17 3 18 2 19 1 20
REMARK H PARENT
REMARK Flexibility Score: inf
ROOT
ATOM      1  C   UNL     1       8.958 -31.924  18.156  1.00  0.00     0.000 C 
ENDROOT
BRANCH   1   2
ATOM      2  C   UNL     1       8.403 -32.633  16.908  1.00  0.00     0.000 C 
BRANCH   2   3
ATOM      3  C   UNL     1       7.016 -32.115  16.499  1.00  0.00     0.000 C 
BRANCH   3   4
ATOM      4  C   UNL     1       6.662 -32.451  15.043  1.00  0.00     0.000 C 
BRANCH   4   5
ATOM      5  C   UNL     1       7.932 -32.636  14.199  1.00  0.00     0.000 C 
BRANCH   5   6
ATOM      6  C   UNL     1       7.697 -33.491  12.941  1.00  0.00     0.000 C 
BRANCH   6   7
ATOM      7  C   UNL     1       8.006 -34.993  13.105  1.00  0.00     0.006 C 
BRANCH   7   8
ATOM      8  C   UNL     1       7.726 -35.553  14.509  1.00  0.00     0.053 C 
BRANCH   8   9
ATOM      9  C   UNL     1       6.666 -36.610  14.490  1.00  0.00     0.041 C 
ATOM     10  O   UNL     1       6.206 -37.026  13.393  1.00  0.00    -0.550 OA
ATOM     11  O   UNL     1       6.160 -37.112  15.682  1.00  0.00    -0.550 OA
ENDBRANCH   8   9
ENDBRANCH   7   8
ENDBRANCH   6   7
ENDBRANCH   5   6
ENDBRANCH   4   5
ENDBRANCH   3   4
ENDBRANCH   2   3
ENDBRANCH   1   2
BRANCH   1  12
ATOM     12  C   UNL     1      10.325 -31.260  17.887  1.00  0.00     0.000 C 
BRANCH  12  13
ATOM     13  C   UNL     1      10.398 -30.520  16.541  1.00  0.00    -0.000 C 
BRANCH  13  14
ATOM     14  C   UNL     1      11.675 -30.845  15.749  1.00  0.00    -0.000 C 
BRANCH  14  15
ATOM     15  C   UNL     1      11.421 -30.948  14.238  1.00  0.00    -0.000 C 
BRANCH  15  16
ATOM     16  C   UNL     1      11.235 -32.400  13.763  1.00  0.00    -0.000 C 
BRANCH  16  17
ATOM     17  C   UNL     1      12.571 -33.126  13.524  1.00  0.00    -0.000 C 
BRANCH  17  18
ATOM     18  C   UNL     1      12.444 -34.517  12.875  1.00  0.00    -0.000 C 
BRANCH  18  19
ATOM     19  C   UNL     1      11.484 -35.445  13.633  1.00  0.00    -0.003 C 
ATOM     20  C   UNL     1      11.270 -36.752  12.875  1.00  0.00     0.004 C 
ENDBRANCH  18  19
ENDBRANCH  17  18
ENDBRANCH  16  17
ENDBRANCH  15  16
ENDBRANCH  14  15
ENDBRANCH  13  14
ENDBRANCH  12  13
ENDBRANCH   1  12
TORSDOF 16
ENDMDL
MODEL 7
REMARK VINA RESULT:    -1.454      2.208      4.206
REMARK INTER + INTRA:          -3.296
REMARK INTER:                  -2.257
REMARK INTRA:                  -1.039
REMARK UNBOUND:                -0.481
REMARK SMILES CCCCCCCCCCCCCCCCCC(=O)[O-]
REMARK SMILES IDX 10 1 11 2 12 3 13 4 14 5 15 6 16 7 17 8 18 9 19 10 20 11
REMARK SMILES IDX 9 12 8 13 7 14 6 15 5 16 4 17 3 18 2 19 1 20
REMARK H PARENT
REMARK Flexibility Score: inf
ROOT
ATOM      1  C   UNL     1       8.784 -32.721  15.767  1.00  0.00     0.000 C 
ENDROOT
BRANCH   1   2
ATOM      2  C   UNL     1       9.556 -31.980  14.661  1.00  0.00     0.000 C 
BRANCH   2   3
ATOM      3  C   UNL     1      10.214 -32.937  13.655  1.00  0.00     0.000 C 
BRANCH   3   4
ATOM      4  C   UNL     1      11.720 -32.679  13.490  1.00  0.00     0.000 C 
BRANCH   4   5
ATOM      5  C   UNL     1      12.124 -31.351  14.146  1.00  0.00     0.000 C 
BRANCH   5   6
ATOM      6  C   UNL     1      13.648 -31.145  14.194  1.00  0.00     0.000 C 
BRANCH   6   7
ATOM      7  C   UNL     1      14.111 -29.675  14.137  1.00  0.00     0.006 C 
BRANCH   7   8
ATOM      8  C   UNL     1      15.257 -29.329  15.100  1.00  0.00     0.053 C 
BRANCH   8   9
ATOM      9  C   UNL     1      15.497 -27.852  15.179  1.00  0.00     0.041 C 
ATOM     10  O   UNL     1      15.802 -27.320  16.280  1.00  0.00    -0.550 OA
ATOM     11  O   UNL     1      15.350 -27.060  14.048  1.00  0.00    -0.550 OA
ENDBRANCH   8   9
ENDBRANCH   7   8
ENDBRANCH   6   7
ENDBRANCH   5   6
ENDBRANCH   4   5
ENDBRANCH   3   4
ENDBRANCH   2   3
ENDBRANCH   1   2
BRANCH   1  12
ATOM     12  C   UNL     1       7.314 -32.979  15.377  1.00  0.00     0.000 C 
BRANCH  12  13
ATOM     13  C   UNL     1       7.011 -32.704  13.894  1.00  0.00    -0.000 C 
BRANCH  13  14
ATOM     14  C   UNL     1       6.655 -33.979  13.112  1.00  0.00    -0.000 C 
BRANCH  14  15
ATOM     15  C   UNL     1       7.764 -35.040  13.177  1.00  0.00    -0.000 C 
BRANCH  15  16
ATOM     16  C   UNL     1       7.244 -36.417  13.626  1.00  0.00    -0.000 C 
BRANCH  16  17
ATOM     17  C   UNL     1       5.879 -36.340  14.333  1.00  0.00    -0.000 C 
BRANCH  17  18
ATOM     18  C   UNL     1       5.875 -36.841  15.789  1.00  0.00    -0.000 C 
BRANCH  18  19
ATOM     19  C   UNL     1       7.159 -36.479  16.549  1.00  0.00    -0.003 C 
ATOM     20  C   UNL     1       7.129 -37.031  17.972  1.00  0.00     0.004 C 
ENDBRANCH  18  19
ENDBRANCH  17  18
ENDBRANCH  16  17
ENDBRANCH  15  16
ENDBRANCH  14  15
ENDBRANCH  13  14
ENDBRANCH  12  13
ENDBRANCH   1  12
TORSDOF 16
ENDMDL
MODEL 8
REMARK VINA RESULT:    -1.318      1.681      2.287
REMARK INTER + INTRA:          -3.032
REMARK INTER:                  -2.174
REMARK INTRA:                  -0.858
REMARK UNBOUND:                -0.481
REMARK SMILES CCCCCCCCCCCCCCCCCC(=O)[O-]
REMARK SMILES IDX 10 1 11 2 12 3 13 4 14 5 15 6 16 7 17 8 18 9 19 10 20 11
REMARK SMILES IDX 9 12 8 13 7 14 6 15 5 16 4 17 3 18 2 19 1 20
REMARK H PARENT
REMARK Flexibility Score: inf
ROOT
ATOM      1  C   UNL     1       9.131 -34.781  14.557  1.00  0.00     0.000 C 
ENDROOT
BRANCH   1   2
ATOM      2  C   UNL     1      10.030 -34.113  13.502  1.00  0.00     0.000 C 
BRANCH   2   3
ATOM      3  C   UNL     1      11.127 -35.051  12.977  1.00  0.00     0.000 C 
BRANCH   3   4
ATOM      4  C   UNL     1      12.524 -34.413  13.018  1.00  0.00     0.000 C 
BRANCH   4   5
ATOM      5  C   UNL     1      12.428 -32.901  13.267  1.00  0.00     0.000 C 
BRANCH   5   6
ATOM      6  C   UNL     1      13.781 -32.267  13.637  1.00  0.00     0.000 C 
BRANCH   6   7
ATOM      7  C   UNL     1      13.763 -30.733  13.791  1.00  0.00     0.006 C 
BRANCH   7   8
ATOM      8  C   UNL     1      14.425 -30.213  15.077  1.00  0.00     0.053 C 
BRANCH   8   9
ATOM      9  C   UNL     1      15.028 -28.855  14.888  1.00  0.00     0.041 C 
ATOM     10  O   UNL     1      15.643 -28.299  15.837  1.00  0.00    -0.550 OA
ATOM     11  O   UNL     1      14.881 -28.189  13.679  1.00  0.00    -0.550 OA
ENDBRANCH   8   9
ENDBRANCH   7   8
ENDBRANCH   6   7
ENDBRANCH   5   6
ENDBRANCH   4   5
ENDBRANCH   3   4
ENDBRANCH   2   3
ENDBRANCH   1   2
BRANCH   1  12
ATOM     12  C   UNL     1       7.858 -35.391  13.932  1.00  0.00     0.000 C 
BRANCH  12  13
ATOM     13  C   UNL     1       7.182 -34.479  12.895  1.00  0.00    -0.000 C 
BRANCH  13  14
ATOM     14  C   UNL     1       6.878 -33.075  13.443  1.00  0.00    -0.000 C 
BRANCH  14  15
ATOM     15  C   UNL     1       6.134 -33.115  14.787  1.00  0.00    -0.000 C 
BRANCH  15  16
ATOM     16  C   UNL     1       6.811 -32.254  15.868  1.00  0.00    -0.000 C 
BRANCH  16  17
ATOM     17  C   UNL     1       8.269 -31.898  15.522  1.00  0.00    -0.000 C 
BRANCH  17  18
ATOM     18  C   UNL     1       9.185 -31.672  16.739  1.00  0.00    -0.000 C 
BRANCH  18  19
ATOM     19  C   UNL     1       8.604 -32.244  18.040  1.00  0.00    -0.003 C 
ATOM     20  C   UNL     1       9.181 -31.531  19.260  1.00  0.00     0.004 C 
ENDBRANCH  18  19
ENDBRANCH  17  18
ENDBRANCH  16  17
ENDBRANCH  15  16
ENDBRANCH  14  15
ENDBRANCH  13  14
ENDBRANCH  12  13
ENDBRANCH   1  12
TORSDOF 16
ENDMDL
MODEL 9
REMARK VINA RESULT:    -1.112      1.378      4.384
REMARK INTER + INTRA:          -2.634
REMARK INTER:                  -0.642
REMARK INTRA:                  -1.992
REMARK UNBOUND:                -0.481
REMARK SMILES CCCCCCCCCCCCCCCCCC(=O)[O-]
REMARK SMILES IDX 10 1 11 2 12 3 13 4 14 5 15 6 16 7 17 8 18 9 19 10 20 11
REMARK SMILES IDX 9 12 8 13 7 14 6 15 5 16 4 17 3 18 2 19 1 20
REMARK H PARENT
REMARK Flexibility Score: inf
ROOT
ATOM      1  C   UNL     1       8.735 -33.614  17.467  1.00  0.00     0.000 C 
ENDROOT
BRANCH   1   2
ATOM      2  C   UNL     1       8.083 -32.734  18.547  1.00  0.00     0.000 C 
BRANCH   2   3
ATOM      3  C   UNL     1       8.766 -31.366  18.690  1.00  0.00     0.000 C 
BRANCH   3   4
ATOM      4  C   UNL     1      10.138 -31.313  18.002  1.00  0.00     0.000 C 
BRANCH   4   5
ATOM      5  C   UNL     1      10.469 -29.884  17.548  1.00  0.00     0.000 C 
BRANCH   5   6
ATOM      6  C   UNL     1      11.164 -29.836  16.176  1.00  0.00     0.000 C 
BRANCH   6   7
ATOM      7  C   UNL     1      11.379 -31.208  15.504  1.00  0.00     0.006 C 
BRANCH   7   8
ATOM      8  C   UNL     1      12.010 -31.141  14.105  1.00  0.00     0.053 C 
BRANCH   8   9
ATOM      9  C   UNL     1      13.500 -31.291  14.154  1.00  0.00     0.041 C 
ATOM     10  O   UNL     1      14.192 -30.501  14.850  1.00  0.00    -0.550 OA
ATOM     11  O   UNL     1      14.126 -32.278  13.404  1.00  0.00    -0.550 OA
ENDBRANCH   8   9
ENDBRANCH   7   8
ENDBRANCH   6   7
ENDBRANCH   5   6
ENDBRANCH   4   5
ENDBRANCH   3   4
ENDBRANCH   2   3
ENDBRANCH   1   2
BRANCH   1  12
ATOM     12  C   UNL     1       7.849 -33.744  16.210  1.00  0.00     0.000 C 
BRANCH  12  13
ATOM     13  C   UNL     1       7.315 -35.167  15.976  1.00  0.00    -0.000 C 
BRANCH  13  14
ATOM     14  C   UNL     1       6.388 -35.263  14.753  1.00  0.00    -0.000 C 
BRANCH  14  15
ATOM     15  C   UNL     1       5.900 -33.887  14.274  1.00  0.00    -0.000 C 
BRANCH  15  16
ATOM     16  C   UNL     1       6.426 -33.523  12.875  1.00  0.00    -0.000 C 
BRANCH  16  17
ATOM     17  C   UNL     1       7.299 -32.255  12.876  1.00  0.00    -0.000 C 
BRANCH  17  18
ATOM     18  C   UNL     1       8.817 -32.515  12.896  1.00  0.00    -0.000 C 
BRANCH  18  19
ATOM     19  C   UNL     1       9.168 -34.010  12.899  1.00  0.00    -0.003 C 
ATOM     20  C   UNL     1      10.563 -34.246  13.472  1.00  0.00     0.004 C 
ENDBRANCH  18  19
ENDBRANCH  17  18
ENDBRANCH  16  17
ENDBRANCH  15  16
ENDBRANCH  14  15
ENDBRANCH  13  14
ENDBRANCH  12  13
ENDBRANCH   1  12
TORSDOF 16
ENDMDL
