MODEL 1
REMARK VINA RESULT:    -6.516      0.000      0.000
REMARK INTER + INTRA:          -7.946
REMARK INTER:                  -7.659
REMARK INTRA:                  -0.287
REMARK UNBOUND:                -0.287
REMARK SMILES O=c1c(O)c(-c2ccc(O)cc2)oc2cc(O)cc(O)c12
REMARK SMILES IDX 5 1 3 2 2 3 1 4 21 5 19 6 18 7 16 8 15 9 14 10 13 11 6 12
REMARK SMILES IDX 7 13 8 14 9 15 12 16 11 17 10 18 4 20 20 22 17 24
REMARK H PARENT 10 19 4 21 20 23 17 25
REMARK Flexibility Score: inf
ROOT
ATOM      1  C   UNL     1     136.185 135.947 142.012  1.00  0.00     0.180 A 
ATOM      2  C   UNL     1     135.513 136.558 143.085  1.00  0.00     0.208 A 
ATOM      3  C   UNL     1     134.111 136.496 143.133  1.00  0.00     0.238 A 
ATOM      4  O   UNL     1     133.512 137.092 144.067  1.00  0.00    -0.285 OA
ATOM      5  C   UNL     1     133.400 135.812 142.118  1.00  0.00     0.111 A 
ATOM      6  C   UNL     1     131.982 135.653 142.089  1.00  0.00     0.134 A 
ATOM      7  C   UNL     1     131.376 135.069 140.969  1.00  0.00     0.093 A 
ATOM      8  C   UNL     1     132.142 134.580 139.908  1.00  0.00     0.123 A 
ATOM      9  C   UNL     1     133.531 134.678 139.956  1.00  0.00     0.094 A 
ATOM     10  C   UNL     1     134.162 135.288 141.042  1.00  0.00     0.146 A 
ATOM     11  O   UNL     1     135.487 135.369 141.042  1.00  0.00    -0.452 OA
ENDROOT
BRANCH   1  12
ATOM     12  C   UNL     1     137.662 135.947 141.905  1.00  0.00     0.021 A 
ATOM     13  C   UNL     1     138.293 136.867 141.051  1.00  0.00     0.016 A 
ATOM     14  C   UNL     1     139.686 136.871 140.918  1.00  0.00     0.047 A 
ATOM     15  C   UNL     1     140.462 135.947 141.624  1.00  0.00     0.115 A 
ATOM     16  C   UNL     1     138.447 135.008 142.598  1.00  0.00     0.016 A 
ATOM     17  C   UNL     1     139.839 135.013 142.462  1.00  0.00     0.047 A 
BRANCH  15  18
ATOM     18  O   UNL     1     141.848 135.962 141.482  1.00  0.00    -0.508 OA
ATOM     19  H   UNL     1     142.422 136.644 141.965  1.00  0.00     0.293 HD
ENDBRANCH  15  18
ENDBRANCH   1  12
BRANCH   2  20
ATOM     20  O   UNL     1     136.233 137.249 144.064  1.00  0.00    -0.502 OA
ATOM     21  H   UNL     1     136.607 136.792 144.887  1.00  0.00     0.293 HD
ENDBRANCH   2  20
BRANCH   6  22
ATOM     22  O   UNL     1     131.133 136.022 143.136  1.00  0.00    -0.507 OA
ATOM     23  H   UNL     1     130.413 136.726 143.071  1.00  0.00     0.293 HD
ENDBRANCH   6  22
BRANCH   8  24
ATOM     24  O   UNL     1     131.532 133.987 138.805  1.00  0.00    -0.508 OA
ATOM     25  H   UNL     1     130.562 134.168 138.575  1.00  0.00     0.293 HD
ENDBRANCH   8  24
TORSDOF 5
ENDMDL
MODEL 2
REMARK VINA RESULT:    -6.459      7.977      9.855
REMARK INTER + INTRA:          -7.878
REMARK INTER:                  -7.860
REMARK INTRA:                  -0.019
REMARK UNBOUND:                -0.287
REMARK SMILES O=c1c(O)c(-c2ccc(O)cc2)oc2cc(O)cc(O)c12
REMARK SMILES IDX 5 1 3 2 2 3 1 4 21 5 19 6 18 7 16 8 15 9 14 10 13 11 6 12
REMARK SMILES IDX 7 13 8 14 9 15 12 16 11 17 10 18 4 20 20 22 17 24
REMARK H PARENT 10 19 4 21 20 23 17 25
REMARK Flexibility Score: inf
ROOT
ATOM      1  C   UNL     1     144.123 136.800 141.027  1.00  0.00     0.180 A 
ATOM      2  C   UNL     1     145.074 137.268 140.104  1.00  0.00     0.208 A 
ATOM      3  C   UNL     1     144.947 138.571 139.598  1.00  0.00     0.238 A 
ATOM      4  O   UNL     1     145.771 138.964 138.730  1.00  0.00    -0.285 OA
ATOM      5  C   UNL     1     143.883 139.396 140.033  1.00  0.00     0.111 A 
ATOM      6  C   UNL     1     143.682 140.746 139.616  1.00  0.00     0.134 A 
ATOM      7  C   UNL     1     142.521 141.424 140.010  1.00  0.00     0.093 A 
ATOM      8  C   UNL     1     141.588 140.823 140.859  1.00  0.00     0.123 A 
ATOM      9  C   UNL     1     141.807 139.527 141.318  1.00  0.00     0.094 A 
ATOM     10  C   UNL     1     142.935 138.811 140.913  1.00  0.00     0.146 A 
ATOM     11  O   UNL     1     143.099 137.575 141.366  1.00  0.00    -0.452 OA
ENDROOT
BRANCH   1  12
ATOM     12  C   UNL     1     144.203 135.447 141.625  1.00  0.00     0.021 A 
ATOM     13  C   UNL     1     143.067 134.622 141.622  1.00  0.00     0.016 A 
ATOM     14  C   UNL     1     143.113 133.349 142.200  1.00  0.00     0.047 A 
ATOM     15  C   UNL     1     144.290 132.893 142.801  1.00  0.00     0.115 A 
ATOM     16  C   UNL     1     145.378 134.989 142.248  1.00  0.00     0.016 A 
ATOM     17  C   UNL     1     145.422 133.717 142.827  1.00  0.00     0.047 A 
BRANCH  15  18
ATOM     18  O   UNL     1     144.323 131.622 143.373  1.00  0.00    -0.508 OA
ATOM     19  H   UNL     1     144.408 131.494 144.375  1.00  0.00     0.293 HD
ENDBRANCH  15  18
ENDBRANCH   1  12
BRANCH   2  20
ATOM     20  O   UNL     1     146.104 136.428 139.670  1.00  0.00    -0.502 OA
ATOM     21  H   UNL     1     147.064 136.742 139.589  1.00  0.00     0.293 HD
ENDBRANCH   2  20
BRANCH   6  22
ATOM     22  O   UNL     1     144.596 141.469 138.845  1.00  0.00    -0.507 OA
ATOM     23  H   UNL     1     145.457 141.863 139.193  1.00  0.00     0.293 HD
ENDBRANCH   6  22
BRANCH   8  24
ATOM     24  O   UNL     1     140.445 141.512 141.258  1.00  0.00    -0.508 OA
ATOM     25  H   UNL     1     140.266 141.722 142.233  1.00  0.00     0.293 HD
ENDBRANCH   8  24
TORSDOF 5
ENDMDL
MODEL 3
REMARK VINA RESULT:    -6.294      1.681      6.572
REMARK INTER + INTRA:          -7.685
REMARK INTER:                  -7.428
REMARK INTRA:                  -0.257
REMARK UNBOUND:                -0.287
REMARK SMILES O=c1c(O)c(-c2ccc(O)cc2)oc2cc(O)cc(O)c12
REMARK SMILES IDX 5 1 3 2 2 3 1 4 21 5 19 6 18 7 16 8 15 9 14 10 13 11 6 12
REMARK SMILES IDX 7 13 8 14 9 15 12 16 11 17 10 18 4 20 20 22 17 24
REMARK H PARENT 10 19 4 21 20 23 17 25
REMARK Flexibility Score: inf
ROOT
ATOM      1  C   UNL     1     134.922 136.342 142.596  1.00  0.00     0.180 A 
ATOM      2  C   UNL     1     135.015 137.643 143.122  1.00  0.00     0.208 A 
ATOM      3  C   UNL     1     136.284 138.214 143.306  1.00  0.00     0.238 A 
ATOM      4  O   UNL     1     136.361 139.356 143.829  1.00  0.00    -0.285 OA
ATOM      5  C   UNL     1     137.443 137.486 142.947  1.00  0.00     0.111 A 
ATOM      6  C   UNL     1     138.777 137.983 143.053  1.00  0.00     0.134 A 
ATOM      7  C   UNL     1     139.855 137.127 142.791  1.00  0.00     0.093 A 
ATOM      8  C   UNL     1     139.646 135.814 142.364  1.00  0.00     0.123 A 
ATOM      9  C   UNL     1     138.346 135.339 142.200  1.00  0.00     0.094 A 
ATOM     10  C   UNL     1     137.251 136.156 142.489  1.00  0.00     0.146 A 
ATOM     11  O   UNL     1     136.031 135.660 142.330  1.00  0.00    -0.452 OA
ENDROOT
BRANCH   1  12
ATOM     12  C   UNL     1     133.620 135.683 142.349  1.00  0.00     0.021 A 
ATOM     13  C   UNL     1     133.073 135.695 141.055  1.00  0.00     0.016 A 
ATOM     14  C   UNL     1     131.834 135.097 140.802  1.00  0.00     0.047 A 
ATOM     15  C   UNL     1     131.121 134.494 141.842  1.00  0.00     0.115 A 
ATOM     16  C   UNL     1     132.888 135.091 143.394  1.00  0.00     0.016 A 
ATOM     17  C   UNL     1     131.649 134.494 143.140  1.00  0.00     0.047 A 
BRANCH  15  18
ATOM     18  O   UNL     1     129.888 133.901 141.577  1.00  0.00    -0.508 OA
ATOM     19  H   UNL     1     129.618 133.637 140.636  1.00  0.00     0.293 HD
ENDBRANCH  15  18
ENDBRANCH   1  12
BRANCH   2  20
ATOM     20  O   UNL     1     133.858 138.335 143.492  1.00  0.00    -0.502 OA
ATOM     21  H   UNL     1     133.399 138.994 142.875  1.00  0.00     0.293 HD
ENDBRANCH   2  20
BRANCH   6  22
ATOM     22  O   UNL     1     139.095 139.304 143.382  1.00  0.00    -0.507 OA
ATOM     23  H   UNL     1     138.872 140.107 142.813  1.00  0.00     0.293 HD
ENDBRANCH   6  22
BRANCH   8  24
ATOM     24  O   UNL     1     140.724 134.975 142.090  1.00  0.00    -0.508 OA
ATOM     25  H   UNL     1     140.758 134.024 142.438  1.00  0.00     0.293 HD
ENDBRANCH   8  24
TORSDOF 5
ENDMDL
MODEL 4
REMARK VINA RESULT:    -6.120      1.775      3.496
REMARK INTER + INTRA:          -7.481
REMARK INTER:                  -7.181
REMARK INTRA:                  -0.300
REMARK UNBOUND:                -0.287
REMARK SMILES O=c1c(O)c(-c2ccc(O)cc2)oc2cc(O)cc(O)c12
REMARK SMILES IDX 5 1 3 2 2 3 1 4 21 5 19 6 18 7 16 8 15 9 14 10 13 11 6 12
REMARK SMILES IDX 7 13 8 14 9 15 12 16 11 17 10 18 4 20 20 22 17 24
REMARK H PARENT 10 19 4 21 20 23 17 25
REMARK Flexibility Score: inf
ROOT
ATOM      1  C   UNL     1     134.730 136.071 141.425  1.00  0.00     0.180 A 
ATOM      2  C   UNL     1     133.964 135.155 140.683  1.00  0.00     0.208 A 
ATOM      3  C   UNL     1     132.564 135.242 140.732  1.00  0.00     0.238 A 
ATOM      4  O   UNL     1     131.884 134.385 140.109  1.00  0.00    -0.285 OA
ATOM      5  C   UNL     1     131.947 136.252 141.508  1.00  0.00     0.111 A 
ATOM      6  C   UNL     1     130.537 136.457 141.598  1.00  0.00     0.134 A 
ATOM      7  C   UNL     1     130.034 137.404 142.499  1.00  0.00     0.093 A 
ATOM      8  C   UNL     1     130.891 138.199 143.264  1.00  0.00     0.123 A 
ATOM      9  C   UNL     1     132.270 138.046 143.138  1.00  0.00     0.094 A 
ATOM     10  C   UNL     1     132.802 137.085 142.276  1.00  0.00     0.146 A 
ATOM     11  O   UNL     1     134.121 136.966 142.196  1.00  0.00    -0.452 OA
ENDROOT
BRANCH   1  12
ATOM     12  C   UNL     1     136.210 136.060 141.404  1.00  0.00     0.021 A 
ATOM     13  C   UNL     1     136.911 135.346 142.391  1.00  0.00     0.016 A 
ATOM     14  C   UNL     1     138.309 135.338 142.403  1.00  0.00     0.047 A 
ATOM     15  C   UNL     1     139.024 136.057 141.441  1.00  0.00     0.115 A 
ATOM     16  C   UNL     1     136.936 136.796 140.450  1.00  0.00     0.016 A 
ATOM     17  C   UNL     1     138.334 136.789 140.465  1.00  0.00     0.047 A 
BRANCH  15  18
ATOM     18  O   UNL     1     140.417 136.041 141.464  1.00  0.00    -0.508 OA
ATOM     19  H   UNL     1     140.964 136.618 140.835  1.00  0.00     0.293 HD
ENDBRANCH  15  18
ENDBRANCH   1  12
BRANCH   2  20
ATOM     20  O   UNL     1     134.594 134.152 139.942  1.00  0.00    -0.502 OA
ATOM     21  H   UNL     1     134.952 134.310 139.007  1.00  0.00     0.293 HD
ENDBRANCH   2  20
BRANCH   6  22
ATOM     22  O   UNL     1     129.598 135.783 140.812  1.00  0.00    -0.507 OA
ATOM     23  H   UNL     1     128.858 136.229 140.292  1.00  0.00     0.293 HD
ENDBRANCH   6  22
BRANCH   8  24
ATOM     24  O   UNL     1     130.382 139.149 144.146  1.00  0.00    -0.508 OA
ATOM     25  H   UNL     1     130.923 139.959 144.424  1.00  0.00     0.293 HD
ENDBRANCH   8  24
TORSDOF 5
ENDMDL
MODEL 5
REMARK VINA RESULT:    -6.069      6.475      8.343
REMARK INTER + INTRA:          -7.420
REMARK INTER:                  -7.289
REMARK INTRA:                  -0.131
REMARK UNBOUND:                -0.287
REMARK SMILES O=c1c(O)c(-c2ccc(O)cc2)oc2cc(O)cc(O)c12
REMARK SMILES IDX 5 1 3 2 2 3 1 4 21 5 19 6 18 7 16 8 15 9 14 10 13 11 6 12
REMARK SMILES IDX 7 13 8 14 9 15 12 16 11 17 10 18 4 20 20 22 17 24
REMARK H PARENT 10 19 4 21 20 23 17 25
REMARK Flexibility Score: inf
ROOT
ATOM      1  C   UNL     1     142.963 136.349 141.210  1.00  0.00     0.180 A 
ATOM      2  C   UNL     1     143.278 136.892 139.952  1.00  0.00     0.208 A 
ATOM      3  C   UNL     1     142.649 138.080 139.547  1.00  0.00     0.238 A 
ATOM      4  O   UNL     1     142.894 138.531 138.397  1.00  0.00    -0.285 OA
ATOM      5  C   UNL     1     141.727 138.719 140.410  1.00  0.00     0.111 A 
ATOM      6  C   UNL     1     141.062 139.948 140.117  1.00  0.00     0.134 A 
ATOM      7  C   UNL     1     140.071 140.421 140.988  1.00  0.00     0.093 A 
ATOM      8  C   UNL     1     139.770 139.744 142.172  1.00  0.00     0.123 A 
ATOM      9  C   UNL     1     140.456 138.575 142.494  1.00  0.00     0.094 A 
ATOM     10  C   UNL     1     141.422 138.059 141.628  1.00  0.00     0.146 A 
ATOM     11  O   UNL     1     142.045 136.937 141.969  1.00  0.00    -0.452 OA
ENDROOT
BRANCH   1  12
ATOM     12  C   UNL     1     143.602 135.115 141.718  1.00  0.00     0.021 A 
ATOM     13  C   UNL     1     144.986 135.103 141.962  1.00  0.00     0.016 A 
ATOM     14  C   UNL     1     145.616 133.941 142.422  1.00  0.00     0.047 A 
ATOM     15  C   UNL     1     144.873 132.775 142.628  1.00  0.00     0.115 A 
ATOM     16  C   UNL     1     142.865 133.932 141.910  1.00  0.00     0.016 A 
ATOM     17  C   UNL     1     143.496 132.771 142.368  1.00  0.00     0.047 A 
BRANCH  15  18
ATOM     18  O   UNL     1     145.513 131.625 143.087  1.00  0.00    -0.508 OA
ATOM     19  H   UNL     1     146.339 131.259 142.627  1.00  0.00     0.293 HD
ENDBRANCH  15  18
ENDBRANCH   1  12
BRANCH   2  20
ATOM     20  O   UNL     1     144.174 136.232 139.107  1.00  0.00    -0.502 OA
ATOM     21  H   UNL     1     144.056 135.261 138.842  1.00  0.00     0.293 HD
ENDBRANCH   2  20
BRANCH   6  22
ATOM     22  O   UNL     1     141.353 140.750 139.010  1.00  0.00    -0.507 OA
ATOM     23  H   UNL     1     141.458 140.409 138.066  1.00  0.00     0.293 HD
ENDBRANCH   6  22
BRANCH   8  24
ATOM     24  O   UNL     1     138.794 140.230 143.040  1.00  0.00    -0.508 OA
ATOM     25  H   UNL     1     138.841 141.169 143.417  1.00  0.00     0.293 HD
ENDBRANCH   8  24
TORSDOF 5
ENDMDL
MODEL 6
REMARK VINA RESULT:    -6.068      2.522      6.530
REMARK INTER + INTRA:          -7.420
REMARK INTER:                  -7.126
REMARK INTRA:                  -0.294
REMARK UNBOUND:                -0.287
REMARK SMILES O=c1c(O)c(-c2ccc(O)cc2)oc2cc(O)cc(O)c12
REMARK SMILES IDX 5 1 3 2 2 3 1 4 21 5 19 6 18 7 16 8 15 9 14 10 13 11 6 12
REMARK SMILES IDX 7 13 8 14 9 15 12 16 11 17 10 18 4 20 20 22 17 24
REMARK H PARENT 10 19 4 21 20 23 17 25
REMARK Flexibility Score: inf
ROOT
ATOM      1  C   UNL     1     133.425 135.782 142.442  1.00  0.00     0.180 A 
ATOM      2  C   UNL     1     132.847 136.392 141.315  1.00  0.00     0.208 A 
ATOM      3  C   UNL     1     133.685 136.870 140.295  1.00  0.00     0.238 A 
ATOM      4  O   UNL     1     133.164 137.464 139.315  1.00  0.00    -0.285 OA
ATOM      5  C   UNL     1     135.088 136.719 140.407  1.00  0.00     0.111 A 
ATOM      6  C   UNL     1     136.029 137.131 139.415  1.00  0.00     0.134 A 
ATOM      7  C   UNL     1     137.400 137.051 139.689  1.00  0.00     0.093 A 
ATOM      8  C   UNL     1     137.864 136.513 140.892  1.00  0.00     0.123 A 
ATOM      9  C   UNL     1     136.954 136.053 141.841  1.00  0.00     0.094 A 
ATOM     10  C   UNL     1     135.580 136.154 141.612  1.00  0.00     0.146 A 
ATOM     11  O   UNL     1     134.748 135.714 142.548  1.00  0.00    -0.452 OA
ENDROOT
BRANCH   1  12
ATOM     12  C   UNL     1     132.607 135.230 143.546  1.00  0.00     0.021 A 
ATOM     13  C   UNL     1     132.406 135.995 144.707  1.00  0.00     0.016 A 
ATOM     14  C   UNL     1     131.654 135.485 145.771  1.00  0.00     0.047 A 
ATOM     15  C   UNL     1     131.110 134.200 145.694  1.00  0.00     0.115 A 
ATOM     16  C   UNL     1     132.072 133.931 143.483  1.00  0.00     0.016 A 
ATOM     17  C   UNL     1     131.323 133.422 144.548  1.00  0.00     0.047 A 
BRANCH  15  18
ATOM     18  O   UNL     1     130.363 133.704 146.761  1.00  0.00    -0.508 OA
ATOM     19  H   UNL     1     129.574 133.085 146.613  1.00  0.00     0.293 HD
ENDBRANCH  15  18
ENDBRANCH   1  12
BRANCH   2  20
ATOM     20  O   UNL     1     131.461 136.551 141.236  1.00  0.00    -0.502 OA
ATOM     21  H   UNL     1     130.835 135.779 141.042  1.00  0.00     0.293 HD
ENDBRANCH   2  20
BRANCH   6  22
ATOM     22  O   UNL     1     135.672 137.596 138.146  1.00  0.00    -0.507 OA
ATOM     23  H   UNL     1     134.744 137.890 137.882  1.00  0.00     0.293 HD
ENDBRANCH   6  22
BRANCH   8  24
ATOM     24  O   UNL     1     139.231 136.422 141.149  1.00  0.00    -0.508 OA
ATOM     25  H   UNL     1     139.905 136.316 140.401  1.00  0.00     0.293 HD
ENDBRANCH   8  24
TORSDOF 5
ENDMDL
MODEL 7
REMARK VINA RESULT:    -6.006      6.626      8.877
REMARK INTER + INTRA:          -7.346
REMARK INTER:                  -7.588
REMARK INTRA:                   0.242
REMARK UNBOUND:                -0.287
REMARK SMILES O=c1c(O)c(-c2ccc(O)cc2)oc2cc(O)cc(O)c12
REMARK SMILES IDX 5 1 3 2 2 3 1 4 21 5 19 6 18 7 16 8 15 9 14 10 13 11 6 12
REMARK SMILES IDX 7 13 8 14 9 15 12 16 11 17 10 18 4 20 20 22 17 24
REMARK H PARENT 10 19 4 21 20 23 17 25
REMARK Flexibility Score: inf
ROOT
ATOM      1  C   UNL     1     143.075 135.873 141.169  1.00  0.00     0.180 A 
ATOM      2  C   UNL     1     141.698 136.152 141.225  1.00  0.00     0.208 A 
ATOM      3  C   UNL     1     141.200 137.266 140.531  1.00  0.00     0.238 A 
ATOM      4  O   UNL     1     139.976 137.541 140.630  1.00  0.00    -0.285 OA
ATOM      5  C   UNL     1     142.081 138.077 139.776  1.00  0.00     0.111 A 
ATOM      6  C   UNL     1     141.678 139.206 139.001  1.00  0.00     0.134 A 
ATOM      7  C   UNL     1     142.652 140.013 138.400  1.00  0.00     0.093 A 
ATOM      8  C   UNL     1     144.009 139.694 138.490  1.00  0.00     0.123 A 
ATOM      9  C   UNL     1     144.406 138.560 139.195  1.00  0.00     0.094 A 
ATOM     10  C   UNL     1     143.462 137.756 139.836  1.00  0.00     0.146 A 
ATOM     11  O   UNL     1     143.885 136.691 140.506  1.00  0.00    -0.452 OA
ENDROOT
BRANCH   1  12
ATOM     12  C   UNL     1     143.671 134.704 141.853  1.00  0.00     0.021 A 
ATOM     13  C   UNL     1     144.996 134.774 142.315  1.00  0.00     0.016 A 
ATOM     14  C   UNL     1     145.587 133.674 142.945  1.00  0.00     0.047 A 
ATOM     15  C   UNL     1     144.868 132.486 143.106  1.00  0.00     0.115 A 
ATOM     16  C   UNL     1     142.960 133.500 142.002  1.00  0.00     0.016 A 
ATOM     17  C   UNL     1     143.552 132.400 142.630  1.00  0.00     0.047 A 
BRANCH  15  18
ATOM     18  O   UNL     1     145.468 131.398 143.736  1.00  0.00    -0.508 OA
ATOM     19  H   UNL     1     145.017 130.491 143.770  1.00  0.00     0.293 HD
ENDBRANCH  15  18
ENDBRANCH   1  12
BRANCH   2  20
ATOM     20  O   UNL     1     140.851 135.351 141.996  1.00  0.00    -0.502 OA
ATOM     21  H   UNL     1     141.113 135.006 142.912  1.00  0.00     0.293 HD
ENDBRANCH   2  20
BRANCH   6  22
ATOM     22  O   UNL     1     140.345 139.560 138.770  1.00  0.00    -0.507 OA
ATOM     23  H   UNL     1     139.604 139.484 139.451  1.00  0.00     0.293 HD
ENDBRANCH   6  22
BRANCH   8  24
ATOM     24  O   UNL     1     144.970 140.494 137.875  1.00  0.00    -0.508 OA
ATOM     25  H   UNL     1     144.710 141.268 137.276  1.00  0.00     0.293 HD
ENDBRANCH   8  24
TORSDOF 5
ENDMDL
MODEL 8
REMARK VINA RESULT:    -5.988      1.260      2.101
REMARK INTER + INTRA:          -7.325
REMARK INTER:                  -7.079
REMARK INTRA:                  -0.247
REMARK UNBOUND:                -0.287
REMARK SMILES O=c1c(O)c(-c2ccc(O)cc2)oc2cc(O)cc(O)c12
REMARK SMILES IDX 5 1 3 2 2 3 1 4 21 5 19 6 18 7 16 8 15 9 14 10 13 11 6 12
REMARK SMILES IDX 7 13 8 14 9 15 12 16 11 17 10 18 4 20 20 22 17 24
REMARK H PARENT 10 19 4 21 20 23 17 25
REMARK Flexibility Score: inf
ROOT
ATOM      1  C   UNL     1     137.716 136.299 142.293  1.00  0.00     0.180 A 
ATOM      2  C   UNL     1     137.319 137.268 143.231  1.00  0.00     0.208 A 
ATOM      3  C   UNL     1     135.949 137.475 143.458  1.00  0.00     0.238 A 
ATOM      4  O   UNL     1     135.600 138.382 144.258  1.00  0.00    -0.285 OA
ATOM      5  C   UNL     1     134.994 136.700 142.758  1.00  0.00     0.111 A 
ATOM      6  C   UNL     1     133.582 136.798 142.939  1.00  0.00     0.134 A 
ATOM      7  C   UNL     1     132.726 136.074 142.098  1.00  0.00     0.093 A 
ATOM      8  C   UNL     1     133.234 135.207 141.127  1.00  0.00     0.123 A 
ATOM      9  C   UNL     1     134.612 135.060 140.984  1.00  0.00     0.094 A 
ATOM     10  C   UNL     1     135.490 135.796 141.782  1.00  0.00     0.146 A 
ATOM     11  O   UNL     1     136.795 135.634 141.605  1.00  0.00    -0.452 OA
ENDROOT
BRANCH   1  12
ATOM     12  C   UNL     1     139.141 136.006 142.018  1.00  0.00     0.021 A 
ATOM     13  C   UNL     1     139.746 134.890 142.620  1.00  0.00     0.016 A 
ATOM     14  C   UNL     1     141.096 134.605 142.392  1.00  0.00     0.047 A 
ATOM     15  C   UNL     1     141.861 135.440 141.573  1.00  0.00     0.115 A 
ATOM     16  C   UNL     1     139.921 136.852 141.210  1.00  0.00     0.016 A 
ATOM     17  C   UNL     1     141.272 136.567 140.984  1.00  0.00     0.047 A 
BRANCH  15  18
ATOM     18  O   UNL     1     143.205 135.145 141.353  1.00  0.00    -0.508 OA
ATOM     19  H   UNL     1     143.506 134.616 140.542  1.00  0.00     0.293 HD
ENDBRANCH  15  18
ENDBRANCH   1  12
BRANCH   2  20
ATOM     20  O   UNL     1     138.279 138.038 143.894  1.00  0.00    -0.502 OA
ATOM     21  H   UNL     1     138.855 137.665 144.639  1.00  0.00     0.293 HD
ENDBRANCH   2  20
BRANCH   6  22
ATOM     22  O   UNL     1     132.973 137.563 143.938  1.00  0.00    -0.507 OA
ATOM     23  H   UNL     1     132.432 138.398 143.773  1.00  0.00     0.293 HD
ENDBRANCH   6  22
BRANCH   8  24
ATOM     24  O   UNL     1     132.376 134.479 140.306  1.00  0.00    -0.508 OA
ATOM     25  H   UNL     1     132.412 134.559 139.297  1.00  0.00     0.293 HD
ENDBRANCH   8  24
TORSDOF 5
ENDMDL
MODEL 9
REMARK VINA RESULT:    -5.884      5.120      7.042
REMARK INTER + INTRA:          -7.203
REMARK INTER:                  -6.950
REMARK INTRA:                  -0.253
REMARK UNBOUND:                -0.287
REMARK SMILES O=c1c(O)c(-c2ccc(O)cc2)oc2cc(O)cc(O)c12
REMARK SMILES IDX 5 1 3 2 2 3 1 4 21 5 19 6 18 7 16 8 15 9 14 10 13 11 6 12
REMARK SMILES IDX 7 13 8 14 9 15 12 16 11 17 10 18 4 20 20 22 17 24
REMARK H PARENT 10 19 4 21 20 23 17 25
REMARK Flexibility Score: inf
ROOT
ATOM      1  C   UNL     1     131.547 139.545 139.706  1.00  0.00     0.180 A 
ATOM      2  C   UNL     1     130.247 139.174 140.093  1.00  0.00     0.208 A 
ATOM      3  C   UNL     1     129.986 137.830 140.403  1.00  0.00     0.238 A 
ATOM      4  O   UNL     1     128.808 137.496 140.696  1.00  0.00    -0.285 OA
ATOM      5  C   UNL     1     131.030 136.877 140.338  1.00  0.00     0.111 A 
ATOM      6  C   UNL     1     130.888 135.496 140.669  1.00  0.00     0.134 A 
ATOM      7  C   UNL     1     131.956 134.618 140.443  1.00  0.00     0.093 A 
ATOM      8  C   UNL     1     133.181 135.083 139.960  1.00  0.00     0.123 A 
ATOM      9  C   UNL     1     133.348 136.440 139.690  1.00  0.00     0.094 A 
ATOM     10  C   UNL     1     132.290 137.334 139.870  1.00  0.00     0.146 A 
ATOM     11  O   UNL     1     132.489 138.616 139.591  1.00  0.00    -0.452 OA
ENDROOT
BRANCH   1  12
ATOM     12  C   UNL     1     131.905 140.946 139.389  1.00  0.00     0.021 A 
ATOM     13  C   UNL     1     132.535 141.736 140.365  1.00  0.00     0.016 A 
ATOM     14  C   UNL     1     132.864 143.069 140.095  1.00  0.00     0.047 A 
ATOM     15  C   UNL     1     132.553 143.631 138.854  1.00  0.00     0.115 A 
ATOM     16  C   UNL     1     131.579 141.524 138.149  1.00  0.00     0.016 A 
ATOM     17  C   UNL     1     131.907 142.857 137.881  1.00  0.00     0.047 A 
BRANCH  15  18
ATOM     18  O   UNL     1     132.887 144.960 138.598  1.00  0.00    -0.508 OA
ATOM     19  H   UNL     1     133.095 145.283 137.659  1.00  0.00     0.293 HD
ENDBRANCH  15  18
ENDBRANCH   1  12
BRANCH   2  20
ATOM     20  O   UNL     1     129.226 140.128 140.128  1.00  0.00    -0.502 OA
ATOM     21  H   UNL     1     129.078 140.794 139.379  1.00  0.00     0.293 HD
ENDBRANCH   2  20
BRANCH   6  22
ATOM     22  O   UNL     1     129.738 134.945 141.244  1.00  0.00    -0.507 OA
ATOM     23  H   UNL     1     128.935 135.476 141.543  1.00  0.00     0.293 HD
ENDBRANCH   6  22
BRANCH   8  24
ATOM     24  O   UNL     1     134.243 134.205 139.753  1.00  0.00    -0.508 OA
ATOM     25  H   UNL     1     134.136 133.365 139.198  1.00  0.00     0.293 HD
ENDBRANCH   8  24
TORSDOF 5
ENDMDL
