MODEL 1
REMARK VINA RESULT:    -4.203      0.000      0.000
REMARK INTER + INTRA:          -4.325
REMARK INTER:                  -4.325
REMARK INTRA:                   0.000
REMARK UNBOUND:                 0.000
REMARK SMILES O=c1ccc2ccc(O)cc2o1
REMARK SMILES IDX 6 1 7 2 8 3 10 4 11 5 5 6 4 7 3 8 2 9 1 10 12 11 9 12
REMARK H PARENT 9 13
REMARK Flexibility Score: inf
ROOT
ATOM      1  C   UNL     1      75.943  40.986  19.692  1.00  0.00     0.016 A 
ATOM      2  C   UNL     1      75.810  41.599  20.943  1.00  0.00     0.047 A 
ATOM      3  C   UNL     1      74.906  41.094  21.885  1.00  0.00     0.119 A 
ATOM      4  C   UNL     1      74.130  39.967  21.576  1.00  0.00     0.094 A 
ATOM      5  C   UNL     1      74.257  39.348  20.327  1.00  0.00     0.142 A 
ATOM      6  C   UNL     1      75.170  39.860  19.380  1.00  0.00     0.018 A 
ATOM      7  C   UNL     1      75.274  39.220  18.141  1.00  0.00     0.019 A 
ATOM      8  C   UNL     1      74.480  38.103  17.879  1.00  0.00     0.094 A 
ATOM      9  C   UNL     1      73.598  37.651  18.867  1.00  0.00     0.336 A 
ATOM     10  O   UNL     1      72.874  36.644  18.648  1.00  0.00    -0.246 OA
ATOM     11  O   UNL     1      73.518  38.279  20.037  1.00  0.00    -0.423 OA
ENDROOT
BRANCH   3  12
ATOM     12  O   UNL     1      74.787  41.718  23.125  1.00  0.00    -0.508 OA
ATOM     13  H   UNL     1      74.811  42.726  23.214  1.00  0.00     0.293 HD
ENDBRANCH   3  12
TORSDOF 1
ENDMDL
MODEL 2
REMARK VINA RESULT:    -4.018      1.735      4.557
REMARK INTER + INTRA:          -4.136
REMARK INTER:                  -4.136
REMARK INTRA:                   0.000
REMARK UNBOUND:                 0.000
REMARK SMILES O=c1ccc2ccc(O)cc2o1
REMARK SMILES IDX 6 1 7 2 8 3 10 4 11 5 5 6 4 7 3 8 2 9 1 10 12 11 9 12
REMARK H PARENT 9 13
REMARK Flexibility Score: inf
ROOT
ATOM      1  C   UNL     1      73.241  38.662  21.333  1.00  0.00     0.016 A 
ATOM      2  C   UNL     1      72.775  37.697  20.435  1.00  0.00     0.047 A 
ATOM      3  C   UNL     1      73.328  37.598  19.152  1.00  0.00     0.119 A 
ATOM      4  C   UNL     1      74.356  38.471  18.764  1.00  0.00     0.094 A 
ATOM      5  C   UNL     1      74.829  39.439  19.657  1.00  0.00     0.142 A 
ATOM      6  C   UNL     1      74.269  39.536  20.950  1.00  0.00     0.018 A 
ATOM      7  C   UNL     1      74.762  40.513  21.819  1.00  0.00     0.019 A 
ATOM      8  C   UNL     1      75.785  41.358  21.388  1.00  0.00     0.094 A 
ATOM      9  C   UNL     1      76.292  41.204  20.093  1.00  0.00     0.336 A 
ATOM     10  O   UNL     1      77.215  41.958  19.687  1.00  0.00    -0.246 OA
ATOM     11  O   UNL     1      75.804  40.265  19.286  1.00  0.00    -0.423 OA
ENDROOT
BRANCH   3  12
ATOM     12  O   UNL     1      72.850  36.631  18.271  1.00  0.00    -0.508 OA
ATOM     13  H   UNL     1      73.457  36.185  17.594  1.00  0.00     0.293 HD
ENDBRANCH   3  12
TORSDOF 1
ENDMDL
MODEL 3
REMARK VINA RESULT:    -3.983      1.897      2.374
REMARK INTER + INTRA:          -4.100
REMARK INTER:                  -4.100
REMARK INTRA:                   0.000
REMARK UNBOUND:                 0.000
REMARK SMILES O=c1ccc2ccc(O)cc2o1
REMARK SMILES IDX 6 1 7 2 8 3 10 4 11 5 5 6 4 7 3 8 2 9 1 10 12 11 9 12
REMARK H PARENT 9 13
REMARK Flexibility Score: inf
ROOT
ATOM      1  C   UNL     1      73.906  41.158  21.521  1.00  0.00     0.016 A 
ATOM      2  C   UNL     1      72.777  41.284  22.338  1.00  0.00     0.047 A 
ATOM      3  C   UNL     1      71.705  40.394  22.205  1.00  0.00     0.119 A 
ATOM      4  C   UNL     1      71.761  39.369  21.248  1.00  0.00     0.094 A 
ATOM      5  C   UNL     1      72.886  39.236  20.427  1.00  0.00     0.142 A 
ATOM      6  C   UNL     1      73.966  40.136  20.564  1.00  0.00     0.018 A 
ATOM      7  C   UNL     1      75.076  39.977  19.729  1.00  0.00     0.019 A 
ATOM      8  C   UNL     1      75.086  38.943  18.793  1.00  0.00     0.094 A 
ATOM      9  C   UNL     1      73.981  38.089  18.714  1.00  0.00     0.336 A 
ATOM     10  O   UNL     1      73.971  37.151  17.875  1.00  0.00    -0.246 OA
ATOM     11  O   UNL     1      72.936  38.262  19.521  1.00  0.00    -0.423 OA
ENDROOT
BRANCH   3  12
ATOM     12  O   UNL     1      70.590  40.535  23.027  1.00  0.00    -0.508 OA
ATOM     13  H   UNL     1      70.435  41.376  23.570  1.00  0.00     0.293 HD
ENDBRANCH   3  12
TORSDOF 1
ENDMDL
MODEL 4
REMARK VINA RESULT:    -3.983      1.536      2.395
REMARK INTER + INTRA:          -4.099
REMARK INTER:                  -4.099
REMARK INTRA:                   0.000
REMARK UNBOUND:                 0.000
REMARK SMILES O=c1ccc2ccc(O)cc2o1
REMARK SMILES IDX 6 1 7 2 8 3 10 4 11 5 5 6 4 7 3 8 2 9 1 10 12 11 9 12
REMARK H PARENT 9 13
REMARK Flexibility Score: inf
ROOT
ATOM      1  C   UNL     1      74.662  40.444  21.912  1.00  0.00     0.016 A 
ATOM      2  C   UNL     1      75.666  41.323  21.493  1.00  0.00     0.047 A 
ATOM      3  C   UNL     1      76.180  41.241  20.193  1.00  0.00     0.119 A 
ATOM      4  C   UNL     1      75.686  40.275  19.304  1.00  0.00     0.094 A 
ATOM      5  C   UNL     1      74.681  39.392  19.716  1.00  0.00     0.142 A 
ATOM      6  C   UNL     1      74.165  39.477  21.027  1.00  0.00     0.018 A 
ATOM      7  C   UNL     1      73.162  38.582  21.409  1.00  0.00     0.019 A 
ATOM      8  C   UNL     1      72.703  37.637  20.491  1.00  0.00     0.094 A 
ATOM      9  C   UNL     1      73.259  37.612  19.208  1.00  0.00     0.336 A 
ATOM     10  O   UNL     1      72.858  36.767  18.366  1.00  0.00    -0.246 OA
ATOM     11  O   UNL     1      74.214  38.476  18.870  1.00  0.00    -0.423 OA
ENDROOT
BRANCH   3  12
ATOM     12  O   UNL     1      77.180  42.125  19.793  1.00  0.00    -0.508 OA
ATOM     13  H   UNL     1      77.358  42.316  18.815  1.00  0.00     0.293 HD
ENDBRANCH   3  12
TORSDOF 1
ENDMDL
MODEL 5
REMARK VINA RESULT:    -3.958      1.508      1.746
REMARK INTER + INTRA:          -4.073
REMARK INTER:                  -4.073
REMARK INTRA:                   0.000
REMARK UNBOUND:                 0.000
REMARK SMILES O=c1ccc2ccc(O)cc2o1
REMARK SMILES IDX 6 1 7 2 8 3 10 4 11 5 5 6 4 7 3 8 2 9 1 10 12 11 9 12
REMARK H PARENT 9 13
REMARK Flexibility Score: inf
ROOT
ATOM      1  C   UNL     1      76.897  41.736  20.684  1.00  0.00     0.016 A 
ATOM      2  C   UNL     1      76.865  41.718  22.083  1.00  0.00     0.047 A 
ATOM      3  C   UNL     1      75.843  41.039  22.758  1.00  0.00     0.119 A 
ATOM      4  C   UNL     1      74.846  40.372  22.030  1.00  0.00     0.094 A 
ATOM      5  C   UNL     1      74.871  40.384  20.631  1.00  0.00     0.142 A 
ATOM      6  C   UNL     1      75.903  41.070  19.953  1.00  0.00     0.018 A 
ATOM      7  C   UNL     1      75.901  41.065  18.555  1.00  0.00     0.019 A 
ATOM      8  C   UNL     1      74.889  40.388  17.875  1.00  0.00     0.094 A 
ATOM      9  C   UNL     1      73.899  39.729  18.613  1.00  0.00     0.336 A 
ATOM     10  O   UNL     1      72.977  39.113  18.017  1.00  0.00    -0.246 OA
ATOM     11  O   UNL     1      73.924  39.751  19.943  1.00  0.00    -0.423 OA
ENDROOT
BRANCH   3  12
ATOM     12  O   UNL     1      75.827  41.033  24.151  1.00  0.00    -0.508 OA
ATOM     13  H   UNL     1      76.490  40.485  24.685  1.00  0.00     0.293 HD
ENDBRANCH   3  12
TORSDOF 1
ENDMDL
MODEL 6
REMARK VINA RESULT:    -3.932      1.218      4.111
REMARK INTER + INTRA:          -4.046
REMARK INTER:                  -4.046
REMARK INTRA:                   0.000
REMARK UNBOUND:                 0.000
REMARK SMILES O=c1ccc2ccc(O)cc2o1
REMARK SMILES IDX 6 1 7 2 8 3 10 4 11 5 5 6 4 7 3 8 2 9 1 10 12 11 9 12
REMARK H PARENT 9 13
REMARK Flexibility Score: inf
ROOT
ATOM      1  C   UNL     1      74.416  38.593  18.341  1.00  0.00     0.016 A 
ATOM      2  C   UNL     1      73.485  37.639  18.764  1.00  0.00     0.047 A 
ATOM      3  C   UNL     1      73.060  37.610  20.098  1.00  0.00     0.119 A 
ATOM      4  C   UNL     1      73.567  38.542  21.015  1.00  0.00     0.094 A 
ATOM      5  C   UNL     1      74.498  39.501  20.600  1.00  0.00     0.142 A 
ATOM      6  C   UNL     1      74.925  39.527  19.254  1.00  0.00     0.018 A 
ATOM      7  C   UNL     1      75.857  40.496  18.869  1.00  0.00     0.019 A 
ATOM      8  C   UNL     1      76.333  41.402  19.817  1.00  0.00     0.094 A 
ATOM      9  C   UNL     1      75.864  41.316  21.133  1.00  0.00     0.336 A 
ATOM     10  O   UNL     1      76.282  42.125  22.002  1.00  0.00    -0.246 OA
ATOM     11  O   UNL     1      74.977  40.384  21.472  1.00  0.00    -0.423 OA
ENDROOT
BRANCH   3  12
ATOM     12  O   UNL     1      72.132  36.652  20.501  1.00  0.00    -0.508 OA
ATOM     13  H   UNL     1      71.561  36.152  19.830  1.00  0.00     0.293 HD
ENDBRANCH   3  12
TORSDOF 1
ENDMDL
MODEL 7
REMARK VINA RESULT:    -3.736      1.904      3.053
REMARK INTER + INTRA:          -3.845
REMARK INTER:                  -3.845
REMARK INTRA:                   0.000
REMARK UNBOUND:                 0.000
REMARK SMILES O=c1ccc2ccc(O)cc2o1
REMARK SMILES IDX 6 1 7 2 8 3 10 4 11 5 5 6 4 7 3 8 2 9 1 10 12 11 9 12
REMARK H PARENT 9 13
REMARK Flexibility Score: inf
ROOT
ATOM      1  C   UNL     1      75.976  41.685  21.491  1.00  0.00     0.016 A 
ATOM      2  C   UNL     1      76.805  42.125  20.455  1.00  0.00     0.047 A 
ATOM      3  C   UNL     1      76.738  41.523  19.192  1.00  0.00     0.119 A 
ATOM      4  C   UNL     1      75.835  40.475  18.963  1.00  0.00     0.094 A 
ATOM      5  C   UNL     1      75.001  40.028  19.995  1.00  0.00     0.142 A 
ATOM      6  C   UNL     1      75.072  40.637  21.267  1.00  0.00     0.018 A 
ATOM      7  C   UNL     1      74.227  40.169  22.278  1.00  0.00     0.019 A 
ATOM      8  C   UNL     1      73.345  39.123  22.003  1.00  0.00     0.094 A 
ATOM      9  C   UNL     1      73.330  38.569  20.719  1.00  0.00     0.336 A 
ATOM     10  O   UNL     1      72.542  37.624  20.452  1.00  0.00    -0.246 OA
ATOM     11  O   UNL     1      74.146  39.033  19.775  1.00  0.00    -0.423 OA
ENDROOT
BRANCH   3  12
ATOM     12  O   UNL     1      77.572  41.975  18.172  1.00  0.00    -0.508 OA
ATOM     13  H   UNL     1      77.838  42.950  18.098  1.00  0.00     0.293 HD
ENDBRANCH   3  12
TORSDOF 1
ENDMDL
MODEL 8
REMARK VINA RESULT:    -3.675      2.302      3.673
REMARK INTER + INTRA:          -3.783
REMARK INTER:                  -3.783
REMARK INTRA:                   0.000
REMARK UNBOUND:                 0.000
REMARK SMILES O=c1ccc2ccc(O)cc2o1
REMARK SMILES IDX 6 1 7 2 8 3 10 4 11 5 5 6 4 7 3 8 2 9 1 10 12 11 9 12
REMARK H PARENT 9 13
REMARK Flexibility Score: inf
ROOT
ATOM      1  C   UNL     1      72.791  38.527  20.301  1.00  0.00     0.016 A 
ATOM      2  C   UNL     1      71.802  38.807  21.249  1.00  0.00     0.047 A 
ATOM      3  C   UNL     1      71.859  39.986  22.003  1.00  0.00     0.119 A 
ATOM      4  C   UNL     1      72.912  40.893  21.805  1.00  0.00     0.094 A 
ATOM      5  C   UNL     1      73.905  40.620  20.858  1.00  0.00     0.142 A 
ATOM      6  C   UNL     1      73.844  39.430  20.100  1.00  0.00     0.018 A 
ATOM      7  C   UNL     1      74.850  39.185  19.161  1.00  0.00     0.019 A 
ATOM      8  C   UNL     1      75.877  40.116  19.000  1.00  0.00     0.094 A 
ATOM      9  C   UNL     1      75.872  41.274  19.786  1.00  0.00     0.336 A 
ATOM     10  O   UNL     1      76.790  42.125  19.655  1.00  0.00    -0.246 OA
ATOM     11  O   UNL     1      74.902  41.482  20.673  1.00  0.00    -0.423 OA
ENDROOT
BRANCH   3  12
ATOM     12  O   UNL     1      70.866  40.248  22.943  1.00  0.00    -0.508 OA
ATOM     13  H   UNL     1      70.506  39.522  23.550  1.00  0.00     0.293 HD
ENDBRANCH   3  12
TORSDOF 1
ENDMDL
MODEL 9
REMARK VINA RESULT:    -3.622      2.444      3.736
REMARK INTER + INTRA:          -3.728
REMARK INTER:                  -3.728
REMARK INTRA:                   0.000
REMARK UNBOUND:                 0.000
REMARK SMILES O=c1ccc2ccc(O)cc2o1
REMARK SMILES IDX 6 1 7 2 8 3 10 4 11 5 5 6 4 7 3 8 2 9 1 10 12 11 9 12
REMARK H PARENT 9 13
REMARK Flexibility Score: inf
ROOT
ATOM      1  C   UNL     1      73.301  40.388  19.131  1.00  0.00     0.016 A 
ATOM      2  C   UNL     1      72.712  40.071  20.359  1.00  0.00     0.047 A 
ATOM      3  C   UNL     1      73.442  40.203  21.547  1.00  0.00     0.119 A 
ATOM      4  C   UNL     1      74.769  40.656  21.507  1.00  0.00     0.094 A 
ATOM      5  C   UNL     1      75.365  40.975  20.282  1.00  0.00     0.142 A 
ATOM      6  C   UNL     1      74.626  40.841  19.086  1.00  0.00     0.018 A 
ATOM      7  C   UNL     1      75.249  41.168  17.878  1.00  0.00     0.019 A 
ATOM      8  C   UNL     1      76.571  41.613  17.888  1.00  0.00     0.094 A 
ATOM      9  C   UNL     1      77.241  41.723  19.111  1.00  0.00     0.336 A 
ATOM     10  O   UNL     1      78.434  42.123  19.140  1.00  0.00    -0.246 OA
ATOM     11  O   UNL     1      76.624  41.404  20.247  1.00  0.00    -0.423 OA
ENDROOT
BRANCH   3  12
ATOM     12  O   UNL     1      72.839  39.882  22.762  1.00  0.00    -0.508 OA
ATOM     13  H   UNL     1      72.483  38.952  22.947  1.00  0.00     0.293 HD
ENDBRANCH   3  12
TORSDOF 1
ENDMDL
