MODEL 1
REMARK VINA RESULT:    -0.819      0.000      0.000
REMARK INTER + INTRA:          -2.990
REMARK INTER:                  -2.158
REMARK INTRA:                  -0.831
REMARK UNBOUND:                -0.831
REMARK SMILES CCCCCCCCCCCCCCCCCCCCCCCCCCCCCC(=O)[O-]
REMARK SMILES IDX 16 1 17 2 18 3 19 4 20 5 21 6 22 7 23 8 24 9 25 10 26 11
REMARK SMILES IDX 27 12 28 13 29 14 30 15 31 16 32 17 15 18 14 19 13 20 12 21
REMARK SMILES IDX 11 22 10 23 9 24 8 25 7 26 6 27 5 28 4 29 3 30 2 31 1 32
REMARK H PARENT
REMARK Flexibility Score: inf
ROOT
ATOM      1  C   UNL     1       1.529  25.448   9.655  1.00  0.00     0.000 C 
ENDROOT
BRANCH   1   2
ATOM      2  C   UNL     1       0.931  25.581   8.247  1.00  0.00     0.000 C 
BRANCH   2   3
ATOM      3  C   UNL     1       0.068  26.845   8.082  1.00  0.00     0.000 C 
BRANCH   3   4
ATOM      4  C   UNL     1      -1.071  26.726   7.052  1.00  0.00     0.000 C 
BRANCH   4   5
ATOM      5  C   UNL     1      -0.804  25.754   5.887  1.00  0.00     0.000 C 
BRANCH   5   6
ATOM      6  C   UNL     1      -0.934  26.399   4.491  1.00  0.00     0.000 C 
BRANCH   6   7
ATOM      7  C   UNL     1      -1.010  25.360   3.358  1.00  0.00     0.000 C 
BRANCH   7   8
ATOM      8  C   UNL     1      -0.080  24.155   3.591  1.00  0.00     0.000 C 
BRANCH   8   9
ATOM      9  C   UNL     1       1.333  24.297   2.989  1.00  0.00     0.000 C 
BRANCH   9  10
ATOM     10  C   UNL     1       2.488  23.876   3.921  1.00  0.00     0.000 C 
BRANCH  10  11
ATOM     11  C   UNL     1       2.147  23.878   5.422  1.00  0.00     0.000 C 
BRANCH  11  12
ATOM     12  C   UNL     1       3.008  24.869   6.222  1.00  0.00     0.000 C 
BRANCH  12  13
ATOM     13  C   UNL     1       4.093  24.177   7.061  1.00  0.00     0.006 C 
BRANCH  13  14
ATOM     14  C   UNL     1       4.512  25.000   8.289  1.00  0.00     0.053 C 
BRANCH  14  15
ATOM     15  C   UNL     1       5.796  25.724   8.030  1.00  0.00     0.041 C 
ATOM     16  O   UNL     1       6.772  25.592   8.817  1.00  0.00    -0.550 OA
ATOM     17  O   UNL     1       5.919  26.540   6.911  1.00  0.00    -0.550 OA
ENDBRANCH  14  15
ENDBRANCH  13  14
ENDBRANCH  12  13
ENDBRANCH  11  12
ENDBRANCH  10  11
ENDBRANCH   9  10
ENDBRANCH   8   9
ENDBRANCH   7   8
ENDBRANCH   6   7
ENDBRANCH   5   6
ENDBRANCH   4   5
ENDBRANCH   3   4
ENDBRANCH   2   3
ENDBRANCH   1   2
BRANCH   1  18
ATOM     18  C   UNL     1       1.270  24.052  10.232  1.00  0.00     0.000 C 
BRANCH  18  19
ATOM     19  C   UNL     1      -0.207  23.882  10.615  1.00  0.00     0.000 C 
BRANCH  19  20
ATOM     20  C   UNL     1      -0.919  25.223  10.859  1.00  0.00     0.000 C 
BRANCH  20  21
ATOM     21  C   UNL     1      -0.842  25.749  12.306  1.00  0.00     0.000 C 
BRANCH  21  22
ATOM     22  C   UNL     1      -0.139  24.814  13.305  1.00  0.00     0.000 C 
BRANCH  22  23
ATOM     23  C   UNL     1      -1.124  23.926  14.085  1.00  0.00     0.000 C 
BRANCH  23  24
ATOM     24  C   UNL     1      -1.026  24.137  15.604  1.00  0.00    -0.000 C 
BRANCH  24  25
ATOM     25  C   UNL     1       0.261  24.869  16.013  1.00  0.00    -0.000 C 
BRANCH  25  26
ATOM     26  C   UNL     1       1.498  24.193  15.404  1.00  0.00    -0.000 C 
BRANCH  26  27
ATOM     27  C   UNL     1       2.721  25.122  15.370  1.00  0.00    -0.000 C 
BRANCH  27  28
ATOM     28  C   UNL     1       2.651  26.152  14.229  1.00  0.00    -0.000 C 
BRANCH  28  29
ATOM     29  C   UNL     1       3.810  26.007  13.226  1.00  0.00    -0.000 C 
BRANCH  29  30
ATOM     30  C   UNL     1       3.504  25.124  12.003  1.00  0.00    -0.000 C 
BRANCH  30  31
ATOM     31  C   UNL     1       4.396  23.876  11.927  1.00  0.00    -0.003 C 
ATOM     32  C   UNL     1       5.816  24.241  11.503  1.00  0.00     0.004 C 
ENDBRANCH  30  31
ENDBRANCH  29  30
ENDBRANCH  28  29
ENDBRANCH  27  28
ENDBRANCH  26  27
ENDBRANCH  25  26
ENDBRANCH  24  25
ENDBRANCH  23  24
ENDBRANCH  22  23
ENDBRANCH  21  22
ENDBRANCH  20  21
ENDBRANCH  19  20
ENDBRANCH  18  19
ENDBRANCH   1  18
TORSDOF 28
ENDMDL
MODEL 2
REMARK VINA RESULT:     0.157      2.170      4.377
REMARK INTER + INTRA:          -0.418
REMARK INTER:                  -0.579
REMARK INTRA:                   0.160
REMARK UNBOUND:                -0.831
REMARK SMILES CCCCCCCCCCCCCCCCCCCCCCCCCCCCCC(=O)[O-]
REMARK SMILES IDX 16 1 17 2 18 3 19 4 20 5 21 6 22 7 23 8 24 9 25 10 26 11
REMARK SMILES IDX 27 12 28 13 29 14 30 15 31 16 32 17 15 18 14 19 13 20 12 21
REMARK SMILES IDX 11 22 10 23 9 24 8 25 7 26 6 27 5 28 4 29 3 30 2 31 1 32
REMARK H PARENT
REMARK Flexibility Score: inf
ROOT
ATOM      1  C   UNL     1       3.182  26.044   9.394  1.00  0.00     0.000 C 
ENDROOT
BRANCH   1   2
ATOM      2  C   UNL     1       3.223  24.510   9.423  1.00  0.00     0.000 C 
BRANCH   2   3
ATOM      3  C   UNL     1       4.563  23.940   8.922  1.00  0.00     0.000 C 
BRANCH   3   4
ATOM      4  C   UNL     1       5.805  24.767   9.301  1.00  0.00     0.000 C 
BRANCH   4   5
ATOM      5  C   UNL     1       6.391  25.630   8.167  1.00  0.00     0.000 C 
BRANCH   5   6
ATOM      6  C   UNL     1       5.351  26.074   7.116  1.00  0.00     0.000 C 
BRANCH   6   7
ATOM      7  C   UNL     1       5.321  25.156   5.881  1.00  0.00     0.000 C 
BRANCH   7   8
ATOM      8  C   UNL     1       4.385  23.947   6.060  1.00  0.00     0.000 C 
BRANCH   8   9
ATOM      9  C   UNL     1       3.205  23.886   5.068  1.00  0.00     0.000 C 
BRANCH   9  10
ATOM     10  C   UNL     1       1.804  23.911   5.715  1.00  0.00     0.000 C 
BRANCH  10  11
ATOM     11  C   UNL     1       1.604  24.992   6.794  1.00  0.00     0.000 C 
BRANCH  11  12
ATOM     12  C   UNL     1       0.511  26.005   6.418  1.00  0.00     0.000 C 
BRANCH  12  13
ATOM     13  C   UNL     1      -0.828  25.336   6.067  1.00  0.00     0.006 C 
BRANCH  13  14
ATOM     14  C   UNL     1      -0.790  24.600   4.719  1.00  0.00     0.053 C 
BRANCH  14  15
ATOM     15  C   UNL     1      -0.246  25.489   3.644  1.00  0.00     0.041 C 
ATOM     16  O   UNL     1       0.880  25.252   3.130  1.00  0.00    -0.550 OA
ATOM     17  O   UNL     1      -0.988  26.578   3.203  1.00  0.00    -0.550 OA
ENDBRANCH  14  15
ENDBRANCH  13  14
ENDBRANCH  12  13
ENDBRANCH  11  12
ENDBRANCH  10  11
ENDBRANCH   9  10
ENDBRANCH   8   9
ENDBRANCH   7   8
ENDBRANCH   6   7
ENDBRANCH   5   6
ENDBRANCH   4   5
ENDBRANCH   3   4
ENDBRANCH   2   3
ENDBRANCH   1   2
BRANCH   1  18
ATOM     18  C   UNL     1       2.246  26.590  10.478  1.00  0.00     0.000 C 
BRANCH  18  19
ATOM     19  C   UNL     1       1.296  25.494  10.985  1.00  0.00     0.000 C 
BRANCH  19  20
ATOM     20  C   UNL     1       0.192  25.146   9.972  1.00  0.00     0.000 C 
BRANCH  20  21
ATOM     21  C   UNL     1      -0.776  24.033  10.418  1.00  0.00     0.000 C 
BRANCH  21  22
ATOM     22  C   UNL     1      -1.124  24.032  11.917  1.00  0.00     0.000 C 
BRANCH  22  23
ATOM     23  C   UNL     1      -1.003  25.426  12.557  1.00  0.00     0.000 C 
BRANCH  23  24
ATOM     24  C   UNL     1      -1.115  25.379  14.089  1.00  0.00    -0.000 C 
BRANCH  24  25
ATOM     25  C   UNL     1      -1.108  23.942  14.634  1.00  0.00    -0.000 C 
BRANCH  25  26
ATOM     26  C   UNL     1      -0.413  23.875  16.002  1.00  0.00    -0.000 C 
BRANCH  26  27
ATOM     27  C   UNL     1       0.695  24.929  16.151  1.00  0.00    -0.000 C 
BRANCH  27  28
ATOM     28  C   UNL     1       1.886  24.674  15.211  1.00  0.00    -0.000 C 
BRANCH  28  29
ATOM     29  C   UNL     1       2.432  25.966  14.578  1.00  0.00    -0.000 C 
BRANCH  29  30
ATOM     30  C   UNL     1       3.944  25.959  14.289  1.00  0.00    -0.000 C 
BRANCH  30  31
ATOM     31  C   UNL     1       4.270  25.704  12.809  1.00  0.00    -0.003 C 
ATOM     32  C   UNL     1       5.171  24.482  12.649  1.00  0.00     0.004 C 
ENDBRANCH  30  31
ENDBRANCH  29  30
ENDBRANCH  28  29
ENDBRANCH  27  28
ENDBRANCH  26  27
ENDBRANCH  25  26
ENDBRANCH  24  25
ENDBRANCH  23  24
ENDBRANCH  22  23
ENDBRANCH  21  22
ENDBRANCH  20  21
ENDBRANCH  19  20
ENDBRANCH  18  19
ENDBRANCH   1  18
TORSDOF 28
ENDMDL
MODEL 3
REMARK VINA RESULT:     0.648      1.603      8.076
REMARK INTER + INTRA:           0.878
REMARK INTER:                   2.663
REMARK INTRA:                  -1.785
REMARK UNBOUND:                -0.831
REMARK SMILES CCCCCCCCCCCCCCCCCCCCCCCCCCCCCC(=O)[O-]
REMARK SMILES IDX 16 1 17 2 18 3 19 4 20 5 21 6 22 7 23 8 24 9 25 10 26 11
REMARK SMILES IDX 27 12 28 13 29 14 30 15 31 16 32 17 15 18 14 19 13 20 12 21
REMARK SMILES IDX 11 22 10 23 9 24 8 25 7 26 6 27 5 28 4 29 3 30 2 31 1 32
REMARK H PARENT
REMARK Flexibility Score: inf
ROOT
ATOM      1  C   UNL     1      -0.212  24.411   8.643  1.00  0.00     0.000 C 
ENDROOT
BRANCH   1   2
ATOM      2  C   UNL     1       0.176  24.826  10.069  1.00  0.00     0.000 C 
BRANCH   2   3
ATOM      3  C   UNL     1      -0.662  24.115  11.147  1.00  0.00     0.000 C 
BRANCH   3   4
ATOM      4  C   UNL     1      -1.036  24.987  12.360  1.00  0.00     0.000 C 
BRANCH   4   5
ATOM      5  C   UNL     1      -0.923  24.290  13.730  1.00  0.00     0.000 C 
BRANCH   5   6
ATOM      6  C   UNL     1      -0.173  25.119  14.794  1.00  0.00     0.000 C 
BRANCH   6   7
ATOM      7  C   UNL     1       1.190  24.513  15.172  1.00  0.00     0.000 C 
BRANCH   7   8
ATOM      8  C   UNL     1       2.254  25.583  15.478  1.00  0.00     0.000 C 
BRANCH   8   9
ATOM      9  C   UNL     1       3.708  25.067  15.496  1.00  0.00     0.000 C 
BRANCH   9  10
ATOM     10  C   UNL     1       3.992  23.875  14.558  1.00  0.00     0.000 C 
BRANCH  10  11
ATOM     11  C   UNL     1       5.212  24.048  13.636  1.00  0.00     0.000 C 
BRANCH  11  12
ATOM     12  C   UNL     1       4.814  24.326  12.177  1.00  0.00     0.000 C 
BRANCH  12  13
ATOM     13  C   UNL     1       3.330  24.042  11.899  1.00  0.00     0.006 C 
BRANCH  13  14
ATOM     14  C   UNL     1       2.434  25.268  12.138  1.00  0.00     0.053 C 
BRANCH  14  15
ATOM     15  C   UNL     1       3.169  26.532  11.818  1.00  0.00     0.041 C 
ATOM     16  O   UNL     1       3.025  27.086  10.695  1.00  0.00    -0.550 OA
ATOM     17  O   UNL     1       4.008  27.106  12.766  1.00  0.00    -0.550 OA
ENDBRANCH  14  15
ENDBRANCH  13  14
ENDBRANCH  12  13
ENDBRANCH  11  12
ENDBRANCH  10  11
ENDBRANCH   9  10
ENDBRANCH   8   9
ENDBRANCH   7   8
ENDBRANCH   6   7
ENDBRANCH   5   6
ENDBRANCH   4   5
ENDBRANCH   3   4
ENDBRANCH   2   3
ENDBRANCH   1   2
BRANCH   1  18
ATOM     18  C   UNL     1      -1.114  25.464   7.990  1.00  0.00     0.000 C 
BRANCH  18  19
ATOM     19  C   UNL     1      -0.278  26.513   7.241  1.00  0.00     0.000 C 
BRANCH  19  20
ATOM     20  C   UNL     1      -1.052  27.184   6.094  1.00  0.00     0.000 C 
BRANCH  20  21
ATOM     21  C   UNL     1      -0.207  27.533   4.853  1.00  0.00     0.000 C 
BRANCH  21  22
ATOM     22  C   UNL     1      -0.960  27.469   3.511  1.00  0.00     0.000 C 
BRANCH  22  23
ATOM     23  C   UNL     1      -1.125  26.031   2.990  1.00  0.00     0.000 C 
BRANCH  23  24
ATOM     24  C   UNL     1      -0.681  24.980   4.020  1.00  0.00    -0.000 C 
BRANCH  24  25
ATOM     25  C   UNL     1       0.191  23.879   3.397  1.00  0.00    -0.000 C 
BRANCH  25  26
ATOM     26  C   UNL     1       1.598  23.876   4.012  1.00  0.00    -0.000 C 
BRANCH  26  27
ATOM     27  C   UNL     1       1.663  24.652   5.336  1.00  0.00    -0.000 C 
BRANCH  27  28
ATOM     28  C   UNL     1       3.069  25.199   5.634  1.00  0.00    -0.000 C 
BRANCH  28  29
ATOM     29  C   UNL     1       4.005  24.139   6.240  1.00  0.00    -0.000 C 
BRANCH  29  30
ATOM     30  C   UNL     1       4.266  24.290   7.750  1.00  0.00    -0.000 C 
BRANCH  30  31
ATOM     31  C   UNL     1       5.200  25.464   8.082  1.00  0.00    -0.003 C 
ATOM     32  C   UNL     1       6.135  25.112   9.236  1.00  0.00     0.004 C 
ENDBRANCH  30  31
ENDBRANCH  29  30
ENDBRANCH  28  29
ENDBRANCH  27  28
ENDBRANCH  26  27
ENDBRANCH  25  26
ENDBRANCH  24  25
ENDBRANCH  23  24
ENDBRANCH  22  23
ENDBRANCH  21  22
ENDBRANCH  20  21
ENDBRANCH  19  20
ENDBRANCH  18  19
ENDBRANCH   1  18
TORSDOF 28
ENDMDL
MODEL 4
REMARK VINA RESULT:     1.866      1.904      8.023
REMARK INTER + INTRA:           4.089
REMARK INTER:                   2.051
REMARK INTRA:                   2.038
REMARK UNBOUND:                -0.831
REMARK SMILES CCCCCCCCCCCCCCCCCCCCCCCCCCCCCC(=O)[O-]
REMARK SMILES IDX 16 1 17 2 18 3 19 4 20 5 21 6 22 7 23 8 24 9 25 10 26 11
REMARK SMILES IDX 27 12 28 13 29 14 30 15 31 16 32 17 15 18 14 19 13 20 12 21
REMARK SMILES IDX 11 22 10 23 9 24 8 25 7 26 6 27 5 28 4 29 3 30 2 31 1 32
REMARK H PARENT
REMARK Flexibility Score: inf
ROOT
ATOM      1  C   UNL     1       0.271  24.511  11.486  1.00  0.00     0.000 C 
ENDROOT
BRANCH   1   2
ATOM      2  C   UNL     1      -0.854  24.759  12.501  1.00  0.00     0.000 C 
BRANCH   2   3
ATOM      3  C   UNL     1      -0.449  25.745  13.612  1.00  0.00     0.000 C 
BRANCH   3   4
ATOM      4  C   UNL     1      -0.941  25.372  15.023  1.00  0.00     0.000 C 
BRANCH   4   5
ATOM      5  C   UNL     1      -0.127  24.274  15.735  1.00  0.00     0.000 C 
BRANCH   5   6
ATOM      6  C   UNL     1       1.379  24.590  15.856  1.00  0.00     0.000 C 
BRANCH   6   7
ATOM      7  C   UNL     1       2.227  23.876  14.788  1.00  0.00     0.000 C 
BRANCH   7   8
ATOM      8  C   UNL     1       3.692  24.351  14.774  1.00  0.00     0.000 C 
BRANCH   8   9
ATOM      9  C   UNL     1       4.485  23.975  13.506  1.00  0.00     0.000 C 
BRANCH   9  10
ATOM     10  C   UNL     1       3.664  23.965  12.199  1.00  0.00     0.000 C 
BRANCH  10  11
ATOM     11  C   UNL     1       4.467  24.276  10.923  1.00  0.00     0.000 C 
BRANCH  11  12
ATOM     12  C   UNL     1       3.874  25.448  10.123  1.00  0.00     0.000 C 
BRANCH  12  13
ATOM     13  C   UNL     1       3.763  26.739  10.949  1.00  0.00     0.006 C 
BRANCH  13  14
ATOM     14  C   UNL     1       3.055  26.526  12.296  1.00  0.00     0.053 C 
BRANCH  14  15
ATOM     15  C   UNL     1       3.842  27.139  13.411  1.00  0.00     0.041 C 
ATOM     16  O   UNL     1       5.058  27.430  13.250  1.00  0.00    -0.550 OA
ATOM     17  O   UNL     1       3.229  27.400  14.632  1.00  0.00    -0.550 OA
ENDBRANCH  14  15
ENDBRANCH  13  14
ENDBRANCH  12  13
ENDBRANCH  11  12
ENDBRANCH  10  11
ENDBRANCH   9  10
ENDBRANCH   8   9
ENDBRANCH   7   8
ENDBRANCH   6   7
ENDBRANCH   5   6
ENDBRANCH   4   5
ENDBRANCH   3   4
ENDBRANCH   2   3
ENDBRANCH   1   2
BRANCH   1  18
ATOM     18  C   UNL     1      -0.276  24.472  10.056  1.00  0.00     0.000 C 
BRANCH  18  19
ATOM     19  C   UNL     1       0.773  23.916   9.082  1.00  0.00     0.000 C 
BRANCH  19  20
ATOM     20  C   UNL     1       1.847  24.951   8.706  1.00  0.00     0.000 C 
BRANCH  20  21
ATOM     21  C   UNL     1       1.368  26.079   7.770  1.00  0.00     0.000 C 
BRANCH  21  22
ATOM     22  C   UNL     1       0.011  25.830   7.088  1.00  0.00     0.000 C 
BRANCH  22  23
ATOM     23  C   UNL     1       0.038  26.139   5.581  1.00  0.00     0.000 C 
BRANCH  23  24
ATOM     24  C   UNL     1      -1.125  25.474   4.827  1.00  0.00    -0.000 C 
BRANCH  24  25
ATOM     25  C   UNL     1      -0.874  25.395   3.313  1.00  0.00    -0.000 C 
BRANCH  25  26
ATOM     26  C   UNL     1       0.628  25.459   3.000  1.00  0.00    -0.000 C 
BRANCH  26  27
ATOM     27  C   UNL     1       1.320  24.096   3.154  1.00  0.00    -0.000 C 
BRANCH  27  28
ATOM     28  C   UNL     1       1.895  23.879   4.564  1.00  0.00    -0.000 C 
BRANCH  28  29
ATOM     29  C   UNL     1       3.231  24.612   4.781  1.00  0.00    -0.000 C 
BRANCH  29  30
ATOM     30  C   UNL     1       3.542  24.978   6.243  1.00  0.00    -0.000 C 
BRANCH  30  31
ATOM     31  C   UNL     1       5.034  24.860   6.588  1.00  0.00    -0.003 C 
ATOM     32  C   UNL     1       5.244  23.985   7.822  1.00  0.00     0.004 C 
ENDBRANCH  30  31
ENDBRANCH  29  30
ENDBRANCH  28  29
ENDBRANCH  27  28
ENDBRANCH  26  27
ENDBRANCH  25  26
ENDBRANCH  24  25
ENDBRANCH  23  24
ENDBRANCH  22  23
ENDBRANCH  21  22
ENDBRANCH  20  21
ENDBRANCH  19  20
ENDBRANCH  18  19
ENDBRANCH   1  18
TORSDOF 28
ENDMDL
