MODEL 1
REMARK VINA RESULT:    -3.944      0.000      0.000
REMARK INTER + INTRA:          -8.313
REMARK INTER:                  -6.711
REMARK INTRA:                  -1.602
REMARK UNBOUND:                -1.602
REMARK SMILES CCCCCCCCCCCCCC(=O)[O-]
REMARK SMILES IDX 8 1 9 2 10 3 11 4 12 5 13 6 14 7 15 8 16 9 7 10 6 11 5 12
REMARK SMILES IDX 4 13 3 14 2 15 1 16
REMARK H PARENT
REMARK Flexibility Score: inf
ROOT
ATOM      1  C   UNL     1      10.947  -4.128  40.916  1.00  0.00     0.000 C 
ENDROOT
BRANCH   1   2
ATOM      2  C   UNL     1      10.168  -3.165  40.004  1.00  0.00     0.000 C 
BRANCH   2   3
ATOM      3  C   UNL     1       9.541  -3.876  38.793  1.00  0.00     0.000 C 
BRANCH   3   4
ATOM      4  C   UNL     1       8.004  -3.833  38.814  1.00  0.00     0.000 C 
BRANCH   4   5
ATOM      5  C   UNL     1       7.448  -2.402  38.754  1.00  0.00     0.006 C 
BRANCH   5   6
ATOM      6  C   UNL     1       6.180  -2.343  37.897  1.00  0.00     0.053 C 
BRANCH   6   7
ATOM      7  C   UNL     1       6.530  -2.186  36.451  1.00  0.00     0.041 C 
ATOM      8  O   UNL     1       6.780  -1.045  35.979  1.00  0.00    -0.550 OA
ATOM      9  O   UNL     1       6.630  -3.307  35.634  1.00  0.00    -0.550 OA
ENDBRANCH   6   7
ENDBRANCH   5   6
ENDBRANCH   4   5
ENDBRANCH   3   4
ENDBRANCH   2   3
ENDBRANCH   1   2
BRANCH   1  10
ATOM     10  C   UNL     1      10.453  -4.101  42.371  1.00  0.00     0.000 C 
BRANCH  10  11
ATOM     11  C   UNL     1       9.322  -3.076  42.543  1.00  0.00    -0.000 C 
BRANCH  11  12
ATOM     12  C   UNL     1       7.927  -3.723  42.550  1.00  0.00    -0.000 C 
BRANCH  12  13
ATOM     13  C   UNL     1       7.917  -5.241  42.816  1.00  0.00    -0.000 C 
BRANCH  13  14
ATOM     14  C   UNL     1       7.488  -6.083  41.595  1.00  0.00    -0.000 C 
BRANCH  14  15
ATOM     15  C   UNL     1       8.213  -7.437  41.535  1.00  0.00    -0.003 C 
ATOM     16  C   UNL     1       9.101  -7.640  42.758  1.00  0.00     0.004 C 
ENDBRANCH  14  15
ENDBRANCH  13  14
ENDBRANCH  12  13
ENDBRANCH  11  12
ENDBRANCH  10  11
ENDBRANCH   1  10
TORSDOF 12
ENDMDL
MODEL 2
REMARK VINA RESULT:    -3.927      1.477      2.516
REMARK INTER + INTRA:          -8.284
REMARK INTER:                  -7.011
REMARK INTRA:                  -1.274
REMARK UNBOUND:                -1.602
REMARK SMILES CCCCCCCCCCCCCC(=O)[O-]
REMARK SMILES IDX 8 1 9 2 10 3 11 4 12 5 13 6 14 7 15 8 16 9 7 10 6 11 5 12
REMARK SMILES IDX 4 13 3 14 2 15 1 16
REMARK H PARENT
REMARK Flexibility Score: inf
ROOT
ATOM      1  C   UNL     1      10.069  -3.808  42.136  1.00  0.00     0.000 C 
ENDROOT
BRANCH   1   2
ATOM      2  C   UNL     1       9.284  -2.635  42.747  1.00  0.00     0.000 C 
BRANCH   2   3
ATOM      3  C   UNL     1       8.559  -1.793  41.684  1.00  0.00     0.000 C 
BRANCH   3   4
ATOM      4  C   UNL     1       8.858  -2.265  40.252  1.00  0.00     0.000 C 
BRANCH   4   5
ATOM      5  C   UNL     1       7.625  -2.851  39.548  1.00  0.00     0.006 C 
BRANCH   5   6
ATOM      6  C   UNL     1       8.013  -4.039  38.664  1.00  0.00     0.053 C 
BRANCH   6   7
ATOM      7  C   UNL     1       7.895  -3.678  37.217  1.00  0.00     0.041 C 
ATOM      8  O   UNL     1       8.850  -3.905  36.427  1.00  0.00    -0.550 OA
ATOM      9  O   UNL     1       6.711  -3.136  36.729  1.00  0.00    -0.550 OA
ENDBRANCH   6   7
ENDBRANCH   5   6
ENDBRANCH   4   5
ENDBRANCH   3   4
ENDBRANCH   2   3
ENDBRANCH   1   2
BRANCH   1  10
ATOM     10  C   UNL     1       9.511  -5.178  42.552  1.00  0.00     0.000 C 
BRANCH  10  11
ATOM     11  C   UNL     1       7.980  -5.204  42.426  1.00  0.00    -0.000 C 
BRANCH  11  12
ATOM     12  C   UNL     1       7.472  -6.378  41.572  1.00  0.00    -0.000 C 
BRANCH  12  13
ATOM     13  C   UNL     1       8.299  -7.673  41.693  1.00  0.00    -0.000 C 
BRANCH  13  14
ATOM     14  C   UNL     1       7.497  -8.954  41.381  1.00  0.00    -0.000 C 
BRANCH  14  15
ATOM     15  C   UNL     1       7.101  -9.720  42.653  1.00  0.00    -0.003 C 
ATOM     16  C   UNL     1       7.883  -9.219  43.863  1.00  0.00     0.004 C 
ENDBRANCH  14  15
ENDBRANCH  13  14
ENDBRANCH  12  13
ENDBRANCH  11  12
ENDBRANCH  10  11
ENDBRANCH   1  10
TORSDOF 12
ENDMDL
MODEL 3
REMARK VINA RESULT:    -3.922      3.929      6.350
REMARK INTER + INTRA:          -8.275
REMARK INTER:                  -6.786
REMARK INTRA:                  -1.489
REMARK UNBOUND:                -1.602
REMARK SMILES CCCCCCCCCCCCCC(=O)[O-]
REMARK SMILES IDX 8 1 9 2 10 3 11 4 12 5 13 6 14 7 15 8 16 9 7 10 6 11 5 12
REMARK SMILES IDX 4 13 3 14 2 15 1 16
REMARK H PARENT
REMARK Flexibility Score: inf
ROOT
ATOM      1  C   UNL     1       8.819  -4.046  42.697  1.00  0.00     0.000 C 
ENDROOT
BRANCH   1   2
ATOM      2  C   UNL     1       7.647  -5.030  42.853  1.00  0.00     0.000 C 
BRANCH   2   3
ATOM      3  C   UNL     1       7.503  -5.973  41.646  1.00  0.00     0.000 C 
BRANCH   3   4
ATOM      4  C   UNL     1       8.847  -6.572  41.202  1.00  0.00     0.000 C 
BRANCH   4   5
ATOM      5  C   UNL     1       9.101  -7.968  41.791  1.00  0.00     0.006 C 
BRANCH   5   6
ATOM      6  C   UNL     1       7.838  -8.831  41.717  1.00  0.00     0.053 C 
BRANCH   6   7
ATOM      7  C   UNL     1       7.551  -9.458  43.045  1.00  0.00     0.041 C 
ATOM      8  O   UNL     1       7.865  -8.861  44.109  1.00  0.00    -0.550 OA
ATOM      9  O   UNL     1       6.891 -10.680  43.109  1.00  0.00    -0.550 OA
ENDBRANCH   6   7
ENDBRANCH   5   6
ENDBRANCH   4   5
ENDBRANCH   3   4
ENDBRANCH   2   3
ENDBRANCH   1   2
BRANCH   1  10
ATOM     10  C   UNL     1       8.354  -2.594  42.506  1.00  0.00     0.000 C 
BRANCH  10  11
ATOM     11  C   UNL     1       8.763  -2.067  41.123  1.00  0.00    -0.000 C 
BRANCH  11  12
ATOM     12  C   UNL     1       9.781  -2.976  40.415  1.00  0.00    -0.000 C 
BRANCH  12  13
ATOM     13  C   UNL     1       9.326  -3.513  39.044  1.00  0.00    -0.000 C 
BRANCH  13  14
ATOM     14  C   UNL     1       7.794  -3.632  38.900  1.00  0.00    -0.000 C 
BRANCH  14  15
ATOM     15  C   UNL     1       7.289  -3.082  37.557  1.00  0.00    -0.003 C 
ATOM     16  C   UNL     1       6.033  -2.237  37.745  1.00  0.00     0.004 C 
ENDBRANCH  14  15
ENDBRANCH  13  14
ENDBRANCH  12  13
ENDBRANCH  11  12
ENDBRANCH  10  11
ENDBRANCH   1  10
TORSDOF 12
ENDMDL
MODEL 4
REMARK VINA RESULT:    -3.855      3.536      5.463
REMARK INTER + INTRA:          -8.162
REMARK INTER:                  -5.969
REMARK INTRA:                  -2.193
REMARK UNBOUND:                -1.602
REMARK SMILES CCCCCCCCCCCCCC(=O)[O-]
REMARK SMILES IDX 8 1 9 2 10 3 11 4 12 5 13 6 14 7 15 8 16 9 7 10 6 11 5 12
REMARK SMILES IDX 4 13 3 14 2 15 1 16
REMARK H PARENT
REMARK Flexibility Score: inf
ROOT
ATOM      1  C   UNL     1       8.601  -1.642  39.776  1.00  0.00     0.000 C 
ENDROOT
BRANCH   1   2
ATOM      2  C   UNL     1       7.732  -2.891  39.999  1.00  0.00     0.000 C 
BRANCH   2   3
ATOM      3  C   UNL     1       8.390  -4.172  39.460  1.00  0.00     0.000 C 
BRANCH   3   4
ATOM      4  C   UNL     1       8.786  -5.149  40.578  1.00  0.00     0.000 C 
BRANCH   4   5
ATOM      5  C   UNL     1       7.650  -5.396  41.583  1.00  0.00     0.006 C 
BRANCH   5   6
ATOM      6  C   UNL     1       8.207  -5.820  42.945  1.00  0.00     0.053 C 
BRANCH   6   7
ATOM      7  C   UNL     1       8.429  -7.299  42.986  1.00  0.00     0.041 C 
ATOM      8  O   UNL     1       7.722  -8.065  42.279  1.00  0.00    -0.550 OA
ATOM      9  O   UNL     1       9.450  -7.827  43.766  1.00  0.00    -0.550 OA
ENDBRANCH   6   7
ENDBRANCH   5   6
ENDBRANCH   4   5
ENDBRANCH   3   4
ENDBRANCH   2   3
ENDBRANCH   1   2
BRANCH   1  10
ATOM     10  C   UNL     1       8.917  -0.897  41.082  1.00  0.00     0.000 C 
BRANCH  10  11
ATOM     11  C   UNL     1       8.457  -1.711  42.300  1.00  0.00    -0.000 C 
BRANCH  11  12
ATOM     12  C   UNL     1       9.629  -2.311  43.094  1.00  0.00    -0.000 C 
BRANCH  12  13
ATOM     13  C   UNL     1      10.989  -2.273  42.370  1.00  0.00    -0.000 C 
BRANCH  13  14
ATOM     14  C   UNL     1      11.665  -3.655  42.243  1.00  0.00    -0.000 C 
BRANCH  14  15
ATOM     15  C   UNL     1      12.256  -3.891  40.845  1.00  0.00    -0.003 C 
ATOM     16  C   UNL     1      12.135  -2.642  39.978  1.00  0.00     0.004 C 
ENDBRANCH  14  15
ENDBRANCH  13  14
ENDBRANCH  12  13
ENDBRANCH  11  12
ENDBRANCH  10  11
ENDBRANCH   1  10
TORSDOF 12
ENDMDL
MODEL 5
REMARK VINA RESULT:    -3.799      1.372      2.161
REMARK INTER + INTRA:          -8.066
REMARK INTER:                  -7.205
REMARK INTRA:                  -0.862
REMARK UNBOUND:                -1.602
REMARK SMILES CCCCCCCCCCCCCC(=O)[O-]
REMARK SMILES IDX 8 1 9 2 10 3 11 4 12 5 13 6 14 7 15 8 16 9 7 10 6 11 5 12
REMARK SMILES IDX 4 13 3 14 2 15 1 16
REMARK H PARENT
REMARK Flexibility Score: inf
ROOT
ATOM      1  C   UNL     1       8.230  -4.717  40.459  1.00  0.00     0.000 C 
ENDROOT
BRANCH   1   2
ATOM      2  C   UNL     1       8.399  -4.005  39.106  1.00  0.00     0.000 C 
BRANCH   2   3
ATOM      3  C   UNL     1       8.585  -2.486  39.258  1.00  0.00     0.000 C 
BRANCH   3   4
ATOM      4  C   UNL     1       7.294  -1.702  38.973  1.00  0.00     0.000 C 
BRANCH   4   5
ATOM      5  C   UNL     1       6.431  -2.352  37.881  1.00  0.00     0.006 C 
BRANCH   5   6
ATOM      6  C   UNL     1       5.543  -1.312  37.192  1.00  0.00     0.053 C 
BRANCH   6   7
ATOM      7  C   UNL     1       5.817  -1.278  35.722  1.00  0.00     0.041 C 
ATOM      8  O   UNL     1       6.613  -2.107  35.206  1.00  0.00    -0.550 OA
ATOM      9  O   UNL     1       5.154  -0.364  34.912  1.00  0.00    -0.550 OA
ENDBRANCH   6   7
ENDBRANCH   5   6
ENDBRANCH   4   5
ENDBRANCH   3   4
ENDBRANCH   2   3
ENDBRANCH   1   2
BRANCH   1  10
ATOM     10  C   UNL     1       8.401  -3.767  41.656  1.00  0.00     0.000 C 
BRANCH  10  11
ATOM     11  C   UNL     1       7.727  -4.341  42.910  1.00  0.00    -0.000 C 
BRANCH  11  12
ATOM     12  C   UNL     1       7.356  -5.826  42.761  1.00  0.00    -0.000 C 
BRANCH  12  13
ATOM     13  C   UNL     1       8.246  -6.800  43.558  1.00  0.00    -0.000 C 
BRANCH  13  14
ATOM     14  C   UNL     1       8.151  -8.264  43.078  1.00  0.00    -0.000 C 
BRANCH  14  15
ATOM     15  C   UNL     1       8.110  -8.376  41.546  1.00  0.00    -0.003 C 
ATOM     16  C   UNL     1       7.059  -9.385  41.096  1.00  0.00     0.004 C 
ENDBRANCH  14  15
ENDBRANCH  13  14
ENDBRANCH  12  13
ENDBRANCH  11  12
ENDBRANCH  10  11
ENDBRANCH   1  10
TORSDOF 12
ENDMDL
MODEL 6
REMARK VINA RESULT:    -3.798      3.790      6.583
REMARK INTER + INTRA:          -8.064
REMARK INTER:                  -7.052
REMARK INTRA:                  -1.012
REMARK UNBOUND:                -1.602
REMARK SMILES CCCCCCCCCCCCCC(=O)[O-]
REMARK SMILES IDX 8 1 9 2 10 3 11 4 12 5 13 6 14 7 15 8 16 9 7 10 6 11 5 12
REMARK SMILES IDX 4 13 3 14 2 15 1 16
REMARK H PARENT
REMARK Flexibility Score: inf
ROOT
ATOM      1  C   UNL     1       9.063  -3.563  42.283  1.00  0.00     0.000 C 
ENDROOT
BRANCH   1   2
ATOM      2  C   UNL     1       7.834  -4.036  43.078  1.00  0.00     0.000 C 
BRANCH   2   3
ATOM      3  C   UNL     1       7.195  -5.300  42.479  1.00  0.00     0.000 C 
BRANCH   3   4
ATOM      4  C   UNL     1       8.118  -6.010  41.476  1.00  0.00     0.000 C 
BRANCH   4   5
ATOM      5  C   UNL     1       8.051  -7.541  41.585  1.00  0.00     0.006 C 
BRANCH   5   6
ATOM      6  C   UNL     1       8.012  -7.984  43.050  1.00  0.00     0.053 C 
BRANCH   6   7
ATOM      7  C   UNL     1       7.604  -9.420  43.154  1.00  0.00     0.041 C 
ATOM      8  O   UNL     1       7.640 -10.010  44.267  1.00  0.00    -0.550 OA
ATOM      9  O   UNL     1       7.136 -10.093  42.032  1.00  0.00    -0.550 OA
ENDBRANCH   6   7
ENDBRANCH   5   6
ENDBRANCH   4   5
ENDBRANCH   3   4
ENDBRANCH   2   3
ENDBRANCH   1   2
BRANCH   1  10
ATOM     10  C   UNL     1       9.136  -2.032  42.157  1.00  0.00     0.000 C 
BRANCH  10  11
ATOM     11  C   UNL     1       8.405  -1.554  40.894  1.00  0.00    -0.000 C 
BRANCH  11  12
ATOM     12  C   UNL     1       8.356  -2.624  39.791  1.00  0.00    -0.000 C 
BRANCH  12  13
ATOM     13  C   UNL     1       7.031  -2.686  39.006  1.00  0.00    -0.000 C 
BRANCH  13  14
ATOM     14  C   UNL     1       7.195  -3.160  37.546  1.00  0.00    -0.000 C 
BRANCH  14  15
ATOM     15  C   UNL     1       6.584  -2.172  36.540  1.00  0.00    -0.003 C 
ATOM     16  C   UNL     1       5.557  -1.267  37.211  1.00  0.00     0.004 C 
ENDBRANCH  14  15
ENDBRANCH  13  14
ENDBRANCH  12  13
ENDBRANCH  11  12
ENDBRANCH  10  11
ENDBRANCH   1  10
TORSDOF 12
ENDMDL
MODEL 7
REMARK VINA RESULT:    -3.786      1.821      2.684
REMARK INTER + INTRA:          -8.044
REMARK INTER:                  -6.993
REMARK INTRA:                  -1.051
REMARK UNBOUND:                -1.602
REMARK SMILES CCCCCCCCCCCCCC(=O)[O-]
REMARK SMILES IDX 8 1 9 2 10 3 11 4 12 5 13 6 14 7 15 8 16 9 7 10 6 11 5 12
REMARK SMILES IDX 4 13 3 14 2 15 1 16
REMARK H PARENT
REMARK Flexibility Score: inf
ROOT
ATOM      1  C   UNL     1       8.972  -2.380  39.510  1.00  0.00     0.000 C 
ENDROOT
BRANCH   1   2
ATOM      2  C   UNL     1       8.016  -3.260  38.686  1.00  0.00     0.000 C 
BRANCH   2   3
ATOM      3  C   UNL     1       6.680  -2.560  38.387  1.00  0.00     0.000 C 
BRANCH   3   4
ATOM      4  C   UNL     1       6.574  -2.087  36.929  1.00  0.00     0.000 C 
BRANCH   4   5
ATOM      5  C   UNL     1       5.594  -0.917  36.752  1.00  0.00     0.006 C 
BRANCH   5   6
ATOM      6  C   UNL     1       6.161   0.132  35.792  1.00  0.00     0.053 C 
BRANCH   6   7
ATOM      7  C   UNL     1       5.472   0.059  34.466  1.00  0.00     0.041 C 
ATOM      8  O   UNL     1       5.015   1.104  33.931  1.00  0.00    -0.550 OA
ATOM      9  O   UNL     1       5.377  -1.156  33.797  1.00  0.00    -0.550 OA
ENDBRANCH   6   7
ENDBRANCH   5   6
ENDBRANCH   4   5
ENDBRANCH   3   4
ENDBRANCH   2   3
ENDBRANCH   1   2
BRANCH   1  10
ATOM     10  C   UNL     1       8.257  -1.625  40.642  1.00  0.00     0.000 C 
BRANCH  10  11
ATOM     11  C   UNL     1       8.868  -1.980  42.005  1.00  0.00    -0.000 C 
BRANCH  11  12
ATOM     12  C   UNL     1       8.538  -3.415  42.452  1.00  0.00    -0.000 C 
BRANCH  12  13
ATOM     13  C   UNL     1       9.720  -4.402  42.384  1.00  0.00    -0.000 C 
BRANCH  13  14
ATOM     14  C   UNL     1       9.493  -5.576  41.408  1.00  0.00    -0.000 C 
BRANCH  14  15
ATOM     15  C   UNL     1       8.013  -5.975  41.306  1.00  0.00    -0.003 C 
ATOM     16  C   UNL     1       7.770  -7.351  41.915  1.00  0.00     0.004 C 
ENDBRANCH  14  15
ENDBRANCH  13  14
ENDBRANCH  12  13
ENDBRANCH  11  12
ENDBRANCH  10  11
ENDBRANCH   1  10
TORSDOF 12
ENDMDL
MODEL 8
REMARK VINA RESULT:    -3.770      3.679      6.528
REMARK INTER + INTRA:          -8.017
REMARK INTER:                  -7.005
REMARK INTRA:                  -1.012
REMARK UNBOUND:                -1.602
REMARK SMILES CCCCCCCCCCCCCC(=O)[O-]
REMARK SMILES IDX 8 1 9 2 10 3 11 4 12 5 13 6 14 7 15 8 16 9 7 10 6 11 5 12
REMARK SMILES IDX 4 13 3 14 2 15 1 16
REMARK H PARENT
REMARK Flexibility Score: inf
ROOT
ATOM      1  C   UNL     1       8.651  -1.778  41.891  1.00  0.00     0.000 C 
ENDROOT
BRANCH   1   2
ATOM      2  C   UNL     1       8.278  -3.233  42.219  1.00  0.00     0.000 C 
BRANCH   2   3
ATOM      3  C   UNL     1       9.507  -4.155  42.296  1.00  0.00     0.000 C 
BRANCH   3   4
ATOM      4  C   UNL     1       9.312  -5.464  41.516  1.00  0.00     0.000 C 
BRANCH   4   5
ATOM      5  C   UNL     1       7.909  -6.064  41.699  1.00  0.00     0.006 C 
BRANCH   5   6
ATOM      6  C   UNL     1       7.989  -7.568  41.977  1.00  0.00     0.053 C 
BRANCH   6   7
ATOM      7  C   UNL     1       8.075  -7.826  43.449  1.00  0.00     0.041 C 
ATOM      8  O   UNL     1       7.947  -6.877  44.267  1.00  0.00    -0.550 OA
ATOM      9  O   UNL     1       8.246  -9.123  43.918  1.00  0.00    -0.550 OA
ENDBRANCH   6   7
ENDBRANCH   5   6
ENDBRANCH   4   5
ENDBRANCH   3   4
ENDBRANCH   2   3
ENDBRANCH   1   2
BRANCH   1  10
ATOM     10  C   UNL     1       8.468  -1.438  40.403  1.00  0.00     0.000 C 
BRANCH  10  11
ATOM     11  C   UNL     1       7.719  -2.565  39.675  1.00  0.00    -0.000 C 
BRANCH  11  12
ATOM     12  C   UNL     1       8.551  -3.204  38.550  1.00  0.00    -0.000 C 
BRANCH  12  13
ATOM     13  C   UNL     1       7.736  -3.673  37.329  1.00  0.00    -0.000 C 
BRANCH  13  14
ATOM     14  C   UNL     1       6.435  -2.874  37.105  1.00  0.00    -0.000 C 
BRANCH  14  15
ATOM     15  C   UNL     1       6.675  -1.574  36.321  1.00  0.00    -0.003 C 
ATOM     16  C   UNL     1       6.310  -1.742  34.850  1.00  0.00     0.004 C 
ENDBRANCH  14  15
ENDBRANCH  13  14
ENDBRANCH  12  13
ENDBRANCH  11  12
ENDBRANCH  10  11
ENDBRANCH   1  10
TORSDOF 12
ENDMDL
MODEL 9
REMARK VINA RESULT:    -3.770      2.253      3.838
REMARK INTER + INTRA:          -8.017
REMARK INTER:                  -7.034
REMARK INTRA:                  -0.983
REMARK UNBOUND:                -1.602
REMARK SMILES CCCCCCCCCCCCCC(=O)[O-]
REMARK SMILES IDX 8 1 9 2 10 3 11 4 12 5 13 6 14 7 15 8 16 9 7 10 6 11 5 12
REMARK SMILES IDX 4 13 3 14 2 15 1 16
REMARK H PARENT
REMARK Flexibility Score: inf
ROOT
ATOM      1  C   UNL     1       7.527  -5.921  42.053  1.00  0.00     0.000 C 
ENDROOT
BRANCH   1   2
ATOM      2  C   UNL     1       7.536  -4.591  42.826  1.00  0.00     0.000 C 
BRANCH   2   3
ATOM      3  C   UNL     1       8.707  -3.681  42.420  1.00  0.00     0.000 C 
BRANCH   3   4
ATOM      4  C   UNL     1       8.276  -2.554  41.467  1.00  0.00     0.000 C 
BRANCH   4   5
ATOM      5  C   UNL     1       8.839  -2.727  40.048  1.00  0.00     0.006 C 
BRANCH   5   6
ATOM      6  C   UNL     1       7.927  -3.619  39.202  1.00  0.00     0.053 C 
BRANCH   6   7
ATOM      7  C   UNL     1       7.192  -2.804  38.184  1.00  0.00     0.041 C 
ATOM      8  O   UNL     1       6.637  -3.367  37.203  1.00  0.00    -0.550 OA
ATOM      9  O   UNL     1       7.078  -1.428  38.345  1.00  0.00    -0.550 OA
ENDBRANCH   6   7
ENDBRANCH   5   6
ENDBRANCH   4   5
ENDBRANCH   3   4
ENDBRANCH   2   3
ENDBRANCH   1   2
BRANCH   1  10
ATOM     10  C   UNL     1       8.940  -6.458  41.778  1.00  0.00     0.000 C 
BRANCH  10  11
ATOM     11  C   UNL     1       8.937  -7.992  41.705  1.00  0.00    -0.000 C 
BRANCH  11  12
ATOM     12  C   UNL     1       7.579  -8.565  41.266  1.00  0.00    -0.000 C 
BRANCH  12  13
ATOM     13  C   UNL     1       7.120  -9.813  42.046  1.00  0.00    -0.000 C 
BRANCH  13  14
ATOM     14  C   UNL     1       7.328  -9.703  43.572  1.00  0.00    -0.000 C 
BRANCH  14  15
ATOM     15  C   UNL     1       6.889 -10.974  44.314  1.00  0.00    -0.003 C 
ATOM     16  C   UNL     1       5.528 -11.457  43.823  1.00  0.00     0.004 C 
ENDBRANCH  14  15
ENDBRANCH  13  14
ENDBRANCH  12  13
ENDBRANCH  11  12
ENDBRANCH  10  11
ENDBRANCH   1  10
TORSDOF 12
ENDMDL
