MODEL 1
REMARK VINA RESULT:    25.068      0.000      0.000
REMARK INTER + INTRA:          29.386
REMARK INTER:                  29.464
REMARK INTRA:                  -0.078
REMARK UNBOUND:                -0.078
REMARK SMILES O=c1c(O)c(-c2ccc(O)cc2)oc2cc(O)cc(O)c12
REMARK SMILES IDX 5 1 3 2 2 3 1 4 21 5 19 6 18 7 16 8 15 9 14 10 13 11 6 12
REMARK SMILES IDX 7 13 8 14 9 15 12 16 11 17 10 18 4 20 20 22 17 24
REMARK H PARENT 10 19 4 21 20 23 17 25
REMARK Flexibility Score: inf
ROOT
ATOM      1  C   UNL     1     -26.335   0.522 -13.691  1.00  0.00     0.180 A 
ATOM      2  C   UNL     1     -26.764   1.211 -14.837  1.00  0.00     0.208 A 
ATOM      3  C   UNL     1     -26.791   2.615 -14.819  1.00  0.00     0.238 A 
ATOM      4  O   UNL     1     -27.125   3.228 -15.866  1.00  0.00    -0.285 OA
ATOM      5  C   UNL     1     -26.403   3.311 -13.648  1.00  0.00     0.111 A 
ATOM      6  C   UNL     1     -26.429   4.731 -13.503  1.00  0.00     0.134 A 
ATOM      7  C   UNL     1     -25.899   5.317 -12.347  1.00  0.00     0.093 A 
ATOM      8  C   UNL     1     -25.404   4.532 -11.303  1.00  0.00     0.123 A 
ATOM      9  C   UNL     1     -25.431   3.143 -11.410  1.00  0.00     0.094 A 
ATOM     10  C   UNL     1     -25.919   2.530 -12.566  1.00  0.00     0.146 A 
ATOM     11  O   UNL     1     -25.915   1.204 -12.631  1.00  0.00    -0.452 OA
ENDROOT
BRANCH   1  12
ATOM     12  C   UNL     1     -26.304  -0.958 -13.626  1.00  0.00     0.021 A 
ATOM     13  C   UNL     1     -25.514  -1.713 -14.512  1.00  0.00     0.016 A 
ATOM     14  C   UNL     1     -25.520  -3.110 -14.448  1.00  0.00     0.047 A 
ATOM     15  C   UNL     1     -26.324  -3.769 -13.508  1.00  0.00     0.115 A 
ATOM     16  C   UNL     1     -27.122  -1.626 -12.701  1.00  0.00     0.016 A 
ATOM     17  C   UNL     1     -27.125  -3.023 -12.638  1.00  0.00     0.047 A 
BRANCH  15  18
ATOM     18  O   UNL     1     -26.336  -5.160 -13.434  1.00  0.00    -0.508 OA
ATOM     19  H   UNL     1     -26.564  -5.642 -12.572  1.00  0.00     0.293 HD
ENDBRANCH  15  18
ENDBRANCH   1  12
BRANCH   2  20
ATOM     20  O   UNL     1     -27.122   0.505 -15.990  1.00  0.00    -0.502 OA
ATOM     21  H   UNL     1     -28.042   0.100 -16.116  1.00  0.00     0.293 HD
ENDBRANCH   2  20
BRANCH   6  22
ATOM     22  O   UNL     1     -26.984   5.602 -14.447  1.00  0.00    -0.507 OA
ATOM     23  H   UNL     1     -26.516   6.411 -14.825  1.00  0.00     0.293 HD
ENDBRANCH   6  22
BRANCH   8  24
ATOM     24  O   UNL     1     -24.894   5.122 -10.149  1.00  0.00    -0.508 OA
ATOM     25  H   UNL     1     -24.563   6.081 -10.146  1.00  0.00     0.293 HD
ENDBRANCH   8  24
TORSDOF 5
ENDMDL
