MODEL 1
REMARK VINA RESULT:    -3.962      0.000      0.000
REMARK INTER + INTRA:          -5.357
REMARK INTER:                  -4.888
REMARK INTRA:                  -0.469
REMARK UNBOUND:                -0.469
REMARK SMILES C=CC(=C)CCC=C(C)C
REMARK SMILES IDX 5 1 6 2 7 3 9 4 8 5 10 6 3 7 4 8 2 9 1 10
REMARK H PARENT
REMARK Flexibility Score: inf
ROOT
ATOM      1  C   UNL     1      18.702  64.747  17.032  1.00  0.00     0.039 C 
ENDROOT
BRANCH   1   2
ATOM      2  C   UNL     1      17.648  65.589  16.304  1.00  0.00     0.032 C 
BRANCH   2   3
ATOM      3  C   UNL     1      16.265  65.042  16.551  1.00  0.00    -0.028 C 
ATOM      4  C   UNL     1      15.511  65.444  14.197  1.00  0.00     0.039 C 
ATOM      5  C   UNL     1      15.285  64.995  15.622  1.00  0.00    -0.080 C 
ATOM      6  C   UNL     1      13.935  64.461  16.027  1.00  0.00     0.039 C 
ENDBRANCH   2   3
ENDBRANCH   1   2
BRANCH   1   7
ATOM      7  C   UNL     1      19.583  64.017  16.042  1.00  0.00    -0.055 C 
ATOM      8  C   UNL     1      20.761  63.536  16.453  1.00  0.00     0.012 C 
BRANCH   7   9
ATOM      9  C   UNL     1      19.206  63.854  14.614  1.00  0.00    -0.005 C 
ATOM     10  C   UNL     1      19.491  62.773  13.886  1.00  0.00     0.009 C 
ENDBRANCH   7   9
ENDBRANCH   1   7
TORSDOF 4
ENDMDL
MODEL 2
REMARK VINA RESULT:    -3.874      1.117      2.244
REMARK INTER + INTRA:          -5.248
REMARK INTER:                  -4.857
REMARK INTRA:                  -0.391
REMARK UNBOUND:                -0.469
REMARK SMILES C=CC(=C)CCC=C(C)C
REMARK SMILES IDX 5 1 6 2 7 3 9 4 8 5 10 6 3 7 4 8 2 9 1 10
REMARK H PARENT
REMARK Flexibility Score: inf
ROOT
ATOM      1  C   UNL     1      18.756  64.936  14.724  1.00  0.00     0.039 C 
ENDROOT
BRANCH   1   2
ATOM      2  C   UNL     1      17.282  64.640  15.017  1.00  0.00     0.032 C 
BRANCH   2   3
ATOM      3  C   UNL     1      16.914  65.090  16.409  1.00  0.00    -0.028 C 
ATOM      4  C   UNL     1      14.466  64.689  16.065  1.00  0.00     0.039 C 
ATOM      5  C   UNL     1      15.651  65.143  16.886  1.00  0.00    -0.080 C 
ATOM      6  C   UNL     1      15.431  65.658  18.285  1.00  0.00     0.039 C 
ENDBRANCH   2   3
ENDBRANCH   1   2
BRANCH   1   7
ATOM      7  C   UNL     1      19.594  63.685  14.868  1.00  0.00    -0.055 C 
ATOM      8  C   UNL     1      19.426  62.686  13.995  1.00  0.00     0.012 C 
BRANCH   7   9
ATOM      9  C   UNL     1      20.568  63.506  15.976  1.00  0.00    -0.005 C 
ATOM     10  C   UNL     1      20.225  63.404  17.261  1.00  0.00     0.009 C 
ENDBRANCH   7   9
ENDBRANCH   1   7
TORSDOF 4
ENDMDL
MODEL 3
REMARK VINA RESULT:    -3.859      1.387      2.084
REMARK INTER + INTRA:          -5.230
REMARK INTER:                  -4.777
REMARK INTRA:                  -0.453
REMARK UNBOUND:                -0.469
REMARK SMILES C=CC(=C)CCC=C(C)C
REMARK SMILES IDX 5 1 6 2 7 3 9 4 8 5 10 6 3 7 4 8 2 9 1 10
REMARK H PARENT
REMARK Flexibility Score: inf
ROOT
ATOM      1  C   UNL     1      19.885  63.964  15.879  1.00  0.00     0.039 C 
ENDROOT
BRANCH   1   2
ATOM      2  C   UNL     1      18.993  65.199  15.718  1.00  0.00     0.032 C 
BRANCH   2   3
ATOM      3  C   UNL     1      17.787  65.108  16.620  1.00  0.00    -0.028 C 
ATOM      4  C   UNL     1      16.180  64.858  14.716  1.00  0.00     0.039 C 
ATOM      5  C   UNL     1      16.515  64.981  16.184  1.00  0.00    -0.080 C 
ATOM      6  C   UNL     1      15.405  64.947  17.204  1.00  0.00     0.039 C 
ENDBRANCH   2   3
ENDBRANCH   1   2
BRANCH   1   7
ATOM      7  C   UNL     1      20.199  63.349  14.533  1.00  0.00    -0.055 C 
ATOM      8  C   UNL     1      19.258  62.627  13.914  1.00  0.00     0.012 C 
BRANCH   7   9
ATOM      9  C   UNL     1      21.533  63.480  13.892  1.00  0.00    -0.005 C 
ATOM     10  C   UNL     1      22.631  62.860  14.324  1.00  0.00     0.009 C 
ENDBRANCH   7   9
ENDBRANCH   1   7
TORSDOF 4
ENDMDL
MODEL 4
REMARK VINA RESULT:    -3.824      3.565      5.838
REMARK INTER + INTRA:          -5.186
REMARK INTER:                  -4.819
REMARK INTRA:                  -0.368
REMARK UNBOUND:                -0.469
REMARK SMILES C=CC(=C)CCC=C(C)C
REMARK SMILES IDX 5 1 6 2 7 3 9 4 8 5 10 6 3 7 4 8 2 9 1 10
REMARK H PARENT
REMARK Flexibility Score: inf
ROOT
ATOM      1  C   UNL     1      23.968  62.773  14.238  1.00  0.00     0.039 C 
ENDROOT
BRANCH   1   2
ATOM      2  C   UNL     1      22.479  62.720  13.880  1.00  0.00     0.032 C 
BRANCH   2   3
ATOM      3  C   UNL     1      21.644  63.322  14.982  1.00  0.00    -0.028 C 
ATOM      4  C   UNL     1      19.475  62.638  13.932  1.00  0.00     0.039 C 
ATOM      5  C   UNL     1      20.293  63.317  15.007  1.00  0.00    -0.080 C 
ATOM      6  C   UNL     1      19.592  63.998  16.154  1.00  0.00     0.039 C 
ENDBRANCH   2   3
ENDBRANCH   1   2
BRANCH   1   7
ATOM      7  C   UNL     1      24.520  61.380  14.447  1.00  0.00    -0.055 C 
ATOM      8  C   UNL     1      24.546  60.531  13.414  1.00  0.00     0.012 C 
BRANCH   7   9
ATOM      9  C   UNL     1      24.991  60.904  15.773  1.00  0.00    -0.005 C 
ATOM     10  C   UNL     1      24.347  61.130  16.919  1.00  0.00     0.009 C 
ENDBRANCH   7   9
ENDBRANCH   1   7
TORSDOF 4
ENDMDL
MODEL 5
REMARK VINA RESULT:    -3.809      3.608      5.313
REMARK INTER + INTRA:          -5.169
REMARK INTER:                  -4.525
REMARK INTRA:                  -0.644
REMARK UNBOUND:                -0.469
REMARK SMILES C=CC(=C)CCC=C(C)C
REMARK SMILES IDX 5 1 6 2 7 3 9 4 8 5 10 6 3 7 4 8 2 9 1 10
REMARK H PARENT
REMARK Flexibility Score: inf
ROOT
ATOM      1  C   UNL     1      22.183  62.729  17.741  1.00  0.00     0.039 C 
ENDROOT
BRANCH   1   2
ATOM      2  C   UNL     1      21.597  63.891  16.932  1.00  0.00     0.032 C 
BRANCH   2   3
ATOM      3  C   UNL     1      20.489  63.408  16.030  1.00  0.00    -0.028 C 
ATOM      4  C   UNL     1      22.011  63.077  14.069  1.00  0.00     0.039 C 
ATOM      5  C   UNL     1      20.654  63.064  14.734  1.00  0.00    -0.080 C 
ATOM      6  C   UNL     1      19.443  62.642  13.943  1.00  0.00     0.039 C 
ENDBRANCH   2   3
ENDBRANCH   1   2
BRANCH   1   7
ATOM      7  C   UNL     1      23.657  62.561  17.448  1.00  0.00    -0.055 C 
ATOM      8  C   UNL     1      24.470  63.614  17.585  1.00  0.00     0.012 C 
BRANCH   7   9
ATOM      9  C   UNL     1      24.229  61.277  16.967  1.00  0.00    -0.005 C 
ATOM     10  C   UNL     1      24.722  61.093  15.741  1.00  0.00     0.009 C 
ENDBRANCH   7   9
ENDBRANCH   1   7
TORSDOF 4
ENDMDL
MODEL 6
REMARK VINA RESULT:    -3.792      1.033      5.028
REMARK INTER + INTRA:          -5.148
REMARK INTER:                  -4.834
REMARK INTRA:                  -0.314
REMARK UNBOUND:                -0.469
REMARK SMILES C=CC(=C)CCC=C(C)C
REMARK SMILES IDX 5 1 6 2 7 3 9 4 8 5 10 6 3 7 4 8 2 9 1 10
REMARK H PARENT
REMARK Flexibility Score: inf
ROOT
ATOM      1  C   UNL     1      17.021  65.099  16.179  1.00  0.00     0.039 C 
ENDROOT
BRANCH   1   2
ATOM      2  C   UNL     1      18.001  65.198  15.006  1.00  0.00     0.032 C 
BRANCH   2   3
ATOM      3  C   UNL     1      19.377  64.741  15.420  1.00  0.00    -0.028 C 
ATOM      4  C   UNL     1      19.334  62.729  13.930  1.00  0.00     0.039 C 
ATOM      5  C   UNL     1      19.979  63.620  14.966  1.00  0.00    -0.080 C 
ATOM      6  C   UNL     1      21.342  63.267  15.505  1.00  0.00     0.039 C 
ENDBRANCH   2   3
ENDBRANCH   1   2
BRANCH   1   7
ATOM      7  C   UNL     1      15.596  64.997  15.681  1.00  0.00    -0.055 C 
ATOM      8  C   UNL     1      15.367  64.997  14.364  1.00  0.00     0.012 C 
BRANCH   7   9
ATOM      9  C   UNL     1      14.434  64.944  16.606  1.00  0.00    -0.005 C 
ATOM     10  C   UNL     1      13.922  66.010  17.222  1.00  0.00     0.009 C 
ENDBRANCH   7   9
ENDBRANCH   1   7
TORSDOF 4
ENDMDL
MODEL 7
REMARK VINA RESULT:    -3.789      1.176      4.632
REMARK INTER + INTRA:          -5.144
REMARK INTER:                  -4.691
REMARK INTRA:                  -0.454
REMARK UNBOUND:                -0.469
REMARK SMILES C=CC(=C)CCC=C(C)C
REMARK SMILES IDX 5 1 6 2 7 3 9 4 8 5 10 6 3 7 4 8 2 9 1 10
REMARK H PARENT
REMARK Flexibility Score: inf
ROOT
ATOM      1  C   UNL     1      18.774  65.331  16.357  1.00  0.00     0.039 C 
ENDROOT
BRANCH   1   2
ATOM      2  C   UNL     1      19.445  63.996  16.700  1.00  0.00     0.032 C 
BRANCH   2   3
ATOM      3  C   UNL     1      20.681  63.789  15.862  1.00  0.00    -0.028 C 
ATOM      4  C   UNL     1      19.430  62.667  14.005  1.00  0.00     0.039 C 
ATOM      5  C   UNL     1      20.695  63.170  14.661  1.00  0.00    -0.080 C 
ATOM      6  C   UNL     1      22.016  62.995  13.957  1.00  0.00     0.039 C 
ENDBRANCH   2   3
ENDBRANCH   1   2
BRANCH   1   7
ATOM      7  C   UNL     1      17.278  65.159  16.216  1.00  0.00    -0.055 C 
ATOM      8  C   UNL     1      16.539  64.976  17.316  1.00  0.00     0.012 C 
BRANCH   7   9
ATOM      9  C   UNL     1      16.603  65.140  14.893  1.00  0.00    -0.005 C 
ATOM     10  C   UNL     1      15.329  64.789  14.711  1.00  0.00     0.009 C 
ENDBRANCH   7   9
ENDBRANCH   1   7
TORSDOF 4
ENDMDL
MODEL 8
REMARK VINA RESULT:    -3.702      1.054      4.858
REMARK INTER + INTRA:          -5.036
REMARK INTER:                  -4.677
REMARK INTRA:                  -0.359
REMARK UNBOUND:                -0.469
REMARK SMILES C=CC(=C)CCC=C(C)C
REMARK SMILES IDX 5 1 6 2 7 3 9 4 8 5 10 6 3 7 4 8 2 9 1 10
REMARK H PARENT
REMARK Flexibility Score: inf
ROOT
ATOM      1  C   UNL     1      16.589  65.049  15.155  1.00  0.00     0.039 C 
ENDROOT
BRANCH   1   2
ATOM      2  C   UNL     1      18.072  65.267  15.474  1.00  0.00     0.032 C 
BRANCH   2   3
ATOM      3  C   UNL     1      18.938  64.366  14.630  1.00  0.00    -0.028 C 
ATOM      4  C   UNL     1      20.307  63.587  16.576  1.00  0.00     0.039 C 
ATOM      5  C   UNL     1      19.963  63.625  15.105  1.00  0.00    -0.080 C 
ATOM      6  C   UNL     1      20.770  62.805  14.132  1.00  0.00     0.039 C 
ENDBRANCH   2   3
ENDBRANCH   1   2
BRANCH   1   7
ATOM      7  C   UNL     1      15.774  64.958  16.426  1.00  0.00    -0.055 C 
ATOM      8  C   UNL     1      16.408  64.946  17.604  1.00  0.00     0.012 C 
BRANCH   7   9
ATOM      9  C   UNL     1      14.294  64.835  16.412  1.00  0.00    -0.005 C 
ATOM     10  C   UNL     1      13.576  64.593  15.314  1.00  0.00     0.009 C 
ENDBRANCH   7   9
ENDBRANCH   1   7
TORSDOF 4
ENDMDL
MODEL 9
REMARK VINA RESULT:    -3.697      2.876      6.554
REMARK INTER + INTRA:          -5.031
REMARK INTER:                  -4.489
REMARK INTRA:                  -0.541
REMARK UNBOUND:                -0.469
REMARK SMILES C=CC(=C)CCC=C(C)C
REMARK SMILES IDX 5 1 6 2 7 3 9 4 8 5 10 6 3 7 4 8 2 9 1 10
REMARK H PARENT
REMARK Flexibility Score: inf
ROOT
ATOM      1  C   UNL     1      21.680  63.328  13.967  1.00  0.00     0.039 C 
ENDROOT
BRANCH   1   2
ATOM      2  C   UNL     1      22.730  63.735  15.006  1.00  0.00     0.032 C 
BRANCH   2   3
ATOM      3  C   UNL     1      23.635  62.574  15.332  1.00  0.00    -0.028 C 
ATOM      4  C   UNL     1      23.078  62.616  17.774  1.00  0.00     0.039 C 
ATOM      5  C   UNL     1      23.823  62.076  16.575  1.00  0.00    -0.080 C 
ATOM      6  C   UNL     1      24.796  60.939  16.755  1.00  0.00     0.039 C 
ENDBRANCH   2   3
ENDBRANCH   1   2
BRANCH   1   7
ATOM      7  C   UNL     1      20.331  63.122  14.618  1.00  0.00    -0.055 C 
ATOM      8  C   UNL     1      19.327  62.623  13.888  1.00  0.00     0.012 C 
BRANCH   7   9
ATOM      9  C   UNL     1      20.066  63.499  16.031  1.00  0.00    -0.005 C 
ATOM     10  C   UNL     1      19.289  64.519  16.397  1.00  0.00     0.009 C 
ENDBRANCH   7   9
ENDBRANCH   1   7
TORSDOF 4
ENDMDL
