MODEL 1
REMARK VINA RESULT:     8.942      0.000      0.000
REMARK INTER + INTRA:          15.945
REMARK INTER:                  16.782
REMARK INTRA:                  -0.838
REMARK UNBOUND:                -0.838
REMARK SMILES CCCCCCCCC=CCCCCCCCC(=O)[O-]
REMARK SMILES IDX 10 1 9 2 11 3 12 4 13 5 14 6 15 7 16 8 17 9 18 10 19 11
REMARK SMILES IDX 20 12 8 13 7 14 6 15 5 16 4 17 3 18 2 19 1 20
REMARK H PARENT
REMARK Flexibility Score: inf
ROOT
ATOM      1  C   UNL     1      -5.100 104.660  64.333  1.00  0.00    -0.031 C 
ATOM      2  C   UNL     1      -5.050 104.030  65.516  1.00  0.00    -0.031 C 
ENDROOT
BRANCH   1   3
ATOM      3  C   UNL     1      -4.204 104.266  63.189  1.00  0.00     0.027 C 
BRANCH   3   4
ATOM      4  C   UNL     1      -4.818 103.157  62.320  1.00  0.00     0.004 C 
BRANCH   4   5
ATOM      5  C   UNL     1      -3.908 101.920  62.235  1.00  0.00     0.000 C 
BRANCH   5   6
ATOM      6  C   UNL     1      -3.508 101.376  63.618  1.00  0.00     0.000 C 
BRANCH   6   7
ATOM      7  C   UNL     1      -1.995 101.163  63.826  1.00  0.00     0.000 C 
BRANCH   7   8
ATOM      8  C   UNL     1      -1.099 101.689  62.689  1.00  0.00     0.006 C 
BRANCH   8   9
ATOM      9  C   UNL     1       0.159 102.399  63.203  1.00  0.00     0.053 C 
BRANCH   9  10
ATOM     10  C   UNL     1       0.941 102.968  62.061  1.00  0.00     0.041 C 
ATOM     11  O   UNL     1       0.956 104.210  61.860  1.00  0.00    -0.550 OA
ATOM     12  O   UNL     1       1.695 102.129  61.250  1.00  0.00    -0.550 OA
ENDBRANCH   9  10
ENDBRANCH   8   9
ENDBRANCH   7   8
ENDBRANCH   6   7
ENDBRANCH   5   6
ENDBRANCH   4   5
ENDBRANCH   3   4
ENDBRANCH   1   3
BRANCH   2  13
ATOM     13  C   UNL     1      -5.954 104.418  66.654  1.00  0.00     0.027 C 
BRANCH  13  14
ATOM     14  C   UNL     1      -6.152 105.940  66.709  1.00  0.00     0.004 C 
BRANCH  14  15
ATOM     15  C   UNL     1      -4.918 106.675  67.256  1.00  0.00     0.000 C 
BRANCH  15  16
ATOM     16  C   UNL     1      -4.516 107.882  66.388  1.00  0.00     0.000 C 
BRANCH  16  17
ATOM     17  C   UNL     1      -5.559 109.011  66.424  1.00  0.00    -0.000 C 
BRANCH  17  18
ATOM     18  C   UNL     1      -6.768 108.727  65.517  1.00  0.00    -0.000 C 
BRANCH  18  19
ATOM     19  C   UNL     1      -8.067 108.527  66.313  1.00  0.00    -0.003 C 
ATOM     20  C   UNL     1      -8.124 109.382  67.579  1.00  0.00     0.004 C 
ENDBRANCH  18  19
ENDBRANCH  17  18
ENDBRANCH  16  17
ENDBRANCH  15  16
ENDBRANCH  14  15
ENDBRANCH  13  14
ENDBRANCH   2  13
TORSDOF 15
ENDMDL
MODEL 2
REMARK VINA RESULT:     9.064      3.819      8.582
REMARK INTER + INTRA:          16.175
REMARK INTER:                  17.298
REMARK INTRA:                  -1.122
REMARK UNBOUND:                -0.838
REMARK SMILES CCCCCCCCC=CCCCCCCCC(=O)[O-]
REMARK SMILES IDX 10 1 9 2 11 3 12 4 13 5 14 6 15 7 16 8 17 9 18 10 19 11
REMARK SMILES IDX 20 12 8 13 7 14 6 15 5 16 4 17 3 18 2 19 1 20
REMARK H PARENT
REMARK Flexibility Score: inf
ROOT
ATOM      1  C   UNL     1      -3.885 104.384  63.223  1.00  0.00    -0.031 C 
ATOM      2  C   UNL     1      -4.452 103.566  62.322  1.00  0.00    -0.031 C 
ENDROOT
BRANCH   1   3
ATOM      3  C   UNL     1      -4.155 105.865  63.225  1.00  0.00     0.027 C 
BRANCH   3   4
ATOM      4  C   UNL     1      -3.752 106.531  64.549  1.00  0.00     0.004 C 
BRANCH   4   5
ATOM      5  C   UNL     1      -4.593 107.785  64.845  1.00  0.00     0.000 C 
BRANCH   5   6
ATOM      6  C   UNL     1      -4.360 108.340  66.261  1.00  0.00     0.000 C 
BRANCH   6   7
ATOM      7  C   UNL     1      -5.279 107.756  67.353  1.00  0.00     0.000 C 
BRANCH   7   8
ATOM      8  C   UNL     1      -6.417 106.857  66.836  1.00  0.00     0.006 C 
BRANCH   8   9
ATOM      9  C   UNL     1      -7.808 107.423  67.144  1.00  0.00     0.053 C 
BRANCH   9  10
ATOM     10  C   UNL     1      -7.984 108.758  66.493  1.00  0.00     0.041 C 
ATOM     11  O   UNL     1      -8.123 109.793  67.196  1.00  0.00    -0.550 OA
ATOM     12  O   UNL     1      -7.943 108.867  65.108  1.00  0.00    -0.550 OA
ENDBRANCH   9  10
ENDBRANCH   8   9
ENDBRANCH   7   8
ENDBRANCH   6   7
ENDBRANCH   5   6
ENDBRANCH   4   5
ENDBRANCH   3   4
ENDBRANCH   1   3
BRANCH   2  13
ATOM     13  C   UNL     1      -4.189 102.085  62.329  1.00  0.00     0.027 C 
BRANCH  13  14
ATOM     14  C   UNL     1      -3.399 101.668  63.578  1.00  0.00     0.004 C 
BRANCH  14  15
ATOM     15  C   UNL     1      -2.211 100.753  63.245  1.00  0.00     0.000 C 
BRANCH  15  16
ATOM     16  C   UNL     1      -1.282 101.354  62.175  1.00  0.00     0.000 C 
BRANCH  16  17
ATOM     17  C   UNL     1       0.057 101.839  62.756  1.00  0.00    -0.000 C 
BRANCH  17  18
ATOM     18  C   UNL     1       1.068 102.227  61.663  1.00  0.00    -0.000 C 
BRANCH  18  19
ATOM     19  C   UNL     1       1.496 103.699  61.754  1.00  0.00    -0.003 C 
ATOM     20  C   UNL     1       0.906 104.415  62.969  1.00  0.00     0.004 C 
ENDBRANCH  18  19
ENDBRANCH  17  18
ENDBRANCH  16  17
ENDBRANCH  15  16
ENDBRANCH  14  15
ENDBRANCH  13  14
ENDBRANCH   2  13
TORSDOF 15
ENDMDL
MODEL 3
REMARK VINA RESULT:     9.349      1.180      1.763
REMARK INTER + INTRA:          16.710
REMARK INTER:                  17.243
REMARK INTRA:                  -0.533
REMARK UNBOUND:                -0.838
REMARK SMILES CCCCCCCCC=CCCCCCCCC(=O)[O-]
REMARK SMILES IDX 10 1 9 2 11 3 12 4 13 5 14 6 15 7 16 8 17 9 18 10 19 11
REMARK SMILES IDX 20 12 8 13 7 14 6 15 5 16 4 17 3 18 2 19 1 20
REMARK H PARENT
REMARK Flexibility Score: inf
ROOT
ATOM      1  C   UNL     1      -4.581 104.279  63.432  1.00  0.00    -0.031 C 
ATOM      2  C   UNL     1      -3.997 105.487  63.416  1.00  0.00    -0.031 C 
ENDROOT
BRANCH   1   3
ATOM      3  C   UNL     1      -4.823 103.501  62.166  1.00  0.00     0.027 C 
BRANCH   3   4
ATOM      4  C   UNL     1      -4.149 102.121  62.189  1.00  0.00     0.004 C 
BRANCH   4   5
ATOM      5  C   UNL     1      -3.758 101.694  63.613  1.00  0.00     0.000 C 
BRANCH   5   6
ATOM      6  C   UNL     1      -2.315 101.164  63.703  1.00  0.00     0.000 C 
BRANCH   6   7
ATOM      7  C   UNL     1      -1.380 101.615  62.564  1.00  0.00     0.000 C 
BRANCH   7   8
ATOM      8  C   UNL     1       0.118 101.647  62.921  1.00  0.00     0.006 C 
BRANCH   8   9
ATOM      9  C   UNL     1       1.015 101.898  61.703  1.00  0.00     0.053 C 
BRANCH   9  10
ATOM     10  C   UNL     1       1.624 103.263  61.776  1.00  0.00     0.041 C 
ATOM     11  O   UNL     1       0.931 104.247  62.143  1.00  0.00    -0.550 OA
ATOM     12  O   UNL     1       2.972 103.438  61.489  1.00  0.00    -0.550 OA
ENDBRANCH   9  10
ENDBRANCH   8   9
ENDBRANCH   7   8
ENDBRANCH   6   7
ENDBRANCH   5   6
ENDBRANCH   4   5
ENDBRANCH   3   4
ENDBRANCH   1   3
BRANCH   2  13
ATOM     13  C   UNL     1      -3.747 106.257  64.683  1.00  0.00     0.027 C 
BRANCH  13  14
ATOM     14  C   UNL     1      -4.521 107.584  64.688  1.00  0.00     0.004 C 
BRANCH  14  15
ATOM     15  C   UNL     1      -4.193 108.453  65.913  1.00  0.00     0.000 C 
BRANCH  15  16
ATOM     16  C   UNL     1      -4.475 107.731  67.243  1.00  0.00     0.000 C 
BRANCH  16  17
ATOM     17  C   UNL     1      -5.875 107.096  67.287  1.00  0.00    -0.000 C 
BRANCH  17  18
ATOM     18  C   UNL     1      -6.896 107.855  66.422  1.00  0.00    -0.000 C 
BRANCH  18  19
ATOM     19  C   UNL     1      -8.066 108.412  67.246  1.00  0.00    -0.003 C 
ATOM     20  C   UNL     1      -8.121 109.939  67.243  1.00  0.00     0.004 C 
ENDBRANCH  18  19
ENDBRANCH  17  18
ENDBRANCH  16  17
ENDBRANCH  15  16
ENDBRANCH  14  15
ENDBRANCH  13  14
ENDBRANCH   2  13
TORSDOF 15
ENDMDL
MODEL 4
REMARK VINA RESULT:     9.856      2.623      3.208
REMARK INTER + INTRA:          17.660
REMARK INTER:                  18.284
REMARK INTRA:                  -0.624
REMARK UNBOUND:                -0.838
REMARK SMILES CCCCCCCCC=CCCCCCCCC(=O)[O-]
REMARK SMILES IDX 10 1 9 2 11 3 12 4 13 5 14 6 15 7 16 8 17 9 18 10 19 11
REMARK SMILES IDX 20 12 8 13 7 14 6 15 5 16 4 17 3 18 2 19 1 20
REMARK H PARENT
REMARK Flexibility Score: inf
ROOT
ATOM      1  C   UNL     1      -3.744 105.903  64.567  1.00  0.00    -0.031 C 
ATOM      2  C   UNL     1      -4.351 107.045  64.925  1.00  0.00    -0.031 C 
ENDROOT
BRANCH   1   3
ATOM      3  C   UNL     1      -3.609 105.498  63.123  1.00  0.00     0.027 C 
BRANCH   3   4
ATOM      4  C   UNL     1      -4.562 104.354  62.745  1.00  0.00     0.004 C 
BRANCH   4   5
ATOM      5  C   UNL     1      -4.241 103.059  63.508  1.00  0.00     0.000 C 
BRANCH   5   6
ATOM      6  C   UNL     1      -3.559 101.998  62.625  1.00  0.00     0.000 C 
BRANCH   6   7
ATOM      7  C   UNL     1      -2.284 101.369  63.222  1.00  0.00     0.000 C 
BRANCH   7   8
ATOM      8  C   UNL     1      -1.061 101.357  62.286  1.00  0.00     0.006 C 
BRANCH   8   9
ATOM      9  C   UNL     1       0.096 102.217  62.809  1.00  0.00     0.053 C 
BRANCH   9  10
ATOM     10  C   UNL     1       1.089 102.474  61.720  1.00  0.00     0.041 C 
ATOM     11  O   UNL     1       1.715 103.564  61.679  1.00  0.00    -0.550 OA
ATOM     12  O   UNL     1       1.360 101.487  60.780  1.00  0.00    -0.550 OA
ENDBRANCH   9  10
ENDBRANCH   8   9
ENDBRANCH   7   8
ENDBRANCH   6   7
ENDBRANCH   5   6
ENDBRANCH   4   5
ENDBRANCH   3   4
ENDBRANCH   1   3
BRANCH   2  13
ATOM     13  C   UNL     1      -4.475 107.452  66.367  1.00  0.00     0.027 C 
BRANCH  13  14
ATOM     14  C   UNL     1      -5.162 108.819  66.500  1.00  0.00     0.004 C 
BRANCH  14  15
ATOM     15  C   UNL     1      -4.213 109.988  66.189  1.00  0.00     0.000 C 
BRANCH  15  16
ATOM     16  C   UNL     1      -4.359 111.150  67.189  1.00  0.00     0.000 C 
BRANCH  16  17
ATOM     17  C   UNL     1      -4.064 112.519  66.554  1.00  0.00    -0.000 C 
BRANCH  17  18
ATOM     18  C   UNL     1      -4.209 113.678  67.555  1.00  0.00    -0.000 C 
BRANCH  18  19
ATOM     19  C   UNL     1      -5.562 114.395  67.431  1.00  0.00    -0.003 C 
ATOM     20  C   UNL     1      -5.696 115.579  68.389  1.00  0.00     0.004 C 
ENDBRANCH  18  19
ENDBRANCH  17  18
ENDBRANCH  16  17
ENDBRANCH  15  16
ENDBRANCH  14  15
ENDBRANCH  13  14
ENDBRANCH   2  13
TORSDOF 15
ENDMDL
MODEL 5
REMARK VINA RESULT:    10.115      1.037      2.343
REMARK INTER + INTRA:          18.146
REMARK INTER:                  19.181
REMARK INTRA:                  -1.035
REMARK UNBOUND:                -0.838
REMARK SMILES CCCCCCCCC=CCCCCCCCC(=O)[O-]
REMARK SMILES IDX 10 1 9 2 11 3 12 4 13 5 14 6 15 7 16 8 17 9 18 10 19 11
REMARK SMILES IDX 20 12 8 13 7 14 6 15 5 16 4 17 3 18 2 19 1 20
REMARK H PARENT
REMARK Flexibility Score: inf
ROOT
ATOM      1  C   UNL     1      -3.789 105.403  64.004  1.00  0.00    -0.031 C 
ATOM      2  C   UNL     1      -4.177 106.633  64.374  1.00  0.00    -0.031 C 
ENDROOT
BRANCH   1   3
ATOM      3  C   UNL     1      -4.116 104.847  62.643  1.00  0.00     0.027 C 
BRANCH   3   4
ATOM      4  C   UNL     1      -4.824 103.486  62.722  1.00  0.00     0.004 C 
BRANCH   4   5
ATOM      5  C   UNL     1      -3.889 102.325  62.347  1.00  0.00     0.000 C 
BRANCH   5   6
ATOM      6  C   UNL     1      -3.444 101.498  63.567  1.00  0.00     0.000 C 
BRANCH   6   7
ATOM      7  C   UNL     1      -1.935 101.189  63.634  1.00  0.00     0.000 C 
BRANCH   7   8
ATOM      8  C   UNL     1      -1.139 101.544  62.365  1.00  0.00     0.006 C 
BRANCH   8   9
ATOM      9  C   UNL     1       0.111 102.382  62.662  1.00  0.00     0.053 C 
BRANCH   9  10
ATOM     10  C   UNL     1       1.116 102.228  61.564  1.00  0.00     0.041 C 
ATOM     11  O   UNL     1       0.962 101.341  60.685  1.00  0.00    -0.550 OA
ATOM     12  O   UNL     1       2.195 103.099  61.483  1.00  0.00    -0.550 OA
ENDBRANCH   9  10
ENDBRANCH   8   9
ENDBRANCH   7   8
ENDBRANCH   6   7
ENDBRANCH   5   6
ENDBRANCH   4   5
ENDBRANCH   3   4
ENDBRANCH   1   3
BRANCH   2  13
ATOM     13  C   UNL     1      -3.840 107.190  65.730  1.00  0.00     0.027 C 
BRANCH  13  14
ATOM     14  C   UNL     1      -4.372 108.622  65.888  1.00  0.00     0.004 C 
BRANCH  14  15
ATOM     15  C   UNL     1      -5.623 108.690  66.779  1.00  0.00     0.000 C 
BRANCH  15  16
ATOM     16  C   UNL     1      -6.928 108.737  65.965  1.00  0.00     0.000 C 
BRANCH  16  17
ATOM     17  C   UNL     1      -8.125 108.145  66.727  1.00  0.00    -0.000 C 
BRANCH  17  18
ATOM     18  C   UNL     1      -8.125 106.606  66.722  1.00  0.00    -0.000 C 
BRANCH  18  19
ATOM     19  C   UNL     1      -6.843 106.016  67.329  1.00  0.00    -0.003 C 
ATOM     20  C   UNL     1      -6.449 104.680  66.700  1.00  0.00     0.004 C 
ENDBRANCH  18  19
ENDBRANCH  17  18
ENDBRANCH  16  17
ENDBRANCH  15  16
ENDBRANCH  14  15
ENDBRANCH  13  14
ENDBRANCH   2  13
TORSDOF 15
ENDMDL
MODEL 6
REMARK VINA RESULT:    10.282      0.808      1.948
REMARK INTER + INTRA:          18.460
REMARK INTER:                  19.456
REMARK INTRA:                  -0.996
REMARK UNBOUND:                -0.838
REMARK SMILES CCCCCCCCC=CCCCCCCCC(=O)[O-]
REMARK SMILES IDX 10 1 9 2 11 3 12 4 13 5 14 6 15 7 16 8 17 9 18 10 19 11
REMARK SMILES IDX 20 12 8 13 7 14 6 15 5 16 4 17 3 18 2 19 1 20
REMARK H PARENT
REMARK Flexibility Score: inf
ROOT
ATOM      1  C   UNL     1      -5.096 103.860  64.821  1.00  0.00    -0.031 C 
ATOM      2  C   UNL     1      -5.580 104.859  65.575  1.00  0.00    -0.031 C 
ENDROOT
BRANCH   1   3
ATOM      3  C   UNL     1      -4.168 104.121  63.664  1.00  0.00     0.027 C 
BRANCH   3   4
ATOM      4  C   UNL     1      -4.629 103.423  62.375  1.00  0.00     0.004 C 
BRANCH   4   5
ATOM      5  C   UNL     1      -3.955 102.053  62.188  1.00  0.00     0.000 C 
BRANCH   5   6
ATOM      6  C   UNL     1      -3.552 101.398  63.522  1.00  0.00     0.000 C 
BRANCH   6   7
ATOM      7  C   UNL     1      -2.048 101.099  63.676  1.00  0.00     0.000 C 
BRANCH   7   8
ATOM      8  C   UNL     1      -1.162 101.588  62.515  1.00  0.00     0.006 C 
BRANCH   8   9
ATOM      9  C   UNL     1       0.157 102.206  62.993  1.00  0.00     0.053 C 
BRANCH   9  10
ATOM     10  C   UNL     1       1.037 102.528  61.826  1.00  0.00     0.041 C 
ATOM     11  O   UNL     1       1.266 101.657  60.947  1.00  0.00    -0.550 OA
ATOM     12  O   UNL     1       1.561 103.807  61.684  1.00  0.00    -0.550 OA
ENDBRANCH   9  10
ENDBRANCH   8   9
ENDBRANCH   7   8
ENDBRANCH   6   7
ENDBRANCH   5   6
ENDBRANCH   4   5
ENDBRANCH   3   4
ENDBRANCH   1   3
BRANCH   2  13
ATOM     13  C   UNL     1      -6.497 104.595  66.736  1.00  0.00     0.027 C 
BRANCH  13  14
ATOM     14  C   UNL     1      -6.982 105.907  67.370  1.00  0.00     0.004 C 
BRANCH  14  15
ATOM     15  C   UNL     1      -8.125 106.558  66.574  1.00  0.00     0.000 C 
BRANCH  15  16
ATOM     16  C   UNL     1      -7.938 108.076  66.404  1.00  0.00     0.000 C 
BRANCH  16  17
ATOM     17  C   UNL     1      -6.555 108.559  66.872  1.00  0.00    -0.000 C 
BRANCH  17  18
ATOM     18  C   UNL     1      -5.481 108.424  65.778  1.00  0.00    -0.000 C 
BRANCH  18  19
ATOM     19  C   UNL     1      -4.078 108.189  66.358  1.00  0.00    -0.003 C 
ATOM     20  C   UNL     1      -4.108 107.532  67.737  1.00  0.00     0.004 C 
ENDBRANCH  18  19
ENDBRANCH  17  18
ENDBRANCH  16  17
ENDBRANCH  15  16
ENDBRANCH  14  15
ENDBRANCH  13  14
ENDBRANCH   2  13
TORSDOF 15
ENDMDL
MODEL 7
REMARK VINA RESULT:    10.299      3.568      5.703
REMARK INTER + INTRA:          18.492
REMARK INTER:                  19.102
REMARK INTRA:                  -0.610
REMARK UNBOUND:                -0.838
REMARK SMILES CCCCCCCCC=CCCCCCCCC(=O)[O-]
REMARK SMILES IDX 10 1 9 2 11 3 12 4 13 5 14 6 15 7 16 8 17 9 18 10 19 11
REMARK SMILES IDX 20 12 8 13 7 14 6 15 5 16 4 17 3 18 2 19 1 20
REMARK H PARENT
REMARK Flexibility Score: inf
ROOT
ATOM      1  C   UNL     1      -6.680 108.774  66.632  1.00  0.00    -0.031 C 
ATOM      2  C   UNL     1      -5.576 108.530  65.911  1.00  0.00    -0.031 C 
ENDROOT
BRANCH   1   3
ATOM      3  C   UNL     1      -8.011 108.170  66.270  1.00  0.00     0.027 C 
BRANCH   3   4
ATOM      4  C   UNL     1      -8.123 106.700  66.702  1.00  0.00     0.004 C 
BRANCH   4   5
ATOM      5  C   UNL     1      -6.829 106.191  67.360  1.00  0.00     0.000 C 
BRANCH   5   6
ATOM      6  C   UNL     1      -6.376 104.827  66.809  1.00  0.00     0.000 C 
BRANCH   6   7
ATOM      7  C   UNL     1      -5.217 104.882  65.794  1.00  0.00     0.000 C 
BRANCH   7   8
ATOM      8  C   UNL     1      -5.175 103.718  64.787  1.00  0.00     0.006 C 
BRANCH   8   9
ATOM      9  C   UNL     1      -4.168 103.949  63.654  1.00  0.00     0.053 C 
BRANCH   9  10
ATOM     10  C   UNL     1      -4.322 102.902  62.597  1.00  0.00     0.041 C 
ATOM     11  O   UNL     1      -5.226 103.006  61.728  1.00  0.00    -0.550 OA
ATOM     12  O   UNL     1      -3.433 101.835  62.542  1.00  0.00    -0.550 OA
ENDBRANCH   9  10
ENDBRANCH   8   9
ENDBRANCH   7   8
ENDBRANCH   6   7
ENDBRANCH   5   6
ENDBRANCH   4   5
ENDBRANCH   3   4
ENDBRANCH   1   3
BRANCH   2  13
ATOM     13  C   UNL     1      -4.246 109.125  66.281  1.00  0.00     0.027 C 
BRANCH  13  14
ATOM     14  C   UNL     1      -4.423 110.454  67.030  1.00  0.00     0.004 C 
BRANCH  14  15
ATOM     15  C   UNL     1      -3.824 111.646  66.266  1.00  0.00     0.000 C 
BRANCH  15  16
ATOM     16  C   UNL     1      -3.888 112.957  67.071  1.00  0.00     0.000 C 
BRANCH  16  17
ATOM     17  C   UNL     1      -5.328 113.369  67.419  1.00  0.00    -0.000 C 
BRANCH  17  18
ATOM     18  C   UNL     1      -5.647 114.814  66.996  1.00  0.00    -0.000 C 
BRANCH  18  19
ATOM     19  C   UNL     1      -5.434 115.821  68.136  1.00  0.00    -0.003 C 
ATOM     20  C   UNL     1      -5.956 115.314  69.481  1.00  0.00     0.004 C 
ENDBRANCH  18  19
ENDBRANCH  17  18
ENDBRANCH  16  17
ENDBRANCH  15  16
ENDBRANCH  14  15
ENDBRANCH  13  14
ENDBRANCH   2  13
TORSDOF 15
ENDMDL
MODEL 8
REMARK VINA RESULT:    10.328      5.518      9.638
REMARK INTER + INTRA:          18.548
REMARK INTER:                  19.535
REMARK INTRA:                  -0.988
REMARK UNBOUND:                -0.838
REMARK SMILES CCCCCCCCC=CCCCCCCCC(=O)[O-]
REMARK SMILES IDX 10 1 9 2 11 3 12 4 13 5 14 6 15 7 16 8 17 9 18 10 19 11
REMARK SMILES IDX 20 12 8 13 7 14 6 15 5 16 4 17 3 18 2 19 1 20
REMARK H PARENT
REMARK Flexibility Score: inf
ROOT
ATOM      1  C   UNL     1      -4.319 108.380  65.868  1.00  0.00    -0.031 C 
ATOM      2  C   UNL     1      -5.596 108.242  66.256  1.00  0.00    -0.031 C 
ENDROOT
BRANCH   1   3
ATOM      3  C   UNL     1      -3.934 109.273  64.718  1.00  0.00     0.027 C 
BRANCH   3   4
ATOM      4  C   UNL     1      -2.665 110.087  65.009  1.00  0.00     0.004 C 
BRANCH   4   5
ATOM      5  C   UNL     1      -2.693 111.465  64.326  1.00  0.00     0.000 C 
BRANCH   5   6
ATOM      6  C   UNL     1      -2.797 112.627  65.330  1.00  0.00     0.000 C 
BRANCH   6   7
ATOM      7  C   UNL     1      -3.668 112.345  66.571  1.00  0.00     0.000 C 
BRANCH   7   8
ATOM      8  C   UNL     1      -4.076 113.590  67.380  1.00  0.00     0.006 C 
BRANCH   8   9
ATOM      9  C   UNL     1      -5.588 113.846  67.356  1.00  0.00     0.053 C 
BRANCH   9  10
ATOM     10  C   UNL     1      -5.881 115.274  67.691  1.00  0.00     0.041 C 
ATOM     11  O   UNL     1      -5.750 115.687  68.873  1.00  0.00    -0.550 OA
ATOM     12  O   UNL     1      -6.249 116.162  66.688  1.00  0.00    -0.550 OA
ENDBRANCH   9  10
ENDBRANCH   8   9
ENDBRANCH   7   8
ENDBRANCH   6   7
ENDBRANCH   5   6
ENDBRANCH   4   5
ENDBRANCH   3   4
ENDBRANCH   1   3
BRANCH   2  13
ATOM     13  C   UNL     1      -5.977 107.359  67.411  1.00  0.00     0.027 C 
BRANCH  13  14
ATOM     14  C   UNL     1      -5.327 105.973  67.286  1.00  0.00     0.004 C 
BRANCH  14  15
ATOM     15  C   UNL     1      -6.047 105.074  66.268  1.00  0.00     0.000 C 
BRANCH  15  16
ATOM     16  C   UNL     1      -5.091 104.093  65.565  1.00  0.00     0.000 C 
BRANCH  16  17
ATOM     17  C   UNL     1      -4.734 104.533  64.136  1.00  0.00    -0.000 C 
BRANCH  17  18
ATOM     18  C   UNL     1      -4.351 103.348  63.232  1.00  0.00    -0.000 C 
BRANCH  18  19
ATOM     19  C   UNL     1      -3.739 102.181  64.021  1.00  0.00    -0.003 C 
ATOM     20  C   UNL     1      -2.921 101.235  63.142  1.00  0.00     0.004 C 
ENDBRANCH  18  19
ENDBRANCH  17  18
ENDBRANCH  16  17
ENDBRANCH  15  16
ENDBRANCH  14  15
ENDBRANCH  13  14
ENDBRANCH   2  13
TORSDOF 15
ENDMDL
MODEL 9
REMARK VINA RESULT:    10.543      2.610      8.063
REMARK INTER + INTRA:          18.951
REMARK INTER:                  19.792
REMARK INTRA:                  -0.841
REMARK UNBOUND:                -0.838
REMARK SMILES CCCCCCCCC=CCCCCCCCC(=O)[O-]
REMARK SMILES IDX 10 1 9 2 11 3 12 4 13 5 14 6 15 7 16 8 17 9 18 10 19 11
REMARK SMILES IDX 20 12 8 13 7 14 6 15 5 16 4 17 3 18 2 19 1 20
REMARK H PARENT
REMARK Flexibility Score: inf
ROOT
ATOM      1  C   UNL     1      -4.668 103.691  64.553  1.00  0.00    -0.031 C 
ATOM      2  C   UNL     1      -4.506 103.678  63.221  1.00  0.00    -0.031 C 
ENDROOT
BRANCH   1   3
ATOM      3  C   UNL     1      -5.342 104.839  65.256  1.00  0.00     0.027 C 
BRANCH   3   4
ATOM      4  C   UNL     1      -6.051 104.399  66.547  1.00  0.00     0.004 C 
BRANCH   4   5
ATOM      5  C   UNL     1      -6.646 105.592  67.314  1.00  0.00     0.000 C 
BRANCH   5   6
ATOM      6  C   UNL     1      -7.433 106.554  66.405  1.00  0.00     0.000 C 
BRANCH   6   7
ATOM      7  C   UNL     1      -7.680 107.957  66.995  1.00  0.00     0.000 C 
BRANCH   7   8
ATOM      8  C   UNL     1      -6.491 108.930  66.885  1.00  0.00     0.006 C 
BRANCH   8   9
ATOM      9  C   UNL     1      -5.469 108.503  65.825  1.00  0.00     0.053 C 
BRANCH   9  10
ATOM     10  C   UNL     1      -4.248 107.935  66.476  1.00  0.00     0.041 C 
ATOM     11  O   UNL     1      -3.210 107.720  65.797  1.00  0.00    -0.550 OA
ATOM     12  O   UNL     1      -4.239 107.690  67.843  1.00  0.00    -0.550 OA
ENDBRANCH   9  10
ENDBRANCH   8   9
ENDBRANCH   7   8
ENDBRANCH   6   7
ENDBRANCH   5   6
ENDBRANCH   4   5
ENDBRANCH   3   4
ENDBRANCH   1   3
BRANCH   2  13
ATOM     13  C   UNL     1      -3.842 102.526  62.519  1.00  0.00     0.027 C 
BRANCH  13  14
ATOM     14  C   UNL     1      -3.587 101.361  63.487  1.00  0.00     0.004 C 
BRANCH  14  15
ATOM     15  C   UNL     1      -2.093 101.027  63.625  1.00  0.00     0.000 C 
BRANCH  15  16
ATOM     16  C   UNL     1      -1.259 101.542  62.438  1.00  0.00     0.000 C 
BRANCH  16  17
ATOM     17  C   UNL     1       0.204 101.823  62.819  1.00  0.00    -0.000 C 
BRANCH  17  18
ATOM     18  C   UNL     1       1.100 102.053  61.589  1.00  0.00    -0.000 C 
BRANCH  18  19
ATOM     19  C   UNL     1       1.753 103.443  61.589  1.00  0.00    -0.003 C 
ATOM     20  C   UNL     1       0.995 104.455  62.446  1.00  0.00     0.004 C 
ENDBRANCH  18  19
ENDBRANCH  17  18
ENDBRANCH  16  17
ENDBRANCH  15  16
ENDBRANCH  14  15
ENDBRANCH  13  14
ENDBRANCH   2  13
TORSDOF 15
ENDMDL
