MODEL 1
REMARK VINA RESULT:     4.544      0.000      0.000
REMARK INTER + INTRA:           5.582
REMARK INTER:                   5.474
REMARK INTRA:                   0.108
REMARK UNBOUND:                 0.108
REMARK SMILES O=c1c(O)c(-c2ccc(O)c(O)c2)oc2cc(O)cc(O)c12
REMARK SMILES IDX 5 1 3 2 2 3 1 4 22 5 20 6 19 7 17 8 16 9 15 10 14 11 6 12
REMARK SMILES IDX 7 13 8 14 9 15 13 16 11 17 10 18 12 20 4 22 21 24 18 26
REMARK H PARENT 10 19 12 21 4 23 21 25 18 27
REMARK Flexibility Score: inf
ROOT
ATOM      1  C   UNL     1      20.080  79.089  10.572  1.00  0.00     0.180 A 
ATOM      2  C   UNL     1      19.242  77.964  10.470  1.00  0.00     0.208 A 
ATOM      3  C   UNL     1      19.808  76.684  10.569  1.00  0.00     0.238 A 
ATOM      4  O   UNL     1      19.063  75.680  10.422  1.00  0.00    -0.285 OA
ATOM      5  C   UNL     1      21.200  76.543  10.789  1.00  0.00     0.111 A 
ATOM      6  C   UNL     1      21.873  75.294  10.946  1.00  0.00     0.134 A 
ATOM      7  C   UNL     1      23.271  75.270  11.028  1.00  0.00     0.093 A 
ATOM      8  C   UNL     1      24.014  76.449  11.023  1.00  0.00     0.123 A 
ATOM      9  C   UNL     1      23.361  77.679  10.929  1.00  0.00     0.094 A 
ATOM     10  C   UNL     1      21.970  77.734  10.810  1.00  0.00     0.146 A 
ATOM     11  O   UNL     1      21.390  78.924  10.712  1.00  0.00    -0.452 OA
ENDROOT
BRANCH   1  12
ATOM     12  C   UNL     1      19.553  80.472  10.503  1.00  0.00     0.025 A 
ATOM     13  C   UNL     1      18.344  80.827  11.124  1.00  0.00     0.016 A 
ATOM     14  C   UNL     1      17.879  82.144  11.064  1.00  0.00     0.051 A 
ATOM     15  C   UNL     1      18.617  83.125  10.398  1.00  0.00     0.157 A 
ATOM     16  C   UNL     1      20.304  81.464   9.851  1.00  0.00     0.062 A 
ATOM     17  C   UNL     1      19.838  82.787   9.789  1.00  0.00     0.158 A 
BRANCH  15  18
ATOM     18  O   UNL     1      18.127  84.429  10.353  1.00  0.00    -0.504 OA
ATOM     19  H   UNL     1      18.385  85.125  11.042  1.00  0.00     0.293 HD
ENDBRANCH  15  18
BRANCH  17  20
ATOM     20  O   UNL     1      20.583  83.761   9.129  1.00  0.00    -0.504 OA
ATOM     21  H   UNL     1      20.517  84.741   9.380  1.00  0.00     0.293 HD
ENDBRANCH  17  20
ENDBRANCH   1  12
BRANCH   2  22
ATOM     22  O   UNL     1      17.875  78.125  10.231  1.00  0.00    -0.502 OA
ATOM     23  H   UNL     1      17.227  77.346  10.230  1.00  0.00     0.293 HD
ENDBRANCH   2  22
BRANCH   6  24
ATOM     24  O   UNL     1      21.220  74.063  11.056  1.00  0.00    -0.507 OA
ATOM     25  H   UNL     1      21.608  73.245  11.500  1.00  0.00     0.293 HD
ENDBRANCH   6  24
BRANCH   8  26
ATOM     26  O   UNL     1      25.403  76.387  11.122  1.00  0.00    -0.508 OA
ATOM     27  H   UNL     1      25.867  75.611  11.580  1.00  0.00     0.293 HD
ENDBRANCH   8  26
TORSDOF 6
ENDMDL
