MODEL 1
REMARK VINA RESULT:    22.943      0.000      0.000
REMARK INTER + INTRA:          27.982
REMARK INTER:                  28.308
REMARK INTRA:                  -0.326
REMARK UNBOUND:                -0.326
REMARK SMILES Oc1cc(O)c2cc(O)c(-c3cc(O)c(O)c(O)c3)[o+]c2c1
REMARK SMILES IDX 10 1 20 2 21 3 22 4 2 5 3 6 4 7 6 8 7 9 8 10 11 11 12 12
REMARK SMILES IDX 13 13 19 14 15 15 17 16 14 17 16 19 18 21 9 23 1 25 5 27
REMARK H PARENT 14 18 16 20 18 22 9 24 1 26 5 28
REMARK Flexibility Score: inf
ROOT
ATOM      1  C   UNL     1      -6.279   7.461  16.024  1.00  0.00     0.402 A 
ATOM      2  O   UNL     1      -5.891   6.460  16.810  1.00  0.00    -0.202 OA
ATOM      3  C   UNL     1      -6.101   5.181  16.519  1.00  0.00     0.368 A 
ATOM      4  C   UNL     1      -5.652   4.200  17.409  1.00  0.00     0.162 A 
ATOM      5  C   UNL     1      -5.856   2.849  17.129  1.00  0.00     0.128 A 
ATOM      6  C   UNL     1      -6.511   2.472  15.950  1.00  0.00     0.093 A 
ATOM      7  C   UNL     1      -6.970   3.435  15.044  1.00  0.00     0.136 A 
ATOM      8  C   UNL     1      -6.767   4.811  15.327  1.00  0.00     0.125 A 
ATOM      9  C   UNL     1      -7.204   5.846  14.483  1.00  0.00     0.078 A 
ATOM     10  C   UNL     1      -6.972   7.179  14.830  1.00  0.00     0.223 A 
ENDROOT
BRANCH   1  11
ATOM     11  C   UNL     1      -5.979   8.847  16.452  1.00  0.00     0.091 A 
ATOM     12  C   UNL     1      -4.691   9.364  16.260  1.00  0.00     0.068 A 
ATOM     13  C   UNL     1      -4.376  10.676  16.634  1.00  0.00     0.162 A 
ATOM     14  C   UNL     1      -6.973   9.676  16.993  1.00  0.00     0.068 A 
ATOM     15  C   UNL     1      -5.378  11.499  17.202  1.00  0.00     0.200 A 
ATOM     16  C   UNL     1      -6.678  10.989  17.371  1.00  0.00     0.162 A 
BRANCH  13  17
ATOM     17  O   UNL     1      -3.067  11.114  16.422  1.00  0.00    -0.504 OA
ATOM     18  H   UNL     1      -2.287  10.879  17.019  1.00  0.00     0.293 HD
ENDBRANCH  13  17
BRANCH  15  19
ATOM     19  O   UNL     1      -5.122  12.815  17.600  1.00  0.00    -0.502 OA
ATOM     20  H   UNL     1      -4.328  13.356  17.295  1.00  0.00     0.293 HD
ENDBRANCH  15  19
BRANCH  16  21
ATOM     21  O   UNL     1      -7.696  11.775  17.912  1.00  0.00    -0.504 OA
ATOM     22  H   UNL     1      -8.351  11.416  18.595  1.00  0.00     0.293 HD
ENDBRANCH  16  21
ENDBRANCH   1  11
BRANCH  10  23
ATOM     23  O   UNL     1      -7.449   8.208  14.018  1.00  0.00    -0.500 OA
ATOM     24  H   UNL     1      -7.472   9.170  14.335  1.00  0.00     0.294 HD
ENDBRANCH  10  23
BRANCH   5  25
ATOM     25  O   UNL     1      -5.402   1.885  18.027  1.00  0.00    -0.507 OA
ATOM     26  H   UNL     1      -4.427   1.830  18.297  1.00  0.00     0.293 HD
ENDBRANCH   5  25
BRANCH   7  27
ATOM     27  O   UNL     1      -7.612   2.978  13.889  1.00  0.00    -0.507 OA
ATOM     28  H   UNL     1      -7.385   2.117  13.414  1.00  0.00     0.293 HD
ENDBRANCH   7  27
TORSDOF 7
ENDMDL
MODEL 2
REMARK VINA RESULT:    23.969      1.510      7.248
REMARK INTER + INTRA:          29.248
REMARK INTER:                  29.613
REMARK INTRA:                  -0.365
REMARK UNBOUND:                -0.326
REMARK SMILES Oc1cc(O)c2cc(O)c(-c3cc(O)c(O)c(O)c3)[o+]c2c1
REMARK SMILES IDX 10 1 20 2 21 3 22 4 2 5 3 6 4 7 6 8 7 9 8 10 11 11 12 12
REMARK SMILES IDX 13 13 19 14 15 15 17 16 14 17 16 19 18 21 9 23 1 25 5 27
REMARK H PARENT 14 18 16 20 18 22 9 24 1 26 5 28
REMARK Flexibility Score: inf
ROOT
ATOM      1  C   UNL     1      -6.256   8.115  16.563  1.00  0.00     0.402 A 
ATOM      2  O   UNL     1      -7.341   8.754  16.994  1.00  0.00    -0.202 OA
ATOM      3  C   UNL     1      -7.367  10.059  17.246  1.00  0.00     0.368 A 
ATOM      4  C   UNL     1      -8.557  10.641  17.693  1.00  0.00     0.162 A 
ATOM      5  C   UNL     1      -8.615  12.008  17.962  1.00  0.00     0.128 A 
ATOM      6  C   UNL     1      -7.477  12.803  17.782  1.00  0.00     0.093 A 
ATOM      7  C   UNL     1      -6.274  12.244  17.335  1.00  0.00     0.136 A 
ATOM      8  C   UNL     1      -6.210  10.853  17.063  1.00  0.00     0.125 A 
ATOM      9  C   UNL     1      -5.043  10.204  16.624  1.00  0.00     0.078 A 
ATOM     10  C   UNL     1      -5.056   8.829  16.380  1.00  0.00     0.223 A 
ENDROOT
BRANCH   1  11
ATOM     11  C   UNL     1      -6.354   6.660  16.309  1.00  0.00     0.091 A 
ATOM     12  C   UNL     1      -5.980   5.758  17.314  1.00  0.00     0.068 A 
ATOM     13  C   UNL     1      -6.079   4.375  17.117  1.00  0.00     0.162 A 
ATOM     14  C   UNL     1      -6.869   6.162  15.103  1.00  0.00     0.068 A 
ATOM     15  C   UNL     1      -6.577   3.879  15.888  1.00  0.00     0.200 A 
ATOM     16  C   UNL     1      -6.976   4.785  14.888  1.00  0.00     0.162 A 
BRANCH  13  17
ATOM     17  O   UNL     1      -5.674   3.541  18.161  1.00  0.00    -0.504 OA
ATOM     18  H   UNL     1      -6.298   2.940  18.681  1.00  0.00     0.293 HD
ENDBRANCH  13  17
BRANCH  15  19
ATOM     19  O   UNL     1      -6.693   2.510  15.630  1.00  0.00    -0.502 OA
ATOM     20  H   UNL     1      -5.917   1.909  15.396  1.00  0.00     0.293 HD
ENDBRANCH  15  19
BRANCH  16  21
ATOM     21  O   UNL     1      -7.488   4.334  13.671  1.00  0.00    -0.504 OA
ATOM     22  H   UNL     1      -7.856   3.398  13.552  1.00  0.00     0.293 HD
ENDBRANCH  16  21
ENDBRANCH   1  11
BRANCH  10  23
ATOM     23  O   UNL     1      -3.885   8.176  15.992  1.00  0.00    -0.500 OA
ATOM     24  H   UNL     1      -3.024   8.682  15.825  1.00  0.00     0.294 HD
ENDBRANCH  10  23
BRANCH   5  25
ATOM     25  O   UNL     1      -9.810  12.570  18.407  1.00  0.00    -0.507 OA
ATOM     26  H   UNL     1     -10.581  12.748  17.774  1.00  0.00     0.293 HD
ENDBRANCH   5  25
BRANCH   7  27
ATOM     27  O   UNL     1      -5.184  13.106  17.177  1.00  0.00    -0.507 OA
ATOM     28  H   UNL     1      -5.260  14.081  16.930  1.00  0.00     0.293 HD
ENDBRANCH   7  27
TORSDOF 7
ENDMDL
MODEL 3
REMARK VINA RESULT:    24.337      1.957      3.295
REMARK INTER + INTRA:          29.702
REMARK INTER:                  29.521
REMARK INTRA:                   0.181
REMARK UNBOUND:                -0.326
REMARK SMILES Oc1cc(O)c2cc(O)c(-c3cc(O)c(O)c(O)c3)[o+]c2c1
REMARK SMILES IDX 10 1 20 2 21 3 22 4 2 5 3 6 4 7 6 8 7 9 8 10 11 11 12 12
REMARK SMILES IDX 13 13 19 14 15 15 17 16 14 17 16 19 18 21 9 23 1 25 5 27
REMARK H PARENT 14 18 16 20 18 22 9 24 1 26 5 28
REMARK Flexibility Score: inf
ROOT
ATOM      1  C   UNL     1      -6.915   8.052  16.595  1.00  0.00     0.402 A 
ATOM      2  O   UNL     1      -7.329   7.247  15.619  1.00  0.00    -0.202 OA
ATOM      3  C   UNL     1      -6.898   5.999  15.472  1.00  0.00     0.368 A 
ATOM      4  C   UNL     1      -7.395   5.229  14.415  1.00  0.00     0.162 A 
ATOM      5  C   UNL     1      -6.963   3.915  14.237  1.00  0.00     0.128 A 
ATOM      6  C   UNL     1      -6.029   3.362  15.122  1.00  0.00     0.093 A 
ATOM      7  C   UNL     1      -5.517   4.112  16.187  1.00  0.00     0.136 A 
ATOM      8  C   UNL     1      -5.952   5.451  16.369  1.00  0.00     0.125 A 
ATOM      9  C   UNL     1      -5.483   6.281  17.401  1.00  0.00     0.078 A 
ATOM     10  C   UNL     1      -5.954   7.591  17.515  1.00  0.00     0.223 A 
ENDROOT
BRANCH   1  11
ATOM     11  C   UNL     1      -7.476   9.421  16.660  1.00  0.00     0.091 A 
ATOM     12  C   UNL     1      -7.964  10.022  15.492  1.00  0.00     0.068 A 
ATOM     13  C   UNL     1      -8.520  11.307  15.519  1.00  0.00     0.162 A 
ATOM     14  C   UNL     1      -7.585  10.109  17.878  1.00  0.00     0.068 A 
ATOM     15  C   UNL     1      -8.605  12.005  16.748  1.00  0.00     0.200 A 
ATOM     16  C   UNL     1      -8.139  11.391  17.925  1.00  0.00     0.162 A 
BRANCH  13  17
ATOM     17  O   UNL     1      -8.973  11.843  14.312  1.00  0.00    -0.504 OA
ATOM     18  H   UNL     1      -9.890  12.242  14.178  1.00  0.00     0.293 HD
ENDBRANCH  13  17
BRANCH  15  19
ATOM     19  O   UNL     1      -9.144  13.292  16.837  1.00  0.00    -0.502 OA
ATOM     20  H   UNL     1     -10.022  13.570  16.425  1.00  0.00     0.293 HD
ENDBRANCH  15  19
BRANCH  16  21
ATOM     21  O   UNL     1      -8.220  12.041  19.157  1.00  0.00    -0.504 OA
ATOM     22  H   UNL     1      -8.149  11.544  20.036  1.00  0.00     0.293 HD
ENDBRANCH  16  21
ENDBRANCH   1  11
BRANCH  10  23
ATOM     23  O   UNL     1      -5.453   8.432  18.509  1.00  0.00    -0.500 OA
ATOM     24  H   UNL     1      -5.379   8.131  19.474  1.00  0.00     0.294 HD
ENDBRANCH  10  23
BRANCH   5  25
ATOM     25  O   UNL     1      -7.469   3.163  13.179  1.00  0.00    -0.507 OA
ATOM     26  H   UNL     1      -7.069   2.268  12.925  1.00  0.00     0.293 HD
ENDBRANCH   5  25
BRANCH   7  27
ATOM     27  O   UNL     1      -4.590   3.487  17.027  1.00  0.00    -0.507 OA
ATOM     28  H   UNL     1      -4.663   3.459  18.033  1.00  0.00     0.293 HD
ENDBRANCH   7  27
TORSDOF 7
ENDMDL
MODEL 4
REMARK VINA RESULT:    24.618      1.794      2.255
REMARK INTER + INTRA:          30.048
REMARK INTER:                  29.645
REMARK INTRA:                   0.404
REMARK UNBOUND:                -0.326
REMARK SMILES Oc1cc(O)c2cc(O)c(-c3cc(O)c(O)c(O)c3)[o+]c2c1
REMARK SMILES IDX 10 1 20 2 21 3 22 4 2 5 3 6 4 7 6 8 7 9 8 10 11 11 12 12
REMARK SMILES IDX 13 13 19 14 15 15 17 16 14 17 16 19 18 21 9 23 1 25 5 27
REMARK H PARENT 14 18 16 20 18 22 9 24 1 26 5 28
REMARK Flexibility Score: inf
ROOT
ATOM      1  C   UNL     1      -6.869   7.396  16.715  1.00  0.00     0.402 A 
ATOM      2  O   UNL     1      -6.544   6.287  17.374  1.00  0.00    -0.202 OA
ATOM      3  C   UNL     1      -6.182   5.160  16.770  1.00  0.00     0.368 A 
ATOM      4  C   UNL     1      -5.855   4.046  17.550  1.00  0.00     0.162 A 
ATOM      5  C   UNL     1      -5.468   2.851  16.945  1.00  0.00     0.128 A 
ATOM      6  C   UNL     1      -5.405   2.765  15.549  1.00  0.00     0.093 A 
ATOM      7  C   UNL     1      -5.727   3.866  14.746  1.00  0.00     0.136 A 
ATOM      8  C   UNL     1      -6.123   5.083  15.359  1.00  0.00     0.125 A 
ATOM      9  C   UNL     1      -6.477   6.233  14.633  1.00  0.00     0.078 A 
ATOM     10  C   UNL     1      -6.862   7.396  15.307  1.00  0.00     0.223 A 
ENDROOT
BRANCH   1  11
ATOM     11  C   UNL     1      -7.248   8.593  17.500  1.00  0.00     0.091 A 
ATOM     12  C   UNL     1      -7.319   9.840  16.865  1.00  0.00     0.068 A 
ATOM     13  C   UNL     1      -7.693  10.990  17.571  1.00  0.00     0.162 A 
ATOM     14  C   UNL     1      -7.594   8.498  18.856  1.00  0.00     0.068 A 
ATOM     15  C   UNL     1      -8.018  10.891  18.945  1.00  0.00     0.200 A 
ATOM     16  C   UNL     1      -7.971   9.634  19.577  1.00  0.00     0.162 A 
BRANCH  13  17
ATOM     17  O   UNL     1      -7.728  12.198  16.871  1.00  0.00    -0.504 OA
ATOM     18  H   UNL     1      -8.574  12.627  16.523  1.00  0.00     0.293 HD
ENDBRANCH  13  17
BRANCH  15  19
ATOM     19  O   UNL     1      -8.392  12.004  19.704  1.00  0.00    -0.502 OA
ATOM     20  H   UNL     1      -9.173  12.019  20.343  1.00  0.00     0.293 HD
ENDBRANCH  15  19
BRANCH  16  21
ATOM     21  O   UNL     1      -8.300   9.494  20.926  1.00  0.00    -0.504 OA
ATOM     22  H   UNL     1      -8.775   8.674  21.284  1.00  0.00     0.293 HD
ENDBRANCH  16  21
ENDBRANCH   1  11
BRANCH  10  23
ATOM     23  O   UNL     1      -7.261   8.522  14.587  1.00  0.00    -0.500 OA
ATOM     24  H   UNL     1      -8.027   9.108  14.896  1.00  0.00     0.294 HD
ENDBRANCH  10  23
BRANCH   5  25
ATOM     25  O   UNL     1      -5.147   1.752  17.739  1.00  0.00    -0.507 OA
ATOM     26  H   UNL     1      -4.340   1.172  17.540  1.00  0.00     0.293 HD
ENDBRANCH   5  25
BRANCH   7  27
ATOM     27  O   UNL     1      -5.636   3.701  13.361  1.00  0.00    -0.507 OA
ATOM     28  H   UNL     1      -5.999   4.355  12.684  1.00  0.00     0.293 HD
ENDBRANCH   7  27
TORSDOF 7
ENDMDL
