MODEL 1
REMARK VINA RESULT:    -3.793      0.000      0.000
REMARK INTER + INTRA:         -15.635
REMARK INTER:                 -10.000
REMARK INTRA:                  -5.635
REMARK UNBOUND:                -5.635
REMARK SMILES CCCCCCCCCCCCCCCCCCCCCCCCCCCCCC(=O)[O-]
REMARK SMILES IDX 16 1 17 2 18 3 19 4 20 5 21 6 22 7 23 8 24 9 25 10 26 11
REMARK SMILES IDX 27 12 28 13 29 14 30 15 31 16 32 17 15 18 14 19 13 20 12 21
REMARK SMILES IDX 11 22 10 23 9 24 8 25 7 26 6 27 5 28 4 29 3 30 2 31 1 32
REMARK H PARENT
REMARK Flexibility Score: inf
ROOT
ATOM      1  C   UNL     1      24.123  -0.461 -12.380  1.00  0.00     0.000 C 
ENDROOT
BRANCH   1   2
ATOM      2  C   UNL     1      25.084   0.701 -12.679  1.00  0.00     0.000 C 
BRANCH   2   3
ATOM      3  C   UNL     1      24.847   1.268 -14.087  1.00  0.00     0.000 C 
BRANCH   3   4
ATOM      4  C   UNL     1      25.828   0.699 -15.134  1.00  0.00     0.000 C 
BRANCH   4   5
ATOM      5  C   UNL     1      25.392  -0.652 -15.732  1.00  0.00     0.000 C 
BRANCH   5   6
ATOM      6  C   UNL     1      26.292  -1.850 -15.375  1.00  0.00     0.000 C 
BRANCH   6   7
ATOM      7  C   UNL     1      27.646  -1.487 -14.731  1.00  0.00     0.000 C 
BRANCH   7   8
ATOM      8  C   UNL     1      27.886  -2.079 -13.329  1.00  0.00     0.000 C 
BRANCH   8   9
ATOM      9  C   UNL     1      29.375  -2.318 -13.031  1.00  0.00     0.000 C 
BRANCH   9  10
ATOM     10  C   UNL     1      29.618  -2.875 -11.618  1.00  0.00     0.000 C 
BRANCH  10  11
ATOM     11  C   UNL     1      28.355  -3.490 -10.988  1.00  0.00     0.000 C 
BRANCH  11  12
ATOM     12  C   UNL     1      28.543  -4.971 -10.593  1.00  0.00     0.000 C 
BRANCH  12  13
ATOM     13  C   UNL     1      27.497  -5.921 -11.211  1.00  0.00     0.006 C 
BRANCH  13  14
ATOM     14  C   UNL     1      26.465  -5.232 -12.115  1.00  0.00     0.053 C 
BRANCH  14  15
ATOM     15  C   UNL     1      26.550  -5.714 -13.532  1.00  0.00     0.041 C 
ATOM     16  O   UNL     1      27.497  -5.342 -14.275  1.00  0.00    -0.550 OA
ATOM     17  O   UNL     1      25.586  -6.584 -14.030  1.00  0.00    -0.550 OA
ENDBRANCH  14  15
ENDBRANCH  13  14
ENDBRANCH  12  13
ENDBRANCH  11  12
ENDBRANCH  10  11
ENDBRANCH   9  10
ENDBRANCH   8   9
ENDBRANCH   7   8
ENDBRANCH   6   7
ENDBRANCH   5   6
ENDBRANCH   4   5
ENDBRANCH   3   4
ENDBRANCH   2   3
ENDBRANCH   1   2
BRANCH   1  18
ATOM     18  C   UNL     1      24.709  -1.485 -11.394  1.00  0.00     0.000 C 
BRANCH  18  19
ATOM     19  C   UNL     1      25.931  -1.005 -10.587  1.00  0.00     0.000 C 
BRANCH  19  20
ATOM     20  C   UNL     1      25.615  -0.625  -9.125  1.00  0.00     0.000 C 
BRANCH  20  21
ATOM     21  C   UNL     1      26.549  -1.310  -8.111  1.00  0.00     0.000 C 
BRANCH  21  22
ATOM     22  C   UNL     1      27.591  -0.347  -7.517  1.00  0.00     0.000 C 
BRANCH  22  23
ATOM     23  C   UNL     1      28.770  -1.075  -6.855  1.00  0.00     0.000 C 
BRANCH  23  24
ATOM     24  C   UNL     1      29.516  -1.950  -7.875  1.00  0.00    -0.000 C 
BRANCH  24  25
ATOM     25  C   UNL     1      29.688  -3.401  -7.397  1.00  0.00    -0.000 C 
BRANCH  25  26
ATOM     26  C   UNL     1      28.578  -3.831  -6.422  1.00  0.00    -0.000 C 
BRANCH  26  27
ATOM     27  C   UNL     1      27.916  -5.160  -6.822  1.00  0.00    -0.000 C 
BRANCH  27  28
ATOM     28  C   UNL     1      26.380  -5.066  -6.875  1.00  0.00    -0.000 C 
BRANCH  28  29
ATOM     29  C   UNL     1      25.849  -4.817  -8.297  1.00  0.00    -0.000 C 
BRANCH  29  30
ATOM     30  C   UNL     1      24.452  -4.173  -8.360  1.00  0.00    -0.000 C 
BRANCH  30  31
ATOM     31  C   UNL     1      23.679  -4.546  -9.634  1.00  0.00    -0.003 C 
ATOM     32  C   UNL     1      22.955  -5.879  -9.464  1.00  0.00     0.004 C 
ENDBRANCH  30  31
ENDBRANCH  29  30
ENDBRANCH  28  29
ENDBRANCH  27  28
ENDBRANCH  26  27
ENDBRANCH  25  26
ENDBRANCH  24  25
ENDBRANCH  23  24
ENDBRANCH  22  23
ENDBRANCH  21  22
ENDBRANCH  20  21
ENDBRANCH  19  20
ENDBRANCH  18  19
ENDBRANCH   1  18
TORSDOF 28
ENDMDL
MODEL 2
REMARK VINA RESULT:    -3.612      1.965      6.464
REMARK INTER + INTRA:         -15.159
REMARK INTER:                  -9.163
REMARK INTRA:                  -5.996
REMARK UNBOUND:                -5.635
REMARK SMILES CCCCCCCCCCCCCCCCCCCCCCCCCCCCCC(=O)[O-]
REMARK SMILES IDX 16 1 17 2 18 3 19 4 20 5 21 6 22 7 23 8 24 9 25 10 26 11
REMARK SMILES IDX 27 12 28 13 29 14 30 15 31 16 32 17 15 18 14 19 13 20 12 21
REMARK SMILES IDX 11 22 10 23 9 24 8 25 7 26 6 27 5 28 4 29 3 30 2 31 1 32
REMARK H PARENT
REMARK Flexibility Score: inf
ROOT
ATOM      1  C   UNL     1      25.777  -3.870  -7.101  1.00  0.00     0.000 C 
ENDROOT
BRANCH   1   2
ATOM      2  C   UNL     1      27.076  -4.354  -7.765  1.00  0.00     0.000 C 
BRANCH   2   3
ATOM      3  C   UNL     1      28.236  -4.385  -6.758  1.00  0.00     0.000 C 
BRANCH   3   4
ATOM      4  C   UNL     1      29.484  -3.628  -7.260  1.00  0.00     0.000 C 
BRANCH   4   5
ATOM      5  C   UNL     1      29.828  -2.372  -6.436  1.00  0.00     0.000 C 
BRANCH   5   6
ATOM      6  C   UNL     1      28.678  -1.362  -6.266  1.00  0.00     0.000 C 
BRANCH   6   7
ATOM      7  C   UNL     1      28.322  -0.550  -7.530  1.00  0.00     0.000 C 
BRANCH   7   8
ATOM      8  C   UNL     1      26.816  -0.409  -7.816  1.00  0.00     0.000 C 
BRANCH   8   9
ATOM      9  C   UNL     1      26.416  -0.972  -9.191  1.00  0.00     0.000 C 
BRANCH   9  10
ATOM     10  C   UNL     1      24.972  -0.617  -9.583  1.00  0.00     0.000 C 
BRANCH  10  11
ATOM     11  C   UNL     1      24.651  -0.944 -11.054  1.00  0.00     0.000 C 
BRANCH  11  12
ATOM     12  C   UNL     1      25.345   0.015 -12.046  1.00  0.00     0.000 C 
BRANCH  12  13
ATOM     13  C   UNL     1      24.378   0.703 -13.031  1.00  0.00     0.006 C 
BRANCH  13  14
ATOM     14  C   UNL     1      24.982   1.007 -14.409  1.00  0.00     0.053 C 
BRANCH  14  15
ATOM     15  C   UNL     1      25.683  -0.183 -14.992  1.00  0.00     0.041 C 
ATOM     16  O   UNL     1      25.019  -1.134 -15.485  1.00  0.00    -0.550 OA
ATOM     17  O   UNL     1      27.072  -0.238 -15.001  1.00  0.00    -0.550 OA
ENDBRANCH  14  15
ENDBRANCH  13  14
ENDBRANCH  12  13
ENDBRANCH  11  12
ENDBRANCH  10  11
ENDBRANCH   9  10
ENDBRANCH   8   9
ENDBRANCH   7   8
ENDBRANCH   6   7
ENDBRANCH   5   6
ENDBRANCH   4   5
ENDBRANCH   3   4
ENDBRANCH   2   3
ENDBRANCH   1   2
BRANCH   1  18
ATOM     18  C   UNL     1      24.566  -3.918  -8.047  1.00  0.00     0.000 C 
BRANCH  18  19
ATOM     19  C   UNL     1      24.863  -4.395  -9.482  1.00  0.00     0.000 C 
BRANCH  19  20
ATOM     20  C   UNL     1      23.767  -5.293 -10.092  1.00  0.00     0.000 C 
BRANCH  20  21
ATOM     21  C   UNL     1      23.868  -6.760  -9.637  1.00  0.00     0.000 C 
BRANCH  21  22
ATOM     22  C   UNL     1      25.321  -7.221  -9.436  1.00  0.00     0.000 C 
BRANCH  22  23
ATOM     23  C   UNL     1      25.612  -7.676  -7.998  1.00  0.00     0.000 C 
BRANCH  23  24
ATOM     24  C   UNL     1      27.079  -8.105  -7.845  1.00  0.00    -0.000 C 
BRANCH  24  25
ATOM     25  C   UNL     1      27.856  -8.039  -9.171  1.00  0.00    -0.000 C 
BRANCH  25  26
ATOM     26  C   UNL     1      29.311  -7.579  -8.973  1.00  0.00    -0.000 C 
BRANCH  26  27
ATOM     27  C   UNL     1      29.640  -6.293  -9.750  1.00  0.00    -0.000 C 
BRANCH  27  28
ATOM     28  C   UNL     1      28.526  -5.894 -10.734  1.00  0.00    -0.000 C 
BRANCH  28  29
ATOM     29  C   UNL     1      28.962  -4.783 -11.706  1.00  0.00    -0.000 C 
BRANCH  29  30
ATOM     30  C   UNL     1      28.754  -3.351 -11.182  1.00  0.00    -0.000 C 
BRANCH  30  31
ATOM     31  C   UNL     1      27.958  -2.469 -12.155  1.00  0.00    -0.003 C 
ATOM     32  C   UNL     1      26.939  -3.296 -12.936  1.00  0.00     0.004 C 
ENDBRANCH  30  31
ENDBRANCH  29  30
ENDBRANCH  28  29
ENDBRANCH  27  28
ENDBRANCH  26  27
ENDBRANCH  25  26
ENDBRANCH  24  25
ENDBRANCH  23  24
ENDBRANCH  22  23
ENDBRANCH  21  22
ENDBRANCH  20  21
ENDBRANCH  19  20
ENDBRANCH  18  19
ENDBRANCH   1  18
TORSDOF 28
ENDMDL
MODEL 3
REMARK VINA RESULT:    -3.597      1.130      1.846
REMARK INTER + INTRA:         -15.120
REMARK INTER:                  -9.853
REMARK INTRA:                  -5.267
REMARK UNBOUND:                -5.635
REMARK SMILES CCCCCCCCCCCCCCCCCCCCCCCCCCCCCC(=O)[O-]
REMARK SMILES IDX 16 1 17 2 18 3 19 4 20 5 21 6 22 7 23 8 24 9 25 10 26 11
REMARK SMILES IDX 27 12 28 13 29 14 30 15 31 16 32 17 15 18 14 19 13 20 12 21
REMARK SMILES IDX 11 22 10 23 9 24 8 25 7 26 6 27 5 28 4 29 3 30 2 31 1 32
REMARK H PARENT
REMARK Flexibility Score: inf
ROOT
ATOM      1  C   UNL     1      23.956  -0.965 -10.634  1.00  0.00     0.000 C 
ENDROOT
BRANCH   1   2
ATOM      2  C   UNL     1      24.487  -1.003 -12.077  1.00  0.00     0.000 C 
BRANCH   2   3
ATOM      3  C   UNL     1      25.229   0.295 -12.428  1.00  0.00     0.000 C 
BRANCH   3   4
ATOM      4  C   UNL     1      24.575   1.061 -13.598  1.00  0.00     0.000 C 
BRANCH   4   5
ATOM      5  C   UNL     1      25.256   0.821 -14.960  1.00  0.00     0.000 C 
BRANCH   5   6
ATOM      6  C   UNL     1      24.880  -0.499 -15.660  1.00  0.00     0.000 C 
BRANCH   6   7
ATOM      7  C   UNL     1      26.055  -1.466 -15.915  1.00  0.00     0.000 C 
BRANCH   7   8
ATOM      8  C   UNL     1      27.447  -0.809 -15.963  1.00  0.00     0.000 C 
BRANCH   8   9
ATOM      9  C   UNL     1      28.321  -1.177 -14.752  1.00  0.00     0.000 C 
BRANCH   9  10
ATOM     10  C   UNL     1      27.779  -2.387 -13.972  1.00  0.00     0.000 C 
BRANCH  10  11
ATOM     11  C   UNL     1      27.865  -2.206 -12.445  1.00  0.00     0.000 C 
BRANCH  11  12
ATOM     12  C   UNL     1      28.703  -3.306 -11.758  1.00  0.00     0.000 C 
BRANCH  12  13
ATOM     13  C   UNL     1      27.882  -4.241 -10.848  1.00  0.00     0.006 C 
BRANCH  13  14
ATOM     14  C   UNL     1      26.537  -4.687 -11.439  1.00  0.00     0.053 C 
BRANCH  14  15
ATOM     15  C   UNL     1      26.610  -6.064 -12.026  1.00  0.00     0.041 C 
ATOM     16  O   UNL     1      27.726  -6.609 -12.236  1.00  0.00    -0.550 OA
ATOM     17  O   UNL     1      25.441  -6.754 -12.330  1.00  0.00    -0.550 OA
ENDBRANCH  14  15
ENDBRANCH  13  14
ENDBRANCH  12  13
ENDBRANCH  11  12
ENDBRANCH  10  11
ENDBRANCH   9  10
ENDBRANCH   8   9
ENDBRANCH   7   8
ENDBRANCH   6   7
ENDBRANCH   5   6
ENDBRANCH   4   5
ENDBRANCH   3   4
ENDBRANCH   2   3
ENDBRANCH   1   2
BRANCH   1  18
ATOM     18  C   UNL     1      24.329  -2.219  -9.826  1.00  0.00     0.000 C 
BRANCH  18  19
ATOM     19  C   UNL     1      25.209  -1.972  -8.585  1.00  0.00     0.000 C 
BRANCH  19  20
ATOM     20  C   UNL     1      26.628  -1.458  -8.906  1.00  0.00     0.000 C 
BRANCH  20  21
ATOM     21  C   UNL     1      27.142  -0.432  -7.880  1.00  0.00     0.000 C 
BRANCH  21  22
ATOM     22  C   UNL     1      28.028  -1.067  -6.796  1.00  0.00     0.000 C 
BRANCH  22  23
ATOM     23  C   UNL     1      29.384  -1.545  -7.336  1.00  0.00     0.000 C 
BRANCH  23  24
ATOM     24  C   UNL     1      29.659  -2.997  -6.914  1.00  0.00    -0.000 C 
BRANCH  24  25
ATOM     25  C   UNL     1      28.384  -3.739  -6.480  1.00  0.00    -0.000 C 
BRANCH  25  26
ATOM     26  C   UNL     1      28.147  -5.022  -7.296  1.00  0.00    -0.000 C 
BRANCH  26  27
ATOM     27  C   UNL     1      26.658  -5.277  -7.584  1.00  0.00    -0.000 C 
BRANCH  27  28
ATOM     28  C   UNL     1      26.391  -6.698  -8.112  1.00  0.00    -0.000 C 
BRANCH  28  29
ATOM     29  C   UNL     1      25.023  -6.829  -8.803  1.00  0.00    -0.000 C 
BRANCH  29  30
ATOM     30  C   UNL     1      24.133  -5.576  -8.711  1.00  0.00    -0.000 C 
BRANCH  30  31
ATOM     31  C   UNL     1      23.052  -5.530  -9.801  1.00  0.00    -0.003 C 
ATOM     32  C   UNL     1      22.219  -6.810  -9.800  1.00  0.00     0.004 C 
ENDBRANCH  30  31
ENDBRANCH  29  30
ENDBRANCH  28  29
ENDBRANCH  27  28
ENDBRANCH  26  27
ENDBRANCH  25  26
ENDBRANCH  24  25
ENDBRANCH  23  24
ENDBRANCH  22  23
ENDBRANCH  21  22
ENDBRANCH  20  21
ENDBRANCH  19  20
ENDBRANCH  18  19
ENDBRANCH   1  18
TORSDOF 28
ENDMDL
MODEL 4
REMARK VINA RESULT:    -3.505      1.362      6.356
REMARK INTER + INTRA:         -14.877
REMARK INTER:                  -9.352
REMARK INTRA:                  -5.525
REMARK UNBOUND:                -5.635
REMARK SMILES CCCCCCCCCCCCCCCCCCCCCCCCCCCCCC(=O)[O-]
REMARK SMILES IDX 16 1 17 2 18 3 19 4 20 5 21 6 22 7 23 8 24 9 25 10 26 11
REMARK SMILES IDX 27 12 28 13 29 14 30 15 31 16 32 17 15 18 14 19 13 20 12 21
REMARK SMILES IDX 11 22 10 23 9 24 8 25 7 26 6 27 5 28 4 29 3 30 2 31 1 32
REMARK H PARENT
REMARK Flexibility Score: inf
ROOT
ATOM      1  C   UNL     1      24.460  -1.378  -8.634  1.00  0.00     0.000 C 
ENDROOT
BRANCH   1   2
ATOM      2  C   UNL     1      25.677  -0.508  -8.986  1.00  0.00     0.000 C 
BRANCH   2   3
ATOM      3  C   UNL     1      26.990  -1.222  -8.631  1.00  0.00     0.000 C 
BRANCH   3   4
ATOM      4  C   UNL     1      27.693  -0.606  -7.402  1.00  0.00     0.000 C 
BRANCH   4   5
ATOM      5  C   UNL     1      28.784  -1.505  -6.790  1.00  0.00     0.000 C 
BRANCH   5   6
ATOM      6  C   UNL     1      28.432  -3.002  -6.704  1.00  0.00     0.000 C 
BRANCH   6   7
ATOM      7  C   UNL     1      28.968  -3.871  -7.861  1.00  0.00     0.000 C 
BRANCH   7   8
ATOM      8  C   UNL     1      28.324  -5.265  -7.987  1.00  0.00     0.000 C 
BRANCH   8   9
ATOM      9  C   UNL     1      27.099  -5.439  -7.073  1.00  0.00     0.000 C 
BRANCH   9  10
ATOM     10  C   UNL     1      26.377  -6.779  -7.294  1.00  0.00     0.000 C 
BRANCH  10  11
ATOM     11  C   UNL     1      26.391  -7.234  -8.765  1.00  0.00     0.000 C 
BRANCH  11  12
ATOM     12  C   UNL     1      24.978  -7.533  -9.313  1.00  0.00     0.000 C 
BRANCH  12  13
ATOM     13  C   UNL     1      24.896  -7.556 -10.853  1.00  0.00     0.006 C 
BRANCH  13  14
ATOM     14  C   UNL     1      26.255  -7.516 -11.564  1.00  0.00     0.053 C 
BRANCH  14  15
ATOM     15  C   UNL     1      26.108  -7.418 -13.053  1.00  0.00     0.041 C 
ATOM     16  O   UNL     1      27.039  -6.938 -13.754  1.00  0.00    -0.550 OA
ATOM     17  O   UNL     1      24.945  -7.867 -13.669  1.00  0.00    -0.550 OA
ENDBRANCH  14  15
ENDBRANCH  13  14
ENDBRANCH  12  13
ENDBRANCH  11  12
ENDBRANCH  10  11
ENDBRANCH   9  10
ENDBRANCH   8   9
ENDBRANCH   7   8
ENDBRANCH   6   7
ENDBRANCH   5   6
ENDBRANCH   4   5
ENDBRANCH   3   4
ENDBRANCH   2   3
ENDBRANCH   1   2
BRANCH   1  18
ATOM     18  C   UNL     1      24.851  -2.756  -8.075  1.00  0.00     0.000 C 
BRANCH  18  19
ATOM     19  C   UNL     1      24.322  -3.968  -8.865  1.00  0.00     0.000 C 
BRANCH  19  20
ATOM     20  C   UNL     1      24.592  -3.903 -10.383  1.00  0.00     0.000 C 
BRANCH  20  21
ATOM     21  C   UNL     1      26.090  -3.971 -10.731  1.00  0.00     0.000 C 
BRANCH  21  22
ATOM     22  C   UNL     1      26.363  -3.767 -12.230  1.00  0.00     0.000 C 
BRANCH  22  23
ATOM     23  C   UNL     1      27.578  -2.868 -12.501  1.00  0.00     0.000 C 
BRANCH  23  24
ATOM     24  C   UNL     1      27.883  -2.799 -14.006  1.00  0.00    -0.000 C 
BRANCH  24  25
ATOM     25  C   UNL     1      28.247  -1.378 -14.471  1.00  0.00    -0.000 C 
BRANCH  25  26
ATOM     26  C   UNL     1      27.473  -0.961 -15.734  1.00  0.00    -0.000 C 
BRANCH  26  27
ATOM     27  C   UNL     1      26.009  -1.432 -15.717  1.00  0.00    -0.000 C 
BRANCH  27  28
ATOM     28  C   UNL     1      25.009  -0.262 -15.764  1.00  0.00    -0.000 C 
BRANCH  28  29
ATOM     29  C   UNL     1      25.521   0.986 -15.024  1.00  0.00    -0.000 C 
BRANCH  29  30
ATOM     30  C   UNL     1      24.824   1.270 -13.682  1.00  0.00    -0.000 C 
BRANCH  30  31
ATOM     31  C   UNL     1      25.177   0.243 -12.596  1.00  0.00    -0.003 C 
ATOM     32  C   UNL     1      23.972  -0.630 -12.256  1.00  0.00     0.004 C 
ENDBRANCH  30  31
ENDBRANCH  29  30
ENDBRANCH  28  29
ENDBRANCH  27  28
ENDBRANCH  26  27
ENDBRANCH  25  26
ENDBRANCH  24  25
ENDBRANCH  23  24
ENDBRANCH  22  23
ENDBRANCH  21  22
ENDBRANCH  20  21
ENDBRANCH  19  20
ENDBRANCH  18  19
ENDBRANCH   1  18
TORSDOF 28
ENDMDL
MODEL 5
REMARK VINA RESULT:    -3.494      1.521      6.691
REMARK INTER + INTRA:         -14.849
REMARK INTER:                  -9.059
REMARK INTRA:                  -5.789
REMARK UNBOUND:                -5.635
REMARK SMILES CCCCCCCCCCCCCCCCCCCCCCCCCCCCCC(=O)[O-]
REMARK SMILES IDX 16 1 17 2 18 3 19 4 20 5 21 6 22 7 23 8 24 9 25 10 26 11
REMARK SMILES IDX 27 12 28 13 29 14 30 15 31 16 32 17 15 18 14 19 13 20 12 21
REMARK SMILES IDX 11 22 10 23 9 24 8 25 7 26 6 27 5 28 4 29 3 30 2 31 1 32
REMARK H PARENT
REMARK Flexibility Score: inf
ROOT
ATOM      1  C   UNL     1      29.058  -1.641  -6.370  1.00  0.00     0.000 C 
ENDROOT
BRANCH   1   2
ATOM      2  C   UNL     1      29.912  -1.731  -7.645  1.00  0.00     0.000 C 
BRANCH   2   3
ATOM      3  C   UNL     1      29.872  -3.147  -8.240  1.00  0.00     0.000 C 
BRANCH   3   4
ATOM      4  C   UNL     1      29.002  -3.237  -9.512  1.00  0.00     0.000 C 
BRANCH   4   5
ATOM      5  C   UNL     1      27.753  -4.126  -9.354  1.00  0.00     0.000 C 
BRANCH   5   6
ATOM      6  C   UNL     1      27.689  -4.944  -8.051  1.00  0.00     0.000 C 
BRANCH   6   7
ATOM      7  C   UNL     1      26.461  -4.666  -7.158  1.00  0.00     0.000 C 
BRANCH   7   8
ATOM      8  C   UNL     1      25.317  -3.891  -7.838  1.00  0.00     0.000 C 
BRANCH   8   9
ATOM      9  C   UNL     1      24.097  -4.777  -8.140  1.00  0.00     0.000 C 
BRANCH   9  10
ATOM     10  C   UNL     1      23.749  -4.823  -9.637  1.00  0.00     0.000 C 
BRANCH  10  11
ATOM     11  C   UNL     1      22.718  -5.914  -9.982  1.00  0.00     0.000 C 
BRANCH  11  12
ATOM     12  C   UNL     1      23.237  -7.340  -9.698  1.00  0.00     0.000 C 
BRANCH  12  13
ATOM     13  C   UNL     1      24.417  -7.767 -10.594  1.00  0.00     0.006 C 
BRANCH  13  14
ATOM     14  C   UNL     1      25.765  -7.870  -9.868  1.00  0.00     0.053 C 
BRANCH  14  15
ATOM     15  C   UNL     1      26.904  -7.410 -10.727  1.00  0.00     0.041 C 
ATOM     16  O   UNL     1      26.685  -6.709 -11.751  1.00  0.00    -0.550 OA
ATOM     17  O   UNL     1      28.210  -7.746 -10.390  1.00  0.00    -0.550 OA
ENDBRANCH  14  15
ENDBRANCH  13  14
ENDBRANCH  12  13
ENDBRANCH  11  12
ENDBRANCH  10  11
ENDBRANCH   9  10
ENDBRANCH   8   9
ENDBRANCH   7   8
ENDBRANCH   6   7
ENDBRANCH   5   6
ENDBRANCH   4   5
ENDBRANCH   3   4
ENDBRANCH   2   3
ENDBRANCH   1   2
BRANCH   1  18
ATOM     18  C   UNL     1      27.606  -1.221  -6.650  1.00  0.00     0.000 C 
BRANCH  18  19
ATOM     19  C   UNL     1      27.403  -0.308  -7.874  1.00  0.00     0.000 C 
BRANCH  19  20
ATOM     20  C   UNL     1      25.989  -0.375  -8.488  1.00  0.00     0.000 C 
BRANCH  20  21
ATOM     21  C   UNL     1      25.984  -0.904  -9.933  1.00  0.00     0.000 C 
BRANCH  21  22
ATOM     22  C   UNL     1      24.603  -1.413 -10.376  1.00  0.00     0.000 C 
BRANCH  22  23
ATOM     23  C   UNL     1      24.172  -0.861 -11.743  1.00  0.00     0.000 C 
BRANCH  23  24
ATOM     24  C   UNL     1      25.037   0.343 -12.145  1.00  0.00    -0.000 C 
BRANCH  24  25
ATOM     25  C   UNL     1      24.912   0.690 -13.638  1.00  0.00    -0.000 C 
BRANCH  25  26
ATOM     26  C   UNL     1      24.570  -0.540 -14.497  1.00  0.00    -0.000 C 
BRANCH  26  27
ATOM     27  C   UNL     1      25.456  -0.657 -15.749  1.00  0.00    -0.000 C 
BRANCH  27  28
ATOM     28  C   UNL     1      26.953  -0.485 -15.433  1.00  0.00    -0.000 C 
BRANCH  28  29
ATOM     29  C   UNL     1      27.721  -1.818 -15.452  1.00  0.00    -0.000 C 
BRANCH  29  30
ATOM     30  C   UNL     1      28.546  -2.103 -14.185  1.00  0.00    -0.000 C 
BRANCH  30  31
ATOM     31  C   UNL     1      27.696  -2.103 -12.906  1.00  0.00    -0.003 C 
ATOM     32  C   UNL     1      26.815  -3.348 -12.834  1.00  0.00     0.004 C 
ENDBRANCH  30  31
ENDBRANCH  29  30
ENDBRANCH  28  29
ENDBRANCH  27  28
ENDBRANCH  26  27
ENDBRANCH  25  26
ENDBRANCH  24  25
ENDBRANCH  23  24
ENDBRANCH  22  23
ENDBRANCH  21  22
ENDBRANCH  20  21
ENDBRANCH  19  20
ENDBRANCH  18  19
ENDBRANCH   1  18
TORSDOF 28
ENDMDL
MODEL 6
REMARK VINA RESULT:    -3.463      1.469      4.019
REMARK INTER + INTRA:         -14.767
REMARK INTER:                  -9.147
REMARK INTRA:                  -5.620
REMARK UNBOUND:                -5.635
REMARK SMILES CCCCCCCCCCCCCCCCCCCCCCCCCCCCCC(=O)[O-]
REMARK SMILES IDX 16 1 17 2 18 3 19 4 20 5 21 6 22 7 23 8 24 9 25 10 26 11
REMARK SMILES IDX 27 12 28 13 29 14 30 15 31 16 32 17 15 18 14 19 13 20 12 21
REMARK SMILES IDX 11 22 10 23 9 24 8 25 7 26 6 27 5 28 4 29 3 30 2 31 1 32
REMARK H PARENT
REMARK Flexibility Score: inf
ROOT
ATOM      1  C   UNL     1      23.746  -1.819  -9.909  1.00  0.00     0.000 C 
ENDROOT
BRANCH   1   2
ATOM      2  C   UNL     1      24.680  -1.697 -11.124  1.00  0.00     0.000 C 
BRANCH   2   3
ATOM      3  C   UNL     1      25.302  -0.295 -11.206  1.00  0.00     0.000 C 
BRANCH   3   4
ATOM      4  C   UNL     1      24.966   0.432 -12.526  1.00  0.00     0.000 C 
BRANCH   4   5
ATOM      5  C   UNL     1      24.219  -0.444 -13.550  1.00  0.00     0.000 C 
BRANCH   5   6
ATOM      6  C   UNL     1      24.957  -0.670 -14.883  1.00  0.00     0.000 C 
BRANCH   6   7
ATOM      7  C   UNL     1      26.375  -0.066 -14.962  1.00  0.00     0.000 C 
BRANCH   7   8
ATOM      8  C   UNL     1      27.527  -1.083 -14.879  1.00  0.00     0.000 C 
BRANCH   8   9
ATOM      9  C   UNL     1      27.032  -2.537 -14.793  1.00  0.00     0.000 C 
BRANCH   9  10
ATOM     10  C   UNL     1      27.137  -3.119 -13.372  1.00  0.00     0.000 C 
BRANCH  10  11
ATOM     11  C   UNL     1      28.083  -2.313 -12.461  1.00  0.00     0.000 C 
BRANCH  11  12
ATOM     12  C   UNL     1      28.243  -2.942 -11.060  1.00  0.00     0.000 C 
BRANCH  12  13
ATOM     13  C   UNL     1      27.643  -4.357 -10.936  1.00  0.00     0.006 C 
BRANCH  13  14
ATOM     14  C   UNL     1      28.680  -5.486 -10.867  1.00  0.00     0.053 C 
BRANCH  14  15
ATOM     15  C   UNL     1      28.860  -6.167 -12.190  1.00  0.00     0.041 C 
ATOM     16  O   UNL     1      29.613  -5.665 -13.067  1.00  0.00    -0.550 OA
ATOM     17  O   UNL     1      28.202  -7.364 -12.453  1.00  0.00    -0.550 OA
ENDBRANCH  14  15
ENDBRANCH  13  14
ENDBRANCH  12  13
ENDBRANCH  11  12
ENDBRANCH  10  11
ENDBRANCH   9  10
ENDBRANCH   8   9
ENDBRANCH   7   8
ENDBRANCH   6   7
ENDBRANCH   5   6
ENDBRANCH   4   5
ENDBRANCH   3   4
ENDBRANCH   2   3
ENDBRANCH   1   2
BRANCH   1  18
ATOM     18  C   UNL     1      24.498  -2.119  -8.602  1.00  0.00     0.000 C 
BRANCH  18  19
ATOM     19  C   UNL     1      25.090  -3.537  -8.487  1.00  0.00     0.000 C 
BRANCH  19  20
ATOM     20  C   UNL     1      24.061  -4.671  -8.677  1.00  0.00     0.000 C 
BRANCH  20  21
ATOM     21  C   UNL     1      24.204  -5.393 -10.029  1.00  0.00     0.000 C 
BRANCH  21  22
ATOM     22  C   UNL     1      24.313  -6.920  -9.879  1.00  0.00     0.000 C 
BRANCH  22  23
ATOM     23  C   UNL     1      25.725  -7.383  -9.491  1.00  0.00     0.000 C 
BRANCH  23  24
ATOM     24  C   UNL     1      25.733  -7.990  -8.080  1.00  0.00    -0.000 C 
BRANCH  24  25
ATOM     25  C   UNL     1      26.562  -7.162  -7.084  1.00  0.00    -0.000 C 
BRANCH  25  26
ATOM     26  C   UNL     1      27.707  -6.397  -7.771  1.00  0.00    -0.000 C 
BRANCH  26  27
ATOM     27  C   UNL     1      28.596  -5.635  -6.773  1.00  0.00    -0.000 C 
BRANCH  27  28
ATOM     28  C   UNL     1      28.899  -4.196  -7.227  1.00  0.00    -0.000 C 
BRANCH  28  29
ATOM     29  C   UNL     1      28.008  -3.153  -6.530  1.00  0.00    -0.000 C 
BRANCH  29  30
ATOM     30  C   UNL     1      28.681  -1.791  -6.286  1.00  0.00    -0.000 C 
BRANCH  30  31
ATOM     31  C   UNL     1      28.646  -0.878  -7.521  1.00  0.00    -0.003 C 
ATOM     32  C   UNL     1      27.268  -0.243  -7.693  1.00  0.00     0.004 C 
ENDBRANCH  30  31
ENDBRANCH  29  30
ENDBRANCH  28  29
ENDBRANCH  27  28
ENDBRANCH  26  27
ENDBRANCH  25  26
ENDBRANCH  24  25
ENDBRANCH  23  24
ENDBRANCH  22  23
ENDBRANCH  21  22
ENDBRANCH  20  21
ENDBRANCH  19  20
ENDBRANCH  18  19
ENDBRANCH   1  18
TORSDOF 28
ENDMDL
MODEL 7
REMARK VINA RESULT:    -3.443      1.976      6.343
REMARK INTER + INTRA:         -14.715
REMARK INTER:                  -9.216
REMARK INTRA:                  -5.499
REMARK UNBOUND:                -5.635
REMARK SMILES CCCCCCCCCCCCCCCCCCCCCCCCCCCCCC(=O)[O-]
REMARK SMILES IDX 16 1 17 2 18 3 19 4 20 5 21 6 22 7 23 8 24 9 25 10 26 11
REMARK SMILES IDX 27 12 28 13 29 14 30 15 31 16 32 17 15 18 14 19 13 20 12 21
REMARK SMILES IDX 11 22 10 23 9 24 8 25 7 26 6 27 5 28 4 29 3 30 2 31 1 32
REMARK H PARENT
REMARK Flexibility Score: inf
ROOT
ATOM      1  C   UNL     1      29.657  -4.405  -8.310  1.00  0.00     0.000 C 
ENDROOT
BRANCH   1   2
ATOM      2  C   UNL     1      29.905  -3.488  -7.101  1.00  0.00     0.000 C 
BRANCH   2   3
ATOM      3  C   UNL     1      28.587  -2.913  -6.562  1.00  0.00     0.000 C 
BRANCH   3   4
ATOM      4  C   UNL     1      28.616  -1.376  -6.426  1.00  0.00     0.000 C 
BRANCH   4   5
ATOM      5  C   UNL     1      27.804  -0.636  -7.506  1.00  0.00     0.000 C 
BRANCH   5   6
ATOM      6  C   UNL     1      26.529  -1.358  -7.980  1.00  0.00     0.000 C 
BRANCH   6   7
ATOM      7  C   UNL     1      25.755  -0.653  -9.114  1.00  0.00     0.000 C 
BRANCH   7   8
ATOM      8  C   UNL     1      24.516  -1.407  -9.631  1.00  0.00     0.000 C 
BRANCH   8   9
ATOM      9  C   UNL     1      24.202  -1.097 -11.104  1.00  0.00     0.000 C 
BRANCH   9  10
ATOM     10  C   UNL     1      25.163  -0.062 -11.713  1.00  0.00     0.000 C 
BRANCH  10  11
ATOM     11  C   UNL     1      24.702   0.449 -13.091  1.00  0.00     0.000 C 
BRANCH  11  12
ATOM     12  C   UNL     1      24.429  -0.695 -14.092  1.00  0.00     0.000 C 
BRANCH  12  13
ATOM     13  C   UNL     1      25.195  -0.557 -15.423  1.00  0.00     0.006 C 
BRANCH  13  14
ATOM     14  C   UNL     1      26.062   0.705 -15.532  1.00  0.00     0.053 C 
BRANCH  14  15
ATOM     15  C   UNL     1      27.523   0.379 -15.610  1.00  0.00     0.041 C 
ATOM     16  O   UNL     1      27.933  -0.777 -15.323  1.00  0.00    -0.550 OA
ATOM     17  O   UNL     1      28.433   1.352 -16.012  1.00  0.00    -0.550 OA
ENDBRANCH  14  15
ENDBRANCH  13  14
ENDBRANCH  12  13
ENDBRANCH  11  12
ENDBRANCH  10  11
ENDBRANCH   9  10
ENDBRANCH   8   9
ENDBRANCH   7   8
ENDBRANCH   6   7
ENDBRANCH   5   6
ENDBRANCH   4   5
ENDBRANCH   3   4
ENDBRANCH   2   3
ENDBRANCH   1   2
BRANCH   1  18
ATOM     18  C   UNL     1      28.164  -4.584  -8.630  1.00  0.00     0.000 C 
BRANCH  18  19
ATOM     19  C   UNL     1      27.743  -4.210 -10.064  1.00  0.00     0.000 C 
BRANCH  19  20
ATOM     20  C   UNL     1      28.345  -2.885 -10.577  1.00  0.00     0.000 C 
BRANCH  20  21
ATOM     21  C   UNL     1      27.917  -2.547 -12.016  1.00  0.00     0.000 C 
BRANCH  21  22
ATOM     22  C   UNL     1      26.774  -3.441 -12.522  1.00  0.00     0.000 C 
BRANCH  22  23
ATOM     23  C   UNL     1      26.969  -3.898 -13.975  1.00  0.00     0.000 C 
BRANCH  23  24
ATOM     24  C   UNL     1      28.279  -4.685 -14.130  1.00  0.00    -0.000 C 
BRANCH  24  25
ATOM     25  C   UNL     1      28.359  -5.894 -13.181  1.00  0.00    -0.000 C 
BRANCH  25  26
ATOM     26  C   UNL     1      27.238  -6.915 -13.440  1.00  0.00    -0.000 C 
BRANCH  26  27
ATOM     27  C   UNL     1      26.649  -7.494 -12.142  1.00  0.00    -0.000 C 
BRANCH  27  28
ATOM     28  C   UNL     1      25.435  -6.695 -11.634  1.00  0.00    -0.000 C 
BRANCH  28  29
ATOM     29  C   UNL     1      25.004  -7.108 -10.216  1.00  0.00    -0.000 C 
BRANCH  29  30
ATOM     30  C   UNL     1      23.664  -6.511  -9.751  1.00  0.00    -0.000 C 
BRANCH  30  31
ATOM     31  C   UNL     1      23.707  -4.981  -9.613  1.00  0.00    -0.003 C 
ATOM     32  C   UNL     1      24.391  -4.568  -8.312  1.00  0.00     0.004 C 
ENDBRANCH  30  31
ENDBRANCH  29  30
ENDBRANCH  28  29
ENDBRANCH  27  28
ENDBRANCH  26  27
ENDBRANCH  25  26
ENDBRANCH  24  25
ENDBRANCH  23  24
ENDBRANCH  22  23
ENDBRANCH  21  22
ENDBRANCH  20  21
ENDBRANCH  19  20
ENDBRANCH  18  19
ENDBRANCH   1  18
TORSDOF 28
ENDMDL
MODEL 8
REMARK VINA RESULT:    -3.420      2.229      5.378
REMARK INTER + INTRA:         -14.652
REMARK INTER:                  -8.513
REMARK INTRA:                  -6.139
REMARK UNBOUND:                -5.635
REMARK SMILES CCCCCCCCCCCCCCCCCCCCCCCCCCCCCC(=O)[O-]
REMARK SMILES IDX 16 1 17 2 18 3 19 4 20 5 21 6 22 7 23 8 24 9 25 10 26 11
REMARK SMILES IDX 27 12 28 13 29 14 30 15 31 16 32 17 15 18 14 19 13 20 12 21
REMARK SMILES IDX 11 22 10 23 9 24 8 25 7 26 6 27 5 28 4 29 3 30 2 31 1 32
REMARK H PARENT
REMARK Flexibility Score: inf
ROOT
ATOM      1  C   UNL     1      24.956  -1.818  -8.630  1.00  0.00     0.000 C 
ENDROOT
BRANCH   1   2
ATOM      2  C   UNL     1      24.865  -3.122  -7.821  1.00  0.00     0.000 C 
BRANCH   2   3
ATOM      3  C   UNL     1      24.103  -4.205  -8.600  1.00  0.00     0.000 C 
BRANCH   3   4
ATOM      4  C   UNL     1      24.866  -5.546  -8.662  1.00  0.00     0.000 C 
BRANCH   4   5
ATOM      5  C   UNL     1      25.313  -5.947 -10.081  1.00  0.00     0.000 C 
BRANCH   5   6
ATOM      6  C   UNL     1      25.210  -4.835 -11.142  1.00  0.00     0.000 C 
BRANCH   6   7
ATOM      7  C   UNL     1      26.449  -3.923 -11.262  1.00  0.00     0.000 C 
BRANCH   7   8
ATOM      8  C   UNL     1      26.509  -3.062 -12.537  1.00  0.00     0.000 C 
BRANCH   8   9
ATOM      9  C   UNL     1      27.754  -2.162 -12.590  1.00  0.00     0.000 C 
BRANCH   9  10
ATOM     10  C   UNL     1      28.295  -1.975 -14.018  1.00  0.00     0.000 C 
BRANCH  10  11
ATOM     11  C   UNL     1      27.178  -1.863 -15.073  1.00  0.00     0.000 C 
BRANCH  11  12
ATOM     12  C   UNL     1      27.007  -0.427 -15.615  1.00  0.00     0.000 C 
BRANCH  12  13
ATOM     13  C   UNL     1      25.563   0.105 -15.529  1.00  0.00     0.006 C 
BRANCH  13  14
ATOM     14  C   UNL     1      24.773  -0.388 -14.309  1.00  0.00     0.053 C 
BRANCH  14  15
ATOM     15  C   UNL     1      24.796   0.603 -13.185  1.00  0.00     0.041 C 
ATOM     16  O   UNL     1      24.505   1.811 -13.395  1.00  0.00    -0.550 OA
ATOM     17  O   UNL     1      25.130   0.191 -11.899  1.00  0.00    -0.550 OA
ENDBRANCH  14  15
ENDBRANCH  13  14
ENDBRANCH  12  13
ENDBRANCH  11  12
ENDBRANCH  10  11
ENDBRANCH   9  10
ENDBRANCH   8   9
ENDBRANCH   7   8
ENDBRANCH   6   7
ENDBRANCH   5   6
ENDBRANCH   4   5
ENDBRANCH   3   4
ENDBRANCH   2   3
ENDBRANCH   1   2
BRANCH   1  18
ATOM     18  C   UNL     1      26.405  -1.359  -8.865  1.00  0.00     0.000 C 
BRANCH  18  19
ATOM     19  C   UNL     1      26.970  -0.381  -7.817  1.00  0.00     0.000 C 
BRANCH  19  20
ATOM     20  C   UNL     1      28.447  -0.631  -7.448  1.00  0.00     0.000 C 
BRANCH  20  21
ATOM     21  C   UNL     1      28.614  -1.508  -6.194  1.00  0.00     0.000 C 
BRANCH  21  22
ATOM     22  C   UNL     1      29.209  -2.890  -6.510  1.00  0.00     0.000 C 
BRANCH  22  23
ATOM     23  C   UNL     1      28.137  -3.972  -6.709  1.00  0.00     0.000 C 
BRANCH  23  24
ATOM     24  C   UNL     1      28.298  -4.658  -8.074  1.00  0.00    -0.000 C 
BRANCH  24  25
ATOM     25  C   UNL     1      29.324  -3.950  -8.975  1.00  0.00    -0.000 C 
BRANCH  25  26
ATOM     26  C   UNL     1      29.755  -4.822 -10.168  1.00  0.00    -0.000 C 
BRANCH  26  27
ATOM     27  C   UNL     1      29.036  -6.182 -10.200  1.00  0.00    -0.000 C 
BRANCH  27  28
ATOM     28  C   UNL     1      28.787  -6.687 -11.633  1.00  0.00    -0.000 C 
BRANCH  28  29
ATOM     29  C   UNL     1      29.507  -5.839 -12.695  1.00  0.00    -0.000 C 
BRANCH  29  30
ATOM     30  C   UNL     1      28.689  -5.573 -13.971  1.00  0.00    -0.000 C 
BRANCH  30  31
ATOM     31  C   UNL     1      27.784  -6.753 -14.357  1.00  0.00    -0.003 C 
ATOM     32  C   UNL     1      26.310  -6.362 -14.278  1.00  0.00     0.004 C 
ENDBRANCH  30  31
ENDBRANCH  29  30
ENDBRANCH  28  29
ENDBRANCH  27  28
ENDBRANCH  26  27
ENDBRANCH  25  26
ENDBRANCH  24  25
ENDBRANCH  23  24
ENDBRANCH  22  23
ENDBRANCH  21  22
ENDBRANCH  20  21
ENDBRANCH  19  20
ENDBRANCH  18  19
ENDBRANCH   1  18
TORSDOF 28
ENDMDL
MODEL 9
REMARK VINA RESULT:    -3.381      2.277      5.259
REMARK INTER + INTRA:         -14.550
REMARK INTER:                  -8.219
REMARK INTRA:                  -6.331
REMARK UNBOUND:                -5.635
REMARK SMILES CCCCCCCCCCCCCCCCCCCCCCCCCCCCCC(=O)[O-]
REMARK SMILES IDX 16 1 17 2 18 3 19 4 20 5 21 6 22 7 23 8 24 9 25 10 26 11
REMARK SMILES IDX 27 12 28 13 29 14 30 15 31 16 32 17 15 18 14 19 13 20 12 21
REMARK SMILES IDX 11 22 10 23 9 24 8 25 7 26 6 27 5 28 4 29 3 30 2 31 1 32
REMARK H PARENT
REMARK Flexibility Score: inf
ROOT
ATOM      1  C   UNL     1      24.547  -1.399  -9.079  1.00  0.00     0.000 C 
ENDROOT
BRANCH   1   2
ATOM      2  C   UNL     1      26.000  -1.009  -9.399  1.00  0.00     0.000 C 
BRANCH   2   3
ATOM      3  C   UNL     1      26.383  -1.424 -10.828  1.00  0.00     0.000 C 
BRANCH   3   4
ATOM      4  C   UNL     1      25.428  -2.483 -11.419  1.00  0.00     0.000 C 
BRANCH   4   5
ATOM      5  C   UNL     1      26.076  -3.866 -11.622  1.00  0.00     0.000 C 
BRANCH   5   6
ATOM      6  C   UNL     1      27.386  -4.099 -10.846  1.00  0.00     0.000 C 
BRANCH   6   7
ATOM      7  C   UNL     1      28.640  -4.309 -11.720  1.00  0.00     0.000 C 
BRANCH   7   8
ATOM      8  C   UNL     1      28.417  -5.136 -12.999  1.00  0.00     0.000 C 
BRANCH   8   9
ATOM      9  C   UNL     1      28.733  -4.345 -14.280  1.00  0.00     0.000 C 
BRANCH   9  10
ATOM     10  C   UNL     1      29.256  -2.928 -13.992  1.00  0.00     0.000 C 
BRANCH  10  11
ATOM     11  C   UNL     1      28.572  -1.848 -14.852  1.00  0.00     0.000 C 
BRANCH  11  12
ATOM     12  C   UNL     1      27.202  -1.413 -14.289  1.00  0.00     0.000 C 
BRANCH  12  13
ATOM     13  C   UNL     1      26.184  -1.000 -15.371  1.00  0.00     0.006 C 
BRANCH  13  14
ATOM     14  C   UNL     1      24.792  -0.639 -14.833  1.00  0.00     0.053 C 
BRANCH  14  15
ATOM     15  C   UNL     1      24.838   0.528 -13.893  1.00  0.00     0.041 C 
ATOM     16  O   UNL     1      25.505   1.556 -14.186  1.00  0.00    -0.550 OA
ATOM     17  O   UNL     1      24.132   0.485 -12.695  1.00  0.00    -0.550 OA
ENDBRANCH  14  15
ENDBRANCH  13  14
ENDBRANCH  12  13
ENDBRANCH  11  12
ENDBRANCH  10  11
ENDBRANCH   9  10
ENDBRANCH   8   9
ENDBRANCH   7   8
ENDBRANCH   6   7
ENDBRANCH   5   6
ENDBRANCH   4   5
ENDBRANCH   3   4
ENDBRANCH   2   3
ENDBRANCH   1   2
BRANCH   1  18
ATOM     18  C   UNL     1      24.432  -2.334  -7.865  1.00  0.00     0.000 C 
BRANCH  18  19
ATOM     19  C   UNL     1      25.528  -3.411  -7.750  1.00  0.00     0.000 C 
BRANCH  19  20
ATOM     20  C   UNL     1      25.073  -4.826  -8.165  1.00  0.00     0.000 C 
BRANCH  20  21
ATOM     21  C   UNL     1      23.724  -4.831  -8.906  1.00  0.00     0.000 C 
BRANCH  21  22
ATOM     22  C   UNL     1      23.495  -6.117  -9.718  1.00  0.00     0.000 C 
BRANCH  22  23
ATOM     23  C   UNL     1      24.600  -7.163  -9.506  1.00  0.00     0.000 C 
BRANCH  23  24
ATOM     24  C   UNL     1      25.314  -7.480 -10.829  1.00  0.00    -0.000 C 
BRANCH  24  25
ATOM     25  C   UNL     1      26.823  -7.714 -10.646  1.00  0.00    -0.000 C 
BRANCH  25  26
ATOM     26  C   UNL     1      27.235  -7.737  -9.164  1.00  0.00    -0.000 C 
BRANCH  26  27
ATOM     27  C   UNL     1      28.524  -6.943  -8.893  1.00  0.00    -0.000 C 
BRANCH  27  28
ATOM     28  C   UNL     1      28.377  -5.954  -7.722  1.00  0.00    -0.000 C 
BRANCH  28  29
ATOM     29  C   UNL     1      29.379  -4.789  -7.799  1.00  0.00    -0.000 C 
BRANCH  29  30
ATOM     30  C   UNL     1      29.093  -3.628  -6.831  1.00  0.00    -0.000 C 
BRANCH  30  31
ATOM     31  C   UNL     1      29.010  -2.267  -7.538  1.00  0.00    -0.003 C 
ATOM     32  C   UNL     1      28.552  -1.176  -6.574  1.00  0.00     0.004 C 
ENDBRANCH  30  31
ENDBRANCH  29  30
ENDBRANCH  28  29
ENDBRANCH  27  28
ENDBRANCH  26  27
ENDBRANCH  25  26
ENDBRANCH  24  25
ENDBRANCH  23  24
ENDBRANCH  22  23
ENDBRANCH  21  22
ENDBRANCH  20  21
ENDBRANCH  19  20
ENDBRANCH  18  19
ENDBRANCH   1  18
TORSDOF 28
ENDMDL
