MODEL 1
REMARK VINA RESULT:    -5.792      0.000      0.000
REMARK INTER + INTRA:          -6.211
REMARK INTER:                  -6.300
REMARK INTRA:                   0.089
REMARK UNBOUND:                 0.089
REMARK SMILES C[C@@H]1[C@H](C)CC[C@]2(C(=O)[O-])CC[C@]3(C)C(=CC[C@H]4[C@@]5(C)CC[C@H](O)C(C)(C)[C@@H]5CC[C@@]43C)[C@@H]12
REMARK SMILES IDX 7 1 6 2 11 3 33 4 5 5 12 6 15 7 2 8 3 9 13 10 16 11 1 12
REMARK SMILES IDX 4 13 14 14 31 15 17 16 18 17 30 18 32 19 19 20 29 21 28 22
REMARK SMILES IDX 21 23 20 24 25 25 22 26 23 27 26 28 27 29 8 30 9 31 10 32
REMARK SMILES IDX 24 33
REMARK H PARENT 24 34
REMARK Flexibility Score: inf
ROOT
ATOM      1  C   UNL     1      -5.164  -4.781  -7.307  1.00  0.00     0.017 C 
ATOM      2  C   UNL     1      -6.423  -3.818  -7.385  1.00  0.00     0.014 C 
ATOM      3  C   UNL     1      -5.282  -5.943  -8.371  1.00  0.00     0.014 C 
ATOM      4  C   UNL     1      -5.130  -5.547  -5.938  1.00  0.00     0.030 C 
ATOM      5  C   UNL     1      -6.665  -2.997  -6.071  1.00  0.00     0.004 C 
ATOM      6  C   UNL     1      -4.281  -7.162  -8.199  1.00  0.00     0.013 C 
ATOM      7  C   UNL     1      -3.783  -6.277  -5.745  1.00  0.00    -0.063 C 
ATOM      8  C   UNL     1      -5.735  -4.861  -4.657  1.00  0.00    -0.003 C 
ATOM      9  C   UNL     1      -5.759  -3.351  -4.868  1.00  0.00    -0.011 C 
ATOM     10  C   UNL     1      -3.448  -7.398  -6.783  1.00  0.00    -0.006 C 
ATOM     11  C   UNL     1      -2.916  -5.878  -4.777  1.00  0.00    -0.027 C 
ATOM     12  C   UNL     1      -7.164  -5.424  -4.337  1.00  0.00     0.008 C 
ATOM     13  C   UNL     1      -6.196  -2.617  -3.602  1.00  0.00     0.008 C 
ATOM     14  C   UNL     1      -4.230  -8.598  -6.121  1.00  0.00     0.017 C 
ATOM     15  C   UNL     1      -1.823  -7.693  -6.934  1.00  0.00    -0.020 C 
ATOM     16  C   UNL     1      -1.503  -6.441  -4.769  1.00  0.00     0.032 C 
ATOM     17  C   UNL     1      -1.041  -6.529  -6.232  1.00  0.00     0.006 C 
ATOM     18  C   UNL     1      -1.333  -7.665  -8.426  1.00  0.00     0.008 C 
ATOM     19  C   UNL     1      -1.443  -9.136  -6.376  1.00  0.00     0.012 C 
ATOM     20  C   UNL     1       0.476  -6.055  -6.655  1.00  0.00    -0.025 C 
ATOM     21  C   UNL     1       0.214  -7.754  -8.615  1.00  0.00     0.005 C 
ATOM     22  C   UNL     1       1.109  -7.255  -7.414  1.00  0.00     0.003 C 
ATOM     23  C   UNL     1       1.420  -5.728  -5.434  1.00  0.00     0.010 C 
ATOM     24  C   UNL     1       0.409  -4.786  -7.616  1.00  0.00     0.012 C 
ATOM     25  C   UNL     1       2.698  -7.308  -7.645  1.00  0.00    -0.006 C 
ATOM     26  C   UNL     1       2.948  -5.644  -5.735  1.00  0.00     0.033 C 
ATOM     27  C   UNL     1       3.396  -6.010  -7.170  1.00  0.00     0.120 C 
ATOM     28  C   UNL     1       3.275  -8.510  -6.819  1.00  0.00     0.014 C 
ATOM     29  C   UNL     1       3.070  -7.574  -9.125  1.00  0.00     0.014 C 
ENDROOT
BRANCH   1  30
ATOM     30  C   UNL     1      -3.815  -4.072  -7.622  1.00  0.00     0.048 C 
ATOM     31  O   UNL     1      -3.164  -3.379  -6.724  1.00  0.00    -0.550 OA
ATOM     32  O   UNL     1      -3.372  -4.054  -8.947  1.00  0.00    -0.550 OA
ENDBRANCH   1  30
BRANCH  27  33
ATOM     33  O   UNL     1       3.225  -4.955  -8.073  1.00  0.00    -0.393 OA
ATOM     34  H   UNL     1       2.935  -5.359  -8.940  1.00  0.00     0.210 HD
ENDBRANCH  27  33
TORSDOF 2
ENDMDL
MODEL 2
REMARK VINA RESULT:    -5.363     11.534     14.559
REMARK INTER + INTRA:          -5.744
REMARK INTER:                  -5.831
REMARK INTRA:                   0.087
REMARK UNBOUND:                 0.089
REMARK SMILES C[C@@H]1[C@H](C)CC[C@]2(C(=O)[O-])CC[C@]3(C)C(=CC[C@H]4[C@@]5(C)CC[C@H](O)C(C)(C)[C@@H]5CC[C@@]43C)[C@@H]12
REMARK SMILES IDX 7 1 6 2 11 3 33 4 5 5 12 6 15 7 2 8 3 9 13 10 16 11 1 12
REMARK SMILES IDX 4 13 14 14 31 15 17 16 18 17 30 18 32 19 19 20 29 21 28 22
REMARK SMILES IDX 21 23 20 24 25 25 22 26 23 27 26 28 27 29 8 30 9 31 10 32
REMARK SMILES IDX 24 33
REMARK H PARENT 24 34
REMARK Flexibility Score: inf
ROOT
ATOM      1  C   UNL     1      -8.447  -1.949   6.890  1.00  0.00     0.017 C 
ATOM      2  C   UNL     1      -8.791  -0.420   7.139  1.00  0.00     0.014 C 
ATOM      3  C   UNL     1      -9.378  -2.557   5.767  1.00  0.00     0.014 C 
ATOM      4  C   UNL     1      -8.797  -2.813   8.154  1.00  0.00     0.030 C 
ATOM      5  C   UNL     1      -8.333   0.105   8.544  1.00  0.00     0.004 C 
ATOM      6  C   UNL     1      -9.386  -4.139   5.637  1.00  0.00     0.013 C 
ATOM      7  C   UNL     1      -8.225  -4.241   8.024  1.00  0.00    -0.063 C 
ATOM      8  C   UNL     1      -8.703  -2.158   9.583  1.00  0.00    -0.003 C 
ATOM      9  C   UNL     1      -7.768  -0.956   9.517  1.00  0.00    -0.011 C 
ATOM     10  C   UNL     1      -8.782  -5.105   6.844  1.00  0.00    -0.006 C 
ATOM     11  C   UNL     1      -7.226  -4.661   8.843  1.00  0.00    -0.027 C 
ATOM     12  C   UNL     1     -10.125  -1.759  10.113  1.00  0.00     0.008 C 
ATOM     13  C   UNL     1      -7.517  -0.367  10.904  1.00  0.00     0.008 C 
ATOM     14  C   UNL     1     -10.093  -5.656   7.530  1.00  0.00     0.017 C 
ATOM     15  C   UNL     1      -7.750  -6.311   6.365  1.00  0.00    -0.020 C 
ATOM     16  C   UNL     1      -6.513  -5.969   8.534  1.00  0.00     0.032 C 
ATOM     17  C   UNL     1      -6.345  -6.046   7.009  1.00  0.00     0.006 C 
ATOM     18  C   UNL     1      -7.489  -6.312   4.816  1.00  0.00     0.008 C 
ATOM     19  C   UNL     1      -8.342  -7.749   6.708  1.00  0.00     0.012 C 
ATOM     20  C   UNL     1      -4.924  -6.549   6.354  1.00  0.00    -0.025 C 
ATOM     21  C   UNL     1      -6.386  -7.305   4.332  1.00  0.00     0.005 C 
ATOM     22  C   UNL     1      -5.281  -7.710   5.383  1.00  0.00     0.003 C 
ATOM     23  C   UNL     1      -3.889  -7.120   7.400  1.00  0.00     0.010 C 
ATOM     24  C   UNL     1      -4.241  -5.361   5.541  1.00  0.00     0.012 C 
ATOM     25  C   UNL     1      -4.127  -8.696   4.854  1.00  0.00    -0.006 C 
ATOM     26  C   UNL     1      -2.701  -7.949   6.826  1.00  0.00     0.033 C 
ATOM     27  C   UNL     1      -2.719  -8.234   5.305  1.00  0.00     0.120 C 
ATOM     28  C   UNL     1      -4.391 -10.124   5.445  1.00  0.00     0.014 C 
ATOM     29  C   UNL     1      -4.143  -8.848   3.313  1.00  0.00     0.014 C 
ENDROOT
BRANCH   1  30
ATOM     30  C   UNL     1      -6.993  -2.191   6.393  1.00  0.00     0.048 C 
ATOM     31  O   UNL     1      -5.952  -1.696   7.012  1.00  0.00    -0.550 OA
ATOM     32  O   UNL     1      -6.813  -2.826   5.162  1.00  0.00    -0.550 OA
ENDBRANCH   1  30
BRANCH  27  33
ATOM     33  O   UNL     1      -2.248  -7.154   4.549  1.00  0.00    -0.393 OA
ATOM     34  H   UNL     1      -1.285  -7.033   4.785  1.00  0.00     0.210 HD
ENDBRANCH  27  33
TORSDOF 2
ENDMDL
MODEL 3
REMARK VINA RESULT:    -4.420     12.828     16.369
REMARK INTER + INTRA:          -4.719
REMARK INTER:                  -4.707
REMARK INTRA:                  -0.012
REMARK UNBOUND:                 0.089
REMARK SMILES C[C@@H]1[C@H](C)CC[C@]2(C(=O)[O-])CC[C@]3(C)C(=CC[C@H]4[C@@]5(C)CC[C@H](O)C(C)(C)[C@@H]5CC[C@@]43C)[C@@H]12
REMARK SMILES IDX 7 1 6 2 11 3 33 4 5 5 12 6 15 7 2 8 3 9 13 10 16 11 1 12
REMARK SMILES IDX 4 13 14 14 31 15 17 16 18 17 30 18 32 19 19 20 29 21 28 22
REMARK SMILES IDX 21 23 20 24 25 25 22 26 23 27 26 28 27 29 8 30 9 31 10 32
REMARK SMILES IDX 24 33
REMARK H PARENT 24 34
REMARK Flexibility Score: inf
ROOT
ATOM      1  C   UNL     1      -6.348  -6.023   6.466  1.00  0.00     0.017 C 
ATOM      2  C   UNL     1      -5.651  -7.298   5.827  1.00  0.00     0.014 C 
ATOM      3  C   UNL     1      -5.716  -5.686   7.874  1.00  0.00     0.014 C 
ATOM      4  C   UNL     1      -7.851  -6.320   6.807  1.00  0.00     0.030 C 
ATOM      5  C   UNL     1      -6.530  -8.014   4.743  1.00  0.00     0.004 C 
ATOM      6  C   UNL     1      -6.515  -4.655   8.778  1.00  0.00     0.013 C 
ATOM      7  C   UNL     1      -8.602  -5.022   7.177  1.00  0.00    -0.063 C 
ATOM      8  C   UNL     1      -8.650  -7.355   5.930  1.00  0.00    -0.003 C 
ATOM      9  C   UNL     1      -7.971  -7.480   4.570  1.00  0.00    -0.011 C 
ATOM     10  C   UNL     1      -8.095  -4.268   8.450  1.00  0.00    -0.006 C 
ATOM     11  C   UNL     1      -9.579  -4.537   6.367  1.00  0.00    -0.027 C 
ATOM     12  C   UNL     1      -8.758  -8.742   6.654  1.00  0.00     0.008 C 
ATOM     13  C   UNL     1      -8.783  -8.356   3.619  1.00  0.00     0.008 C 
ATOM     14  C   UNL     1      -8.882  -5.077   9.554  1.00  0.00     0.017 C 
ATOM     15  C   UNL     1      -8.464  -2.652   8.450  1.00  0.00    -0.020 C 
ATOM     16  C   UNL     1     -10.125  -3.139   6.617  1.00  0.00     0.032 C 
ATOM     17  C   UNL     1      -8.934  -2.250   7.009  1.00  0.00     0.006 C 
ATOM     18  C   UNL     1      -7.217  -1.740   8.736  1.00  0.00     0.008 C 
ATOM     19  C   UNL     1      -9.529  -2.301   9.583  1.00  0.00     0.012 C 
ATOM     20  C   UNL     1      -8.783  -0.739   6.380  1.00  0.00    -0.025 C 
ATOM     21  C   UNL     1      -7.466  -0.208   8.567  1.00  0.00     0.005 C 
ATOM     22  C   UNL     1      -8.632   0.222   7.593  1.00  0.00     0.003 C 
ATOM     23  C   UNL     1     -10.035  -0.249   5.553  1.00  0.00     0.010 C 
ATOM     24  C   UNL     1      -7.485  -0.652   5.461  1.00  0.00     0.012 C 
ATOM     25  C   UNL     1      -8.842   1.803   7.395  1.00  0.00    -0.006 C 
ATOM     26  C   UNL     1     -10.122   1.279   5.257  1.00  0.00     0.033 C 
ATOM     27  C   UNL     1      -9.041   2.177   5.905  1.00  0.00     0.120 C 
ATOM     28  C   UNL     1     -10.125   2.231   8.188  1.00  0.00     0.014 C 
ATOM     29  C   UNL     1      -7.669   2.630   7.975  1.00  0.00     0.014 C 
ENDROOT
BRANCH   1  30
ATOM     30  C   UNL     1      -6.179  -4.728   5.619  1.00  0.00     0.048 C 
ATOM     31  O   UNL     1      -6.760  -4.572   4.458  1.00  0.00    -0.550 OA
ATOM     32  O   UNL     1      -5.253  -3.774   6.051  1.00  0.00    -0.550 OA
ENDBRANCH   1  30
BRANCH  27  33
ATOM     33  O   UNL     1      -7.838   2.172   5.192  1.00  0.00    -0.393 OA
ATOM     34  H   UNL     1      -7.357   1.331   5.438  1.00  0.00     0.210 HD
ENDBRANCH  27  33
TORSDOF 2
ENDMDL
