MODEL 1
REMARK VINA RESULT:    -3.867      0.000      0.000
REMARK INTER + INTRA:         -11.968
REMARK INTER:                  -8.389
REMARK INTRA:                  -3.580
REMARK UNBOUND:                -3.580
REMARK SMILES CCCCCCCCCCCCCCCCCCCCCC(=O)[O-]
REMARK SMILES IDX 12 1 11 2 10 3 9 4 8 5 7 6 6 7 5 8 4 9 3 10 2 11 1 12 13 13
REMARK SMILES IDX 14 14 15 15 16 16 17 17 18 18 19 19 20 20 21 21 22 22 23 23
REMARK SMILES IDX 24 24
REMARK H PARENT
REMARK Flexibility Score: inf
ROOT
ATOM      1  C   UNL     1      77.090 -76.280  -0.439  1.00  0.00     0.000 C 
ENDROOT
BRANCH   1   2
ATOM      2  C   UNL     1      76.830 -75.031  -1.290  1.00  0.00     0.000 C 
BRANCH   2   3
ATOM      3  C   UNL     1      78.021 -74.733  -2.208  1.00  0.00     0.000 C 
BRANCH   3   4
ATOM      4  C   UNL     1      77.571 -74.602  -3.668  1.00  0.00    -0.000 C 
BRANCH   4   5
ATOM      5  C   UNL     1      76.201 -73.911  -3.761  1.00  0.00    -0.000 C 
BRANCH   5   6
ATOM      6  C   UNL     1      76.310 -72.378  -3.731  1.00  0.00    -0.000 C 
BRANCH   6   7
ATOM      7  C   UNL     1      74.979 -71.700  -3.363  1.00  0.00    -0.000 C 
BRANCH   7   8
ATOM      8  C   UNL     1      74.027 -72.629  -2.586  1.00  0.00    -0.000 C 
BRANCH   8   9
ATOM      9  C   UNL     1      74.082 -72.495  -1.053  1.00  0.00    -0.000 C 
BRANCH   9  10
ATOM     10  C   UNL     1      72.692 -72.331  -0.415  1.00  0.00    -0.000 C 
BRANCH  10  11
ATOM     11  C   UNL     1      72.505 -70.953   0.240  1.00  0.00    -0.003 C 
ATOM     12  C   UNL     1      73.798 -70.139   0.294  1.00  0.00     0.004 C 
ENDBRANCH  10  11
ENDBRANCH   9  10
ENDBRANCH   8   9
ENDBRANCH   7   8
ENDBRANCH   6   7
ENDBRANCH   5   6
ENDBRANCH   4   5
ENDBRANCH   3   4
ENDBRANCH   2   3
ENDBRANCH   1   2
BRANCH   1  13
ATOM     13  C   UNL     1      78.009 -77.264  -1.176  1.00  0.00     0.000 C 
BRANCH  13  14
ATOM     14  C   UNL     1      77.277 -78.535  -1.648  1.00  0.00     0.000 C 
BRANCH  14  15
ATOM     15  C   UNL     1      77.022 -78.615  -3.165  1.00  0.00     0.000 C 
BRANCH  15  16
ATOM     16  C   UNL     1      75.805 -77.812  -3.663  1.00  0.00     0.000 C 
BRANCH  16  17
ATOM     17  C   UNL     1      74.584 -77.891  -2.721  1.00  0.00     0.000 C 
BRANCH  17  18
ATOM     18  C   UNL     1      73.902 -76.525  -2.533  1.00  0.00     0.000 C 
BRANCH  18  19
ATOM     19  C   UNL     1      73.017 -76.468  -1.278  1.00  0.00     0.000 C 
BRANCH  19  20
ATOM     20  C   UNL     1      73.544 -77.344  -0.133  1.00  0.00     0.006 C 
BRANCH  20  21
ATOM     21  C   UNL     1      72.490 -77.499   0.968  1.00  0.00     0.053 C 
BRANCH  21  22
ATOM     22  C   UNL     1      72.776 -76.570   2.107  1.00  0.00     0.041 C 
ATOM     23  O   UNL     1      73.553 -76.924   3.032  1.00  0.00    -0.550 OA
ATOM     24  O   UNL     1      72.162 -75.323   2.162  1.00  0.00    -0.550 OA
ENDBRANCH  21  22
ENDBRANCH  20  21
ENDBRANCH  19  20
ENDBRANCH  18  19
ENDBRANCH  17  18
ENDBRANCH  16  17
ENDBRANCH  15  16
ENDBRANCH  14  15
ENDBRANCH  13  14
ENDBRANCH   1  13
TORSDOF 20
ENDMDL
MODEL 2
REMARK VINA RESULT:    -3.856      1.910      4.941
REMARK INTER + INTRA:         -11.944
REMARK INTER:                  -8.138
REMARK INTRA:                  -3.805
REMARK UNBOUND:                -3.580
REMARK SMILES CCCCCCCCCCCCCCCCCCCCCC(=O)[O-]
REMARK SMILES IDX 12 1 11 2 10 3 9 4 8 5 7 6 6 7 5 8 4 9 3 10 2 11 1 12 13 13
REMARK SMILES IDX 14 14 15 15 16 16 17 17 18 18 19 19 20 20 21 21 22 22 23 23
REMARK SMILES IDX 24 24
REMARK H PARENT
REMARK Flexibility Score: inf
ROOT
ATOM      1  C   UNL     1      76.947 -75.895  -0.425  1.00  0.00     0.000 C 
ENDROOT
BRANCH   1   2
ATOM      2  C   UNL     1      78.260 -76.470  -0.969  1.00  0.00     0.000 C 
BRANCH   2   3
ATOM      3  C   UNL     1      78.151 -77.985  -1.182  1.00  0.00     0.000 C 
BRANCH   3   4
ATOM      4  C   UNL     1      78.017 -78.322  -2.672  1.00  0.00    -0.000 C 
BRANCH   4   5
ATOM      5  C   UNL     1      76.614 -78.866  -2.989  1.00  0.00    -0.000 C 
BRANCH   5   6
ATOM      6  C   UNL     1      75.749 -77.856  -3.759  1.00  0.00    -0.000 C 
BRANCH   6   7
ATOM      7  C   UNL     1      74.549 -77.359  -2.934  1.00  0.00    -0.000 C 
BRANCH   7   8
ATOM      8  C   UNL     1      74.358 -78.142  -1.621  1.00  0.00    -0.000 C 
BRANCH   8   9
ATOM      9  C   UNL     1      73.420 -77.484  -0.593  1.00  0.00    -0.000 C 
BRANCH   9  10
ATOM     10  C   UNL     1      73.201 -75.984  -0.854  1.00  0.00    -0.000 C 
BRANCH  10  11
ATOM     11  C   UNL     1      72.959 -75.192   0.440  1.00  0.00    -0.003 C 
ATOM     12  C   UNL     1      72.771 -76.091   1.663  1.00  0.00     0.004 C 
ENDBRANCH  10  11
ENDBRANCH   9  10
ENDBRANCH   8   9
ENDBRANCH   7   8
ENDBRANCH   6   7
ENDBRANCH   5   6
ENDBRANCH   4   5
ENDBRANCH   3   4
ENDBRANCH   2   3
ENDBRANCH   1   2
BRANCH   1  13
ATOM     13  C   UNL     1      76.509 -74.667  -1.237  1.00  0.00     0.000 C 
BRANCH  13  14
ATOM     14  C   UNL     1      77.509 -74.289  -2.346  1.00  0.00     0.000 C 
BRANCH  14  15
ATOM     15  C   UNL     1      76.932 -74.289  -3.774  1.00  0.00     0.000 C 
BRANCH  15  16
ATOM     16  C   UNL     1      75.836 -73.237  -4.031  1.00  0.00     0.000 C 
BRANCH  16  17
ATOM     17  C   UNL     1      74.406 -73.820  -4.031  1.00  0.00     0.000 C 
BRANCH  17  18
ATOM     18  C   UNL     1      73.435 -72.985  -3.177  1.00  0.00     0.000 C 
BRANCH  18  19
ATOM     19  C   UNL     1      74.152 -72.142  -2.111  1.00  0.00     0.000 C 
BRANCH  19  20
ATOM     20  C   UNL     1      73.259 -71.814  -0.906  1.00  0.00     0.006 C 
BRANCH  20  21
ATOM     21  C   UNL     1      73.867 -70.688  -0.064  1.00  0.00     0.053 C 
BRANCH  21  22
ATOM     22  C   UNL     1      72.805 -69.981   0.719  1.00  0.00     0.041 C 
ATOM     23  O   UNL     1      72.985 -68.795   1.099  1.00  0.00    -0.550 OA
ATOM     24  O   UNL     1      71.629 -70.642   1.055  1.00  0.00    -0.550 OA
ENDBRANCH  21  22
ENDBRANCH  20  21
ENDBRANCH  19  20
ENDBRANCH  18  19
ENDBRANCH  17  18
ENDBRANCH  16  17
ENDBRANCH  15  16
ENDBRANCH  14  15
ENDBRANCH  13  14
ENDBRANCH   1  13
TORSDOF 20
ENDMDL
MODEL 3
REMARK VINA RESULT:    -3.728      1.015      2.112
REMARK INTER + INTRA:         -11.667
REMARK INTER:                  -7.878
REMARK INTRA:                  -3.789
REMARK UNBOUND:                -3.580
REMARK SMILES CCCCCCCCCCCCCCCCCCCCCC(=O)[O-]
REMARK SMILES IDX 12 1 11 2 10 3 9 4 8 5 7 6 6 7 5 8 4 9 3 10 2 11 1 12 13 13
REMARK SMILES IDX 14 14 15 15 16 16 17 17 18 18 19 19 20 20 21 21 22 22 23 23
REMARK SMILES IDX 24 24
REMARK H PARENT
REMARK Flexibility Score: inf
ROOT
ATOM      1  C   UNL     1      76.792 -74.940  -1.373  1.00  0.00     0.000 C 
ENDROOT
BRANCH   1   2
ATOM      2  C   UNL     1      77.926 -74.379  -2.239  1.00  0.00     0.000 C 
BRANCH   2   3
ATOM      3  C   UNL     1      77.522 -74.338  -3.718  1.00  0.00     0.000 C 
BRANCH   3   4
ATOM      4  C   UNL     1      76.112 -73.761  -3.887  1.00  0.00    -0.000 C 
BRANCH   4   5
ATOM      5  C   UNL     1      76.126 -72.229  -3.759  1.00  0.00    -0.000 C 
BRANCH   5   6
ATOM      6  C   UNL     1      74.835 -71.677  -3.131  1.00  0.00    -0.000 C 
BRANCH   6   7
ATOM      7  C   UNL     1      73.959 -72.784  -2.518  1.00  0.00    -0.000 C 
BRANCH   7   8
ATOM      8  C   UNL     1      73.951 -72.758  -0.978  1.00  0.00    -0.000 C 
BRANCH   8   9
ATOM      9  C   UNL     1      73.878 -71.357  -0.343  1.00  0.00    -0.000 C 
BRANCH   9  10
ATOM     10  C   UNL     1      72.452 -70.964   0.081  1.00  0.00    -0.000 C 
BRANCH  10  11
ATOM     11  C   UNL     1      71.639 -72.165   0.590  1.00  0.00    -0.003 C 
ATOM     12  C   UNL     1      70.324 -72.356  -0.167  1.00  0.00     0.004 C 
ENDBRANCH  10  11
ENDBRANCH   9  10
ENDBRANCH   8   9
ENDBRANCH   7   8
ENDBRANCH   6   7
ENDBRANCH   5   6
ENDBRANCH   4   5
ENDBRANCH   3   4
ENDBRANCH   2   3
ENDBRANCH   1   2
BRANCH   1  13
ATOM     13  C   UNL     1      77.306 -76.056  -0.453  1.00  0.00     0.000 C 
BRANCH  13  14
ATOM     14  C   UNL     1      78.269 -77.027  -1.162  1.00  0.00     0.000 C 
BRANCH  14  15
ATOM     15  C   UNL     1      77.844 -78.507  -1.131  1.00  0.00     0.000 C 
BRANCH  15  16
ATOM     16  C   UNL     1      76.590 -78.841  -1.961  1.00  0.00     0.000 C 
BRANCH  16  17
ATOM     17  C   UNL     1      76.600 -78.221  -3.375  1.00  0.00     0.000 C 
BRANCH  17  18
ATOM     18  C   UNL     1      75.326 -77.408  -3.666  1.00  0.00     0.000 C 
BRANCH  18  19
ATOM     19  C   UNL     1      74.168 -77.755  -2.717  1.00  0.00     0.000 C 
BRANCH  19  20
ATOM     20  C   UNL     1      73.552 -76.518  -2.048  1.00  0.00     0.006 C 
BRANCH  20  21
ATOM     21  C   UNL     1      73.694 -76.592  -0.525  1.00  0.00     0.053 C 
BRANCH  21  22
ATOM     22  C   UNL     1      72.538 -75.918   0.148  1.00  0.00     0.041 C 
ATOM     23  O   UNL     1      71.484 -75.677  -0.497  1.00  0.00    -0.550 OA
ATOM     24  O   UNL     1      72.635 -75.529   1.479  1.00  0.00    -0.550 OA
ENDBRANCH  21  22
ENDBRANCH  20  21
ENDBRANCH  19  20
ENDBRANCH  18  19
ENDBRANCH  17  18
ENDBRANCH  16  17
ENDBRANCH  15  16
ENDBRANCH  14  15
ENDBRANCH  13  14
ENDBRANCH   1  13
TORSDOF 20
ENDMDL
MODEL 4
REMARK VINA RESULT:    -3.726      2.011      5.517
REMARK INTER + INTRA:         -11.662
REMARK INTER:                  -8.381
REMARK INTRA:                  -3.281
REMARK UNBOUND:                -3.580
REMARK SMILES CCCCCCCCCCCCCCCCCCCCCC(=O)[O-]
REMARK SMILES IDX 12 1 11 2 10 3 9 4 8 5 7 6 6 7 5 8 4 9 3 10 2 11 1 12 13 13
REMARK SMILES IDX 14 14 15 15 16 16 17 17 18 18 19 19 20 20 21 21 22 22 23 23
REMARK SMILES IDX 24 24
REMARK H PARENT
REMARK Flexibility Score: inf
ROOT
ATOM      1  C   UNL     1      76.651 -74.298  -1.503  1.00  0.00     0.000 C 
ENDROOT
BRANCH   1   2
ATOM      2  C   UNL     1      77.269 -75.525  -0.823  1.00  0.00     0.000 C 
BRANCH   2   3
ATOM      3  C   UNL     1      78.630 -75.870  -1.439  1.00  0.00     0.000 C 
BRANCH   3   4
ATOM      4  C   UNL     1      78.673 -77.335  -1.891  1.00  0.00    -0.000 C 
BRANCH   4   5
ATOM      5  C   UNL     1      77.553 -78.150  -1.223  1.00  0.00    -0.000 C 
BRANCH   5   6
ATOM      6  C   UNL     1      76.655 -78.866  -2.244  1.00  0.00    -0.000 C 
BRANCH   6   7
ATOM      7  C   UNL     1      76.620 -78.148  -3.604  1.00  0.00    -0.000 C 
BRANCH   7   8
ATOM      8  C   UNL     1      75.453 -77.149  -3.725  1.00  0.00    -0.000 C 
BRANCH   8   9
ATOM      9  C   UNL     1      74.193 -77.509  -2.915  1.00  0.00    -0.000 C 
BRANCH   9  10
ATOM     10  C   UNL     1      73.587 -76.300  -2.182  1.00  0.00    -0.000 C 
BRANCH  10  11
ATOM     11  C   UNL     1      73.265 -76.607  -0.710  1.00  0.00    -0.003 C 
ATOM     12  C   UNL     1      73.713 -75.497   0.241  1.00  0.00     0.004 C 
ENDBRANCH  10  11
ENDBRANCH   9  10
ENDBRANCH   8   9
ENDBRANCH   7   8
ENDBRANCH   6   7
ENDBRANCH   5   6
ENDBRANCH   4   5
ENDBRANCH   3   4
ENDBRANCH   2   3
ENDBRANCH   1   2
BRANCH   1  13
ATOM     13  C   UNL     1      77.500 -73.850  -2.703  1.00  0.00     0.000 C 
BRANCH  13  14
ATOM     14  C   UNL     1      76.706 -73.014  -3.724  1.00  0.00     0.000 C 
BRANCH  14  15
ATOM     15  C   UNL     1      75.276 -73.513  -4.004  1.00  0.00     0.000 C 
BRANCH  15  16
ATOM     16  C   UNL     1      74.163 -72.481  -3.738  1.00  0.00     0.000 C 
BRANCH  16  17
ATOM     17  C   UNL     1      73.517 -72.613  -2.342  1.00  0.00     0.000 C 
BRANCH  17  18
ATOM     18  C   UNL     1      74.139 -71.650  -1.316  1.00  0.00     0.000 C 
BRANCH  18  19
ATOM     19  C   UNL     1      73.135 -71.185  -0.250  1.00  0.00     0.000 C 
BRANCH  19  20
ATOM     20  C   UNL     1      73.727 -70.150   0.718  1.00  0.00     0.006 C 
BRANCH  20  21
ATOM     21  C   UNL     1      72.698 -69.068   1.058  1.00  0.00     0.053 C 
BRANCH  21  22
ATOM     22  C   UNL     1      71.914 -69.449   2.276  1.00  0.00     0.041 C 
ATOM     23  O   UNL     1      72.064 -68.810   3.350  1.00  0.00    -0.550 OA
ATOM     24  O   UNL     1      71.037 -70.527   2.233  1.00  0.00    -0.550 OA
ENDBRANCH  21  22
ENDBRANCH  20  21
ENDBRANCH  19  20
ENDBRANCH  18  19
ENDBRANCH  17  18
ENDBRANCH  16  17
ENDBRANCH  15  16
ENDBRANCH  14  15
ENDBRANCH  13  14
ENDBRANCH   1  13
TORSDOF 20
ENDMDL
MODEL 5
REMARK VINA RESULT:    -3.689      0.782      1.132
REMARK INTER + INTRA:         -11.583
REMARK INTER:                  -7.859
REMARK INTRA:                  -3.724
REMARK UNBOUND:                -3.580
REMARK SMILES CCCCCCCCCCCCCCCCCCCCCC(=O)[O-]
REMARK SMILES IDX 12 1 11 2 10 3 9 4 8 5 7 6 6 7 5 8 4 9 3 10 2 11 1 12 13 13
REMARK SMILES IDX 14 14 15 15 16 16 17 17 18 18 19 19 20 20 21 21 22 22 23 23
REMARK SMILES IDX 24 24
REMARK H PARENT
REMARK Flexibility Score: inf
ROOT
ATOM      1  C   UNL     1      78.171 -77.172  -1.370  1.00  0.00     0.000 C 
ENDROOT
BRANCH   1   2
ATOM      2  C   UNL     1      77.253 -76.269  -0.538  1.00  0.00     0.000 C 
BRANCH   2   3
ATOM      3  C   UNL     1      77.045 -74.913  -1.222  1.00  0.00     0.000 C 
BRANCH   3   4
ATOM      4  C   UNL     1      77.773 -74.860  -2.570  1.00  0.00    -0.000 C 
BRANCH   4   5
ATOM      5  C   UNL     1      77.578 -73.494  -3.248  1.00  0.00    -0.000 C 
BRANCH   5   6
ATOM      6  C   UNL     1      76.216 -73.373  -3.950  1.00  0.00    -0.000 C 
BRANCH   6   7
ATOM      7  C   UNL     1      75.544 -72.012  -3.700  1.00  0.00    -0.000 C 
BRANCH   7   8
ATOM      8  C   UNL     1      74.273 -72.120  -2.837  1.00  0.00    -0.000 C 
BRANCH   8   9
ATOM      9  C   UNL     1      74.511 -72.464  -1.355  1.00  0.00    -0.000 C 
BRANCH   9  10
ATOM     10  C   UNL     1      73.260 -73.029  -0.661  1.00  0.00    -0.000 C 
BRANCH  10  11
ATOM     11  C   UNL     1      72.106 -72.015  -0.615  1.00  0.00    -0.003 C 
ATOM     12  C   UNL     1      72.314 -70.923   0.436  1.00  0.00     0.004 C 
ENDBRANCH  10  11
ENDBRANCH   9  10
ENDBRANCH   8   9
ENDBRANCH   7   8
ENDBRANCH   6   7
ENDBRANCH   5   6
ENDBRANCH   4   5
ENDBRANCH   3   4
ENDBRANCH   2   3
ENDBRANCH   1   2
BRANCH   1  13
ATOM     13  C   UNL     1      77.859 -78.654  -1.117  1.00  0.00     0.000 C 
BRANCH  13  14
ATOM     14  C   UNL     1      76.779 -79.213  -2.061  1.00  0.00     0.000 C 
BRANCH  14  15
ATOM     15  C   UNL     1      76.550 -78.396  -3.347  1.00  0.00     0.000 C 
BRANCH  15  16
ATOM     16  C   UNL     1      75.073 -78.131  -3.694  1.00  0.00     0.000 C 
BRANCH  16  17
ATOM     17  C   UNL     1      74.695 -76.633  -3.692  1.00  0.00     0.000 C 
BRANCH  17  18
ATOM     18  C   UNL     1      73.933 -76.226  -2.419  1.00  0.00     0.000 C 
BRANCH  18  19
ATOM     19  C   UNL     1      73.118 -77.381  -1.815  1.00  0.00     0.000 C 
BRANCH  19  20
ATOM     20  C   UNL     1      73.552 -77.736  -0.386  1.00  0.00     0.006 C 
BRANCH  20  21
ATOM     21  C   UNL     1      73.791 -76.471   0.444  1.00  0.00     0.053 C 
BRANCH  21  22
ATOM     22  C   UNL     1      73.006 -76.518   1.718  1.00  0.00     0.041 C 
ATOM     23  O   UNL     1      73.007 -77.561   2.423  1.00  0.00    -0.550 OA
ATOM     24  O   UNL     1      72.250 -75.420   2.113  1.00  0.00    -0.550 OA
ENDBRANCH  21  22
ENDBRANCH  20  21
ENDBRANCH  19  20
ENDBRANCH  18  19
ENDBRANCH  17  18
ENDBRANCH  16  17
ENDBRANCH  15  16
ENDBRANCH  14  15
ENDBRANCH  13  14
ENDBRANCH   1  13
TORSDOF 20
ENDMDL
MODEL 6
REMARK VINA RESULT:    -3.681      1.951      4.907
REMARK INTER + INTRA:         -11.564
REMARK INTER:                  -7.545
REMARK INTRA:                  -4.019
REMARK UNBOUND:                -3.580
REMARK SMILES CCCCCCCCCCCCCCCCCCCCCC(=O)[O-]
REMARK SMILES IDX 12 1 11 2 10 3 9 4 8 5 7 6 6 7 5 8 4 9 3 10 2 11 1 12 13 13
REMARK SMILES IDX 14 14 15 15 16 16 17 17 18 18 19 19 20 20 21 21 22 22 23 23
REMARK SMILES IDX 24 24
REMARK H PARENT
REMARK Flexibility Score: inf
ROOT
ATOM      1  C   UNL     1      77.271 -77.279  -1.341  1.00  0.00     0.000 C 
ENDROOT
BRANCH   1   2
ATOM      2  C   UNL     1      75.967 -77.912  -1.841  1.00  0.00     0.000 C 
BRANCH   2   3
ATOM      3  C   UNL     1      75.942 -77.985  -3.372  1.00  0.00     0.000 C 
BRANCH   3   4
ATOM      4  C   UNL     1      75.198 -76.784  -3.968  1.00  0.00    -0.000 C 
BRANCH   4   5
ATOM      5  C   UNL     1      74.071 -76.317  -3.033  1.00  0.00    -0.000 C 
BRANCH   5   6
ATOM      6  C   UNL     1      72.682 -76.427  -3.683  1.00  0.00    -0.000 C 
BRANCH   6   7
ATOM      7  C   UNL     1      71.956 -77.729  -3.305  1.00  0.00    -0.000 C 
BRANCH   7   8
ATOM      8  C   UNL     1      72.262 -78.191  -1.867  1.00  0.00    -0.000 C 
BRANCH   8   9
ATOM      9  C   UNL     1      71.081 -78.102  -0.882  1.00  0.00    -0.000 C 
BRANCH   9  10
ATOM     10  C   UNL     1      71.395 -77.246   0.356  1.00  0.00    -0.000 C 
BRANCH  10  11
ATOM     11  C   UNL     1      72.090 -75.924  -0.005  1.00  0.00    -0.003 C 
ATOM     12  C   UNL     1      73.458 -75.769   0.663  1.00  0.00     0.004 C 
ENDBRANCH  10  11
ENDBRANCH   9  10
ENDBRANCH   8   9
ENDBRANCH   7   8
ENDBRANCH   6   7
ENDBRANCH   5   6
ENDBRANCH   4   5
ENDBRANCH   3   4
ENDBRANCH   2   3
ENDBRANCH   1   2
BRANCH   1  13
ATOM     13  C   UNL     1      76.982 -76.102  -0.398  1.00  0.00     0.000 C 
BRANCH  13  14
ATOM     14  C   UNL     1      76.802 -74.765  -1.141  1.00  0.00     0.000 C 
BRANCH  14  15
ATOM     15  C   UNL     1      77.771 -74.535  -2.315  1.00  0.00     0.000 C 
BRANCH  15  16
ATOM     16  C   UNL     1      77.491 -73.273  -3.152  1.00  0.00     0.000 C 
BRANCH  16  17
ATOM     17  C   UNL     1      76.147 -73.317  -3.910  1.00  0.00     0.000 C 
BRANCH  17  18
ATOM     18  C   UNL     1      75.200 -72.180  -3.489  1.00  0.00     0.000 C 
BRANCH  18  19
ATOM     19  C   UNL     1      73.742 -72.641  -3.341  1.00  0.00     0.000 C 
BRANCH  19  20
ATOM     20  C   UNL     1      73.332 -72.868  -1.879  1.00  0.00     0.006 C 
BRANCH  20  21
ATOM     21  C   UNL     1      74.208 -72.045  -0.930  1.00  0.00     0.053 C 
BRANCH  21  22
ATOM     22  C   UNL     1      73.378 -71.066  -0.158  1.00  0.00     0.041 C 
ATOM     23  O   UNL     1      73.910 -70.039   0.338  1.00  0.00    -0.550 OA
ATOM     24  O   UNL     1      72.022 -71.302   0.037  1.00  0.00    -0.550 OA
ENDBRANCH  21  22
ENDBRANCH  20  21
ENDBRANCH  19  20
ENDBRANCH  18  19
ENDBRANCH  17  18
ENDBRANCH  16  17
ENDBRANCH  15  16
ENDBRANCH  14  15
ENDBRANCH  13  14
ENDBRANCH   1  13
TORSDOF 20
ENDMDL
MODEL 7
REMARK VINA RESULT:    -3.673      1.921      5.047
REMARK INTER + INTRA:         -11.546
REMARK INTER:                  -8.448
REMARK INTRA:                  -3.098
REMARK UNBOUND:                -3.580
REMARK SMILES CCCCCCCCCCCCCCCCCCCCCC(=O)[O-]
REMARK SMILES IDX 12 1 11 2 10 3 9 4 8 5 7 6 6 7 5 8 4 9 3 10 2 11 1 12 13 13
REMARK SMILES IDX 14 14 15 15 16 16 17 17 18 18 19 19 20 20 21 21 22 22 23 23
REMARK SMILES IDX 24 24
REMARK H PARENT
REMARK Flexibility Score: inf
ROOT
ATOM      1  C   UNL     1      77.541 -76.151  -0.932  1.00  0.00     0.000 C 
ENDROOT
BRANCH   1   2
ATOM      2  C   UNL     1      77.511 -77.543  -1.573  1.00  0.00     0.000 C 
BRANCH   2   3
ATOM      3  C   UNL     1      76.088 -78.113  -1.587  1.00  0.00     0.000 C 
BRANCH   3   4
ATOM      4  C   UNL     1      75.537 -78.180  -3.017  1.00  0.00    -0.000 C 
BRANCH   4   5
ATOM      5  C   UNL     1      74.189 -77.449  -3.122  1.00  0.00    -0.000 C 
BRANCH   5   6
ATOM      6  C   UNL     1      74.102 -76.235  -2.184  1.00  0.00    -0.000 C 
BRANCH   6   7
ATOM      7  C   UNL     1      72.655 -75.908  -1.778  1.00  0.00    -0.000 C 
BRANCH   7   8
ATOM      8  C   UNL     1      72.532 -75.447  -0.313  1.00  0.00    -0.000 C 
BRANCH   8   9
ATOM      9  C   UNL     1      73.711 -75.834   0.600  1.00  0.00    -0.000 C 
BRANCH   9  10
ATOM     10  C   UNL     1      73.378 -76.997   1.550  1.00  0.00    -0.000 C 
BRANCH  10  11
ATOM     11  C   UNL     1      72.780 -76.515   2.881  1.00  0.00    -0.003 C 
ATOM     12  C   UNL     1      73.498 -77.094   4.101  1.00  0.00     0.004 C 
ENDBRANCH  10  11
ENDBRANCH   9  10
ENDBRANCH   8   9
ENDBRANCH   7   8
ENDBRANCH   6   7
ENDBRANCH   5   6
ENDBRANCH   4   5
ENDBRANCH   3   4
ENDBRANCH   2   3
ENDBRANCH   1   2
BRANCH   1  13
ATOM     13  C   UNL     1      78.222 -75.134  -1.860  1.00  0.00     0.000 C 
BRANCH  13  14
ATOM     14  C   UNL     1      77.850 -75.329  -3.342  1.00  0.00     0.000 C 
BRANCH  14  15
ATOM     15  C   UNL     1      76.795 -74.347  -3.885  1.00  0.00     0.000 C 
BRANCH  15  16
ATOM     16  C   UNL     1      77.030 -72.870  -3.514  1.00  0.00     0.000 C 
BRANCH  16  17
ATOM     17  C   UNL     1      75.769 -71.989  -3.653  1.00  0.00     0.000 C 
BRANCH  17  18
ATOM     18  C   UNL     1      74.547 -72.602  -2.947  1.00  0.00     0.000 C 
BRANCH  18  19
ATOM     19  C   UNL     1      74.661 -72.561  -1.415  1.00  0.00     0.000 C 
BRANCH  19  20
ATOM     20  C   UNL     1      73.459 -71.880  -0.744  1.00  0.00     0.006 C 
BRANCH  20  21
ATOM     21  C   UNL     1      73.868 -70.546  -0.112  1.00  0.00     0.053 C 
BRANCH  21  22
ATOM     22  C   UNL     1      72.789 -70.037   0.792  1.00  0.00     0.041 C 
ATOM     23  O   UNL     1      71.764 -70.735   1.010  1.00  0.00    -0.550 OA
ATOM     24  O   UNL     1      72.901 -68.778   1.373  1.00  0.00    -0.550 OA
ENDBRANCH  21  22
ENDBRANCH  20  21
ENDBRANCH  19  20
ENDBRANCH  18  19
ENDBRANCH  17  18
ENDBRANCH  16  17
ENDBRANCH  15  16
ENDBRANCH  14  15
ENDBRANCH  13  14
ENDBRANCH   1  13
TORSDOF 20
ENDMDL
MODEL 8
REMARK VINA RESULT:    -3.666      1.497      2.707
REMARK INTER + INTRA:         -11.533
REMARK INTER:                  -8.575
REMARK INTRA:                  -2.958
REMARK UNBOUND:                -3.580
REMARK SMILES CCCCCCCCCCCCCCCCCCCCCC(=O)[O-]
REMARK SMILES IDX 12 1 11 2 10 3 9 4 8 5 7 6 6 7 5 8 4 9 3 10 2 11 1 12 13 13
REMARK SMILES IDX 14 14 15 15 16 16 17 17 18 18 19 19 20 20 21 21 22 22 23 23
REMARK SMILES IDX 24 24
REMARK H PARENT
REMARK Flexibility Score: inf
ROOT
ATOM      1  C   UNL     1      76.730 -76.207  -0.333  1.00  0.00     0.000 C 
ENDROOT
BRANCH   1   2
ATOM      2  C   UNL     1      77.323 -76.367  -1.737  1.00  0.00     0.000 C 
BRANCH   2   3
ATOM      3  C   UNL     1      78.025 -75.080  -2.189  1.00  0.00     0.000 C 
BRANCH   3   4
ATOM      4  C   UNL     1      77.335 -74.481  -3.420  1.00  0.00    -0.000 C 
BRANCH   4   5
ATOM      5  C   UNL     1      77.488 -72.951  -3.445  1.00  0.00    -0.000 C 
BRANCH   5   6
ATOM      6  C   UNL     1      76.174 -72.232  -3.793  1.00  0.00    -0.000 C 
BRANCH   6   7
ATOM      7  C   UNL     1      74.947 -73.149  -3.653  1.00  0.00    -0.000 C 
BRANCH   7   8
ATOM      8  C   UNL     1      73.898 -72.601  -2.666  1.00  0.00    -0.000 C 
BRANCH   8   9
ATOM      9  C   UNL     1      74.409 -72.347  -1.236  1.00  0.00    -0.000 C 
BRANCH   9  10
ATOM     10  C   UNL     1      73.407 -71.563  -0.371  1.00  0.00    -0.000 C 
BRANCH  10  11
ATOM     11  C   UNL     1      73.922 -70.164   0.003  1.00  0.00    -0.003 C 
ATOM     12  C   UNL     1      73.057 -69.473   1.057  1.00  0.00     0.004 C 
ENDBRANCH  10  11
ENDBRANCH   9  10
ENDBRANCH   8   9
ENDBRANCH   7   8
ENDBRANCH   6   7
ENDBRANCH   5   6
ENDBRANCH   4   5
ENDBRANCH   3   4
ENDBRANCH   2   3
ENDBRANCH   1   2
BRANCH   1  13
ATOM     13  C   UNL     1      75.244 -75.828  -0.405  1.00  0.00     0.000 C 
BRANCH  13  14
ATOM     14  C   UNL     1      74.565 -76.296  -1.706  1.00  0.00     0.000 C 
BRANCH  14  15
ATOM     15  C   UNL     1      73.025 -76.276  -1.682  1.00  0.00     0.000 C 
BRANCH  15  16
ATOM     16  C   UNL     1      72.403 -75.329  -0.638  1.00  0.00     0.000 C 
BRANCH  16  17
ATOM     17  C   UNL     1      71.560 -76.055   0.433  1.00  0.00     0.000 C 
BRANCH  17  18
ATOM     18  C   UNL     1      71.762 -77.580   0.400  1.00  0.00     0.000 C 
BRANCH  18  19
ATOM     19  C   UNL     1      72.472 -78.115   1.653  1.00  0.00     0.000 C 
BRANCH  19  20
ATOM     20  C   UNL     1      73.003 -76.999   2.563  1.00  0.00     0.006 C 
BRANCH  20  21
ATOM     21  C   UNL     1      73.080 -77.469   4.019  1.00  0.00     0.053 C 
BRANCH  21  22
ATOM     22  C   UNL     1      72.848 -76.326   4.957  1.00  0.00     0.041 C 
ATOM     23  O   UNL     1      73.426 -76.298   6.075  1.00  0.00    -0.550 OA
ATOM     24  O   UNL     1      71.971 -75.303   4.610  1.00  0.00    -0.550 OA
ENDBRANCH  21  22
ENDBRANCH  20  21
ENDBRANCH  19  20
ENDBRANCH  18  19
ENDBRANCH  17  18
ENDBRANCH  16  17
ENDBRANCH  15  16
ENDBRANCH  14  15
ENDBRANCH  13  14
ENDBRANCH   1  13
TORSDOF 20
ENDMDL
MODEL 9
REMARK VINA RESULT:    -3.633      2.309      4.796
REMARK INTER + INTRA:         -11.460
REMARK INTER:                  -8.188
REMARK INTRA:                  -3.273
REMARK UNBOUND:                -3.580
REMARK SMILES CCCCCCCCCCCCCCCCCCCCCC(=O)[O-]
REMARK SMILES IDX 12 1 11 2 10 3 9 4 8 5 7 6 6 7 5 8 4 9 3 10 2 11 1 12 13 13
REMARK SMILES IDX 14 14 15 15 16 16 17 17 18 18 19 19 20 20 21 21 22 22 23 23
REMARK SMILES IDX 24 24
REMARK H PARENT
REMARK Flexibility Score: inf
ROOT
ATOM      1  C   UNL     1      77.878 -76.832  -0.752  1.00  0.00     0.000 C 
ENDROOT
BRANCH   1   2
ATOM      2  C   UNL     1      78.290 -78.030  -1.617  1.00  0.00     0.000 C 
BRANCH   2   3
ATOM      3  C   UNL     1      77.209 -79.117  -1.603  1.00  0.00     0.000 C 
BRANCH   3   4
ATOM      4  C   UNL     1      76.935 -79.637  -3.020  1.00  0.00    -0.000 C 
BRANCH   4   5
ATOM      5  C   UNL     1      75.955 -78.716  -3.764  1.00  0.00    -0.000 C 
BRANCH   5   6
ATOM      6  C   UNL     1      74.751 -78.313  -2.899  1.00  0.00    -0.000 C 
BRANCH   6   7
ATOM      7  C   UNL     1      74.522 -76.791  -2.881  1.00  0.00    -0.000 C 
BRANCH   7   8
ATOM      8  C   UNL     1      73.034 -76.410  -2.767  1.00  0.00    -0.000 C 
BRANCH   8   9
ATOM      9  C   UNL     1      72.394 -75.865  -4.057  1.00  0.00    -0.000 C 
BRANCH   9  10
ATOM     10  C   UNL     1      71.139 -75.015  -3.792  1.00  0.00    -0.000 C 
BRANCH  10  11
ATOM     11  C   UNL     1      71.470 -73.531  -3.572  1.00  0.00    -0.003 C 
ATOM     12  C   UNL     1      70.725 -72.924  -2.383  1.00  0.00     0.004 C 
ENDBRANCH  10  11
ENDBRANCH   9  10
ENDBRANCH   8   9
ENDBRANCH   7   8
ENDBRANCH   6   7
ENDBRANCH   5   6
ENDBRANCH   4   5
ENDBRANCH   3   4
ENDBRANCH   2   3
ENDBRANCH   1   2
BRANCH   1  13
ATOM     13  C   UNL     1      77.843 -75.542  -1.584  1.00  0.00     0.000 C 
BRANCH  13  14
ATOM     14  C   UNL     1      78.044 -75.790  -3.090  1.00  0.00     0.000 C 
BRANCH  14  15
ATOM     15  C   UNL     1      77.519 -74.673  -4.012  1.00  0.00     0.000 C 
BRANCH  15  16
ATOM     16  C   UNL     1      77.467 -73.273  -3.371  1.00  0.00     0.000 C 
BRANCH  16  17
ATOM     17  C   UNL     1      76.243 -72.438  -3.805  1.00  0.00     0.000 C 
BRANCH  17  18
ATOM     18  C   UNL     1      74.938 -72.937  -3.162  1.00  0.00     0.000 C 
BRANCH  18  19
ATOM     19  C   UNL     1      75.142 -73.472  -1.736  1.00  0.00     0.000 C 
BRANCH  19  20
ATOM     20  C   UNL     1      74.185 -72.837  -0.716  1.00  0.00     0.006 C 
BRANCH  20  21
ATOM     21  C   UNL     1      73.913 -71.370  -1.061  1.00  0.00     0.053 C 
BRANCH  21  22
ATOM     22  C   UNL     1      73.214 -70.682   0.070  1.00  0.00     0.041 C 
ATOM     23  O   UNL     1      72.125 -71.135   0.510  1.00  0.00    -0.550 OA
ATOM     24  O   UNL     1      73.751 -69.523   0.622  1.00  0.00    -0.550 OA
ENDBRANCH  21  22
ENDBRANCH  20  21
ENDBRANCH  19  20
ENDBRANCH  18  19
ENDBRANCH  17  18
ENDBRANCH  16  17
ENDBRANCH  15  16
ENDBRANCH  14  15
ENDBRANCH  13  14
ENDBRANCH   1  13
TORSDOF 20
ENDMDL
