MODEL 1
REMARK VINA RESULT:    -4.851      0.000      0.000
REMARK INTER + INTRA:         -10.183
REMARK INTER:                  -8.253
REMARK INTRA:                  -1.929
REMARK UNBOUND:                -1.929
REMARK SMILES CCCCCCCCCCCCCC(=O)[O-]
REMARK SMILES IDX 8 1 9 2 10 3 11 4 12 5 13 6 14 7 15 8 16 9 7 10 6 11 5 12
REMARK SMILES IDX 4 13 3 14 2 15 1 16
REMARK H PARENT
REMARK Flexibility Score: inf
ROOT
ATOM      1  C   UNL     1      10.989  14.452  72.255  1.00  0.00     0.000 C 
ENDROOT
BRANCH   1   2
ATOM      2  C   UNL     1      11.793  15.741  72.026  1.00  0.00     0.000 C 
BRANCH   2   3
ATOM      3  C   UNL     1      10.948  16.857  71.389  1.00  0.00     0.000 C 
BRANCH   3   4
ATOM      4  C   UNL     1      11.593  17.431  70.117  1.00  0.00     0.000 C 
BRANCH   4   5
ATOM      5  C   UNL     1      10.554  17.888  69.078  1.00  0.00     0.006 C 
BRANCH   5   6
ATOM      6  C   UNL     1      10.540  16.983  67.838  1.00  0.00     0.053 C 
BRANCH   6   7
ATOM      7  C   UNL     1      11.592  17.382  66.849  1.00  0.00     0.041 C 
ATOM      8  O   UNL     1      12.443  16.541  66.456  1.00  0.00    -0.550 OA
ATOM      9  O   UNL     1      11.610  18.673  66.336  1.00  0.00    -0.550 OA
ENDBRANCH   6   7
ENDBRANCH   5   6
ENDBRANCH   4   5
ENDBRANCH   3   4
ENDBRANCH   2   3
ENDBRANCH   1   2
BRANCH   1  10
ATOM     10  C   UNL     1      11.363  13.335  71.263  1.00  0.00     0.000 C 
BRANCH  10  11
ATOM     11  C   UNL     1      10.668  13.495  69.900  1.00  0.00    -0.000 C 
BRANCH  11  12
ATOM     12  C   UNL     1      11.668  13.618  68.738  1.00  0.00    -0.000 C 
BRANCH  12  13
ATOM     13  C   UNL     1      13.129  13.714  69.213  1.00  0.00    -0.000 C 
BRANCH  13  14
ATOM     14  C   UNL     1      13.849  15.026  68.852  1.00  0.00    -0.000 C 
BRANCH  14  15
ATOM     15  C   UNL     1      14.912  15.430  69.885  1.00  0.00    -0.003 C 
ATOM     16  C   UNL     1      15.355  14.229  70.716  1.00  0.00     0.004 C 
ENDBRANCH  14  15
ENDBRANCH  13  14
ENDBRANCH  12  13
ENDBRANCH  11  12
ENDBRANCH  10  11
ENDBRANCH   1  10
TORSDOF 12
ENDMDL
MODEL 2
REMARK VINA RESULT:    -4.827      1.521      3.285
REMARK INTER + INTRA:         -10.142
REMARK INTER:                  -8.434
REMARK INTRA:                  -1.708
REMARK UNBOUND:                -1.929
REMARK SMILES CCCCCCCCCCCCCC(=O)[O-]
REMARK SMILES IDX 8 1 9 2 10 3 11 4 12 5 13 6 14 7 15 8 16 9 7 10 6 11 5 12
REMARK SMILES IDX 4 13 3 14 2 15 1 16
REMARK H PARENT
REMARK Flexibility Score: inf
ROOT
ATOM      1  C   UNL     1      13.960  16.031  70.248  1.00  0.00     0.000 C 
ENDROOT
BRANCH   1   2
ATOM      2  C   UNL     1      13.105  17.086  70.968  1.00  0.00     0.000 C 
BRANCH   2   3
ATOM      3  C   UNL     1      12.225  16.477  72.073  1.00  0.00     0.000 C 
BRANCH   3   4
ATOM      4  C   UNL     1      10.731  16.489  71.710  1.00  0.00     0.000 C 
BRANCH   4   5
ATOM      5  C   UNL     1      10.401  17.486  70.586  1.00  0.00     0.006 C 
BRANCH   5   6
ATOM      6  C   UNL     1       9.791  16.794  69.360  1.00  0.00     0.053 C 
BRANCH   6   7
ATOM      7  C   UNL     1      10.615  17.021  68.129  1.00  0.00     0.041 C 
ATOM      8  O   UNL     1      10.697  16.125  67.248  1.00  0.00    -0.550 OA
ATOM      9  O   UNL     1      11.262  18.236  67.940  1.00  0.00    -0.550 OA
ENDBRANCH   6   7
ENDBRANCH   5   6
ENDBRANCH   4   5
ENDBRANCH   3   4
ENDBRANCH   2   3
ENDBRANCH   1   2
BRANCH   1  10
ATOM     10  C   UNL     1      13.851  14.638  70.894  1.00  0.00     0.000 C 
BRANCH  10  11
ATOM     11  C   UNL     1      13.845  13.502  69.858  1.00  0.00    -0.000 C 
BRANCH  11  12
ATOM     12  C   UNL     1      12.544  13.458  69.038  1.00  0.00    -0.000 C 
BRANCH  12  13
ATOM     13  C   UNL     1      11.283  13.381  69.919  1.00  0.00    -0.000 C 
BRANCH  13  14
ATOM     14  C   UNL     1       9.961  13.189  69.153  1.00  0.00    -0.000 C 
BRANCH  14  15
ATOM     15  C   UNL     1      10.058  12.126  68.049  1.00  0.00    -0.003 C 
ATOM     16  C   UNL     1       9.410  10.816  68.489  1.00  0.00     0.004 C 
ENDBRANCH  14  15
ENDBRANCH  13  14
ENDBRANCH  12  13
ENDBRANCH  11  12
ENDBRANCH  10  11
ENDBRANCH   1  10
TORSDOF 12
ENDMDL
MODEL 3
REMARK VINA RESULT:    -4.812      2.759      3.868
REMARK INTER + INTRA:         -10.118
REMARK INTER:                  -8.258
REMARK INTRA:                  -1.859
REMARK UNBOUND:                -1.929
REMARK SMILES CCCCCCCCCCCCCC(=O)[O-]
REMARK SMILES IDX 8 1 9 2 10 3 11 4 12 5 13 6 14 7 15 8 16 9 7 10 6 11 5 12
REMARK SMILES IDX 4 13 3 14 2 15 1 16
REMARK H PARENT
REMARK Flexibility Score: inf
ROOT
ATOM      1  C   UNL     1       9.139  15.655  68.506  1.00  0.00     0.000 C 
ENDROOT
BRANCH   1   2
ATOM      2  C   UNL     1      10.254  16.518  67.891  1.00  0.00     0.000 C 
BRANCH   2   3
ATOM      3  C   UNL     1      10.494  17.818  68.678  1.00  0.00     0.000 C 
BRANCH   3   4
ATOM      4  C   UNL     1      11.604  17.672  69.732  1.00  0.00     0.000 C 
BRANCH   4   5
ATOM      5  C   UNL     1      11.062  17.262  71.112  1.00  0.00     0.006 C 
BRANCH   5   6
ATOM      6  C   UNL     1      11.821  16.064  71.699  1.00  0.00     0.053 C 
BRANCH   6   7
ATOM      7  C   UNL     1      10.951  15.244  72.600  1.00  0.00     0.041 C 
ATOM      8  O   UNL     1      10.134  15.806  73.377  1.00  0.00    -0.550 OA
ATOM      9  O   UNL     1      11.017  13.857  72.557  1.00  0.00    -0.550 OA
ENDBRANCH   6   7
ENDBRANCH   5   6
ENDBRANCH   4   5
ENDBRANCH   3   4
ENDBRANCH   2   3
ENDBRANCH   1   2
BRANCH   1  10
ATOM     10  C   UNL     1       9.576  14.197  68.734  1.00  0.00     0.000 C 
BRANCH  10  11
ATOM     11  C   UNL     1      10.882  13.847  68.001  1.00  0.00    -0.000 C 
BRANCH  11  12
ATOM     12  C   UNL     1      11.730  12.816  68.765  1.00  0.00    -0.000 C 
BRANCH  12  13
ATOM     13  C   UNL     1      13.002  13.426  69.383  1.00  0.00    -0.000 C 
BRANCH  13  14
ATOM     14  C   UNL     1      13.486  14.732  68.727  1.00  0.00    -0.000 C 
BRANCH  14  15
ATOM     15  C   UNL     1      14.702  15.345  69.439  1.00  0.00    -0.003 C 
ATOM     16  C   UNL     1      15.226  14.416  70.530  1.00  0.00     0.004 C 
ENDBRANCH  14  15
ENDBRANCH  13  14
ENDBRANCH  12  13
ENDBRANCH  11  12
ENDBRANCH  10  11
ENDBRANCH   1  10
TORSDOF 12
ENDMDL
MODEL 4
REMARK VINA RESULT:    -4.784      1.074      2.781
REMARK INTER + INTRA:         -10.069
REMARK INTER:                  -8.096
REMARK INTRA:                  -1.973
REMARK UNBOUND:                -1.929
REMARK SMILES CCCCCCCCCCCCCC(=O)[O-]
REMARK SMILES IDX 8 1 9 2 10 3 11 4 12 5 13 6 14 7 15 8 16 9 7 10 6 11 5 12
REMARK SMILES IDX 4 13 3 14 2 15 1 16
REMARK H PARENT
REMARK Flexibility Score: inf
ROOT
ATOM      1  C   UNL     1      11.702  15.815  72.065  1.00  0.00     0.000 C 
ENDROOT
BRANCH   1   2
ATOM      2  C   UNL     1      10.366  16.575  72.108  1.00  0.00     0.000 C 
BRANCH   2   3
ATOM      3  C   UNL     1      10.103  17.378  70.822  1.00  0.00     0.000 C 
BRANCH   3   4
ATOM      4  C   UNL     1       9.303  16.577  69.781  1.00  0.00     0.000 C 
BRANCH   4   5
ATOM      5  C   UNL     1       9.988  16.542  68.404  1.00  0.00     0.006 C 
BRANCH   5   6
ATOM      6  C   UNL     1      10.863  17.780  68.161  1.00  0.00     0.053 C 
BRANCH   6   7
ATOM      7  C   UNL     1      11.698  17.635  66.926  1.00  0.00     0.041 C 
ATOM      8  O   UNL     1      11.811  18.596  66.121  1.00  0.00    -0.550 OA
ATOM      9  O   UNL     1      12.380  16.449  66.684  1.00  0.00    -0.550 OA
ENDBRANCH   6   7
ENDBRANCH   5   6
ENDBRANCH   4   5
ENDBRANCH   3   4
ENDBRANCH   2   3
ENDBRANCH   1   2
BRANCH   1  10
ATOM     10  C   UNL     1      12.830  16.636  71.414  1.00  0.00     0.000 C 
BRANCH  10  11
ATOM     11  C   UNL     1      13.441  15.937  70.188  1.00  0.00    -0.000 C 
BRANCH  11  12
ATOM     12  C   UNL     1      14.103  14.594  70.542  1.00  0.00    -0.000 C 
BRANCH  12  13
ATOM     13  C   UNL     1      13.619  13.434  69.654  1.00  0.00    -0.000 C 
BRANCH  13  14
ATOM     14  C   UNL     1      12.297  13.690  68.906  1.00  0.00    -0.000 C 
BRANCH  14  15
ATOM     15  C   UNL     1      11.074  13.123  69.641  1.00  0.00    -0.003 C 
ATOM     16  C   UNL     1       9.922  12.865  68.674  1.00  0.00     0.004 C 
ENDBRANCH  14  15
ENDBRANCH  13  14
ENDBRANCH  12  13
ENDBRANCH  11  12
ENDBRANCH  10  11
ENDBRANCH   1  10
TORSDOF 12
ENDMDL
MODEL 5
REMARK VINA RESULT:    -4.751      2.633      4.701
REMARK INTER + INTRA:         -10.014
REMARK INTER:                  -8.138
REMARK INTRA:                  -1.875
REMARK UNBOUND:                -1.929
REMARK SMILES CCCCCCCCCCCCCC(=O)[O-]
REMARK SMILES IDX 8 1 9 2 10 3 11 4 12 5 13 6 14 7 15 8 16 9 7 10 6 11 5 12
REMARK SMILES IDX 4 13 3 14 2 15 1 16
REMARK H PARENT
REMARK Flexibility Score: inf
ROOT
ATOM      1  C   UNL     1      12.222  15.784  66.882  1.00  0.00     0.000 C 
ENDROOT
BRANCH   1   2
ATOM      2  C   UNL     1      11.393  16.801  67.683  1.00  0.00     0.000 C 
BRANCH   2   3
ATOM      3  C   UNL     1       9.927  16.367  67.846  1.00  0.00     0.000 C 
BRANCH   3   4
ATOM      4  C   UNL     1       9.478  16.347  69.316  1.00  0.00     0.000 C 
BRANCH   4   5
ATOM      5  C   UNL     1      10.387  17.191  70.226  1.00  0.00     0.006 C 
BRANCH   5   6
ATOM      6  C   UNL     1      10.134  16.914  71.714  1.00  0.00     0.053 C 
BRANCH   6   7
ATOM      7  C   UNL     1      11.205  16.051  72.307  1.00  0.00     0.041 C 
ATOM      8  O   UNL     1      12.373  16.498  72.450  1.00  0.00    -0.550 OA
ATOM      9  O   UNL     1      10.903  14.764  72.735  1.00  0.00    -0.550 OA
ENDBRANCH   6   7
ENDBRANCH   5   6
ENDBRANCH   4   5
ENDBRANCH   3   4
ENDBRANCH   2   3
ENDBRANCH   1   2
BRANCH   1  10
ATOM     10  C   UNL     1      13.527  15.387  67.597  1.00  0.00     0.000 C 
BRANCH  10  11
ATOM     11  C   UNL     1      13.374  15.342  69.127  1.00  0.00    -0.000 C 
BRANCH  11  12
ATOM     12  C   UNL     1      13.236  13.908  69.665  1.00  0.00    -0.000 C 
BRANCH  12  13
ATOM     13  C   UNL     1      11.777  13.419  69.701  1.00  0.00    -0.000 C 
BRANCH  13  14
ATOM     14  C   UNL     1      11.325  12.616  68.467  1.00  0.00    -0.000 C 
BRANCH  14  15
ATOM     15  C   UNL     1       9.810  12.363  68.440  1.00  0.00    -0.003 C 
ATOM     16  C   UNL     1       9.502  10.868  68.463  1.00  0.00     0.004 C 
ENDBRANCH  14  15
ENDBRANCH  13  14
ENDBRANCH  12  13
ENDBRANCH  11  12
ENDBRANCH  10  11
ENDBRANCH   1  10
TORSDOF 12
ENDMDL
MODEL 6
REMARK VINA RESULT:    -4.751      2.328      4.566
REMARK INTER + INTRA:         -10.013
REMARK INTER:                  -7.956
REMARK INTRA:                  -2.058
REMARK UNBOUND:                -1.929
REMARK SMILES CCCCCCCCCCCCCC(=O)[O-]
REMARK SMILES IDX 8 1 9 2 10 3 11 4 12 5 13 6 14 7 15 8 16 9 7 10 6 11 5 12
REMARK SMILES IDX 4 13 3 14 2 15 1 16
REMARK H PARENT
REMARK Flexibility Score: inf
ROOT
ATOM      1  C   UNL     1      13.148  16.891  71.433  1.00  0.00     0.000 C 
ENDROOT
BRANCH   1   2
ATOM      2  C   UNL     1      13.894  16.107  70.341  1.00  0.00     0.000 C 
BRANCH   2   3
ATOM      3  C   UNL     1      13.980  14.603  70.650  1.00  0.00     0.000 C 
BRANCH   3   4
ATOM      4  C   UNL     1      13.506  13.732  69.475  1.00  0.00     0.000 C 
BRANCH   4   5
ATOM      5  C   UNL     1      12.104  13.141  69.703  1.00  0.00     0.006 C 
BRANCH   5   6
ATOM      6  C   UNL     1      11.424  12.740  68.386  1.00  0.00     0.053 C 
BRANCH   6   7
ATOM      7  C   UNL     1       9.950  12.543  68.561  1.00  0.00     0.041 C 
ATOM      8  O   UNL     1       9.193  13.534  68.731  1.00  0.00    -0.550 OA
ATOM      9  O   UNL     1       9.408  11.265  68.500  1.00  0.00    -0.550 OA
ENDBRANCH   6   7
ENDBRANCH   5   6
ENDBRANCH   4   5
ENDBRANCH   3   4
ENDBRANCH   2   3
ENDBRANCH   1   2
BRANCH   1  10
ATOM     10  C   UNL     1      11.957  16.109  72.016  1.00  0.00     0.000 C 
BRANCH  10  11
ATOM     11  C   UNL     1      10.603  16.762  71.694  1.00  0.00    -0.000 C 
BRANCH  11  12
ATOM     12  C   UNL     1      10.109  16.429  70.275  1.00  0.00    -0.000 C 
BRANCH  12  13
ATOM     13  C   UNL     1      10.139  17.644  69.329  1.00  0.00    -0.000 C 
BRANCH  13  14
ATOM     14  C   UNL     1      11.230  17.601  68.244  1.00  0.00    -0.000 C 
BRANCH  14  15
ATOM     15  C   UNL     1      11.259  16.271  67.476  1.00  0.00    -0.003 C 
ATOM     16  C   UNL     1      12.603  16.064  66.784  1.00  0.00     0.004 C 
ENDBRANCH  14  15
ENDBRANCH  13  14
ENDBRANCH  12  13
ENDBRANCH  11  12
ENDBRANCH  10  11
ENDBRANCH   1  10
TORSDOF 12
ENDMDL
MODEL 7
REMARK VINA RESULT:    -4.741      2.310      4.942
REMARK INTER + INTRA:          -9.996
REMARK INTER:                  -8.033
REMARK INTRA:                  -1.963
REMARK UNBOUND:                -1.929
REMARK SMILES CCCCCCCCCCCCCC(=O)[O-]
REMARK SMILES IDX 8 1 9 2 10 3 11 4 12 5 13 6 14 7 15 8 16 9 7 10 6 11 5 12
REMARK SMILES IDX 4 13 3 14 2 15 1 16
REMARK H PARENT
REMARK Flexibility Score: inf
ROOT
ATOM      1  C   UNL     1      13.191  14.974  67.726  1.00  0.00     0.000 C 
ENDROOT
BRANCH   1   2
ATOM      2  C   UNL     1      13.829  15.435  69.047  1.00  0.00     0.000 C 
BRANCH   2   3
ATOM      3  C   UNL     1      13.216  14.737  70.272  1.00  0.00     0.000 C 
BRANCH   3   4
ATOM      4  C   UNL     1      12.499  13.427  69.906  1.00  0.00     0.000 C 
BRANCH   4   5
ATOM      5  C   UNL     1      11.041  13.391  70.394  1.00  0.00     0.006 C 
BRANCH   5   6
ATOM      6  C   UNL     1      10.041  13.568  69.243  1.00  0.00     0.053 C 
BRANCH   6   7
ATOM      7  C   UNL     1      10.027  12.378  68.333  1.00  0.00     0.041 C 
ATOM      8  O   UNL     1      10.524  12.456  67.180  1.00  0.00    -0.550 OA
ATOM      9  O   UNL     1       9.496  11.173  68.775  1.00  0.00    -0.550 OA
ENDBRANCH   6   7
ENDBRANCH   5   6
ENDBRANCH   4   5
ENDBRANCH   3   4
ENDBRANCH   2   3
ENDBRANCH   1   2
BRANCH   1  10
ATOM     10  C   UNL     1      12.575  16.137  66.927  1.00  0.00     0.000 C 
BRANCH  10  11
ATOM     11  C   UNL     1      11.141  16.468  67.372  1.00  0.00    -0.000 C 
BRANCH  11  12
ATOM     12  C   UNL     1      11.055  17.792  68.150  1.00  0.00    -0.000 C 
BRANCH  12  13
ATOM     13  C   UNL     1      11.037  17.591  69.676  1.00  0.00    -0.000 C 
BRANCH  13  14
ATOM     14  C   UNL     1       9.669  17.207  70.270  1.00  0.00    -0.000 C 
BRANCH  14  15
ATOM     15  C   UNL     1       9.624  17.332  71.800  1.00  0.00    -0.003 C 
ATOM     16  C   UNL     1      10.605  16.367  72.459  1.00  0.00     0.004 C 
ENDBRANCH  14  15
ENDBRANCH  13  14
ENDBRANCH  12  13
ENDBRANCH  11  12
ENDBRANCH  10  11
ENDBRANCH   1  10
TORSDOF 12
ENDMDL
MODEL 8
REMARK VINA RESULT:    -4.697      2.324      4.735
REMARK INTER + INTRA:          -9.921
REMARK INTER:                  -7.997
REMARK INTRA:                  -1.925
REMARK UNBOUND:                -1.929
REMARK SMILES CCCCCCCCCCCCCC(=O)[O-]
REMARK SMILES IDX 8 1 9 2 10 3 11 4 12 5 13 6 14 7 15 8 16 9 7 10 6 11 5 12
REMARK SMILES IDX 4 13 3 14 2 15 1 16
REMARK H PARENT
REMARK Flexibility Score: inf
ROOT
ATOM      1  C   UNL     1      11.466  13.630  71.370  1.00  0.00     0.000 C 
ENDROOT
BRANCH   1   2
ATOM      2  C   UNL     1      10.657  13.428  70.079  1.00  0.00     0.000 C 
BRANCH   2   3
ATOM      3  C   UNL     1      11.552  13.324  68.833  1.00  0.00     0.000 C 
BRANCH   3   4
ATOM      4  C   UNL     1      13.042  13.514  69.161  1.00  0.00     0.000 C 
BRANCH   4   5
ATOM      5  C   UNL     1      13.592  14.862  68.663  1.00  0.00     0.006 C 
BRANCH   5   6
ATOM      6  C   UNL     1      14.442  15.569  69.728  1.00  0.00     0.053 C 
BRANCH   6   7
ATOM      7  C   UNL     1      15.614  14.736  70.144  1.00  0.00     0.041 C 
ATOM      8  O   UNL     1      16.671  14.741  69.460  1.00  0.00    -0.550 OA
ATOM      9  O   UNL     1      15.551  13.980  71.308  1.00  0.00    -0.550 OA
ENDBRANCH   6   7
ENDBRANCH   5   6
ENDBRANCH   4   5
ENDBRANCH   3   4
ENDBRANCH   2   3
ENDBRANCH   1   2
BRANCH   1  10
ATOM     10  C   UNL     1      11.016  14.871  72.164  1.00  0.00     0.000 C 
BRANCH  10  11
ATOM     11  C   UNL     1      11.523  16.185  71.547  1.00  0.00    -0.000 C 
BRANCH  11  12
ATOM     12  C   UNL     1      10.376  17.122  71.130  1.00  0.00    -0.000 C 
BRANCH  12  13
ATOM     13  C   UNL     1      10.409  17.480  69.633  1.00  0.00    -0.000 C 
BRANCH  13  14
ATOM     14  C   UNL     1       9.664  16.499  68.709  1.00  0.00    -0.000 C 
BRANCH  14  15
ATOM     15  C   UNL     1      10.283  16.409  67.307  1.00  0.00    -0.003 C 
ATOM     16  C   UNL     1      11.393  17.441  67.129  1.00  0.00     0.004 C 
ENDBRANCH  14  15
ENDBRANCH  13  14
ENDBRANCH  12  13
ENDBRANCH  11  12
ENDBRANCH  10  11
ENDBRANCH   1  10
TORSDOF 12
ENDMDL
MODEL 9
REMARK VINA RESULT:    -4.678      1.354      3.893
REMARK INTER + INTRA:          -9.889
REMARK INTER:                  -7.924
REMARK INTRA:                  -1.965
REMARK UNBOUND:                -1.929
REMARK SMILES CCCCCCCCCCCCCC(=O)[O-]
REMARK SMILES IDX 8 1 9 2 10 3 11 4 12 5 13 6 14 7 15 8 16 9 7 10 6 11 5 12
REMARK SMILES IDX 4 13 3 14 2 15 1 16
REMARK H PARENT
REMARK Flexibility Score: inf
ROOT
ATOM      1  C   UNL     1      13.109  13.648  69.277  1.00  0.00     0.000 C 
ENDROOT
BRANCH   1   2
ATOM      2  C   UNL     1      11.621  13.308  69.460  1.00  0.00     0.000 C 
BRANCH   2   3
ATOM      3  C   UNL     1      10.758  13.787  68.280  1.00  0.00     0.000 C 
BRANCH   3   4
ATOM      4  C   UNL     1       9.565  14.645  68.733  1.00  0.00     0.000 C 
BRANCH   4   5
ATOM      5  C   UNL     1       9.682  16.110  68.280  1.00  0.00     0.006 C 
BRANCH   5   6
ATOM      6  C   UNL     1      11.014  16.393  67.573  1.00  0.00     0.053 C 
BRANCH   6   7
ATOM      7  C   UNL     1      11.273  17.863  67.445  1.00  0.00     0.041 C 
ATOM      8  O   UNL     1      11.120  18.622  68.438  1.00  0.00    -0.550 OA
ATOM      9  O   UNL     1      11.717  18.388  66.238  1.00  0.00    -0.550 OA
ENDBRANCH   6   7
ENDBRANCH   5   6
ENDBRANCH   4   5
ENDBRANCH   3   4
ENDBRANCH   2   3
ENDBRANCH   1   2
BRANCH   1  10
ATOM     10  C   UNL     1      13.672  14.489  70.438  1.00  0.00     0.000 C 
BRANCH  10  11
ATOM     11  C   UNL     1      13.703  15.993  70.120  1.00  0.00    -0.000 C 
BRANCH  11  12
ATOM     12  C   UNL     1      12.736  16.802  71.001  1.00  0.00    -0.000 C 
BRANCH  12  13
ATOM     13  C   UNL     1      12.087  15.958  72.112  1.00  0.00    -0.000 C 
BRANCH  13  14
ATOM     14  C   UNL     1      10.566  16.139  72.269  1.00  0.00    -0.000 C 
BRANCH  14  15
ATOM     15  C   UNL     1      10.032  17.377  71.533  1.00  0.00    -0.003 C 
ATOM     16  C   UNL     1       8.709  17.845  72.133  1.00  0.00     0.004 C 
ENDBRANCH  14  15
ENDBRANCH  13  14
ENDBRANCH  12  13
ENDBRANCH  11  12
ENDBRANCH  10  11
ENDBRANCH   1  10
TORSDOF 12
ENDMDL
