MODEL 1
REMARK VINA RESULT:    -4.335      0.000      0.000
REMARK INTER + INTRA:          -7.487
REMARK INTER:                  -6.870
REMARK INTRA:                  -0.617
REMARK UNBOUND:                -0.617
REMARK SMILES CCCCCCCCCCCC(=O)[O-]
REMARK SMILES IDX 7 1 8 2 9 3 10 4 11 5 12 6 13 7 14 8 6 9 5 10 4 11 3 12 2 13
REMARK SMILES IDX 1 14
REMARK H PARENT
REMARK Flexibility Score: inf
ROOT
ATOM      1  C   UNL     1      58.716  -5.500  82.773  1.00  0.00     0.000 C 
ENDROOT
BRANCH   1   2
ATOM      2  C   UNL     1      59.617  -6.537  83.469  1.00  0.00     0.000 C 
BRANCH   2   3
ATOM      3  C   UNL     1      60.922  -6.881  82.727  1.00  0.00     0.000 C 
BRANCH   3   4
ATOM      4  C   UNL     1      60.919  -8.299  82.132  1.00  0.00     0.006 C 
BRANCH   4   5
ATOM      5  C   UNL     1      61.008  -8.285  80.600  1.00  0.00     0.053 C 
BRANCH   5   6
ATOM      6  C   UNL     1      59.914  -9.091  79.971  1.00  0.00     0.041 C 
ATOM      7  O   UNL     1      58.763  -9.107  80.483  1.00  0.00    -0.550 OA
ATOM      8  O   UNL     1      60.158  -9.805  78.805  1.00  0.00    -0.550 OA
ENDBRANCH   5   6
ENDBRANCH   4   5
ENDBRANCH   3   4
ENDBRANCH   2   3
ENDBRANCH   1   2
BRANCH   1   9
ATOM      9  C   UNL     1      59.460  -4.203  82.415  1.00  0.00     0.000 C 
BRANCH   9  10
ATOM     10  C   UNL     1      58.522  -3.094  81.904  1.00  0.00    -0.000 C 
BRANCH  10  11
ATOM     11  C   UNL     1      57.028  -3.465  81.863  1.00  0.00    -0.000 C 
BRANCH  11  12
ATOM     12  C   UNL     1      56.175  -2.639  82.837  1.00  0.00    -0.000 C 
BRANCH  12  13
ATOM     13  C   UNL     1      56.915  -1.370  83.274  1.00  0.00    -0.003 C 
ATOM     14  C   UNL     1      55.973  -0.397  83.977  1.00  0.00     0.004 C 
ENDBRANCH  12  13
ENDBRANCH  11  12
ENDBRANCH  10  11
ENDBRANCH   9  10
ENDBRANCH   1   9
TORSDOF 10
ENDMDL
MODEL 2
REMARK VINA RESULT:    -4.293      3.041      6.790
REMARK INTER + INTRA:          -7.419
REMARK INTER:                  -6.406
REMARK INTRA:                  -1.013
REMARK UNBOUND:                -0.617
REMARK SMILES CCCCCCCCCCCC(=O)[O-]
REMARK SMILES IDX 7 1 8 2 9 3 10 4 11 5 12 6 13 7 14 8 6 9 5 10 4 11 3 12 2 13
REMARK SMILES IDX 1 14
REMARK H PARENT
REMARK Flexibility Score: inf
ROOT
ATOM      1  C   UNL     1      62.118  -6.879  82.135  1.00  0.00     0.000 C 
ENDROOT
BRANCH   1   2
ATOM      2  C   UNL     1      60.944  -7.027  83.121  1.00  0.00     0.000 C 
BRANCH   2   3
ATOM      3  C   UNL     1      59.543  -7.036  82.482  1.00  0.00     0.000 C 
BRANCH   3   4
ATOM      4  C   UNL     1      58.687  -5.826  82.895  1.00  0.00     0.006 C 
BRANCH   4   5
ATOM      5  C   UNL     1      59.335  -4.494  82.497  1.00  0.00     0.053 C 
BRANCH   5   6
ATOM      6  C   UNL     1      58.328  -3.523  81.963  1.00  0.00     0.041 C 
ATOM      7  O   UNL     1      58.693  -2.390  81.553  1.00  0.00    -0.550 OA
ATOM      8  O   UNL     1      56.987  -3.880  81.893  1.00  0.00    -0.550 OA
ENDBRANCH   5   6
ENDBRANCH   4   5
ENDBRANCH   3   4
ENDBRANCH   2   3
ENDBRANCH   1   2
BRANCH   1   9
ATOM      9  C   UNL     1      61.666  -6.836  80.666  1.00  0.00     0.000 C 
BRANCH   9  10
ATOM     10  C   UNL     1      61.979  -8.137  79.904  1.00  0.00    -0.000 C 
BRANCH  10  11
ATOM     11  C   UNL     1      60.787  -9.096  79.723  1.00  0.00    -0.000 C 
BRANCH  11  12
ATOM     12  C   UNL     1      61.052 -10.499  80.287  1.00  0.00    -0.000 C 
BRANCH  12  13
ATOM     13  C   UNL     1      61.066 -10.481  81.819  1.00  0.00    -0.003 C 
ATOM     14  C   UNL     1      60.667 -11.838  82.391  1.00  0.00     0.004 C 
ENDBRANCH  12  13
ENDBRANCH  11  12
ENDBRANCH  10  11
ENDBRANCH   9  10
ENDBRANCH   1   9
TORSDOF 10
ENDMDL
MODEL 3
REMARK VINA RESULT:    -4.135      3.628      7.546
REMARK INTER + INTRA:          -7.168
REMARK INTER:                  -6.730
REMARK INTRA:                  -0.438
REMARK UNBOUND:                -0.617
REMARK SMILES CCCCCCCCCCCC(=O)[O-]
REMARK SMILES IDX 7 1 8 2 9 3 10 4 11 5 12 6 13 7 14 8 6 9 5 10 4 11 3 12 2 13
REMARK SMILES IDX 1 14
REMARK H PARENT
REMARK Flexibility Score: inf
ROOT
ATOM      1  C   UNL     1      58.991  -5.442  82.880  1.00  0.00     0.000 C 
ENDROOT
BRANCH   1   2
ATOM      2  C   UNL     1      59.831  -4.394  82.125  1.00  0.00     0.000 C 
BRANCH   2   3
ATOM      3  C   UNL     1      59.442  -2.927  82.382  1.00  0.00     0.000 C 
BRANCH   3   4
ATOM      4  C   UNL     1      57.920  -2.705  82.402  1.00  0.00     0.006 C 
BRANCH   4   5
ATOM      5  C   UNL     1      57.537  -1.376  83.066  1.00  0.00     0.053 C 
BRANCH   5   6
ATOM      6  C   UNL     1      56.109  -1.370  83.516  1.00  0.00     0.041 C 
ATOM      7  O   UNL     1      55.795  -0.862  84.625  1.00  0.00    -0.550 OA
ATOM      8  O   UNL     1      55.120  -1.902  82.699  1.00  0.00    -0.550 OA
ENDBRANCH   5   6
ENDBRANCH   4   5
ENDBRANCH   3   4
ENDBRANCH   2   3
ENDBRANCH   1   2
BRANCH   1   9
ATOM      9  C   UNL     1      59.849  -6.504  83.587  1.00  0.00     0.000 C 
BRANCH   9  10
ATOM     10  C   UNL     1      60.887  -7.155  82.655  1.00  0.00    -0.000 C 
BRANCH  10  11
ATOM     11  C   UNL     1      60.312  -8.129  81.610  1.00  0.00    -0.000 C 
BRANCH  11  12
ATOM     12  C   UNL     1      61.385  -9.002  80.944  1.00  0.00    -0.000 C 
BRANCH  12  13
ATOM     13  C   UNL     1      61.009 -10.485  81.017  1.00  0.00    -0.003 C 
ATOM     14  C   UNL     1      61.300 -11.062  82.400  1.00  0.00     0.004 C 
ENDBRANCH  12  13
ENDBRANCH  11  12
ENDBRANCH  10  11
ENDBRANCH   9  10
ENDBRANCH   1   9
TORSDOF 10
ENDMDL
MODEL 4
REMARK VINA RESULT:    -4.127      2.156      3.327
REMARK INTER + INTRA:          -7.157
REMARK INTER:                  -6.178
REMARK INTRA:                  -0.979
REMARK UNBOUND:                -0.617
REMARK SMILES CCCCCCCCCCCC(=O)[O-]
REMARK SMILES IDX 7 1 8 2 9 3 10 4 11 5 12 6 13 7 14 8 6 9 5 10 4 11 3 12 2 13
REMARK SMILES IDX 1 14
REMARK H PARENT
REMARK Flexibility Score: inf
ROOT
ATOM      1  C   UNL     1      61.618  -6.918  82.156  1.00  0.00     0.000 C 
ENDROOT
BRANCH   1   2
ATOM      2  C   UNL     1      61.805  -6.723  80.639  1.00  0.00     0.000 C 
BRANCH   2   3
ATOM      3  C   UNL     1      62.082  -8.008  79.838  1.00  0.00     0.000 C 
BRANCH   3   4
ATOM      4  C   UNL     1      60.804  -8.800  79.513  1.00  0.00     0.006 C 
BRANCH   4   5
ATOM      5  C   UNL     1      61.011 -10.315  79.647  1.00  0.00     0.053 C 
BRANCH   5   6
ATOM      6  C   UNL     1      60.502 -10.831  80.957  1.00  0.00     0.041 C 
ATOM      7  O   UNL     1      59.476 -11.560  80.997  1.00  0.00    -0.550 OA
ATOM      8  O   UNL     1      61.177 -10.529  82.133  1.00  0.00    -0.550 OA
ENDBRANCH   5   6
ENDBRANCH   4   5
ENDBRANCH   3   4
ENDBRANCH   2   3
ENDBRANCH   1   2
BRANCH   1   9
ATOM      9  C   UNL     1      60.156  -7.180  82.552  1.00  0.00     0.000 C 
BRANCH   9  10
ATOM     10  C   UNL     1      59.526  -6.009  83.329  1.00  0.00    -0.000 C 
BRANCH  10  11
ATOM     11  C   UNL     1      58.229  -5.441  82.722  1.00  0.00    -0.000 C 
BRANCH  11  12
ATOM     12  C   UNL     1      58.399  -4.025  82.154  1.00  0.00    -0.000 C 
BRANCH  12  13
ATOM     13  C   UNL     1      59.804  -3.485  82.437  1.00  0.00    -0.003 C 
ATOM     14  C   UNL     1      60.543  -3.161  81.142  1.00  0.00     0.004 C 
ENDBRANCH  12  13
ENDBRANCH  11  12
ENDBRANCH  10  11
ENDBRANCH   9  10
ENDBRANCH   1   9
TORSDOF 10
ENDMDL
MODEL 5
REMARK VINA RESULT:    -4.120      5.028      8.324
REMARK INTER + INTRA:          -7.146
REMARK INTER:                  -6.596
REMARK INTRA:                  -0.550
REMARK UNBOUND:                -0.617
REMARK SMILES CCCCCCCCCCCC(=O)[O-]
REMARK SMILES IDX 7 1 8 2 9 3 10 4 11 5 12 6 13 7 14 8 6 9 5 10 4 11 3 12 2 13
REMARK SMILES IDX 1 14
REMARK H PARENT
REMARK Flexibility Score: inf
ROOT
ATOM      1  C   UNL     1      57.180  -3.625  82.148  1.00  0.00     0.000 C 
ENDROOT
BRANCH   1   2
ATOM      2  C   UNL     1      56.353  -2.509  82.813  1.00  0.00     0.000 C 
BRANCH   2   3
ATOM      3  C   UNL     1      57.158  -1.284  83.286  1.00  0.00     0.000 C 
BRANCH   3   4
ATOM      4  C   UNL     1      56.308  -0.277  84.080  1.00  0.00     0.006 C 
BRANCH   4   5
ATOM      5  C   UNL     1      54.856  -0.228  83.586  1.00  0.00     0.053 C 
BRANCH   5   6
ATOM      6  C   UNL     1      54.071   0.846  84.274  1.00  0.00     0.041 C 
ATOM      7  O   UNL     1      54.579   1.983  84.462  1.00  0.00    -0.550 OA
ATOM      8  O   UNL     1      52.768   0.598  84.686  1.00  0.00    -0.550 OA
ENDBRANCH   5   6
ENDBRANCH   4   5
ENDBRANCH   3   4
ENDBRANCH   2   3
ENDBRANCH   1   2
BRANCH   1   9
ATOM      9  C   UNL     1      58.611  -3.184  81.797  1.00  0.00     0.000 C 
BRANCH   9  10
ATOM     10  C   UNL     1      59.673  -4.229  82.185  1.00  0.00    -0.000 C 
BRANCH  10  11
ATOM     11  C   UNL     1      59.171  -5.373  83.086  1.00  0.00    -0.000 C 
BRANCH  11  12
ATOM     12  C   UNL     1      59.577  -6.763  82.576  1.00  0.00    -0.000 C 
BRANCH  12  13
ATOM     13  C   UNL     1      61.061  -6.798  82.200  1.00  0.00    -0.003 C 
ATOM     14  C   UNL     1      61.357  -7.932  81.222  1.00  0.00     0.004 C 
ENDBRANCH  12  13
ENDBRANCH  11  12
ENDBRANCH  10  11
ENDBRANCH   9  10
ENDBRANCH   1   9
TORSDOF 10
ENDMDL
MODEL 6
REMARK VINA RESULT:    -4.118     12.116     14.139
REMARK INTER + INTRA:          -7.142
REMARK INTER:                  -6.011
REMARK INTRA:                  -1.131
REMARK UNBOUND:                -0.617
REMARK SMILES CCCCCCCCCCCC(=O)[O-]
REMARK SMILES IDX 7 1 8 2 9 3 10 4 11 5 12 6 13 7 14 8 6 9 5 10 4 11 3 12 2 13
REMARK SMILES IDX 1 14
REMARK H PARENT
REMARK Flexibility Score: inf
ROOT
ATOM      1  C   UNL     1      50.939  -4.240  72.777  1.00  0.00     0.000 C 
ENDROOT
BRANCH   1   2
ATOM      2  C   UNL     1      50.044  -3.482  71.778  1.00  0.00     0.000 C 
BRANCH   2   3
ATOM      3  C   UNL     1      49.103  -2.434  72.400  1.00  0.00     0.000 C 
BRANCH   3   4
ATOM      4  C   UNL     1      49.085  -1.107  71.622  1.00  0.00     0.006 C 
BRANCH   4   5
ATOM      5  C   UNL     1      49.572   0.071  72.476  1.00  0.00     0.053 C 
BRANCH   5   6
ATOM      6  C   UNL     1      48.579   0.436  73.537  1.00  0.00     0.041 C 
ATOM      7  O   UNL     1      47.539   1.080  73.239  1.00  0.00    -0.550 OA
ATOM      8  O   UNL     1      48.791   0.042  74.852  1.00  0.00    -0.550 OA
ENDBRANCH   5   6
ENDBRANCH   4   5
ENDBRANCH   3   4
ENDBRANCH   2   3
ENDBRANCH   1   2
BRANCH   1   9
ATOM      9  C   UNL     1      51.167  -3.466  74.086  1.00  0.00     0.000 C 
BRANCH   9  10
ATOM     10  C   UNL     1      52.165  -2.304  73.930  1.00  0.00    -0.000 C 
BRANCH  10  11
ATOM     11  C   UNL     1      53.514  -2.678  73.288  1.00  0.00    -0.000 C 
BRANCH  11  12
ATOM     12  C   UNL     1      53.674  -2.132  71.862  1.00  0.00    -0.000 C 
BRANCH  12  13
ATOM     13  C   UNL     1      53.032  -0.747  71.729  1.00  0.00    -0.003 C 
ATOM     14  C   UNL     1      53.934   0.208  70.953  1.00  0.00     0.004 C 
ENDBRANCH  12  13
ENDBRANCH  11  12
ENDBRANCH  10  11
ENDBRANCH   9  10
ENDBRANCH   1   9
TORSDOF 10
ENDMDL
MODEL 7
REMARK VINA RESULT:    -4.103      3.188      6.203
REMARK INTER + INTRA:          -7.118
REMARK INTER:                  -6.005
REMARK INTRA:                  -1.113
REMARK UNBOUND:                -0.617
REMARK SMILES CCCCCCCCCCCC(=O)[O-]
REMARK SMILES IDX 7 1 8 2 9 3 10 4 11 5 12 6 13 7 14 8 6 9 5 10 4 11 3 12 2 13
REMARK SMILES IDX 1 14
REMARK H PARENT
REMARK Flexibility Score: inf
ROOT
ATOM      1  C   UNL     1      61.114  -7.129  82.877  1.00  0.00     0.000 C 
ENDROOT
BRANCH   1   2
ATOM      2  C   UNL     1      59.879  -6.489  83.539  1.00  0.00     0.000 C 
BRANCH   2   3
ATOM      3  C   UNL     1      58.673  -6.265  82.609  1.00  0.00     0.000 C 
BRANCH   3   4
ATOM      4  C   UNL     1      58.000  -4.898  82.817  1.00  0.00     0.006 C 
BRANCH   4   5
ATOM      5  C   UNL     1      58.346  -3.906  81.699  1.00  0.00     0.053 C 
BRANCH   5   6
ATOM      6  C   UNL     1      59.620  -3.172  81.982  1.00  0.00     0.041 C 
ATOM      7  O   UNL     1      59.885  -2.786  83.151  1.00  0.00    -0.550 OA
ATOM      8  O   UNL     1      60.528  -2.935  80.958  1.00  0.00    -0.550 OA
ENDBRANCH   5   6
ENDBRANCH   4   5
ENDBRANCH   3   4
ENDBRANCH   2   3
ENDBRANCH   1   2
BRANCH   1   9
ATOM      9  C   UNL     1      61.558  -6.396  81.600  1.00  0.00     0.000 C 
BRANCH   9  10
ATOM     10  C   UNL     1      61.833  -7.351  80.424  1.00  0.00    -0.000 C 
BRANCH  10  11
ATOM     11  C   UNL     1      61.274  -8.776  80.591  1.00  0.00    -0.000 C 
BRANCH  11  12
ATOM     12  C   UNL     1      60.088  -9.070  79.661  1.00  0.00    -0.000 C 
BRANCH  12  13
ATOM     13  C   UNL     1      58.798  -9.273  80.463  1.00  0.00    -0.003 C 
ATOM     14  C   UNL     1      57.630  -9.634  79.549  1.00  0.00     0.004 C 
ENDBRANCH  12  13
ENDBRANCH  11  12
ENDBRANCH  10  11
ENDBRANCH   9  10
ENDBRANCH   1   9
TORSDOF 10
ENDMDL
MODEL 8
REMARK VINA RESULT:    -4.102     12.204     13.956
REMARK INTER + INTRA:          -7.117
REMARK INTER:                  -5.843
REMARK INTRA:                  -1.274
REMARK UNBOUND:                -0.617
REMARK SMILES CCCCCCCCCCCC(=O)[O-]
REMARK SMILES IDX 7 1 8 2 9 3 10 4 11 5 12 6 13 7 14 8 6 9 5 10 4 11 3 12 2 13
REMARK SMILES IDX 1 14
REMARK H PARENT
REMARK Flexibility Score: inf
ROOT
ATOM      1  C   UNL     1      48.619   0.338  74.074  1.00  0.00     0.000 C 
ENDROOT
BRANCH   1   2
ATOM      2  C   UNL     1      48.167   0.210  72.607  1.00  0.00     0.000 C 
BRANCH   2   3
ATOM      3  C   UNL     1      49.091  -0.624  71.702  1.00  0.00     0.000 C 
BRANCH   3   4
ATOM      4  C   UNL     1      50.582  -0.435  72.029  1.00  0.00     0.006 C 
BRANCH   4   5
ATOM      5  C   UNL     1      51.268  -1.759  72.393  1.00  0.00     0.053 C 
BRANCH   5   6
ATOM      6  C   UNL     1      52.760  -1.631  72.392  1.00  0.00     0.041 C 
ATOM      7  O   UNL     1      53.460  -2.357  73.146  1.00  0.00    -0.550 OA
ATOM      8  O   UNL     1      53.379  -0.727  71.539  1.00  0.00    -0.550 OA
ENDBRANCH   5   6
ENDBRANCH   4   5
ENDBRANCH   3   4
ENDBRANCH   2   3
ENDBRANCH   1   2
BRANCH   1   9
ATOM      9  C   UNL     1      48.069  -0.784  74.971  1.00  0.00     0.000 C 
BRANCH   9  10
ATOM     10  C   UNL     1      49.169  -1.722  75.501  1.00  0.00    -0.000 C 
BRANCH  10  11
ATOM     11  C   UNL     1      48.809  -3.219  75.508  1.00  0.00    -0.000 C 
BRANCH  11  12
ATOM     12  C   UNL     1      47.424  -3.508  74.911  1.00  0.00    -0.000 C 
BRANCH  12  13
ATOM     13  C   UNL     1      47.501  -4.618  73.858  1.00  0.00    -0.003 C 
ATOM     14  C   UNL     1      48.017  -4.082  72.526  1.00  0.00     0.004 C 
ENDBRANCH  12  13
ENDBRANCH  11  12
ENDBRANCH  10  11
ENDBRANCH   9  10
ENDBRANCH   1   9
TORSDOF 10
ENDMDL
MODEL 9
REMARK VINA RESULT:    -4.051     13.557     14.911
REMARK INTER + INTRA:          -7.037
REMARK INTER:                  -6.255
REMARK INTRA:                  -0.782
REMARK UNBOUND:                -0.617
REMARK SMILES CCCCCCCCCCCC(=O)[O-]
REMARK SMILES IDX 7 1 8 2 9 3 10 4 11 5 12 6 13 7 14 8 6 9 5 10 4 11 3 12 2 13
REMARK SMILES IDX 1 14
REMARK H PARENT
REMARK Flexibility Score: inf
ROOT
ATOM      1  C   UNL     1      49.262  -4.767  72.491  1.00  0.00     0.000 C 
ENDROOT
BRANCH   1   2
ATOM      2  C   UNL     1      47.854  -4.197  72.741  1.00  0.00     0.000 C 
BRANCH   2   3
ATOM      3  C   UNL     1      46.763  -5.242  73.038  1.00  0.00     0.000 C 
BRANCH   3   4
ATOM      4  C   UNL     1      46.727  -6.383  72.008  1.00  0.00     0.006 C 
BRANCH   4   5
ATOM      5  C   UNL     1      46.733  -7.765  72.675  1.00  0.00     0.053 C 
BRANCH   5   6
ATOM      6  C   UNL     1      45.712  -8.679  72.070  1.00  0.00     0.041 C 
ATOM      7  O   UNL     1      44.748  -9.099  72.762  1.00  0.00    -0.550 OA
ATOM      8  O   UNL     1      45.812  -9.046  70.734  1.00  0.00    -0.550 OA
ENDBRANCH   5   6
ENDBRANCH   4   5
ENDBRANCH   3   4
ENDBRANCH   2   3
ENDBRANCH   1   2
BRANCH   1   9
ATOM      9  C   UNL     1      50.128  -3.858  71.602  1.00  0.00     0.000 C 
BRANCH   9  10
ATOM     10  C   UNL     1      51.420  -3.392  72.299  1.00  0.00    -0.000 C 
BRANCH  10  11
ATOM     11  C   UNL     1      51.560  -1.868  72.472  1.00  0.00    -0.000 C 
BRANCH  11  12
ATOM     12  C   UNL     1      50.279  -1.201  72.993  1.00  0.00    -0.000 C 
BRANCH  12  13
ATOM     13  C   UNL     1      49.713  -0.218  71.963  1.00  0.00    -0.003 C 
ATOM     14  C   UNL     1      48.271  -0.562  71.604  1.00  0.00     0.004 C 
ENDBRANCH  12  13
ENDBRANCH  11  12
ENDBRANCH  10  11
ENDBRANCH   9  10
ENDBRANCH   1   9
TORSDOF 10
ENDMDL
