MODEL 1
REMARK VINA RESULT:    -3.283      0.000      0.000
REMARK INTER + INTRA:         -14.868
REMARK INTER:                  -8.656
REMARK INTRA:                  -6.212
REMARK UNBOUND:                -6.212
REMARK SMILES CCCCCCCCCCCCCCCCCCCCCCCCCCCCCC(=O)[O-]
REMARK SMILES IDX 16 1 17 2 18 3 19 4 20 5 21 6 22 7 23 8 24 9 25 10 26 11
REMARK SMILES IDX 27 12 28 13 29 14 30 15 31 16 32 17 15 18 14 19 13 20 12 21
REMARK SMILES IDX 11 22 10 23 9 24 8 25 7 26 6 27 5 28 4 29 3 30 2 31 1 32
REMARK H PARENT
REMARK Flexibility Score: inf
ROOT
ATOM      1  C   UNL     1      26.116  11.617  22.201  1.00  0.00     0.000 C 
ENDROOT
BRANCH   1   2
ATOM      2  C   UNL     1      25.599  11.493  20.757  1.00  0.00     0.000 C 
BRANCH   2   3
ATOM      3  C   UNL     1      24.543  12.557  20.420  1.00  0.00     0.000 C 
BRANCH   3   4
ATOM      4  C   UNL     1      23.106  12.050  20.639  1.00  0.00     0.000 C 
BRANCH   4   5
ATOM      5  C   UNL     1      23.037  10.521  20.779  1.00  0.00     0.000 C 
BRANCH   5   6
ATOM      6  C   UNL     1      22.417  10.078  22.118  1.00  0.00     0.000 C 
BRANCH   6   7
ATOM      7  C   UNL     1      22.014  11.275  22.996  1.00  0.00     0.000 C 
BRANCH   7   8
ATOM      8  C   UNL     1      22.670  11.224  24.385  1.00  0.00     0.000 C 
BRANCH   8   9
ATOM      9  C   UNL     1      23.014   9.792  24.832  1.00  0.00     0.000 C 
BRANCH   9  10
ATOM     10  C   UNL     1      24.129   9.687  25.894  1.00  0.00     0.000 C 
BRANCH  10  11
ATOM     11  C   UNL     1      25.237  10.749  25.790  1.00  0.00     0.000 C 
BRANCH  11  12
ATOM     12  C   UNL     1      26.628  10.144  25.538  1.00  0.00     0.000 C 
BRANCH  12  13
ATOM     13  C   UNL     1      27.605  10.411  26.695  1.00  0.00     0.006 C 
BRANCH  13  14
ATOM     14  C   UNL     1      27.516  11.852  27.222  1.00  0.00     0.053 C 
BRANCH  14  15
ATOM     15  C   UNL     1      27.307  11.860  28.705  1.00  0.00     0.041 C 
ATOM     16  O   UNL     1      26.797  10.861  29.276  1.00  0.00    -0.550 OA
ATOM     17  O   UNL     1      27.671  12.972  29.457  1.00  0.00    -0.550 OA
ENDBRANCH  14  15
ENDBRANCH  13  14
ENDBRANCH  12  13
ENDBRANCH  11  12
ENDBRANCH  10  11
ENDBRANCH   9  10
ENDBRANCH   8   9
ENDBRANCH   7   8
ENDBRANCH   6   7
ENDBRANCH   5   6
ENDBRANCH   4   5
ENDBRANCH   3   4
ENDBRANCH   2   3
ENDBRANCH   1   2
BRANCH   1  18
ATOM     18  C   UNL     1      26.376  13.076  22.617  1.00  0.00     0.000 C 
BRANCH  18  19
ATOM     19  C   UNL     1      25.519  13.578  23.796  1.00  0.00     0.000 C 
BRANCH  19  20
ATOM     20  C   UNL     1      24.767  14.902  23.545  1.00  0.00     0.000 C 
BRANCH  20  21
ATOM     21  C   UNL     1      23.238  14.766  23.434  1.00  0.00     0.000 C 
BRANCH  21  22
ATOM     22  C   UNL     1      22.538  16.108  23.178  1.00  0.00     0.000 C 
BRANCH  22  23
ATOM     23  C   UNL     1      23.566  17.219  22.928  1.00  0.00     0.000 C 
BRANCH  23  24
ATOM     24  C   UNL     1      23.207  18.486  23.716  1.00  0.00    -0.000 C 
BRANCH  24  25
ATOM     25  C   UNL     1      24.406  19.074  24.480  1.00  0.00    -0.000 C 
BRANCH  25  26
ATOM     26  C   UNL     1      24.808  18.253  25.725  1.00  0.00    -0.000 C 
BRANCH  26  27
ATOM     27  C   UNL     1      23.598  17.926  26.619  1.00  0.00    -0.000 C 
BRANCH  27  28
ATOM     28  C   UNL     1      23.446  16.412  26.873  1.00  0.00    -0.000 C 
BRANCH  28  29
ATOM     29  C   UNL     1      24.782  15.687  27.121  1.00  0.00    -0.000 C 
BRANCH  29  30
ATOM     30  C   UNL     1      24.602  14.197  27.438  1.00  0.00    -0.000 C 
BRANCH  30  31
ATOM     31  C   UNL     1      23.214  13.708  27.014  1.00  0.00    -0.003 C 
ATOM     32  C   UNL     1      22.723  12.584  27.926  1.00  0.00     0.004 C 
ENDBRANCH  30  31
ENDBRANCH  29  30
ENDBRANCH  28  29
ENDBRANCH  27  28
ENDBRANCH  26  27
ENDBRANCH  25  26
ENDBRANCH  24  25
ENDBRANCH  23  24
ENDBRANCH  22  23
ENDBRANCH  21  22
ENDBRANCH  20  21
ENDBRANCH  19  20
ENDBRANCH  18  19
ENDBRANCH   1  18
TORSDOF 28
ENDMDL
MODEL 2
REMARK VINA RESULT:    -3.216      7.685     12.927
REMARK INTER + INTRA:         -14.692
REMARK INTER:                  -9.689
REMARK INTRA:                  -5.003
REMARK UNBOUND:                -6.212
REMARK SMILES CCCCCCCCCCCCCCCCCCCCCCCCCCCCCC(=O)[O-]
REMARK SMILES IDX 16 1 17 2 18 3 19 4 20 5 21 6 22 7 23 8 24 9 25 10 26 11
REMARK SMILES IDX 27 12 28 13 29 14 30 15 31 16 32 17 15 18 14 19 13 20 12 21
REMARK SMILES IDX 11 22 10 23 9 24 8 25 7 26 6 27 5 28 4 29 3 30 2 31 1 32
REMARK H PARENT
REMARK Flexibility Score: inf
ROOT
ATOM      1  C   UNL     1      24.154  22.921  22.852  1.00  0.00     0.000 C 
ENDROOT
BRANCH   1   2
ATOM      2  C   UNL     1      23.553  22.722  24.255  1.00  0.00     0.000 C 
BRANCH   2   3
ATOM      3  C   UNL     1      22.162  23.361  24.391  1.00  0.00     0.000 C 
BRANCH   3   4
ATOM      4  C   UNL     1      21.992  24.124  25.718  1.00  0.00     0.000 C 
BRANCH   4   5
ATOM      5  C   UNL     1      22.877  25.379  25.791  1.00  0.00     0.000 C 
BRANCH   5   6
ATOM      6  C   UNL     1      22.632  26.343  24.616  1.00  0.00     0.000 C 
BRANCH   6   7
ATOM      7  C   UNL     1      23.946  26.874  24.016  1.00  0.00     0.000 C 
BRANCH   7   8
ATOM      8  C   UNL     1      25.180  26.166  24.599  1.00  0.00     0.000 C 
BRANCH   8   9
ATOM      9  C   UNL     1      26.258  25.875  23.541  1.00  0.00     0.000 C 
BRANCH   9  10
ATOM     10  C   UNL     1      26.639  27.072  22.646  1.00  0.00     0.000 C 
BRANCH  10  11
ATOM     11  C   UNL     1      28.064  27.615  22.848  1.00  0.00     0.000 C 
BRANCH  11  12
ATOM     12  C   UNL     1      28.367  28.847  21.978  1.00  0.00     0.000 C 
BRANCH  12  13
ATOM     13  C   UNL     1      27.614  28.822  20.638  1.00  0.00     0.006 C 
BRANCH  13  14
ATOM     14  C   UNL     1      28.411  28.121  19.526  1.00  0.00     0.053 C 
BRANCH  14  15
ATOM     15  C   UNL     1      27.636  26.967  18.969  1.00  0.00     0.041 C 
ATOM     16  O   UNL     1      28.240  25.980  18.474  1.00  0.00    -0.550 OA
ATOM     17  O   UNL     1      26.245  26.983  18.992  1.00  0.00    -0.550 OA
ENDBRANCH  14  15
ENDBRANCH  13  14
ENDBRANCH  12  13
ENDBRANCH  11  12
ENDBRANCH  10  11
ENDBRANCH   9  10
ENDBRANCH   8   9
ENDBRANCH   7   8
ENDBRANCH   6   7
ENDBRANCH   5   6
ENDBRANCH   4   5
ENDBRANCH   3   4
ENDBRANCH   2   3
ENDBRANCH   1   2
BRANCH   1  18
ATOM     18  C   UNL     1      23.273  23.797  21.945  1.00  0.00     0.000 C 
BRANCH  18  19
ATOM     19  C   UNL     1      24.024  24.515  20.807  1.00  0.00     0.000 C 
BRANCH  19  20
ATOM     20  C   UNL     1      25.463  24.018  20.552  1.00  0.00     0.000 C 
BRANCH  20  21
ATOM     21  C   UNL     1      25.688  23.371  19.173  1.00  0.00     0.000 C 
BRANCH  21  22
ATOM     22  C   UNL     1      24.374  23.004  18.467  1.00  0.00     0.000 C 
BRANCH  22  23
ATOM     23  C   UNL     1      24.313  21.498  18.179  1.00  0.00     0.000 C 
BRANCH  23  24
ATOM     24  C   UNL     1      24.166  20.697  19.480  1.00  0.00    -0.000 C 
BRANCH  24  25
ATOM     25  C   UNL     1      24.955  19.377  19.461  1.00  0.00    -0.000 C 
BRANCH  25  26
ATOM     26  C   UNL     1      24.967  18.645  20.821  1.00  0.00    -0.000 C 
BRANCH  26  27
ATOM     27  C   UNL     1      24.188  19.417  21.901  1.00  0.00    -0.000 C 
BRANCH  27  28
ATOM     28  C   UNL     1      23.274  18.497  22.738  1.00  0.00    -0.000 C 
BRANCH  28  29
ATOM     29  C   UNL     1      23.838  18.166  24.132  1.00  0.00    -0.000 C 
BRANCH  29  30
ATOM     30  C   UNL     1      23.335  19.122  25.222  1.00  0.00    -0.000 C 
BRANCH  30  31
ATOM     31  C   UNL     1      24.492  19.611  26.099  1.00  0.00    -0.003 C 
ATOM     32  C   UNL     1      25.783  19.735  25.290  1.00  0.00     0.004 C 
ENDBRANCH  30  31
ENDBRANCH  29  30
ENDBRANCH  28  29
ENDBRANCH  27  28
ENDBRANCH  26  27
ENDBRANCH  25  26
ENDBRANCH  24  25
ENDBRANCH  23  24
ENDBRANCH  22  23
ENDBRANCH  21  22
ENDBRANCH  20  21
ENDBRANCH  19  20
ENDBRANCH  18  19
ENDBRANCH   1  18
TORSDOF 28
ENDMDL
MODEL 3
REMARK VINA RESULT:    -3.195      1.823      4.801
REMARK INTER + INTRA:         -14.636
REMARK INTER:                  -9.050
REMARK INTRA:                  -5.586
REMARK UNBOUND:                -6.212
REMARK SMILES CCCCCCCCCCCCCCCCCCCCCCCCCCCCCC(=O)[O-]
REMARK SMILES IDX 16 1 17 2 18 3 19 4 20 5 21 6 22 7 23 8 24 9 25 10 26 11
REMARK SMILES IDX 27 12 28 13 29 14 30 15 31 16 32 17 15 18 14 19 13 20 12 21
REMARK SMILES IDX 11 22 10 23 9 24 8 25 7 26 6 27 5 28 4 29 3 30 2 31 1 32
REMARK H PARENT
REMARK Flexibility Score: inf
ROOT
ATOM      1  C   UNL     1      26.622  12.876  23.190  1.00  0.00     0.000 C 
ENDROOT
BRANCH   1   2
ATOM      2  C   UNL     1      25.715  13.752  24.071  1.00  0.00     0.000 C 
BRANCH   2   3
ATOM      3  C   UNL     1      24.684  14.539  23.249  1.00  0.00     0.000 C 
BRANCH   3   4
ATOM      4  C   UNL     1      23.239  14.281  23.715  1.00  0.00     0.000 C 
BRANCH   4   5
ATOM      5  C   UNL     1      23.153  13.176  24.780  1.00  0.00     0.000 C 
BRANCH   5   6
ATOM      6  C   UNL     1      22.445  13.647  26.063  1.00  0.00     0.000 C 
BRANCH   6   7
ATOM      7  C   UNL     1      22.328  15.179  26.134  1.00  0.00     0.000 C 
BRANCH   7   8
ATOM      8  C   UNL     1      23.122  15.770  27.310  1.00  0.00     0.000 C 
BRANCH   8   9
ATOM      9  C   UNL     1      24.645  15.663  27.117  1.00  0.00     0.000 C 
BRANCH   9  10
ATOM     10  C   UNL     1      25.381  14.806  28.168  1.00  0.00     0.000 C 
BRANCH  10  11
ATOM     11  C   UNL     1      25.718  13.372  27.726  1.00  0.00     0.000 C 
BRANCH  11  12
ATOM     12  C   UNL     1      27.224  13.151  27.500  1.00  0.00     0.000 C 
BRANCH  12  13
ATOM     13  C   UNL     1      27.588  11.663  27.370  1.00  0.00     0.006 C 
BRANCH  13  14
ATOM     14  C   UNL     1      26.792  10.955  26.262  1.00  0.00     0.053 C 
BRANCH  14  15
ATOM     15  C   UNL     1      27.651   9.954  25.553  1.00  0.00     0.041 C 
ATOM     16  O   UNL     1      27.151   9.199  24.678  1.00  0.00    -0.550 OA
ATOM     17  O   UNL     1      29.003   9.851  25.860  1.00  0.00    -0.550 OA
ENDBRANCH  14  15
ENDBRANCH  13  14
ENDBRANCH  12  13
ENDBRANCH  11  12
ENDBRANCH  10  11
ENDBRANCH   9  10
ENDBRANCH   8   9
ENDBRANCH   7   8
ENDBRANCH   6   7
ENDBRANCH   5   6
ENDBRANCH   4   5
ENDBRANCH   3   4
ENDBRANCH   2   3
ENDBRANCH   1   2
BRANCH   1  18
ATOM     18  C   UNL     1      26.009  12.584  21.809  1.00  0.00     0.000 C 
BRANCH  18  19
ATOM     19  C   UNL     1      25.486  11.146  21.621  1.00  0.00     0.000 C 
BRANCH  19  20
ATOM     20  C   UNL     1      24.038  10.904  22.096  1.00  0.00     0.000 C 
BRANCH  20  21
ATOM     21  C   UNL     1      22.983  10.897  20.974  1.00  0.00     0.000 C 
BRANCH  21  22
ATOM     22  C   UNL     1      22.365  12.282  20.730  1.00  0.00     0.000 C 
BRANCH  22  23
ATOM     23  C   UNL     1      23.014  12.961  19.517  1.00  0.00     0.000 C 
BRANCH  23  24
ATOM     24  C   UNL     1      22.601  14.437  19.430  1.00  0.00    -0.000 C 
BRANCH  24  25
ATOM     25  C   UNL     1      23.747  15.400  19.782  1.00  0.00    -0.000 C 
BRANCH  25  26
ATOM     26  C   UNL     1      23.287  16.645  20.572  1.00  0.00    -0.000 C 
BRANCH  26  27
ATOM     27  C   UNL     1      24.464  17.565  20.942  1.00  0.00    -0.000 C 
BRANCH  27  28
ATOM     28  C   UNL     1      24.102  18.562  22.062  1.00  0.00    -0.000 C 
BRANCH  28  29
ATOM     29  C   UNL     1      23.324  17.929  23.229  1.00  0.00    -0.000 C 
BRANCH  29  30
ATOM     30  C   UNL     1      23.956  18.221  24.597  1.00  0.00    -0.000 C 
BRANCH  30  31
ATOM     31  C   UNL     1      24.640  19.592  24.604  1.00  0.00    -0.003 C 
ATOM     32  C   UNL     1      25.884  19.582  25.492  1.00  0.00     0.004 C 
ENDBRANCH  30  31
ENDBRANCH  29  30
ENDBRANCH  28  29
ENDBRANCH  27  28
ENDBRANCH  26  27
ENDBRANCH  25  26
ENDBRANCH  24  25
ENDBRANCH  23  24
ENDBRANCH  22  23
ENDBRANCH  21  22
ENDBRANCH  20  21
ENDBRANCH  19  20
ENDBRANCH  18  19
ENDBRANCH   1  18
TORSDOF 28
ENDMDL
MODEL 4
REMARK VINA RESULT:    -3.190      7.718     13.016
REMARK INTER + INTRA:         -14.624
REMARK INTER:                  -9.216
REMARK INTRA:                  -5.408
REMARK UNBOUND:                -6.212
REMARK SMILES CCCCCCCCCCCCCCCCCCCCCCCCCCCCCC(=O)[O-]
REMARK SMILES IDX 16 1 17 2 18 3 19 4 20 5 21 6 22 7 23 8 24 9 25 10 26 11
REMARK SMILES IDX 27 12 28 13 29 14 30 15 31 16 32 17 15 18 14 19 13 20 12 21
REMARK SMILES IDX 11 22 10 23 9 24 8 25 7 26 6 27 5 28 4 29 3 30 2 31 1 32
REMARK H PARENT
REMARK Flexibility Score: inf
ROOT
ATOM      1  C   UNL     1      25.637  24.071  22.832  1.00  0.00     0.000 C 
ENDROOT
BRANCH   1   2
ATOM      2  C   UNL     1      24.508  23.041  23.011  1.00  0.00     0.000 C 
BRANCH   2   3
ATOM      3  C   UNL     1      23.126  23.701  23.122  1.00  0.00     0.000 C 
BRANCH   3   4
ATOM      4  C   UNL     1      22.533  23.591  24.539  1.00  0.00     0.000 C 
BRANCH   4   5
ATOM      5  C   UNL     1      22.359  24.963  25.212  1.00  0.00     0.000 C 
BRANCH   5   6
ATOM      6  C   UNL     1      23.705  25.626  25.555  1.00  0.00     0.000 C 
BRANCH   6   7
ATOM      7  C   UNL     1      23.986  26.859  24.677  1.00  0.00     0.000 C 
BRANCH   7   8
ATOM      8  C   UNL     1      22.760  27.778  24.555  1.00  0.00     0.000 C 
BRANCH   8   9
ATOM      9  C   UNL     1      22.257  27.916  23.108  1.00  0.00     0.000 C 
BRANCH   9  10
ATOM     10  C   UNL     1      23.181  27.307  22.031  1.00  0.00     0.000 C 
BRANCH  10  11
ATOM     11  C   UNL     1      22.868  27.728  20.585  1.00  0.00     0.000 C 
BRANCH  11  12
ATOM     12  C   UNL     1      23.969  28.604  19.963  1.00  0.00     0.000 C 
BRANCH  12  13
ATOM     13  C   UNL     1      25.094  27.772  19.325  1.00  0.00     0.006 C 
BRANCH  13  14
ATOM     14  C   UNL     1      26.416  28.549  19.220  1.00  0.00     0.053 C 
BRANCH  14  15
ATOM     15  C   UNL     1      27.433  27.990  20.166  1.00  0.00     0.041 C 
ATOM     16  O   UNL     1      28.530  27.554  19.729  1.00  0.00    -0.550 OA
ATOM     17  O   UNL     1      27.169  27.946  21.530  1.00  0.00    -0.550 OA
ENDBRANCH  14  15
ENDBRANCH  13  14
ENDBRANCH  12  13
ENDBRANCH  11  12
ENDBRANCH  10  11
ENDBRANCH   9  10
ENDBRANCH   8   9
ENDBRANCH   7   8
ENDBRANCH   6   7
ENDBRANCH   5   6
ENDBRANCH   4   5
ENDBRANCH   3   4
ENDBRANCH   2   3
ENDBRANCH   1   2
BRANCH   1  18
ATOM     18  C   UNL     1      25.502  24.882  21.532  1.00  0.00     0.000 C 
BRANCH  18  19
ATOM     19  C   UNL     1      26.397  24.403  20.371  1.00  0.00     0.000 C 
BRANCH  19  20
ATOM     20  C   UNL     1      25.660  23.664  19.234  1.00  0.00     0.000 C 
BRANCH  20  21
ATOM     21  C   UNL     1      24.124  23.770  19.284  1.00  0.00     0.000 C 
BRANCH  21  22
ATOM     22  C   UNL     1      23.445  22.426  19.587  1.00  0.00     0.000 C 
BRANCH  22  23
ATOM     23  C   UNL     1      24.445  21.270  19.461  1.00  0.00     0.000 C 
BRANCH  23  24
ATOM     24  C   UNL     1      24.121  20.153  20.462  1.00  0.00    -0.000 C 
BRANCH  24  25
ATOM     25  C   UNL     1      22.769  20.356  21.166  1.00  0.00    -0.000 C 
BRANCH  25  26
ATOM     26  C   UNL     1      22.743  19.827  22.617  1.00  0.00    -0.000 C 
BRANCH  26  27
ATOM     27  C   UNL     1      24.125  19.331  23.078  1.00  0.00    -0.000 C 
BRANCH  27  28
ATOM     28  C   UNL     1      24.028  18.139  24.054  1.00  0.00    -0.000 C 
BRANCH  28  29
ATOM     29  C   UNL     1      24.459  18.478  25.492  1.00  0.00    -0.000 C 
BRANCH  29  30
ATOM     30  C   UNL     1      25.136  19.851  25.604  1.00  0.00    -0.000 C 
BRANCH  30  31
ATOM     31  C   UNL     1      24.204  20.871  26.267  1.00  0.00    -0.003 C 
ATOM     32  C   UNL     1      23.214  20.183  27.207  1.00  0.00     0.004 C 
ENDBRANCH  30  31
ENDBRANCH  29  30
ENDBRANCH  28  29
ENDBRANCH  27  28
ENDBRANCH  26  27
ENDBRANCH  25  26
ENDBRANCH  24  25
ENDBRANCH  23  24
ENDBRANCH  22  23
ENDBRANCH  21  22
ENDBRANCH  20  21
ENDBRANCH  19  20
ENDBRANCH  18  19
ENDBRANCH   1  18
TORSDOF 28
ENDMDL
MODEL 5
REMARK VINA RESULT:    -3.153      8.027     13.262
REMARK INTER + INTRA:         -14.526
REMARK INTER:                  -9.773
REMARK INTRA:                  -4.753
REMARK UNBOUND:                -6.212
REMARK SMILES CCCCCCCCCCCCCCCCCCCCCCCCCCCCCC(=O)[O-]
REMARK SMILES IDX 16 1 17 2 18 3 19 4 20 5 21 6 22 7 23 8 24 9 25 10 26 11
REMARK SMILES IDX 27 12 28 13 29 14 30 15 31 16 32 17 15 18 14 19 13 20 12 21
REMARK SMILES IDX 11 22 10 23 9 24 8 25 7 26 6 27 5 28 4 29 3 30 2 31 1 32
REMARK H PARENT
REMARK Flexibility Score: inf
ROOT
ATOM      1  C   UNL     1      25.074  23.697  22.931  1.00  0.00     0.000 C 
ENDROOT
BRANCH   1   2
ATOM      2  C   UNL     1      23.624  23.580  23.434  1.00  0.00     0.000 C 
BRANCH   2   3
ATOM      3  C   UNL     1      23.354  24.474  24.654  1.00  0.00     0.000 C 
BRANCH   3   4
ATOM      4  C   UNL     1      24.529  25.421  24.961  1.00  0.00     0.000 C 
BRANCH   4   5
ATOM      5  C   UNL     1      24.284  26.848  24.445  1.00  0.00     0.000 C 
BRANCH   5   6
ATOM      6  C   UNL     1      22.875  27.366  24.786  1.00  0.00     0.000 C 
BRANCH   6   7
ATOM      7  C   UNL     1      22.184  28.013  23.573  1.00  0.00     0.000 C 
BRANCH   7   8
ATOM      8  C   UNL     1      22.325  27.162  22.300  1.00  0.00     0.000 C 
BRANCH   8   9
ATOM      9  C   UNL     1      22.907  27.951  21.115  1.00  0.00     0.000 C 
BRANCH   9  10
ATOM     10  C   UNL     1      24.375  27.625  20.766  1.00  0.00     0.000 C 
BRANCH  10  11
ATOM     11  C   UNL     1      24.796  27.957  19.324  1.00  0.00     0.000 C 
BRANCH  11  12
ATOM     12  C   UNL     1      26.322  28.036  19.147  1.00  0.00     0.000 C 
BRANCH  12  13
ATOM     13  C   UNL     1      27.011  28.778  20.303  1.00  0.00     0.006 C 
BRANCH  13  14
ATOM     14  C   UNL     1      28.275  28.055  20.797  1.00  0.00     0.053 C 
BRANCH  14  15
ATOM     15  C   UNL     1      28.281  27.965  22.292  1.00  0.00     0.041 C 
ATOM     16  O   UNL     1      27.309  27.442  22.897  1.00  0.00    -0.550 OA
ATOM     17  O   UNL     1      29.358  28.463  23.018  1.00  0.00    -0.550 OA
ENDBRANCH  14  15
ENDBRANCH  13  14
ENDBRANCH  12  13
ENDBRANCH  11  12
ENDBRANCH  10  11
ENDBRANCH   9  10
ENDBRANCH   8   9
ENDBRANCH   7   8
ENDBRANCH   6   7
ENDBRANCH   5   6
ENDBRANCH   4   5
ENDBRANCH   3   4
ENDBRANCH   2   3
ENDBRANCH   1   2
BRANCH   1  18
ATOM     18  C   UNL     1      25.161  24.160  21.466  1.00  0.00     0.000 C 
BRANCH  18  19
ATOM     19  C   UNL     1      26.559  24.622  21.013  1.00  0.00     0.000 C 
BRANCH  19  20
ATOM     20  C   UNL     1      26.852  24.454  19.507  1.00  0.00     0.000 C 
BRANCH  20  21
ATOM     21  C   UNL     1      25.613  24.183  18.634  1.00  0.00     0.000 C 
BRANCH  21  22
ATOM     22  C   UNL     1      25.701  22.851  17.875  1.00  0.00     0.000 C 
BRANCH  22  23
ATOM     23  C   UNL     1      24.313  22.217  17.725  1.00  0.00     0.000 C 
BRANCH  23  24
ATOM     24  C   UNL     1      23.656  22.006  19.096  1.00  0.00    -0.000 C 
BRANCH  24  25
ATOM     25  C   UNL     1      24.203  20.775  19.838  1.00  0.00    -0.000 C 
BRANCH  25  26
ATOM     26  C   UNL     1      23.523  20.523  21.201  1.00  0.00    -0.000 C 
BRANCH  26  27
ATOM     27  C   UNL     1      24.384  19.644  22.126  1.00  0.00    -0.000 C 
BRANCH  27  28
ATOM     28  C   UNL     1      23.848  19.609  23.573  1.00  0.00    -0.000 C 
BRANCH  28  29
ATOM     29  C   UNL     1      24.786  20.273  24.597  1.00  0.00    -0.000 C 
BRANCH  29  30
ATOM     30  C   UNL     1      25.324  19.286  25.641  1.00  0.00    -0.000 C 
BRANCH  30  31
ATOM     31  C   UNL     1      24.178  18.621  26.410  1.00  0.00    -0.003 C 
ATOM     32  C   UNL     1      24.292  17.098  26.360  1.00  0.00     0.004 C 
ENDBRANCH  30  31
ENDBRANCH  29  30
ENDBRANCH  28  29
ENDBRANCH  27  28
ENDBRANCH  26  27
ENDBRANCH  25  26
ENDBRANCH  24  25
ENDBRANCH  23  24
ENDBRANCH  22  23
ENDBRANCH  21  22
ENDBRANCH  20  21
ENDBRANCH  19  20
ENDBRANCH  18  19
ENDBRANCH   1  18
TORSDOF 28
ENDMDL
MODEL 6
REMARK VINA RESULT:    -3.120      1.139      3.246
REMARK INTER + INTRA:         -14.438
REMARK INTER:                  -8.911
REMARK INTRA:                  -5.527
REMARK UNBOUND:                -6.212
REMARK SMILES CCCCCCCCCCCCCCCCCCCCCCCCCCCCCC(=O)[O-]
REMARK SMILES IDX 16 1 17 2 18 3 19 4 20 5 21 6 22 7 23 8 24 9 25 10 26 11
REMARK SMILES IDX 27 12 28 13 29 14 30 15 31 16 32 17 15 18 14 19 13 20 12 21
REMARK SMILES IDX 11 22 10 23 9 24 8 25 7 26 6 27 5 28 4 29 3 30 2 31 1 32
REMARK H PARENT
REMARK Flexibility Score: inf
ROOT
ATOM      1  C   UNL     1      26.358  12.035  22.191  1.00  0.00     0.000 C 
ENDROOT
BRANCH   1   2
ATOM      2  C   UNL     1      25.703  11.450  20.928  1.00  0.00     0.000 C 
BRANCH   2   3
ATOM      3  C   UNL     1      24.685  12.413  20.297  1.00  0.00     0.000 C 
BRANCH   3   4
ATOM      4  C   UNL     1      23.245  11.870  20.360  1.00  0.00     0.000 C 
BRANCH   4   5
ATOM      5  C   UNL     1      23.180  10.442  20.924  1.00  0.00     0.000 C 
BRANCH   5   6
ATOM      6  C   UNL     1      22.326  10.351  22.202  1.00  0.00     0.000 C 
BRANCH   6   7
ATOM      7  C   UNL     1      22.245  11.696  22.945  1.00  0.00     0.000 C 
BRANCH   7   8
ATOM      8  C   UNL     1      22.626  11.565  24.428  1.00  0.00     0.000 C 
BRANCH   8   9
ATOM      9  C   UNL     1      23.882  10.704  24.649  1.00  0.00     0.000 C 
BRANCH   9  10
ATOM     10  C   UNL     1      24.054  10.149  26.079  1.00  0.00     0.000 C 
BRANCH  10  11
ATOM     11  C   UNL     1      25.162  10.816  26.913  1.00  0.00     0.000 C 
BRANCH  11  12
ATOM     12  C   UNL     1      26.502  10.912  26.163  1.00  0.00     0.000 C 
BRANCH  12  13
ATOM     13  C   UNL     1      27.635  11.455  27.049  1.00  0.00     0.006 C 
BRANCH  13  14
ATOM     14  C   UNL     1      27.126  12.421  28.132  1.00  0.00     0.053 C 
BRANCH  14  15
ATOM     15  C   UNL     1      27.495  11.925  29.496  1.00  0.00     0.041 C 
ATOM     16  O   UNL     1      27.872  12.736  30.383  1.00  0.00    -0.550 OA
ATOM     17  O   UNL     1      27.427  10.567  29.789  1.00  0.00    -0.550 OA
ENDBRANCH  14  15
ENDBRANCH  13  14
ENDBRANCH  12  13
ENDBRANCH  11  12
ENDBRANCH  10  11
ENDBRANCH   9  10
ENDBRANCH   8   9
ENDBRANCH   7   8
ENDBRANCH   6   7
ENDBRANCH   5   6
ENDBRANCH   4   5
ENDBRANCH   3   4
ENDBRANCH   2   3
ENDBRANCH   1   2
BRANCH   1  18
ATOM     18  C   UNL     1      25.730  13.372  22.624  1.00  0.00     0.000 C 
BRANCH  18  19
ATOM     19  C   UNL     1      25.964  13.753  24.099  1.00  0.00     0.000 C 
BRANCH  19  20
ATOM     20  C   UNL     1      24.790  14.485  24.784  1.00  0.00     0.000 C 
BRANCH  20  21
ATOM     21  C   UNL     1      24.800  14.424  26.322  1.00  0.00     0.000 C 
BRANCH  21  22
ATOM     22  C   UNL     1      23.394  14.270  26.920  1.00  0.00     0.000 C 
BRANCH  22  23
ATOM     23  C   UNL     1      22.392  15.179  26.198  1.00  0.00     0.000 C 
BRANCH  23  24
ATOM     24  C   UNL     1      22.046  16.404  27.055  1.00  0.00    -0.000 C 
BRANCH  24  25
ATOM     25  C   UNL     1      22.272  17.734  26.316  1.00  0.00    -0.000 C 
BRANCH  25  26
ATOM     26  C   UNL     1      23.726  18.248  26.401  1.00  0.00    -0.000 C 
BRANCH  26  27
ATOM     27  C   UNL     1      24.487  18.059  25.077  1.00  0.00    -0.000 C 
BRANCH  27  28
ATOM     28  C   UNL     1      23.594  18.309  23.843  1.00  0.00    -0.000 C 
BRANCH  28  29
ATOM     29  C   UNL     1      23.376  17.060  22.971  1.00  0.00    -0.000 C 
BRANCH  29  30
ATOM     30  C   UNL     1      24.211  17.078  21.684  1.00  0.00    -0.000 C 
BRANCH  30  31
ATOM     31  C   UNL     1      24.667  18.501  21.344  1.00  0.00    -0.003 C 
ATOM     32  C   UNL     1      25.420  18.535  20.015  1.00  0.00     0.004 C 
ENDBRANCH  30  31
ENDBRANCH  29  30
ENDBRANCH  28  29
ENDBRANCH  27  28
ENDBRANCH  26  27
ENDBRANCH  25  26
ENDBRANCH  24  25
ENDBRANCH  23  24
ENDBRANCH  22  23
ENDBRANCH  21  22
ENDBRANCH  20  21
ENDBRANCH  19  20
ENDBRANCH  18  19
ENDBRANCH   1  18
TORSDOF 28
ENDMDL
MODEL 7
REMARK VINA RESULT:    -3.089      2.477      4.740
REMARK INTER + INTRA:         -14.357
REMARK INTER:                  -8.740
REMARK INTRA:                  -5.618
REMARK UNBOUND:                -6.212
REMARK SMILES CCCCCCCCCCCCCCCCCCCCCCCCCCCCCC(=O)[O-]
REMARK SMILES IDX 16 1 17 2 18 3 19 4 20 5 21 6 22 7 23 8 24 9 25 10 26 11
REMARK SMILES IDX 27 12 28 13 29 14 30 15 31 16 32 17 15 18 14 19 13 20 12 21
REMARK SMILES IDX 11 22 10 23 9 24 8 25 7 26 6 27 5 28 4 29 3 30 2 31 1 32
REMARK H PARENT
REMARK Flexibility Score: inf
ROOT
ATOM      1  C   UNL     1      23.763  16.818  18.499  1.00  0.00     0.000 C 
ENDROOT
BRANCH   1   2
ATOM      2  C   UNL     1      23.636  15.468  19.225  1.00  0.00     0.000 C 
BRANCH   2   3
ATOM      3  C   UNL     1      22.298  15.324  19.965  1.00  0.00     0.000 C 
BRANCH   3   4
ATOM      4  C   UNL     1      22.469  15.314  21.495  1.00  0.00     0.000 C 
BRANCH   4   5
ATOM      5  C   UNL     1      23.944  15.246  21.921  1.00  0.00     0.000 C 
BRANCH   5   6
ATOM      6  C   UNL     1      24.140  14.501  23.254  1.00  0.00     0.000 C 
BRANCH   6   7
ATOM      7  C   UNL     1      22.848  13.814  23.731  1.00  0.00     0.000 C 
BRANCH   7   8
ATOM      8  C   UNL     1      23.075  12.338  24.095  1.00  0.00     0.000 C 
BRANCH   8   9
ATOM      9  C   UNL     1      22.043  11.397  23.448  1.00  0.00     0.000 C 
BRANCH   9  10
ATOM     10  C   UNL     1      21.875  11.557  21.922  1.00  0.00     0.000 C 
BRANCH  10  11
ATOM     11  C   UNL     1      22.955  10.870  21.068  1.00  0.00     0.000 C 
BRANCH  11  12
ATOM     12  C   UNL     1      23.752  11.857  20.199  1.00  0.00     0.000 C 
BRANCH  12  13
ATOM     13  C   UNL     1      25.209  12.009  20.665  1.00  0.00     0.006 C 
BRANCH  13  14
ATOM     14  C   UNL     1      25.559  11.063  21.825  1.00  0.00     0.053 C 
BRANCH  14  15
ATOM     15  C   UNL     1      26.893  11.416  22.409  1.00  0.00     0.041 C 
ATOM     16  O   UNL     1      27.799  10.545  22.485  1.00  0.00    -0.550 OA
ATOM     17  O   UNL     1      27.134  12.704  22.872  1.00  0.00    -0.550 OA
ENDBRANCH  14  15
ENDBRANCH  13  14
ENDBRANCH  12  13
ENDBRANCH  11  12
ENDBRANCH  10  11
ENDBRANCH   9  10
ENDBRANCH   8   9
ENDBRANCH   7   8
ENDBRANCH   6   7
ENDBRANCH   5   6
ENDBRANCH   4   5
ENDBRANCH   3   4
ENDBRANCH   2   3
ENDBRANCH   1   2
BRANCH   1  18
ATOM     18  C   UNL     1      24.469  17.889  19.349  1.00  0.00     0.000 C 
BRANCH  18  19
ATOM     19  C   UNL     1      23.564  19.042  19.825  1.00  0.00     0.000 C 
BRANCH  19  20
ATOM     20  C   UNL     1      23.142  18.979  21.308  1.00  0.00     0.000 C 
BRANCH  20  21
ATOM     21  C   UNL     1      24.305  18.827  22.305  1.00  0.00     0.000 C 
BRANCH  21  22
ATOM     22  C   UNL     1      23.995  19.442  23.678  1.00  0.00     0.000 C 
BRANCH  22  23
ATOM     23  C   UNL     1      23.439  18.382  24.636  1.00  0.00     0.000 C 
BRANCH  23  24
ATOM     24  C   UNL     1      24.553  17.800  25.516  1.00  0.00    -0.000 C 
BRANCH  24  25
ATOM     25  C   UNL     1      24.015  16.932  26.666  1.00  0.00    -0.000 C 
BRANCH  25  26
ATOM     26  C   UNL     1      24.487  15.463  26.604  1.00  0.00    -0.000 C 
BRANCH  26  27
ATOM     27  C   UNL     1      25.152  15.011  27.917  1.00  0.00    -0.000 C 
BRANCH  27  28
ATOM     28  C   UNL     1      25.908  13.674  27.764  1.00  0.00    -0.000 C 
BRANCH  28  29
ATOM     29  C   UNL     1      26.023  13.190  26.308  1.00  0.00    -0.000 C 
BRANCH  29  30
ATOM     30  C   UNL     1      26.714  11.825  26.186  1.00  0.00    -0.000 C 
BRANCH  30  31
ATOM     31  C   UNL     1      25.697  10.718  25.892  1.00  0.00    -0.003 C 
ATOM     32  C   UNL     1      26.336   9.335  26.018  1.00  0.00     0.004 C 
ENDBRANCH  30  31
ENDBRANCH  29  30
ENDBRANCH  28  29
ENDBRANCH  27  28
ENDBRANCH  26  27
ENDBRANCH  25  26
ENDBRANCH  24  25
ENDBRANCH  23  24
ENDBRANCH  22  23
ENDBRANCH  21  22
ENDBRANCH  20  21
ENDBRANCH  19  20
ENDBRANCH  18  19
ENDBRANCH   1  18
TORSDOF 28
ENDMDL
MODEL 8
REMARK VINA RESULT:    -3.086      9.738     15.143
REMARK INTER + INTRA:         -14.350
REMARK INTER:                  -8.932
REMARK INTRA:                  -5.418
REMARK UNBOUND:                -6.212
REMARK SMILES CCCCCCCCCCCCCCCCCCCCCCCCCCCCCC(=O)[O-]
REMARK SMILES IDX 16 1 17 2 18 3 19 4 20 5 21 6 22 7 23 8 24 9 25 10 26 11
REMARK SMILES IDX 27 12 28 13 29 14 30 15 31 16 32 17 15 18 14 19 13 20 12 21
REMARK SMILES IDX 11 22 10 23 9 24 8 25 7 26 6 27 5 28 4 29 3 30 2 31 1 32
REMARK H PARENT
REMARK Flexibility Score: inf
ROOT
ATOM      1  C   UNL     1      25.619  25.712  23.854  1.00  0.00     0.000 C 
ENDROOT
BRANCH   1   2
ATOM      2  C   UNL     1      26.147  26.870  22.989  1.00  0.00     0.000 C 
BRANCH   2   3
ATOM      3  C   UNL     1      27.682  26.927  22.960  1.00  0.00     0.000 C 
BRANCH   3   4
ATOM      4  C   UNL     1      28.215  28.355  22.741  1.00  0.00     0.000 C 
BRANCH   4   5
ATOM      5  C   UNL     1      29.719  28.378  22.423  1.00  0.00     0.000 C 
BRANCH   5   6
ATOM      6  C   UNL     1      30.008  28.779  20.965  1.00  0.00     0.000 C 
BRANCH   6   7
ATOM      7  C   UNL     1      28.732  28.809  20.106  1.00  0.00     0.000 C 
BRANCH   7   8
ATOM      8  C   UNL     1      28.645  27.607  19.152  1.00  0.00     0.000 C 
BRANCH   8   9
ATOM      9  C   UNL     1      27.343  26.803  19.319  1.00  0.00     0.000 C 
BRANCH   9  10
ATOM     10  C   UNL     1      26.053  27.648  19.377  1.00  0.00     0.000 C 
BRANCH  10  11
ATOM     11  C   UNL     1      25.370  27.896  18.022  1.00  0.00     0.000 C 
BRANCH  11  12
ATOM     12  C   UNL     1      24.491  26.718  17.567  1.00  0.00     0.000 C 
BRANCH  12  13
ATOM     13  C   UNL     1      25.159  25.875  16.468  1.00  0.00     0.006 C 
BRANCH  13  14
ATOM     14  C   UNL     1      26.214  26.666  15.677  1.00  0.00     0.053 C 
BRANCH  14  15
ATOM     15  C   UNL     1      27.497  25.898  15.598  1.00  0.00     0.041 C 
ATOM     16  O   UNL     1      28.367  26.208  14.741  1.00  0.00    -0.550 OA
ATOM     17  O   UNL     1      27.733  24.839  16.467  1.00  0.00    -0.550 OA
ENDBRANCH  14  15
ENDBRANCH  13  14
ENDBRANCH  12  13
ENDBRANCH  11  12
ENDBRANCH  10  11
ENDBRANCH   9  10
ENDBRANCH   8   9
ENDBRANCH   7   8
ENDBRANCH   6   7
ENDBRANCH   5   6
ENDBRANCH   4   5
ENDBRANCH   3   4
ENDBRANCH   2   3
ENDBRANCH   1   2
BRANCH   1  18
ATOM     18  C   UNL     1      24.907  26.197  25.129  1.00  0.00     0.000 C 
BRANCH  18  19
ATOM     19  C   UNL     1      23.374  26.317  25.012  1.00  0.00     0.000 C 
BRANCH  19  20
ATOM     20  C   UNL     1      22.867  27.574  24.274  1.00  0.00     0.000 C 
BRANCH  20  21
ATOM     21  C   UNL     1      22.079  27.291  22.983  1.00  0.00     0.000 C 
BRANCH  21  22
ATOM     22  C   UNL     1      22.920  27.498  21.715  1.00  0.00     0.000 C 
BRANCH  22  23
ATOM     23  C   UNL     1      22.841  26.268  20.802  1.00  0.00     0.000 C 
BRANCH  23  24
ATOM     24  C   UNL     1      22.639  24.987  21.624  1.00  0.00    -0.000 C 
BRANCH  24  25
ATOM     25  C   UNL     1      23.621  23.868  21.237  1.00  0.00    -0.000 C 
BRANCH  25  26
ATOM     26  C   UNL     1      24.911  24.384  20.564  1.00  0.00    -0.000 C 
BRANCH  26  27
ATOM     27  C   UNL     1      25.331  23.509  19.368  1.00  0.00    -0.000 C 
BRANCH  27  28
ATOM     28  C   UNL     1      24.121  22.974  18.576  1.00  0.00    -0.000 C 
BRANCH  28  29
ATOM     29  C   UNL     1      24.191  21.465  18.281  1.00  0.00    -0.000 C 
BRANCH  29  30
ATOM     30  C   UNL     1      24.614  20.637  19.502  1.00  0.00    -0.000 C 
BRANCH  30  31
ATOM     31  C   UNL     1      23.747  19.382  19.642  1.00  0.00    -0.003 C 
ATOM     32  C   UNL     1      23.206  18.931  18.286  1.00  0.00     0.004 C 
ENDBRANCH  30  31
ENDBRANCH  29  30
ENDBRANCH  28  29
ENDBRANCH  27  28
ENDBRANCH  26  27
ENDBRANCH  25  26
ENDBRANCH  24  25
ENDBRANCH  23  24
ENDBRANCH  22  23
ENDBRANCH  21  22
ENDBRANCH  20  21
ENDBRANCH  19  20
ENDBRANCH  18  19
ENDBRANCH   1  18
TORSDOF 28
ENDMDL
MODEL 9
REMARK VINA RESULT:    -3.065      3.330      7.394
REMARK INTER + INTRA:         -14.295
REMARK INTER:                  -8.503
REMARK INTRA:                  -5.792
REMARK UNBOUND:                -6.212
REMARK SMILES CCCCCCCCCCCCCCCCCCCCCCCCCCCCCC(=O)[O-]
REMARK SMILES IDX 16 1 17 2 18 3 19 4 20 5 21 6 22 7 23 8 24 9 25 10 26 11
REMARK SMILES IDX 27 12 28 13 29 14 30 15 31 16 32 17 15 18 14 19 13 20 12 21
REMARK SMILES IDX 11 22 10 23 9 24 8 25 7 26 6 27 5 28 4 29 3 30 2 31 1 32
REMARK H PARENT
REMARK Flexibility Score: inf
ROOT
ATOM      1  C   UNL     1      22.213  12.178  24.873  1.00  0.00     0.000 C 
ENDROOT
BRANCH   1   2
ATOM      2  C   UNL     1      22.692  13.640  24.908  1.00  0.00     0.000 C 
BRANCH   2   3
ATOM      3  C   UNL     1      24.211  13.763  24.719  1.00  0.00     0.000 C 
BRANCH   3   4
ATOM      4  C   UNL     1      24.892  14.496  25.889  1.00  0.00     0.000 C 
BRANCH   4   5
ATOM      5  C   UNL     1      23.884  14.989  26.940  1.00  0.00     0.000 C 
BRANCH   5   6
ATOM      6  C   UNL     1      23.993  16.503  27.198  1.00  0.00     0.000 C 
BRANCH   6   7
ATOM      7  C   UNL     1      24.357  17.285  25.925  1.00  0.00     0.000 C 
BRANCH   7   8
ATOM      8  C   UNL     1      23.141  17.505  25.010  1.00  0.00     0.000 C 
BRANCH   8   9
ATOM      9  C   UNL     1      23.495  17.420  23.514  1.00  0.00     0.000 C 
BRANCH   9  10
ATOM     10  C   UNL     1      22.291  17.253  22.564  1.00  0.00     0.000 C 
BRANCH  10  11
ATOM     11  C   UNL     1      22.120  15.847  21.963  1.00  0.00     0.000 C 
BRANCH  11  12
ATOM     12  C   UNL     1      22.284  15.823  20.434  1.00  0.00     0.000 C 
BRANCH  12  13
ATOM     13  C   UNL     1      23.755  15.910  19.997  1.00  0.00     0.006 C 
BRANCH  13  14
ATOM     14  C   UNL     1      24.002  17.030  18.973  1.00  0.00     0.053 C 
BRANCH  14  15
ATOM     15  C   UNL     1      24.486  18.272  19.656  1.00  0.00     0.041 C 
ATOM     16  O   UNL     1      23.662  19.145  20.036  1.00  0.00    -0.550 OA
ATOM     17  O   UNL     1      25.846  18.467  19.870  1.00  0.00    -0.550 OA
ENDBRANCH  14  15
ENDBRANCH  13  14
ENDBRANCH  12  13
ENDBRANCH  11  12
ENDBRANCH  10  11
ENDBRANCH   9  10
ENDBRANCH   8   9
ENDBRANCH   7   8
ENDBRANCH   6   7
ENDBRANCH   5   6
ENDBRANCH   4   5
ENDBRANCH   3   4
ENDBRANCH   2   3
ENDBRANCH   1   2
BRANCH   1  18
ATOM     18  C   UNL     1      23.170  11.256  24.097  1.00  0.00     0.000 C 
BRANCH  18  19
ATOM     19  C   UNL     1      22.479  10.215  23.194  1.00  0.00     0.000 C 
BRANCH  19  20
ATOM     20  C   UNL     1      22.649  10.443  21.677  1.00  0.00     0.000 C 
BRANCH  20  21
ATOM     21  C   UNL     1      22.642  11.920  21.241  1.00  0.00     0.000 C 
BRANCH  21  22
ATOM     22  C   UNL     1      23.374  12.151  19.911  1.00  0.00     0.000 C 
BRANCH  22  23
ATOM     23  C   UNL     1      24.890  12.236  20.132  1.00  0.00     0.000 C 
BRANCH  23  24
ATOM     24  C   UNL     1      25.213  12.992  21.428  1.00  0.00    -0.000 C 
BRANCH  24  25
ATOM     25  C   UNL     1      26.430  12.412  22.170  1.00  0.00    -0.000 C 
BRANCH  25  26
ATOM     26  C   UNL     1      26.447  10.868  22.214  1.00  0.00    -0.000 C 
BRANCH  26  27
ATOM     27  C   UNL     1      27.803  10.317  22.690  1.00  0.00    -0.000 C 
BRANCH  27  28
ATOM     28  C   UNL     1      27.720   9.681  24.094  1.00  0.00    -0.000 C 
BRANCH  28  29
ATOM     29  C   UNL     1      26.402   9.976  24.831  1.00  0.00    -0.000 C 
BRANCH  29  30
ATOM     30  C   UNL     1      26.549  11.061  25.906  1.00  0.00    -0.000 C 
BRANCH  30  31
ATOM     31  C   UNL     1      25.504  10.885  27.012  1.00  0.00    -0.003 C 
ATOM     32  C   UNL     1      25.806  11.793  28.204  1.00  0.00     0.004 C 
ENDBRANCH  30  31
ENDBRANCH  29  30
ENDBRANCH  28  29
ENDBRANCH  27  28
ENDBRANCH  26  27
ENDBRANCH  25  26
ENDBRANCH  24  25
ENDBRANCH  23  24
ENDBRANCH  22  23
ENDBRANCH  21  22
ENDBRANCH  20  21
ENDBRANCH  19  20
ENDBRANCH  18  19
ENDBRANCH   1  18
TORSDOF 28
ENDMDL
