MODEL 1
REMARK VINA RESULT:    -5.520      0.000      0.000
REMARK INTER + INTRA:          -6.274
REMARK INTER:                  -6.005
REMARK INTRA:                  -0.269
REMARK UNBOUND:                -0.269
REMARK SMILES C[C@H]1[C@H]2C3=CC[C@@H]4[C@]5(C)CC[C@@H](O)C(C)(C)[C@@H]5CC[C@]4(C)[C@]3(C)CC[C@@]2(C(=O)[O-])CC[C@@H]1C
REMARK SMILES IDX 26 1 30 2 25 3 3 4 31 5 24 6 4 7 2 8 32 9 22 10 5 11 1 12
REMARK SMILES IDX 33 13 23 14 20 15 6 16 7 17 19 18 21 19 8 20 18 21 17 22
REMARK SMILES IDX 10 23 9 24 14 25 11 26 12 27 15 28 16 29 27 30 28 31 29 32
REMARK SMILES IDX 13 33
REMARK H PARENT 13 34
REMARK Flexibility Score: inf
ROOT
ATOM      1  C   UNL     1      -1.957  25.111  -5.698  1.00  0.00     0.017 C 
ATOM      2  C   UNL     1      -0.900  26.013  -4.993  1.00  0.00     0.014 C 
ATOM      3  C   UNL     1      -2.557  24.121  -4.684  1.00  0.00     0.014 C 
ATOM      4  C   UNL     1      -1.376  24.332  -6.947  1.00  0.00     0.030 C 
ATOM      5  C   UNL     1       0.528  25.477  -4.990  1.00  0.00     0.004 C 
ATOM      6  C   UNL     1      -3.636  23.199  -5.318  1.00  0.00     0.013 C 
ATOM      7  C   UNL     1      -2.288  23.164  -7.432  1.00  0.00    -0.063 C 
ATOM      8  C   UNL     1       0.167  24.032  -7.026  1.00  0.00    -0.003 C 
ATOM      9  C   UNL     1       1.026  25.160  -6.402  1.00  0.00    -0.011 C 
ATOM     10  C   UNL     1      -3.118  22.254  -6.467  1.00  0.00    -0.006 C 
ATOM     11  C   UNL     1      -2.651  23.255  -8.719  1.00  0.00    -0.027 C 
ATOM     12  C   UNL     1       0.637  22.669  -6.505  1.00  0.00     0.008 C 
ATOM     13  C   UNL     1       1.088  26.414  -7.305  1.00  0.00     0.008 C 
ATOM     14  C   UNL     1      -2.164  21.261  -5.723  1.00  0.00     0.017 C 
ATOM     15  C   UNL     1      -4.292  21.351  -7.276  1.00  0.00    -0.020 C 
ATOM     16  C   UNL     1      -4.089  23.197  -9.082  1.00  0.00     0.032 C 
ATOM     17  C   UNL     1      -4.666  21.833  -8.767  1.00  0.00     0.006 C 
ATOM     18  C   UNL     1      -5.604  21.239  -6.432  1.00  0.00     0.008 C 
ATOM     19  C   UNL     1      -3.797  19.865  -7.466  1.00  0.00     0.012 C 
ATOM     20  C   UNL     1      -6.208  21.669  -9.231  1.00  0.00    -0.025 C 
ATOM     21  C   UNL     1      -6.610  22.352  -6.751  1.00  0.00     0.005 C 
ATOM     22  C   UNL     1      -7.251  22.185  -8.148  1.00  0.00     0.003 C 
ATOM     23  C   UNL     1      -6.486  22.366 -10.604  1.00  0.00     0.010 C 
ATOM     24  C   UNL     1      -6.453  20.137  -9.478  1.00  0.00     0.012 C 
ATOM     25  C   UNL     1      -8.203  23.412  -8.545  1.00  0.00    -0.006 C 
ATOM     26  C   UNL     1      -7.968  22.398 -10.977  1.00  0.00     0.033 C 
ATOM     27  C   UNL     1      -8.805  23.268 -10.017  1.00  0.00     0.120 C 
ATOM     28  C   UNL     1      -9.372  23.465  -7.514  1.00  0.00     0.014 C 
ATOM     29  C   UNL     1      -7.488  24.793  -8.449  1.00  0.00     0.014 C 
ENDROOT
BRANCH   1  30
ATOM     30  C   UNL     1      -3.098  26.059  -6.115  1.00  0.00     0.048 C 
ATOM     31  O   UNL     1      -3.196  26.432  -7.320  1.00  0.00    -0.550 OA
ATOM     32  O   UNL     1      -3.990  26.581  -5.185  1.00  0.00    -0.550 OA
ENDBRANCH   1  30
BRANCH  27  33
ATOM     33  O   UNL     1     -10.158  22.827  -9.974  1.00  0.00    -0.393 OA
ATOM     34  H   UNL     1     -10.333  22.398  -9.077  1.00  0.00     0.210 HD
ENDBRANCH  27  33
TORSDOF 2
ENDMDL
MODEL 2
REMARK VINA RESULT:    -5.228      2.654      5.245
REMARK INTER + INTRA:          -5.956
REMARK INTER:                  -5.687
REMARK INTRA:                  -0.269
REMARK UNBOUND:                -0.269
REMARK SMILES C[C@H]1[C@H]2C3=CC[C@@H]4[C@]5(C)CC[C@@H](O)C(C)(C)[C@@H]5CC[C@]4(C)[C@]3(C)CC[C@@]2(C(=O)[O-])CC[C@@H]1C
REMARK SMILES IDX 26 1 30 2 25 3 3 4 31 5 24 6 4 7 2 8 32 9 22 10 5 11 1 12
REMARK SMILES IDX 33 13 23 14 20 15 6 16 7 17 19 18 21 19 8 20 18 21 17 22
REMARK SMILES IDX 10 23 9 24 14 25 11 26 12 27 15 28 16 29 27 30 28 31 29 32
REMARK SMILES IDX 13 33
REMARK H PARENT 13 34
REMARK Flexibility Score: inf
ROOT
ATOM      1  C   UNL     1      -3.549  23.166  -9.236  1.00  0.00     0.017 C 
ATOM      2  C   UNL     1      -2.165  22.754  -9.821  1.00  0.00     0.014 C 
ATOM      3  C   UNL     1      -4.604  23.187 -10.358  1.00  0.00     0.014 C 
ATOM      4  C   UNL     1      -3.519  24.559  -8.486  1.00  0.00     0.030 C 
ATOM      5  C   UNL     1      -1.297  23.901 -10.329  1.00  0.00     0.004 C 
ATOM      6  C   UNL     1      -6.017  23.574  -9.839  1.00  0.00     0.013 C 
ATOM      7  C   UNL     1      -4.934  25.158  -8.224  1.00  0.00    -0.063 C 
ATOM      8  C   UNL     1      -2.421  25.621  -8.867  1.00  0.00    -0.003 C 
ATOM      9  C   UNL     1      -1.071  24.969  -9.257  1.00  0.00    -0.011 C 
ATOM     10  C   UNL     1      -6.133  25.018  -9.222  1.00  0.00    -0.006 C 
ATOM     11  C   UNL     1      -5.184  25.420  -6.935  1.00  0.00    -0.027 C 
ATOM     12  C   UNL     1      -2.809  26.680  -9.905  1.00  0.00     0.008 C 
ATOM     13  C   UNL     1      -0.308  24.425  -8.028  1.00  0.00     0.008 C 
ATOM     14  C   UNL     1      -5.911  25.961 -10.451  1.00  0.00     0.017 C 
ATOM     15  C   UNL     1      -7.614  25.412  -8.515  1.00  0.00    -0.020 C 
ATOM     16  C   UNL     1      -6.400  24.861  -6.294  1.00  0.00     0.032 C 
ATOM     17  C   UNL     1      -7.651  25.457  -6.905  1.00  0.00     0.006 C 
ATOM     18  C   UNL     1      -8.754  24.471  -9.026  1.00  0.00     0.008 C 
ATOM     19  C   UNL     1      -8.053  26.863  -8.951  1.00  0.00     0.012 C 
ATOM     20  C   UNL     1      -9.013  24.964  -6.184  1.00  0.00    -0.025 C 
ATOM     21  C   UNL     1      -8.949  23.239  -8.133  1.00  0.00     0.005 C 
ATOM     22  C   UNL     1      -9.574  23.595  -6.765  1.00  0.00     0.003 C 
ATOM     23  C   UNL     1      -8.849  24.851  -4.632  1.00  0.00     0.010 C 
ATOM     24  C   UNL     1     -10.087  26.088  -6.413  1.00  0.00     0.012 C 
ATOM     25  C   UNL     1      -9.659  22.337  -5.774  1.00  0.00    -0.006 C 
ATOM     26  C   UNL     1     -10.049  24.204  -3.942  1.00  0.00     0.033 C 
ATOM     27  C   UNL     1     -10.240  22.726  -4.339  1.00  0.00     0.120 C 
ATOM     28  C   UNL     1     -10.588  21.271  -6.432  1.00  0.00     0.014 C 
ATOM     29  C   UNL     1      -8.285  21.633  -5.565  1.00  0.00     0.014 C 
ENDROOT
BRANCH   1  30
ATOM     30  C   UNL     1      -3.949  22.028  -8.278  1.00  0.00     0.048 C 
ATOM     31  O   UNL     1      -3.837  22.189  -7.028  1.00  0.00    -0.550 OA
ATOM     32  O   UNL     1      -4.365  20.788  -8.751  1.00  0.00    -0.550 OA
ENDBRANCH   1  30
BRANCH  27  33
ATOM     33  O   UNL     1     -11.603  22.334  -4.216  1.00  0.00    -0.393 OA
ATOM     34  H   UNL     1     -11.660  21.543  -3.593  1.00  0.00     0.210 HD
ENDBRANCH  27  33
TORSDOF 2
ENDMDL
MODEL 3
REMARK VINA RESULT:    -5.058      2.307      7.087
REMARK INTER + INTRA:          -5.771
REMARK INTER:                  -5.502
REMARK INTRA:                  -0.269
REMARK UNBOUND:                -0.269
REMARK SMILES C[C@H]1[C@H]2C3=CC[C@@H]4[C@]5(C)CC[C@@H](O)C(C)(C)[C@@H]5CC[C@]4(C)[C@]3(C)CC[C@@]2(C(=O)[O-])CC[C@@H]1C
REMARK SMILES IDX 26 1 30 2 25 3 3 4 31 5 24 6 4 7 2 8 32 9 22 10 5 11 1 12
REMARK SMILES IDX 33 13 23 14 20 15 6 16 7 17 19 18 21 19 8 20 18 21 17 22
REMARK SMILES IDX 10 23 9 24 14 25 11 26 12 27 15 28 16 29 27 30 28 31 29 32
REMARK SMILES IDX 13 33
REMARK H PARENT 13 34
REMARK Flexibility Score: inf
ROOT
ATOM      1  C   UNL     1      -7.562  26.807  -9.190  1.00  0.00     0.017 C 
ATOM      2  C   UNL     1      -8.468  28.028  -9.534  1.00  0.00     0.014 C 
ATOM      3  C   UNL     1      -7.217  26.036 -10.477  1.00  0.00     0.014 C 
ATOM      4  C   UNL     1      -8.208  25.833  -8.124  1.00  0.00     0.030 C 
ATOM      5  C   UNL     1      -9.969  27.758  -9.524  1.00  0.00     0.004 C 
ATOM      6  C   UNL     1      -6.298  24.812 -10.209  1.00  0.00     0.013 C 
ATOM      7  C   UNL     1      -7.507  24.443  -8.044  1.00  0.00    -0.063 C 
ATOM      8  C   UNL     1      -9.773  25.786  -7.964  1.00  0.00    -0.003 C 
ATOM      9  C   UNL     1     -10.438  27.167  -8.193  1.00  0.00    -0.011 C 
ATOM     10  C   UNL     1      -6.919  23.696  -9.287  1.00  0.00    -0.006 C 
ATOM     11  C   UNL     1      -7.063  24.127  -6.820  1.00  0.00    -0.027 C 
ATOM     12  C   UNL     1     -10.520  24.709  -8.759  1.00  0.00     0.008 C 
ATOM     13  C   UNL     1     -10.212  28.128  -7.003  1.00  0.00     0.008 C 
ATOM     14  C   UNL     1      -8.083  23.111 -10.153  1.00  0.00     0.017 C 
ATOM     15  C   UNL     1      -5.893  22.428  -8.856  1.00  0.00    -0.020 C 
ATOM     16  C   UNL     1      -5.643  23.735  -6.634  1.00  0.00     0.032 C 
ATOM     17  C   UNL     1      -5.352  22.426  -7.339  1.00  0.00     0.006 C 
ATOM     18  C   UNL     1      -4.675  22.325  -9.832  1.00  0.00     0.008 C 
ATOM     19  C   UNL     1      -6.648  21.049  -8.995  1.00  0.00     0.012 C 
ATOM     20  C   UNL     1      -3.845  21.890  -7.092  1.00  0.00    -0.025 C 
ATOM     21  C   UNL     1      -3.461  23.129  -9.350  1.00  0.00     0.005 C 
ATOM     22  C   UNL     1      -2.786  22.493  -8.113  1.00  0.00     0.003 C 
ATOM     23  C   UNL     1      -3.364  22.140  -5.624  1.00  0.00     0.010 C 
ATOM     24  C   UNL     1      -3.880  20.329  -7.263  1.00  0.00     0.012 C 
ATOM     25  C   UNL     1      -1.599  23.393  -7.521  1.00  0.00    -0.006 C 
ATOM     26  C   UNL     1      -1.884  21.824  -5.410  1.00  0.00     0.033 C 
ATOM     27  C   UNL     1      -0.954  22.765  -6.203  1.00  0.00     0.120 C 
ATOM     28  C   UNL     1      -0.500  23.521  -8.620  1.00  0.00     0.014 C 
ATOM     29  C   UNL     1      -2.045  24.849  -7.193  1.00  0.00     0.014 C 
ENDROOT
BRANCH   1  30
ATOM     30  C   UNL     1      -6.241  27.405  -8.669  1.00  0.00     0.048 C 
ATOM     31  O   UNL     1      -6.007  27.424  -7.425  1.00  0.00    -0.550 OA
ATOM     32  O   UNL     1      -5.320  27.999  -9.525  1.00  0.00    -0.550 OA
ENDBRANCH   1  30
BRANCH  27  33
ATOM     33  O   UNL     1       0.288  22.131  -6.494  1.00  0.00    -0.393 OA
ATOM     34  H   UNL     1       0.142  21.450  -7.224  1.00  0.00     0.210 HD
ENDBRANCH  27  33
TORSDOF 2
ENDMDL
MODEL 4
REMARK VINA RESULT:    -4.914      2.058      7.386
REMARK INTER + INTRA:          -5.614
REMARK INTER:                  -5.347
REMARK INTRA:                  -0.268
REMARK UNBOUND:                -0.269
REMARK SMILES C[C@H]1[C@H]2C3=CC[C@@H]4[C@]5(C)CC[C@@H](O)C(C)(C)[C@@H]5CC[C@]4(C)[C@]3(C)CC[C@@]2(C(=O)[O-])CC[C@@H]1C
REMARK SMILES IDX 26 1 30 2 25 3 3 4 31 5 24 6 4 7 2 8 32 9 22 10 5 11 1 12
REMARK SMILES IDX 33 13 23 14 20 15 6 16 7 17 19 18 21 19 8 20 18 21 17 22
REMARK SMILES IDX 10 23 9 24 14 25 11 26 12 27 15 28 16 29 27 30 28 31 29 32
REMARK SMILES IDX 13 33
REMARK H PARENT 13 34
REMARK Flexibility Score: inf
ROOT
ATOM      1  C   UNL     1      -8.266  24.102  -8.519  1.00  0.00     0.017 C 
ATOM      2  C   UNL     1      -9.782  23.854  -8.776  1.00  0.00     0.014 C 
ATOM      3  C   UNL     1      -7.568  24.479  -9.838  1.00  0.00     0.014 C 
ATOM      4  C   UNL     1      -7.538  22.869  -7.846  1.00  0.00     0.030 C 
ATOM      5  C   UNL     1     -10.162  22.422  -9.142  1.00  0.00     0.004 C 
ATOM      6  C   UNL     1      -6.050  24.760  -9.650  1.00  0.00     0.013 C 
ATOM      7  C   UNL     1      -5.983  22.947  -7.919  1.00  0.00    -0.063 C 
ATOM      8  C   UNL     1      -8.129  21.422  -8.035  1.00  0.00    -0.003 C 
ATOM      9  C   UNL     1      -9.677  21.415  -8.098  1.00  0.00    -0.011 C 
ATOM     10  C   UNL     1      -5.201  23.536  -9.140  1.00  0.00    -0.006 C 
ATOM     11  C   UNL     1      -5.377  22.880  -6.726  1.00  0.00    -0.027 C 
ATOM     12  C   UNL     1      -7.555  20.581  -9.181  1.00  0.00     0.008 C 
ATOM     13  C   UNL     1     -10.319  21.640  -6.710  1.00  0.00     0.008 C 
ATOM     14  C   UNL     1      -5.252  22.530 -10.338  1.00  0.00     0.017 C 
ATOM     15  C   UNL     1      -3.581  23.848  -8.784  1.00  0.00    -0.020 C 
ATOM     16  C   UNL     1      -4.412  23.937  -6.332  1.00  0.00     0.032 C 
ATOM     17  C   UNL     1      -3.187  23.902  -7.223  1.00  0.00     0.006 C 
ATOM     18  C   UNL     1      -3.089  25.160  -9.480  1.00  0.00     0.008 C 
ATOM     19  C   UNL     1      -2.666  22.705  -9.371  1.00  0.00     0.012 C 
ATOM     20  C   UNL     1      -2.049  24.966  -6.785  1.00  0.00    -0.025 C 
ATOM     21  C   UNL     1      -3.256  26.399  -8.591  1.00  0.00     0.005 C 
ATOM     22  C   UNL     1      -2.265  26.412  -7.405  1.00  0.00     0.003 C 
ATOM     23  C   UNL     1      -1.913  25.074  -5.229  1.00  0.00     0.010 C 
ATOM     24  C   UNL     1      -0.673  24.399  -7.289  1.00  0.00     0.012 C 
ATOM     25  C   UNL     1      -2.518  27.633  -6.397  1.00  0.00    -0.006 C 
ATOM     26  C   UNL     1      -0.988  26.205  -4.780  1.00  0.00     0.033 C 
ATOM     27  C   UNL     1      -1.537  27.600  -5.138  1.00  0.00     0.120 C 
ATOM     28  C   UNL     1      -2.297  28.960  -7.187  1.00  0.00     0.014 C 
ATOM     29  C   UNL     1      -3.982  27.691  -5.868  1.00  0.00     0.014 C 
ENDROOT
BRANCH   1  30
ATOM     30  C   UNL     1      -8.198  25.348  -7.615  1.00  0.00     0.048 C 
ATOM     31  O   UNL     1      -7.984  25.214  -6.375  1.00  0.00    -0.550 OA
ATOM     32  O   UNL     1      -8.441  26.624  -8.111  1.00  0.00    -0.550 OA
ENDBRANCH   1  30
BRANCH  27  33
ATOM     33  O   UNL     1      -0.480  28.543  -5.289  1.00  0.00    -0.393 OA
ATOM     34  H   UNL     1       0.251  28.126  -5.846  1.00  0.00     0.210 HD
ENDBRANCH  27  33
TORSDOF 2
ENDMDL
MODEL 5
REMARK VINA RESULT:    -4.911      2.849      7.692
REMARK INTER + INTRA:          -5.611
REMARK INTER:                  -5.341
REMARK INTRA:                  -0.270
REMARK UNBOUND:                -0.269
REMARK SMILES C[C@H]1[C@H]2C3=CC[C@@H]4[C@]5(C)CC[C@@H](O)C(C)(C)[C@@H]5CC[C@]4(C)[C@]3(C)CC[C@@]2(C(=O)[O-])CC[C@@H]1C
REMARK SMILES IDX 26 1 30 2 25 3 3 4 31 5 24 6 4 7 2 8 32 9 22 10 5 11 1 12
REMARK SMILES IDX 33 13 23 14 20 15 6 16 7 17 19 18 21 19 8 20 18 21 17 22
REMARK SMILES IDX 10 23 9 24 14 25 11 26 12 27 15 28 16 29 27 30 28 31 29 32
REMARK SMILES IDX 13 33
REMARK H PARENT 13 34
REMARK Flexibility Score: inf
ROOT
ATOM      1  C   UNL     1      -7.337  22.465  -7.993  1.00  0.00     0.017 C 
ATOM      2  C   UNL     1      -8.314  21.266  -7.805  1.00  0.00     0.014 C 
ATOM      3  C   UNL     1      -6.867  22.974  -6.619  1.00  0.00     0.014 C 
ATOM      4  C   UNL     1      -7.961  23.651  -8.834  1.00  0.00     0.030 C 
ATOM      5  C   UNL     1      -9.788  21.632  -7.671  1.00  0.00     0.004 C 
ATOM      6  C   UNL     1      -5.871  24.163  -6.733  1.00  0.00     0.013 C 
ATOM      7  C   UNL     1      -7.161  24.984  -8.720  1.00  0.00    -0.063 C 
ATOM      8  C   UNL     1      -9.525  23.829  -8.881  1.00  0.00    -0.003 C 
ATOM      9  C   UNL     1     -10.280  22.477  -8.848  1.00  0.00    -0.011 C 
ATOM     10  C   UNL     1      -6.453  25.461  -7.409  1.00  0.00    -0.006 C 
ATOM     11  C   UNL     1      -6.759  25.479  -9.898  1.00  0.00    -0.027 C 
ATOM     12  C   UNL     1     -10.144  24.798  -7.867  1.00  0.00     0.008 C 
ATOM     13  C   UNL     1     -10.192  21.726 -10.196  1.00  0.00     0.008 C 
ATOM     14  C   UNL     1      -7.522  25.962  -6.381  1.00  0.00     0.017 C 
ATOM     15  C   UNL     1      -5.357  26.715  -7.683  1.00  0.00    -0.020 C 
ATOM     16  C   UNL     1      -5.325  25.803 -10.107  1.00  0.00     0.032 C 
ATOM     17  C   UNL     1      -4.898  26.946  -9.210  1.00  0.00     0.006 C 
ATOM     18  C   UNL     1      -4.085  26.564  -6.785  1.00  0.00     0.008 C 
ATOM     19  C   UNL     1      -5.995  28.095  -7.261  1.00  0.00     0.012 C 
ATOM     20  C   UNL     1      -3.369  27.416  -9.458  1.00  0.00    -0.025 C 
ATOM     21  C   UNL     1      -2.963  25.778  -7.475  1.00  0.00     0.005 C 
ATOM     22  C   UNL     1      -2.308  26.575  -8.626  1.00  0.00     0.003 C 
ATOM     23  C   UNL     1      -2.987  27.395 -10.975  1.00  0.00     0.010 C 
ATOM     24  C   UNL     1      -3.275  28.922  -9.021  1.00  0.00     0.012 C 
ATOM     25  C   UNL     1      -1.226  25.716  -9.439  1.00  0.00    -0.006 C 
ATOM     26  C   UNL     1      -1.500  27.645 -11.228  1.00  0.00     0.033 C 
ATOM     27  C   UNL     1      -0.604  26.520 -10.670  1.00  0.00     0.120 C 
ATOM     28  C   UNL     1      -0.084  25.325  -8.451  1.00  0.00     0.014 C 
ATOM     29  C   UNL     1      -1.798  24.372  -9.981  1.00  0.00     0.014 C 
ENDROOT
BRANCH   1  30
ATOM     30  C   UNL     1      -6.095  21.881  -8.694  1.00  0.00     0.048 C 
ATOM     31  O   UNL     1      -5.932  22.059  -9.936  1.00  0.00    -0.550 OA
ATOM     32  O   UNL     1      -5.175  21.093  -8.011  1.00  0.00    -0.550 OA
ENDBRANCH   1  30
BRANCH  27  33
ATOM     33  O   UNL     1       0.696  27.009 -10.356  1.00  0.00    -0.393 OA
ATOM     34  H   UNL     1       0.604  27.882  -9.858  1.00  0.00     0.210 HD
ENDBRANCH  27  33
TORSDOF 2
ENDMDL
MODEL 6
REMARK VINA RESULT:    -4.887      2.212      3.146
REMARK INTER + INTRA:          -5.585
REMARK INTER:                  -5.317
REMARK INTRA:                  -0.268
REMARK UNBOUND:                -0.269
REMARK SMILES C[C@H]1[C@H]2C3=CC[C@@H]4[C@]5(C)CC[C@@H](O)C(C)(C)[C@@H]5CC[C@]4(C)[C@]3(C)CC[C@@]2(C(=O)[O-])CC[C@@H]1C
REMARK SMILES IDX 26 1 30 2 25 3 3 4 31 5 24 6 4 7 2 8 32 9 22 10 5 11 1 12
REMARK SMILES IDX 33 13 23 14 20 15 6 16 7 17 19 18 21 19 8 20 18 21 17 22
REMARK SMILES IDX 10 23 9 24 14 25 11 26 12 27 15 28 16 29 27 30 28 31 29 32
REMARK SMILES IDX 13 33
REMARK H PARENT 13 34
REMARK Flexibility Score: inf
ROOT
ATOM      1  C   UNL     1      -2.568  27.523  -8.828  1.00  0.00     0.017 C 
ATOM      2  C   UNL     1      -1.974  28.925  -9.159  1.00  0.00     0.014 C 
ATOM      3  C   UNL     1      -2.840  27.416  -7.317  1.00  0.00     0.014 C 
ATOM      4  C   UNL     1      -1.647  26.328  -9.306  1.00  0.00     0.030 C 
ATOM      5  C   UNL     1      -0.453  29.029  -9.091  1.00  0.00     0.004 C 
ATOM      6  C   UNL     1      -3.452  26.044  -6.918  1.00  0.00     0.013 C 
ATOM      7  C   UNL     1      -2.026  24.956  -8.670  1.00  0.00    -0.063 C 
ATOM      8  C   UNL     1      -0.100  26.563  -9.480  1.00  0.00    -0.003 C 
ATOM      9  C   UNL     1       0.234  27.990  -9.980  1.00  0.00    -0.011 C 
ATOM     10  C   UNL     1      -2.537  24.794  -7.200  1.00  0.00    -0.006 C 
ATOM     11  C   UNL     1      -2.296  23.997  -9.566  1.00  0.00    -0.027 C 
ATOM     12  C   UNL     1       0.795  26.203  -8.288  1.00  0.00     0.008 C 
ATOM     13  C   UNL     1      -0.098  28.177 -11.478  1.00  0.00     0.008 C 
ATOM     14  C   UNL     1      -1.346  24.979  -6.201  1.00  0.00     0.017 C 
ATOM     15  C   UNL     1      -3.231  23.282  -6.918  1.00  0.00    -0.020 C 
ATOM     16  C   UNL     1      -3.580  23.257  -9.484  1.00  0.00     0.032 C 
ATOM     17  C   UNL     1      -3.639  22.425  -8.220  1.00  0.00     0.006 C 
ATOM     18  C   UNL     1      -4.472  23.394  -5.971  1.00  0.00     0.008 C 
ATOM     19  C   UNL     1      -2.213  22.352  -6.150  1.00  0.00     0.012 C 
ATOM     20  C   UNL     1      -4.973  21.514  -8.116  1.00  0.00    -0.025 C 
ATOM     21  C   UNL     1      -5.788  23.568  -6.740  1.00  0.00     0.005 C 
ATOM     22  C   UNL     1      -6.212  22.280  -7.482  1.00  0.00     0.003 C 
ATOM     23  C   UNL     1      -5.379  20.907  -9.500  1.00  0.00     0.010 C 
ATOM     24  C   UNL     1      -4.618  20.284  -7.205  1.00  0.00     0.012 C 
ATOM     25  C   UNL     1      -7.514  22.488  -8.394  1.00  0.00    -0.006 C 
ATOM     26  C   UNL     1      -6.736  20.204  -9.478  1.00  0.00     0.033 C 
ATOM     27  C   UNL     1      -7.905  21.174  -9.212  1.00  0.00     0.120 C 
ATOM     28  C   UNL     1      -8.697  22.881  -7.457  1.00  0.00     0.014 C 
ATOM     29  C   UNL     1      -7.365  23.662  -9.407  1.00  0.00     0.014 C 
ENDROOT
BRANCH   1  30
ATOM     30  C   UNL     1      -3.941  27.480  -9.526  1.00  0.00     0.048 C 
ATOM     31  O   UNL     1      -4.068  26.870 -10.627  1.00  0.00    -0.550 OA
ATOM     32  O   UNL     1      -5.041  28.161  -9.015  1.00  0.00    -0.550 OA
ENDBRANCH   1  30
BRANCH  27  33
ATOM     33  O   UNL     1      -9.001  20.500  -8.603  1.00  0.00    -0.393 OA
ATOM     34  H   UNL     1      -9.843  20.721  -9.112  1.00  0.00     0.210 HD
ENDBRANCH  27  33
TORSDOF 2
ENDMDL
MODEL 7
REMARK VINA RESULT:    -4.858      2.090      4.189
REMARK INTER + INTRA:          -5.553
REMARK INTER:                  -5.302
REMARK INTRA:                  -0.251
REMARK UNBOUND:                -0.269
REMARK SMILES C[C@H]1[C@H]2C3=CC[C@@H]4[C@]5(C)CC[C@@H](O)C(C)(C)[C@@H]5CC[C@]4(C)[C@]3(C)CC[C@@]2(C(=O)[O-])CC[C@@H]1C
REMARK SMILES IDX 26 1 30 2 25 3 3 4 31 5 24 6 4 7 2 8 32 9 22 10 5 11 1 12
REMARK SMILES IDX 33 13 23 14 20 15 6 16 7 17 19 18 21 19 8 20 18 21 17 22
REMARK SMILES IDX 10 23 9 24 14 25 11 26 12 27 15 28 16 29 27 30 28 31 29 32
REMARK SMILES IDX 13 33
REMARK H PARENT 13 34
REMARK Flexibility Score: inf
ROOT
ATOM      1  C   UNL     1      -2.104  24.593  -8.141  1.00  0.00     0.017 C 
ATOM      2  C   UNL     1      -0.546  24.584  -8.123  1.00  0.00     0.014 C 
ATOM      3  C   UNL     1      -2.608  25.759  -9.009  1.00  0.00     0.014 C 
ATOM      4  C   UNL     1      -2.743  24.668  -6.695  1.00  0.00     0.030 C 
ATOM      5  C   UNL     1       0.105  25.411  -7.019  1.00  0.00     0.004 C 
ATOM      6  C   UNL     1      -4.160  25.816  -9.086  1.00  0.00     0.013 C 
ATOM      7  C   UNL     1      -4.255  25.048  -6.701  1.00  0.00    -0.063 C 
ATOM      8  C   UNL     1      -1.915  25.298  -5.514  1.00  0.00    -0.003 C 
ATOM      9  C   UNL     1      -0.398  25.012  -5.630  1.00  0.00    -0.011 C 
ATOM     10  C   UNL     1      -4.891  26.059  -7.713  1.00  0.00    -0.006 C 
ATOM     11  C   UNL     1      -5.042  24.156  -6.085  1.00  0.00    -0.027 C 
ATOM     12  C   UNL     1      -2.146  26.785  -5.220  1.00  0.00     0.008 C 
ATOM     13  C   UNL     1      -0.050  23.549  -5.270  1.00  0.00     0.008 C 
ATOM     14  C   UNL     1      -4.478  27.520  -7.331  1.00  0.00     0.017 C 
ATOM     15  C   UNL     1      -6.576  25.977  -7.739  1.00  0.00    -0.020 C 
ATOM     16  C   UNL     1      -6.210  23.589  -6.805  1.00  0.00     0.032 C 
ATOM     17  C   UNL     1      -7.240  24.663  -7.085  1.00  0.00     0.006 C 
ATOM     18  C   UNL     1      -7.131  26.162  -9.189  1.00  0.00     0.008 C 
ATOM     19  C   UNL     1      -7.190  27.171  -6.909  1.00  0.00     0.012 C 
ATOM     20  C   UNL     1      -8.586  24.092  -7.780  1.00  0.00    -0.025 C 
ATOM     21  C   UNL     1      -7.312  24.830  -9.928  1.00  0.00     0.005 C 
ATOM     22  C   UNL     1      -8.486  23.997  -9.363  1.00  0.00     0.003 C 
ATOM     23  C   UNL     1      -9.007  22.704  -7.194  1.00  0.00     0.010 C 
ATOM     24  C   UNL     1      -9.750  25.078  -7.405  1.00  0.00     0.012 C 
ATOM     25  C   UNL     1      -8.602  22.548 -10.038  1.00  0.00    -0.006 C 
ATOM     26  C   UNL     1     -10.157  22.048  -7.958  1.00  0.00     0.033 C 
ATOM     27  C   UNL     1      -9.771  21.668  -9.402  1.00  0.00     0.120 C 
ATOM     28  C   UNL     1      -8.879  22.749 -11.560  1.00  0.00     0.014 C 
ATOM     29  C   UNL     1      -7.279  21.729  -9.952  1.00  0.00     0.014 C 
ENDROOT
BRANCH   1  30
ATOM     30  C   UNL     1      -2.516  23.296  -8.864  1.00  0.00     0.048 C 
ATOM     31  O   UNL     1      -3.034  22.347  -8.207  1.00  0.00    -0.550 OA
ATOM     32  O   UNL     1      -2.268  23.105 -10.219  1.00  0.00    -0.550 OA
ENDBRANCH   1  30
BRANCH  27  33
ATOM     33  O   UNL     1     -10.916  21.649 -10.250  1.00  0.00    -0.393 OA
ATOM     34  H   UNL     1     -10.913  20.792 -10.782  1.00  0.00     0.210 HD
ENDBRANCH  27  33
TORSDOF 2
ENDMDL
MODEL 8
REMARK VINA RESULT:    -4.661      2.015      7.320
REMARK INTER + INTRA:          -5.339
REMARK INTER:                  -5.070
REMARK INTRA:                  -0.270
REMARK UNBOUND:                -0.269
REMARK SMILES C[C@H]1[C@H]2C3=CC[C@@H]4[C@]5(C)CC[C@@H](O)C(C)(C)[C@@H]5CC[C@]4(C)[C@]3(C)CC[C@@]2(C(=O)[O-])CC[C@@H]1C
REMARK SMILES IDX 26 1 30 2 25 3 3 4 31 5 24 6 4 7 2 8 32 9 22 10 5 11 1 12
REMARK SMILES IDX 33 13 23 14 20 15 6 16 7 17 19 18 21 19 8 20 18 21 17 22
REMARK SMILES IDX 10 23 9 24 14 25 11 26 12 27 15 28 16 29 27 30 28 31 29 32
REMARK SMILES IDX 13 33
REMARK H PARENT 13 34
REMARK Flexibility Score: inf
ROOT
ATOM      1  C   UNL     1      -6.628  22.131  -9.236  1.00  0.00     0.017 C 
ATOM      2  C   UNL     1      -7.838  21.489  -9.978  1.00  0.00     0.014 C 
ATOM      3  C   UNL     1      -5.535  21.071  -9.009  1.00  0.00     0.014 C 
ATOM      4  C   UNL     1      -7.027  22.810  -7.864  1.00  0.00     0.030 C 
ATOM      5  C   UNL     1      -8.911  20.878  -9.082  1.00  0.00     0.004 C 
ATOM      6  C   UNL     1      -4.285  21.650  -8.288  1.00  0.00     0.013 C 
ATOM      7  C   UNL     1      -5.807  23.122  -6.945  1.00  0.00    -0.063 C 
ATOM      8  C   UNL     1      -8.311  22.317  -7.100  1.00  0.00    -0.003 C 
ATOM      9  C   UNL     1      -9.447  21.884  -8.060  1.00  0.00    -0.011 C 
ATOM     10  C   UNL     1      -4.545  22.202  -6.837  1.00  0.00    -0.006 C 
ATOM     11  C   UNL     1      -5.710  24.410  -6.588  1.00  0.00    -0.027 C 
ATOM     12  C   UNL     1      -8.109  21.253  -6.015  1.00  0.00     0.008 C 
ATOM     13  C   UNL     1     -10.144  23.093  -8.724  1.00  0.00     0.008 C 
ATOM     14  C   UNL     1      -4.895  20.919  -6.013  1.00  0.00     0.017 C 
ATOM     15  C   UNL     1      -3.244  22.972  -6.086  1.00  0.00    -0.020 C 
ATOM     16  C   UNL     1      -4.443  25.145  -6.828  1.00  0.00     0.032 C 
ATOM     17  C   UNL     1      -3.325  24.577  -5.979  1.00  0.00     0.006 C 
ATOM     18  C   UNL     1      -1.887  22.572  -6.754  1.00  0.00     0.008 C 
ATOM     19  C   UNL     1      -3.121  22.492  -4.588  1.00  0.00     0.012 C 
ATOM     20  C   UNL     1      -1.936  25.397  -6.118  1.00  0.00    -0.025 C 
ATOM     21  C   UNL     1      -1.474  23.533  -7.876  1.00  0.00     0.005 C 
ATOM     22  C   UNL     1      -1.039  24.916  -7.338  1.00  0.00     0.003 C 
ATOM     23  C   UNL     1      -2.173  26.941  -6.213  1.00  0.00     0.010 C 
ATOM     24  C   UNL     1      -1.137  25.176  -4.784  1.00  0.00     0.012 C 
ATOM     25  C   UNL     1      -0.733  25.969  -8.508  1.00  0.00    -0.006 C 
ATOM     26  C   UNL     1      -0.904  27.728  -6.540  1.00  0.00     0.033 C 
ATOM     27  C   UNL     1      -0.354  27.414  -7.946  1.00  0.00     0.120 C 
ATOM     28  C   UNL     1       0.457  25.416  -9.351  1.00  0.00     0.014 C 
ATOM     29  C   UNL     1      -1.920  26.134  -9.504  1.00  0.00     0.014 C 
ENDROOT
BRANCH   1  30
ATOM     30  C   UNL     1      -6.041  23.164 -10.218  1.00  0.00     0.048 C 
ATOM     31  O   UNL     1      -6.290  24.394 -10.059  1.00  0.00    -0.550 OA
ATOM     32  O   UNL     1      -5.300  22.776 -11.329  1.00  0.00    -0.550 OA
ENDBRANCH   1  30
BRANCH  27  33
ATOM     33  O   UNL     1       1.052  27.633  -8.006  1.00  0.00    -0.393 OA
ATOM     34  H   UNL     1       1.472  27.287  -7.156  1.00  0.00     0.210 HD
ENDBRANCH  27  33
TORSDOF 2
ENDMDL
MODEL 9
REMARK VINA RESULT:    -4.585      1.674      2.426
REMARK INTER + INTRA:          -5.256
REMARK INTER:                  -5.043
REMARK INTRA:                  -0.213
REMARK UNBOUND:                -0.269
REMARK SMILES C[C@H]1[C@H]2C3=CC[C@@H]4[C@]5(C)CC[C@@H](O)C(C)(C)[C@@H]5CC[C@]4(C)[C@]3(C)CC[C@@]2(C(=O)[O-])CC[C@@H]1C
REMARK SMILES IDX 26 1 30 2 25 3 3 4 31 5 24 6 4 7 2 8 32 9 22 10 5 11 1 12
REMARK SMILES IDX 33 13 23 14 20 15 6 16 7 17 19 18 21 19 8 20 18 21 17 22
REMARK SMILES IDX 10 23 9 24 14 25 11 26 12 27 15 28 16 29 27 30 28 31 29 32
REMARK SMILES IDX 13 33
REMARK H PARENT 13 34
REMARK Flexibility Score: inf
ROOT
ATOM      1  C   UNL     1      -1.987  25.661  -7.798  1.00  0.00     0.017 C 
ATOM      2  C   UNL     1      -0.654  26.431  -8.038  1.00  0.00     0.014 C 
ATOM      3  C   UNL     1      -2.737  26.276  -6.603  1.00  0.00     0.014 C 
ATOM      4  C   UNL     1      -1.777  24.109  -7.574  1.00  0.00     0.030 C 
ATOM      5  C   UNL     1       0.558  25.904  -7.276  1.00  0.00     0.004 C 
ATOM      6  C   UNL     1      -4.089  25.564  -6.319  1.00  0.00     0.013 C 
ATOM      7  C   UNL     1      -3.025  23.391  -6.975  1.00  0.00    -0.063 C 
ATOM      8  C   UNL     1      -0.397  23.583  -7.031  1.00  0.00    -0.003 C 
ATOM      9  C   UNL     1       0.803  24.417  -7.544  1.00  0.00    -0.011 C 
ATOM     10  C   UNL     1      -3.977  24.046  -5.919  1.00  0.00    -0.006 C 
ATOM     11  C   UNL     1      -3.474  22.369  -7.716  1.00  0.00    -0.027 C 
ATOM     12  C   UNL     1      -0.280  23.376  -5.516  1.00  0.00     0.008 C 
ATOM     13  C   UNL     1       1.125  24.126  -9.027  1.00  0.00     0.008 C 
ATOM     14  C   UNL     1      -3.271  24.086  -4.522  1.00  0.00     0.017 C 
ATOM     15  C   UNL     1      -5.432  23.208  -5.750  1.00  0.00    -0.020 C 
ATOM     16  C   UNL     1      -4.899  22.334  -8.130  1.00  0.00     0.032 C 
ATOM     17  C   UNL     1      -5.803  22.170  -6.925  1.00  0.00     0.006 C 
ATOM     18  C   UNL     1      -6.631  24.190  -5.539  1.00  0.00     0.008 C 
ATOM     19  C   UNL     1      -5.397  22.317  -4.448  1.00  0.00     0.012 C 
ATOM     20  C   UNL     1      -7.367  22.025  -7.315  1.00  0.00    -0.025 C 
ATOM     21  C   UNL     1      -7.310  24.586  -6.856  1.00  0.00     0.005 C 
ATOM     22  C   UNL     1      -8.108  23.420  -7.483  1.00  0.00     0.003 C 
ATOM     23  C   UNL     1      -7.574  21.159  -8.603  1.00  0.00     0.010 C 
ATOM     24  C   UNL     1      -8.056  21.222  -6.154  1.00  0.00     0.012 C 
ATOM     25  C   UNL     1      -8.711  23.783  -8.923  1.00  0.00    -0.006 C 
ATOM     26  C   UNL     1      -9.016  21.162  -9.108  1.00  0.00     0.033 C 
ATOM     27  C   UNL     1      -9.473  22.552  -9.596  1.00  0.00     0.120 C 
ATOM     28  C   UNL     1      -9.709  24.968  -8.741  1.00  0.00     0.014 C 
ATOM     29  C   UNL     1      -7.630  24.287  -9.926  1.00  0.00     0.014 C 
ENDROOT
BRANCH   1  30
ATOM     30  C   UNL     1      -2.851  25.931  -9.045  1.00  0.00     0.048 C 
ATOM     31  O   UNL     1      -3.136  24.981  -9.831  1.00  0.00    -0.550 OA
ATOM     32  O   UNL     1      -3.271  27.214  -9.378  1.00  0.00    -0.550 OA
ENDBRANCH   1  30
BRANCH  27  33
ATOM     33  O   UNL     1     -10.885  22.698  -9.475  1.00  0.00    -0.393 OA
ATOM     34  H   UNL     1     -11.145  23.619  -9.794  1.00  0.00     0.210 HD
ENDBRANCH  27  33
TORSDOF 2
ENDMDL
