MODEL 1
REMARK VINA RESULT:    -0.633      0.000      0.000
REMARK INTER + INTRA:          -6.540
REMARK INTER:                  -1.448
REMARK INTRA:                  -5.092
REMARK UNBOUND:                -5.092
REMARK SMILES CCCCCCCCCCCCCCCCCCCCCCCC(=O)[O-]
REMARK SMILES IDX 13 1 14 2 15 3 16 4 17 5 18 6 19 7 20 8 21 9 22 10 23 11
REMARK SMILES IDX 24 12 25 13 26 14 12 15 11 16 10 17 9 18 8 19 7 20 6 21 5 22
REMARK SMILES IDX 4 23 3 24 2 25 1 26
REMARK H PARENT
REMARK Flexibility Score: inf
ROOT
ATOM      1  C   UNL     1     -19.526 -24.873  82.692  1.00  0.00     0.000 C 
ENDROOT
BRANCH   1   2
ATOM      2  C   UNL     1     -19.954 -24.695  84.159  1.00  0.00     0.000 C 
BRANCH   2   3
ATOM      3  C   UNL     1     -20.751 -23.398  84.398  1.00  0.00     0.000 C 
BRANCH   3   4
ATOM      4  C   UNL     1     -20.024 -22.337  85.243  1.00  0.00     0.000 C 
BRANCH   4   5
ATOM      5  C   UNL     1     -19.586 -21.114  84.424  1.00  0.00     0.000 C 
BRANCH   5   6
ATOM      6  C   UNL     1     -20.198 -21.149  83.019  1.00  0.00     0.000 C 
BRANCH   6   7
ATOM      7  C   UNL     1     -19.136 -20.859  81.947  1.00  0.00     0.000 C 
BRANCH   7   8
ATOM      8  C   UNL     1     -17.844 -21.673  82.175  1.00  0.00     0.000 C 
BRANCH   8   9
ATOM      9  C   UNL     1     -17.158 -22.110  80.870  1.00  0.00     0.000 C 
BRANCH   9  10
ATOM     10  C   UNL     1     -18.119 -22.806  79.892  1.00  0.00     0.006 C 
BRANCH  10  11
ATOM     11  C   UNL     1     -17.422 -23.899  79.070  1.00  0.00     0.053 C 
BRANCH  11  12
ATOM     12  C   UNL     1     -18.268 -25.129  78.951  1.00  0.00     0.041 C 
ATOM     13  O   UNL     1     -19.524 -25.037  78.962  1.00  0.00    -0.550 OA
ATOM     14  O   UNL     1     -17.670 -26.372  78.791  1.00  0.00    -0.550 OA
ENDBRANCH  11  12
ENDBRANCH  10  11
ENDBRANCH   9  10
ENDBRANCH   8   9
ENDBRANCH   7   8
ENDBRANCH   6   7
ENDBRANCH   5   6
ENDBRANCH   4   5
ENDBRANCH   3   4
ENDBRANCH   2   3
ENDBRANCH   1   2
BRANCH   1  15
ATOM     15  C   UNL     1     -18.475 -25.978  82.512  1.00  0.00     0.000 C 
BRANCH  15  16
ATOM     16  C   UNL     1     -17.039 -25.429  82.482  1.00  0.00     0.000 C 
BRANCH  16  17
ATOM     17  C   UNL     1     -16.070 -26.239  83.362  1.00  0.00     0.000 C 
BRANCH  17  18
ATOM     18  C   UNL     1     -16.594 -26.480  84.793  1.00  0.00    -0.000 C 
BRANCH  18  19
ATOM     19  C   UNL     1     -15.983 -25.496  85.806  1.00  0.00    -0.000 C 
BRANCH  19  20
ATOM     20  C   UNL     1     -16.887 -24.283  86.078  1.00  0.00    -0.000 C 
BRANCH  20  21
ATOM     21  C   UNL     1     -16.445 -23.028  85.307  1.00  0.00    -0.000 C 
BRANCH  21  22
ATOM     22  C   UNL     1     -15.192 -22.385  85.920  1.00  0.00    -0.000 C 
BRANCH  22  23
ATOM     23  C   UNL     1     -14.032 -22.284  84.913  1.00  0.00    -0.000 C 
BRANCH  23  24
ATOM     24  C   UNL     1     -14.476 -22.636  83.478  1.00  0.00    -0.000 C 
BRANCH  24  25
ATOM     25  C   UNL     1     -13.526 -23.614  82.764  1.00  0.00    -0.003 C 
ATOM     26  C   UNL     1     -13.884 -23.830  81.294  1.00  0.00     0.004 C 
ENDBRANCH  24  25
ENDBRANCH  23  24
ENDBRANCH  22  23
ENDBRANCH  21  22
ENDBRANCH  20  21
ENDBRANCH  19  20
ENDBRANCH  18  19
ENDBRANCH  17  18
ENDBRANCH  16  17
ENDBRANCH  15  16
ENDBRANCH   1  15
TORSDOF 22
ENDMDL
MODEL 2
REMARK VINA RESULT:    -0.628      7.598     10.152
REMARK INTER + INTRA:          -6.528
REMARK INTER:                  -1.822
REMARK INTRA:                  -4.706
REMARK UNBOUND:                -5.092
REMARK SMILES CCCCCCCCCCCCCCCCCCCCCCCC(=O)[O-]
REMARK SMILES IDX 13 1 14 2 15 3 16 4 17 5 18 6 19 7 20 8 21 9 22 10 23 11
REMARK SMILES IDX 24 12 25 13 26 14 12 15 11 16 10 17 9 18 8 19 7 20 6 21 5 22
REMARK SMILES IDX 4 23 3 24 2 25 1 26
REMARK H PARENT
REMARK Flexibility Score: inf
ROOT
ATOM      1  C   UNL     1     -16.106 -13.076  80.869  1.00  0.00     0.000 C 
ENDROOT
BRANCH   1   2
ATOM      2  C   UNL     1     -16.072 -11.755  81.657  1.00  0.00     0.000 C 
BRANCH   2   3
ATOM      3  C   UNL     1     -17.465 -11.116  81.818  1.00  0.00     0.000 C 
BRANCH   3   4
ATOM      4  C   UNL     1     -17.967 -11.015  83.269  1.00  0.00     0.000 C 
BRANCH   4   5
ATOM      5  C   UNL     1     -19.325 -11.699  83.484  1.00  0.00     0.000 C 
BRANCH   5   6
ATOM      6  C   UNL     1     -20.038 -11.932  82.147  1.00  0.00     0.000 C 
BRANCH   6   7
ATOM      7  C   UNL     1     -20.494 -13.393  82.012  1.00  0.00     0.000 C 
BRANCH   7   8
ATOM      8  C   UNL     1     -19.332 -14.328  81.610  1.00  0.00     0.000 C 
BRANCH   8   9
ATOM      9  C   UNL     1     -19.739 -15.408  80.593  1.00  0.00     0.000 C 
BRANCH   9  10
ATOM     10  C   UNL     1     -18.537 -16.009  79.845  1.00  0.00     0.006 C 
BRANCH  10  11
ATOM     11  C   UNL     1     -17.568 -16.733  80.788  1.00  0.00     0.053 C 
BRANCH  11  12
ATOM     12  C   UNL     1     -18.137 -18.027  81.283  1.00  0.00     0.041 C 
ATOM     13  O   UNL     1     -18.678 -18.087  82.420  1.00  0.00    -0.550 OA
ATOM     14  O   UNL     1     -18.103 -19.157  80.477  1.00  0.00    -0.550 OA
ENDBRANCH  11  12
ENDBRANCH  10  11
ENDBRANCH   9  10
ENDBRANCH   8   9
ENDBRANCH   7   8
ENDBRANCH   6   7
ENDBRANCH   5   6
ENDBRANCH   4   5
ENDBRANCH   3   4
ENDBRANCH   2   3
ENDBRANCH   1   2
BRANCH   1  15
ATOM     15  C   UNL     1     -14.704 -13.580  80.498  1.00  0.00     0.000 C 
BRANCH  15  16
ATOM     16  C   UNL     1     -14.163 -14.616  81.498  1.00  0.00     0.000 C 
BRANCH  16  17
ATOM     17  C   UNL     1     -13.274 -13.989  82.587  1.00  0.00     0.000 C 
BRANCH  17  18
ATOM     18  C   UNL     1     -13.147 -14.862  83.854  1.00  0.00    -0.000 C 
BRANCH  18  19
ATOM     19  C   UNL     1     -13.733 -14.168  85.096  1.00  0.00    -0.000 C 
BRANCH  19  20
ATOM     20  C   UNL     1     -14.820 -13.140  84.745  1.00  0.00    -0.000 C 
BRANCH  20  21
ATOM     21  C   UNL     1     -16.231 -13.609  85.141  1.00  0.00    -0.000 C 
BRANCH  21  22
ATOM     22  C   UNL     1     -16.793 -14.643  84.154  1.00  0.00    -0.000 C 
BRANCH  22  23
ATOM     23  C   UNL     1     -17.957 -15.453  84.753  1.00  0.00    -0.000 C 
BRANCH  23  24
ATOM     24  C   UNL     1     -18.893 -14.577  85.613  1.00  0.00    -0.000 C 
BRANCH  24  25
ATOM     25  C   UNL     1     -20.382 -14.924  85.448  1.00  0.00    -0.003 C 
ATOM     26  C   UNL     1     -20.614 -16.178  84.606  1.00  0.00     0.004 C 
ENDBRANCH  24  25
ENDBRANCH  23  24
ENDBRANCH  22  23
ENDBRANCH  21  22
ENDBRANCH  20  21
ENDBRANCH  19  20
ENDBRANCH  18  19
ENDBRANCH  17  18
ENDBRANCH  16  17
ENDBRANCH  15  16
ENDBRANCH   1  15
TORSDOF 22
ENDMDL
MODEL 3
REMARK VINA RESULT:    -0.613      3.342      6.395
REMARK INTER + INTRA:          -6.494
REMARK INTER:                  -1.247
REMARK INTRA:                  -5.247
REMARK UNBOUND:                -5.092
REMARK SMILES CCCCCCCCCCCCCCCCCCCCCCCC(=O)[O-]
REMARK SMILES IDX 13 1 14 2 15 3 16 4 17 5 18 6 19 7 20 8 21 9 22 10 23 11
REMARK SMILES IDX 24 12 25 13 26 14 12 15 11 16 10 17 9 18 8 19 7 20 6 21 5 22
REMARK SMILES IDX 4 23 3 24 2 25 1 26
REMARK H PARENT
REMARK Flexibility Score: inf
ROOT
ATOM      1  C   UNL     1     -18.781 -21.906  77.398  1.00  0.00     0.000 C 
ENDROOT
BRANCH   1   2
ATOM      2  C   UNL     1     -19.000 -20.484  76.851  1.00  0.00     0.000 C 
BRANCH   2   3
ATOM      3  C   UNL     1     -18.124 -19.429  77.554  1.00  0.00     0.000 C 
BRANCH   3   4
ATOM      4  C   UNL     1     -18.654 -18.953  78.919  1.00  0.00     0.000 C 
BRANCH   4   5
ATOM      5  C   UNL     1     -17.588 -18.993  80.024  1.00  0.00     0.000 C 
BRANCH   5   6
ATOM      6  C   UNL     1     -16.199 -19.265  79.435  1.00  0.00     0.000 C 
BRANCH   6   7
ATOM      7  C   UNL     1     -15.282 -19.935  80.470  1.00  0.00     0.000 C 
BRANCH   7   8
ATOM      8  C   UNL     1     -14.361 -20.997  79.829  1.00  0.00     0.000 C 
BRANCH   8   9
ATOM      9  C   UNL     1     -13.916 -22.093  80.812  1.00  0.00     0.000 C 
BRANCH   9  10
ATOM     10  C   UNL     1     -14.363 -21.819  82.258  1.00  0.00     0.006 C 
BRANCH  10  11
ATOM     11  C   UNL     1     -14.260 -23.067  83.144  1.00  0.00     0.053 C 
BRANCH  11  12
ATOM     12  C   UNL     1     -13.610 -22.762  84.459  1.00  0.00     0.041 C 
ATOM     13  O   UNL     1     -12.878 -21.743  84.582  1.00  0.00    -0.550 OA
ATOM     14  O   UNL     1     -13.841 -23.580  85.557  1.00  0.00    -0.550 OA
ENDBRANCH  11  12
ENDBRANCH  10  11
ENDBRANCH   9  10
ENDBRANCH   8   9
ENDBRANCH   7   8
ENDBRANCH   6   7
ENDBRANCH   5   6
ENDBRANCH   4   5
ENDBRANCH   3   4
ENDBRANCH   2   3
ENDBRANCH   1   2
BRANCH   1  15
ATOM     15  C   UNL     1     -17.297 -22.299  77.446  1.00  0.00     0.000 C 
BRANCH  15  16
ATOM     16  C   UNL     1     -16.964 -23.208  78.641  1.00  0.00     0.000 C 
BRANCH  16  17
ATOM     17  C   UNL     1     -17.636 -22.751  79.947  1.00  0.00     0.000 C 
BRANCH  17  18
ATOM     18  C   UNL     1     -17.526 -23.783  81.090  1.00  0.00    -0.000 C 
BRANCH  18  19
ATOM     19  C   UNL     1     -17.945 -23.190  82.447  1.00  0.00    -0.000 C 
BRANCH  19  20
ATOM     20  C   UNL     1     -18.057 -21.658  82.419  1.00  0.00    -0.000 C 
BRANCH  20  21
ATOM     21  C   UNL     1     -19.440 -21.155  82.864  1.00  0.00    -0.000 C 
BRANCH  21  22
ATOM     22  C   UNL     1     -20.362 -20.865  81.669  1.00  0.00    -0.000 C 
BRANCH  22  23
ATOM     23  C   UNL     1     -21.345 -22.017  81.394  1.00  0.00    -0.000 C 
BRANCH  23  24
ATOM     24  C   UNL     1     -21.443 -22.352  79.891  1.00  0.00    -0.000 C 
BRANCH  24  25
ATOM     25  C   UNL     1     -21.152 -23.828  79.571  1.00  0.00    -0.003 C 
ATOM     26  C   UNL     1     -21.019 -24.696  80.821  1.00  0.00     0.004 C 
ENDBRANCH  24  25
ENDBRANCH  23  24
ENDBRANCH  22  23
ENDBRANCH  21  22
ENDBRANCH  20  21
ENDBRANCH  19  20
ENDBRANCH  18  19
ENDBRANCH  17  18
ENDBRANCH  16  17
ENDBRANCH  15  16
ENDBRANCH   1  15
TORSDOF 22
ENDMDL
MODEL 4
REMARK VINA RESULT:    -0.575      3.246      4.942
REMARK INTER + INTRA:          -6.406
REMARK INTER:                  -1.932
REMARK INTRA:                  -4.474
REMARK UNBOUND:                -5.092
REMARK SMILES CCCCCCCCCCCCCCCCCCCCCCCC(=O)[O-]
REMARK SMILES IDX 13 1 14 2 15 3 16 4 17 5 18 6 19 7 20 8 21 9 22 10 23 11
REMARK SMILES IDX 24 12 25 13 26 14 12 15 11 16 10 17 9 18 8 19 7 20 6 21 5 22
REMARK SMILES IDX 4 23 3 24 2 25 1 26
REMARK H PARENT
REMARK Flexibility Score: inf
ROOT
ATOM      1  C   UNL     1     -20.112 -21.681  82.095  1.00  0.00     0.000 C 
ENDROOT
BRANCH   1   2
ATOM      2  C   UNL     1     -21.095 -21.414  83.248  1.00  0.00     0.000 C 
BRANCH   2   3
ATOM      3  C   UNL     1     -20.565 -21.897  84.612  1.00  0.00     0.000 C 
BRANCH   3   4
ATOM      4  C   UNL     1     -20.635 -20.853  85.741  1.00  0.00     0.000 C 
BRANCH   4   5
ATOM      5  C   UNL     1     -19.368 -19.991  85.840  1.00  0.00     0.000 C 
BRANCH   5   6
ATOM      6  C   UNL     1     -19.700 -18.505  85.650  1.00  0.00     0.000 C 
BRANCH   6   7
ATOM      7  C   UNL     1     -19.246 -18.010  84.268  1.00  0.00     0.000 C 
BRANCH   7   8
ATOM      8  C   UNL     1     -20.437 -17.808  83.305  1.00  0.00     0.000 C 
BRANCH   8   9
ATOM      9  C   UNL     1     -20.060 -17.977  81.823  1.00  0.00     0.000 C 
BRANCH   9  10
ATOM     10  C   UNL     1     -18.542 -17.928  81.583  1.00  0.00     0.006 C 
BRANCH  10  11
ATOM     11  C   UNL     1     -18.085 -16.575  81.020  1.00  0.00     0.053 C 
BRANCH  11  12
ATOM     12  C   UNL     1     -18.460 -16.418  79.579  1.00  0.00     0.041 C 
ATOM     13  O   UNL     1     -18.260 -17.359  78.766  1.00  0.00    -0.550 OA
ATOM     14  O   UNL     1     -19.065 -15.246  79.140  1.00  0.00    -0.550 OA
ENDBRANCH  11  12
ENDBRANCH  10  11
ENDBRANCH   9  10
ENDBRANCH   8   9
ENDBRANCH   7   8
ENDBRANCH   6   7
ENDBRANCH   5   6
ENDBRANCH   4   5
ENDBRANCH   3   4
ENDBRANCH   2   3
ENDBRANCH   1   2
BRANCH   1  15
ATOM     15  C   UNL     1     -18.644 -21.550  82.526  1.00  0.00     0.000 C 
BRANCH  15  16
ATOM     16  C   UNL     1     -17.674 -22.208  81.531  1.00  0.00     0.000 C 
BRANCH  16  17
ATOM     17  C   UNL     1     -16.213 -22.182  82.012  1.00  0.00     0.000 C 
BRANCH  17  18
ATOM     18  C   UNL     1     -15.500 -23.545  81.888  1.00  0.00    -0.000 C 
BRANCH  18  19
ATOM     19  C   UNL     1     -14.273 -23.643  82.813  1.00  0.00    -0.000 C 
BRANCH  19  20
ATOM     20  C   UNL     1     -13.891 -22.293  83.439  1.00  0.00    -0.000 C 
BRANCH  20  21
ATOM     21  C   UNL     1     -13.657 -22.387  84.956  1.00  0.00    -0.000 C 
BRANCH  21  22
ATOM     22  C   UNL     1     -14.790 -23.143  85.669  1.00  0.00    -0.000 C 
BRANCH  22  23
ATOM     23  C   UNL     1     -16.071 -22.298  85.791  1.00  0.00    -0.000 C 
BRANCH  23  24
ATOM     24  C   UNL     1     -17.346 -23.166  85.742  1.00  0.00    -0.000 C 
BRANCH  24  25
ATOM     25  C   UNL     1     -17.146 -24.510  85.021  1.00  0.00    -0.003 C 
ATOM     26  C   UNL     1     -18.306 -24.871  84.094  1.00  0.00     0.004 C 
ENDBRANCH  24  25
ENDBRANCH  23  24
ENDBRANCH  22  23
ENDBRANCH  21  22
ENDBRANCH  20  21
ENDBRANCH  19  20
ENDBRANCH  18  19
ENDBRANCH  17  18
ENDBRANCH  16  17
ENDBRANCH  15  16
ENDBRANCH   1  15
TORSDOF 22
ENDMDL
MODEL 5
REMARK VINA RESULT:    -0.562      5.006      8.080
REMARK INTER + INTRA:          -6.378
REMARK INTER:                  -1.032
REMARK INTRA:                  -5.346
REMARK UNBOUND:                -5.092
REMARK SMILES CCCCCCCCCCCCCCCCCCCCCCCC(=O)[O-]
REMARK SMILES IDX 13 1 14 2 15 3 16 4 17 5 18 6 19 7 20 8 21 9 22 10 23 11
REMARK SMILES IDX 24 12 25 13 26 14 12 15 11 16 10 17 9 18 8 19 7 20 6 21 5 22
REMARK SMILES IDX 4 23 3 24 2 25 1 26
REMARK H PARENT
REMARK Flexibility Score: inf
ROOT
ATOM      1  C   UNL     1     -21.628 -16.802  82.217  1.00  0.00     0.000 C 
ENDROOT
BRANCH   1   2
ATOM      2  C   UNL     1     -22.488 -16.722  80.943  1.00  0.00     0.000 C 
BRANCH   2   3
ATOM      3  C   UNL     1     -21.707 -17.092  79.668  1.00  0.00     0.000 C 
BRANCH   3   4
ATOM      4  C   UNL     1     -20.342 -16.396  79.519  1.00  0.00     0.000 C 
BRANCH   4   5
ATOM      5  C   UNL     1     -19.170 -17.385  79.437  1.00  0.00     0.000 C 
BRANCH   5   6
ATOM      6  C   UNL     1     -18.171 -17.146  80.575  1.00  0.00     0.000 C 
BRANCH   6   7
ATOM      7  C   UNL     1     -18.348 -18.185  81.693  1.00  0.00     0.000 C 
BRANCH   7   8
ATOM      8  C   UNL     1     -18.877 -19.532  81.155  1.00  0.00     0.000 C 
BRANCH   8   9
ATOM      9  C   UNL     1     -19.527 -20.410  82.237  1.00  0.00     0.000 C 
BRANCH   9  10
ATOM     10  C   UNL     1     -21.064 -20.380  82.189  1.00  0.00     0.006 C 
BRANCH  10  11
ATOM     11  C   UNL     1     -21.605 -20.587  80.768  1.00  0.00     0.053 C 
BRANCH  11  12
ATOM     12  C   UNL     1     -21.548 -22.025  80.356  1.00  0.00     0.041 C 
ATOM     13  O   UNL     1     -22.073 -22.913  81.080  1.00  0.00    -0.550 OA
ATOM     14  O   UNL     1     -20.948 -22.382  79.155  1.00  0.00    -0.550 OA
ENDBRANCH  11  12
ENDBRANCH  10  11
ENDBRANCH   9  10
ENDBRANCH   8   9
ENDBRANCH   7   8
ENDBRANCH   6   7
ENDBRANCH   5   6
ENDBRANCH   4   5
ENDBRANCH   3   4
ENDBRANCH   2   3
ENDBRANCH   1   2
BRANCH   1  15
ATOM     15  C   UNL     1     -21.498 -15.448  82.930  1.00  0.00     0.000 C 
BRANCH  15  16
ATOM     16  C   UNL     1     -20.050 -14.930  82.956  1.00  0.00     0.000 C 
BRANCH  16  17
ATOM     17  C   UNL     1     -19.466 -14.857  84.378  1.00  0.00     0.000 C 
BRANCH  17  18
ATOM     18  C   UNL     1     -18.409 -15.945  84.665  1.00  0.00    -0.000 C 
BRANCH  18  19
ATOM     19  C   UNL     1     -18.850 -16.897  85.790  1.00  0.00    -0.000 C 
BRANCH  19  20
ATOM     20  C   UNL     1     -19.210 -18.300  85.276  1.00  0.00    -0.000 C 
BRANCH  20  21
ATOM     21  C   UNL     1     -20.715 -18.602  85.379  1.00  0.00    -0.000 C 
BRANCH  21  22
ATOM     22  C   UNL     1     -21.477 -17.495  86.125  1.00  0.00    -0.000 C 
BRANCH  22  23
ATOM     23  C   UNL     1     -22.955 -17.415  85.703  1.00  0.00    -0.000 C 
BRANCH  23  24
ATOM     24  C   UNL     1     -23.389 -18.638  84.868  1.00  0.00    -0.000 C 
BRANCH  24  25
ATOM     25  C   UNL     1     -24.539 -18.337  83.891  1.00  0.00    -0.003 C 
ATOM     26  C   UNL     1     -24.596 -19.311  82.715  1.00  0.00     0.004 C 
ENDBRANCH  24  25
ENDBRANCH  23  24
ENDBRANCH  22  23
ENDBRANCH  21  22
ENDBRANCH  20  21
ENDBRANCH  19  20
ENDBRANCH  18  19
ENDBRANCH  17  18
ENDBRANCH  16  17
ENDBRANCH  15  16
ENDBRANCH   1  15
TORSDOF 22
ENDMDL
MODEL 6
REMARK VINA RESULT:    -0.556      3.052      5.592
REMARK INTER + INTRA:          -6.363
REMARK INTER:                  -1.177
REMARK INTRA:                  -5.187
REMARK UNBOUND:                -5.092
REMARK SMILES CCCCCCCCCCCCCCCCCCCCCCCC(=O)[O-]
REMARK SMILES IDX 13 1 14 2 15 3 16 4 17 5 18 6 19 7 20 8 21 9 22 10 23 11
REMARK SMILES IDX 24 12 25 13 26 14 12 15 11 16 10 17 9 18 8 19 7 20 6 21 5 22
REMARK SMILES IDX 4 23 3 24 2 25 1 26
REMARK H PARENT
REMARK Flexibility Score: inf
ROOT
ATOM      1  C   UNL     1     -17.836 -20.602  79.340  1.00  0.00     0.000 C 
ENDROOT
BRANCH   1   2
ATOM      2  C   UNL     1     -17.350 -20.650  80.799  1.00  0.00     0.000 C 
BRANCH   2   3
ATOM      3  C   UNL     1     -18.483 -20.416  81.817  1.00  0.00     0.000 C 
BRANCH   3   4
ATOM      4  C   UNL     1     -19.861 -20.950  81.387  1.00  0.00     0.000 C 
BRANCH   4   5
ATOM      5  C   UNL     1     -20.517 -21.843  82.451  1.00  0.00     0.000 C 
BRANCH   5   6
ATOM      6  C   UNL     1     -20.831 -23.232  81.882  1.00  0.00     0.000 C 
BRANCH   6   7
ATOM      7  C   UNL     1     -19.654 -23.767  81.051  1.00  0.00     0.000 C 
BRANCH   7   8
ATOM      8  C   UNL     1     -18.749 -24.713  81.870  1.00  0.00     0.000 C 
BRANCH   8   9
ATOM      9  C   UNL     1     -17.476 -24.033  82.401  1.00  0.00     0.000 C 
BRANCH   9  10
ATOM     10  C   UNL     1     -17.362 -24.088  83.934  1.00  0.00     0.006 C 
BRANCH  10  11
ATOM     11  C   UNL     1     -17.239 -22.692  84.558  1.00  0.00     0.053 C 
BRANCH  11  12
ATOM     12  C   UNL     1     -18.453 -22.330  85.356  1.00  0.00     0.041 C 
ATOM     13  O   UNL     1     -19.347 -23.192  85.574  1.00  0.00    -0.550 OA
ATOM     14  O   UNL     1     -18.583 -21.054  85.889  1.00  0.00    -0.550 OA
ENDBRANCH  11  12
ENDBRANCH  10  11
ENDBRANCH   9  10
ENDBRANCH   8   9
ENDBRANCH   7   8
ENDBRANCH   6   7
ENDBRANCH   5   6
ENDBRANCH   4   5
ENDBRANCH   3   4
ENDBRANCH   2   3
ENDBRANCH   1   2
BRANCH   1  15
ATOM     15  C   UNL     1     -17.592 -21.920  78.591  1.00  0.00     0.000 C 
BRANCH  15  16
ATOM     16  C   UNL     1     -16.477 -22.765  79.228  1.00  0.00     0.000 C 
BRANCH  16  17
ATOM     17  C   UNL     1     -15.411 -23.215  78.212  1.00  0.00     0.000 C 
BRANCH  17  18
ATOM     18  C   UNL     1     -15.035 -22.120  77.191  1.00  0.00    -0.000 C 
BRANCH  18  19
ATOM     19  C   UNL     1     -13.871 -21.243  77.685  1.00  0.00    -0.000 C 
BRANCH  19  20
ATOM     20  C   UNL     1     -14.322 -19.834  78.099  1.00  0.00    -0.000 C 
BRANCH  20  21
ATOM     21  C   UNL     1     -14.073 -19.544  79.589  1.00  0.00    -0.000 C 
BRANCH  21  22
ATOM     22  C   UNL     1     -13.512 -20.768  80.330  1.00  0.00    -0.000 C 
BRANCH  22  23
ATOM     23  C   UNL     1     -13.762 -20.700  81.847  1.00  0.00    -0.000 C 
BRANCH  23  24
ATOM     24  C   UNL     1     -14.356 -22.014  82.397  1.00  0.00    -0.000 C 
BRANCH  24  25
ATOM     25  C   UNL     1     -13.379 -23.201  82.337  1.00  0.00    -0.003 C 
ATOM     26  C   UNL     1     -13.883 -24.347  81.461  1.00  0.00     0.004 C 
ENDBRANCH  24  25
ENDBRANCH  23  24
ENDBRANCH  22  23
ENDBRANCH  21  22
ENDBRANCH  20  21
ENDBRANCH  19  20
ENDBRANCH  18  19
ENDBRANCH  17  18
ENDBRANCH  16  17
ENDBRANCH  15  16
ENDBRANCH   1  15
TORSDOF 22
ENDMDL
MODEL 7
REMARK VINA RESULT:    -0.548      2.281      5.120
REMARK INTER + INTRA:          -6.345
REMARK INTER:                  -1.748
REMARK INTRA:                  -4.597
REMARK UNBOUND:                -5.092
REMARK SMILES CCCCCCCCCCCCCCCCCCCCCCCC(=O)[O-]
REMARK SMILES IDX 13 1 14 2 15 3 16 4 17 5 18 6 19 7 20 8 21 9 22 10 23 11
REMARK SMILES IDX 24 12 25 13 26 14 12 15 11 16 10 17 9 18 8 19 7 20 6 21 5 22
REMARK SMILES IDX 4 23 3 24 2 25 1 26
REMARK H PARENT
REMARK Flexibility Score: inf
ROOT
ATOM      1  C   UNL     1     -16.208 -22.296  80.123  1.00  0.00     0.000 C 
ENDROOT
BRANCH   1   2
ATOM      2  C   UNL     1     -15.147 -22.885  79.177  1.00  0.00     0.000 C 
BRANCH   2   3
ATOM      3  C   UNL     1     -15.433 -24.348  78.790  1.00  0.00     0.000 C 
BRANCH   3   4
ATOM      4  C   UNL     1     -16.478 -25.058  79.670  1.00  0.00     0.000 C 
BRANCH   4   5
ATOM      5  C   UNL     1     -17.845 -25.199  78.983  1.00  0.00     0.000 C 
BRANCH   5   6
ATOM      6  C   UNL     1     -18.985 -25.033  79.994  1.00  0.00     0.000 C 
BRANCH   6   7
ATOM      7  C   UNL     1     -18.543 -25.465  81.401  1.00  0.00     0.000 C 
BRANCH   7   8
ATOM      8  C   UNL     1     -19.055 -24.500  82.493  1.00  0.00     0.000 C 
BRANCH   8   9
ATOM      9  C   UNL     1     -19.338 -23.081  81.970  1.00  0.00     0.000 C 
BRANCH   9  10
ATOM     10  C   UNL     1     -18.803 -21.982  82.902  1.00  0.00     0.006 C 
BRANCH  10  11
ATOM     11  C   UNL     1     -19.630 -20.693  82.816  1.00  0.00     0.053 C 
BRANCH  11  12
ATOM     12  C   UNL     1     -19.476 -20.021  81.487  1.00  0.00     0.041 C 
ATOM     13  O   UNL     1     -20.319 -20.224  80.573  1.00  0.00    -0.550 OA
ATOM     14  O   UNL     1     -18.422 -19.143  81.269  1.00  0.00    -0.550 OA
ENDBRANCH  11  12
ENDBRANCH  10  11
ENDBRANCH   9  10
ENDBRANCH   8   9
ENDBRANCH   7   8
ENDBRANCH   6   7
ENDBRANCH   5   6
ENDBRANCH   4   5
ENDBRANCH   3   4
ENDBRANCH   2   3
ENDBRANCH   1   2
BRANCH   1  15
ATOM     15  C   UNL     1     -15.642 -21.204  81.042  1.00  0.00     0.000 C 
BRANCH  15  16
ATOM     16  C   UNL     1     -14.174 -20.869  80.729  1.00  0.00     0.000 C 
BRANCH  16  17
ATOM     17  C   UNL     1     -13.360 -20.512  81.985  1.00  0.00     0.000 C 
BRANCH  17  18
ATOM     18  C   UNL     1     -12.876 -21.747  82.775  1.00  0.00    -0.000 C 
BRANCH  18  19
ATOM     19  C   UNL     1     -13.042 -21.563  84.294  1.00  0.00    -0.000 C 
BRANCH  19  20
ATOM     20  C   UNL     1     -13.723 -22.764  84.968  1.00  0.00    -0.000 C 
BRANCH  20  21
ATOM     21  C   UNL     1     -15.238 -22.566  85.143  1.00  0.00    -0.000 C 
BRANCH  21  22
ATOM     22  C   UNL     1     -16.044 -23.745  84.573  1.00  0.00    -0.000 C 
BRANCH  22  23
ATOM     23  C   UNL     1     -15.498 -24.226  83.216  1.00  0.00    -0.000 C 
BRANCH  23  24
ATOM     24  C   UNL     1     -15.344 -25.761  83.163  1.00  0.00    -0.000 C 
BRANCH  24  25
ATOM     25  C   UNL     1     -14.149 -26.228  82.314  1.00  0.00    -0.003 C 
ATOM     26  C   UNL     1     -13.308 -25.071  81.776  1.00  0.00     0.004 C 
ENDBRANCH  24  25
ENDBRANCH  23  24
ENDBRANCH  22  23
ENDBRANCH  21  22
ENDBRANCH  20  21
ENDBRANCH  19  20
ENDBRANCH  18  19
ENDBRANCH  17  18
ENDBRANCH  16  17
ENDBRANCH  15  16
ENDBRANCH   1  15
TORSDOF 22
ENDMDL
MODEL 8
REMARK VINA RESULT:    -0.545      2.628      3.754
REMARK INTER + INTRA:          -6.339
REMARK INTER:                  -1.644
REMARK INTRA:                  -4.694
REMARK UNBOUND:                -5.092
REMARK SMILES CCCCCCCCCCCCCCCCCCCCCCCC(=O)[O-]
REMARK SMILES IDX 13 1 14 2 15 3 16 4 17 5 18 6 19 7 20 8 21 9 22 10 23 11
REMARK SMILES IDX 24 12 25 13 26 14 12 15 11 16 10 17 9 18 8 19 7 20 6 21 5 22
REMARK SMILES IDX 4 23 3 24 2 25 1 26
REMARK H PARENT
REMARK Flexibility Score: inf
ROOT
ATOM      1  C   UNL     1     -19.304 -23.544  80.951  1.00  0.00     0.000 C 
ENDROOT
BRANCH   1   2
ATOM      2  C   UNL     1     -20.082 -22.318  81.460  1.00  0.00     0.000 C 
BRANCH   2   3
ATOM      3  C   UNL     1     -19.167 -21.125  81.797  1.00  0.00     0.000 C 
BRANCH   3   4
ATOM      4  C   UNL     1     -18.517 -20.443  80.581  1.00  0.00     0.000 C 
BRANCH   4   5
ATOM      5  C   UNL     1     -17.075 -19.987  80.848  1.00  0.00     0.000 C 
BRANCH   5   6
ATOM      6  C   UNL     1     -16.161 -21.189  81.114  1.00  0.00     0.000 C 
BRANCH   6   7
ATOM      7  C   UNL     1     -15.490 -21.670  79.817  1.00  0.00     0.000 C 
BRANCH   7   8
ATOM      8  C   UNL     1     -16.017 -23.050  79.368  1.00  0.00     0.000 C 
BRANCH   8   9
ATOM      9  C   UNL     1     -16.905 -22.986  78.113  1.00  0.00     0.000 C 
BRANCH   9  10
ATOM     10  C   UNL     1     -16.666 -21.719  77.275  1.00  0.00     0.006 C 
BRANCH  10  11
ATOM     11  C   UNL     1     -17.961 -20.937  77.022  1.00  0.00     0.053 C 
BRANCH  11  12
ATOM     12  C   UNL     1     -17.719 -19.459  76.985  1.00  0.00     0.041 C 
ATOM     13  O   UNL     1     -18.590 -18.687  76.501  1.00  0.00    -0.550 OA
ATOM     14  O   UNL     1     -16.551 -18.931  77.518  1.00  0.00    -0.550 OA
ENDBRANCH  11  12
ENDBRANCH  10  11
ENDBRANCH   9  10
ENDBRANCH   8   9
ENDBRANCH   7   8
ENDBRANCH   6   7
ENDBRANCH   5   6
ENDBRANCH   4   5
ENDBRANCH   3   4
ENDBRANCH   2   3
ENDBRANCH   1   2
BRANCH   1  15
ATOM     15  C   UNL     1     -18.945 -24.526  82.076  1.00  0.00     0.000 C 
BRANCH  15  16
ATOM     16  C   UNL     1     -17.459 -24.461  82.467  1.00  0.00     0.000 C 
BRANCH  16  17
ATOM     17  C   UNL     1     -17.208 -23.616  83.728  1.00  0.00     0.000 C 
BRANCH  17  18
ATOM     18  C   UNL     1     -17.097 -24.456  85.019  1.00  0.00    -0.000 C 
BRANCH  18  19
ATOM     19  C   UNL     1     -15.951 -23.973  85.926  1.00  0.00    -0.000 C 
BRANCH  19  20
ATOM     20  C   UNL     1     -15.484 -22.549  85.588  1.00  0.00    -0.000 C 
BRANCH  20  21
ATOM     21  C   UNL     1     -13.985 -22.480  85.253  1.00  0.00    -0.000 C 
BRANCH  21  22
ATOM     22  C   UNL     1     -13.737 -22.033  83.803  1.00  0.00    -0.000 C 
BRANCH  22  23
ATOM     23  C   UNL     1     -12.923 -23.065  83.003  1.00  0.00    -0.000 C 
BRANCH  23  24
ATOM     24  C   UNL     1     -13.827 -24.018  82.193  1.00  0.00    -0.000 C 
BRANCH  24  25
ATOM     25  C   UNL     1     -13.469 -25.504  82.374  1.00  0.00    -0.003 C 
ATOM     26  C   UNL     1     -13.958 -26.080  83.702  1.00  0.00     0.004 C 
ENDBRANCH  24  25
ENDBRANCH  23  24
ENDBRANCH  22  23
ENDBRANCH  21  22
ENDBRANCH  20  21
ENDBRANCH  19  20
ENDBRANCH  18  19
ENDBRANCH  17  18
ENDBRANCH  16  17
ENDBRANCH  15  16
ENDBRANCH   1  15
TORSDOF 22
ENDMDL
