MODEL 1
REMARK VINA RESULT:    -3.108      0.000      0.000
REMARK INTER + INTRA:          -7.755
REMARK INTER:                  -5.833
REMARK INTRA:                  -1.922
REMARK UNBOUND:                -1.922
REMARK SMILES CCCCCCCCC=CCCCCCCCC(=O)[O-]
REMARK SMILES IDX 10 1 9 2 11 3 12 4 13 5 14 6 15 7 16 8 17 9 18 10 19 11
REMARK SMILES IDX 20 12 8 13 7 14 6 15 5 16 4 17 3 18 2 19 1 20
REMARK H PARENT
REMARK Flexibility Score: inf
ROOT
ATOM      1  C   UNL     1      49.264  40.072 135.705  1.00  0.00    -0.031 C 
ATOM      2  C   UNL     1      48.439  41.120 135.530  1.00  0.00    -0.031 C 
ENDROOT
BRANCH   1   3
ATOM      3  C   UNL     1      49.149  38.756 134.974  1.00  0.00     0.027 C 
BRANCH   3   4
ATOM      4  C   UNL     1      48.666  37.630 135.899  1.00  0.00     0.004 C 
BRANCH   4   5
ATOM      5  C   UNL     1      48.825  37.996 137.384  1.00  0.00     0.000 C 
BRANCH   5   6
ATOM      6  C   UNL     1      49.263  36.800 138.244  1.00  0.00     0.000 C 
BRANCH   6   7
ATOM      7  C   UNL     1      50.579  36.175 137.756  1.00  0.00     0.000 C 
BRANCH   7   8
ATOM      8  C   UNL     1      51.783  37.025 138.180  1.00  0.00     0.006 C 
BRANCH   8   9
ATOM      9  C   UNL     1      52.920  36.915 137.160  1.00  0.00     0.053 C 
BRANCH   9  10
ATOM     10  C   UNL     1      52.620  37.741 135.948  1.00  0.00     0.041 C 
ATOM     11  O   UNL     1      52.642  38.998 136.018  1.00  0.00    -0.550 OA
ATOM     12  O   UNL     1      52.271  37.123 134.754  1.00  0.00    -0.550 OA
ENDBRANCH   9  10
ENDBRANCH   8   9
ENDBRANCH   7   8
ENDBRANCH   6   7
ENDBRANCH   5   6
ENDBRANCH   4   5
ENDBRANCH   3   4
ENDBRANCH   1   3
BRANCH   2  13
ATOM     13  C   UNL     1      47.334  41.182 134.502  1.00  0.00     0.027 C 
BRANCH  13  14
ATOM     14  C   UNL     1      46.038  40.543 135.022  1.00  0.00     0.004 C 
BRANCH  14  15
ATOM     15  C   UNL     1      45.421  39.574 133.997  1.00  0.00     0.000 C 
BRANCH  15  16
ATOM     16  C   UNL     1      45.258  38.150 134.554  1.00  0.00     0.000 C 
BRANCH  16  17
ATOM     17  C   UNL     1      44.514  37.219 133.581  1.00  0.00    -0.000 C 
BRANCH  17  18
ATOM     18  C   UNL     1      43.308  36.524 134.234  1.00  0.00    -0.000 C 
BRANCH  18  19
ATOM     19  C   UNL     1      42.518  37.456 135.164  1.00  0.00    -0.003 C 
ATOM     20  C   UNL     1      41.016  37.311 134.941  1.00  0.00     0.004 C 
ENDBRANCH  18  19
ENDBRANCH  17  18
ENDBRANCH  16  17
ENDBRANCH  15  16
ENDBRANCH  14  15
ENDBRANCH  13  14
ENDBRANCH   2  13
TORSDOF 15
ENDMDL
MODEL 2
REMARK VINA RESULT:    -3.106      3.809      6.534
REMARK INTER + INTRA:          -7.751
REMARK INTER:                  -4.680
REMARK INTRA:                  -3.070
REMARK UNBOUND:                -1.922
REMARK SMILES CCCCCCCCC=CCCCCCCCC(=O)[O-]
REMARK SMILES IDX 10 1 9 2 11 3 12 4 13 5 14 6 15 7 16 8 17 9 18 10 19 11
REMARK SMILES IDX 20 12 8 13 7 14 6 15 5 16 4 17 3 18 2 19 1 20
REMARK H PARENT
REMARK Flexibility Score: inf
ROOT
ATOM      1  C   UNL     1      48.713  39.281 136.518  1.00  0.00    -0.031 C 
ATOM      2  C   UNL     1      48.665  38.171 137.278  1.00  0.00    -0.031 C 
ENDROOT
BRANCH   1   3
ATOM      3  C   UNL     1      49.918  39.729 135.728  1.00  0.00     0.027 C 
BRANCH   3   4
ATOM      4  C   UNL     1      49.516  40.422 134.418  1.00  0.00     0.004 C 
BRANCH   4   5
ATOM      5  C   UNL     1      48.194  41.196 134.557  1.00  0.00     0.000 C 
BRANCH   5   6
ATOM      6  C   UNL     1      47.381  41.215 133.254  1.00  0.00     0.000 C 
BRANCH   6   7
ATOM      7  C   UNL     1      45.886  41.474 133.495  1.00  0.00     0.000 C 
BRANCH   7   8
ATOM      8  C   UNL     1      45.534  41.319 134.980  1.00  0.00     0.006 C 
BRANCH   8   9
ATOM      9  C   UNL     1      44.039  41.040 135.162  1.00  0.00     0.053 C 
BRANCH   9  10
ATOM     10  C   UNL     1      43.357  42.218 135.783  1.00  0.00     0.041 C 
ATOM     11  O   UNL     1      42.869  42.131 136.939  1.00  0.00    -0.550 OA
ATOM     12  O   UNL     1      43.221  43.400 135.065  1.00  0.00    -0.550 OA
ENDBRANCH   9  10
ENDBRANCH   8   9
ENDBRANCH   7   8
ENDBRANCH   6   7
ENDBRANCH   5   6
ENDBRANCH   4   5
ENDBRANCH   3   4
ENDBRANCH   1   3
BRANCH   2  13
ATOM     13  C   UNL     1      49.771  37.148 137.376  1.00  0.00     0.027 C 
BRANCH  13  14
ATOM     14  C   UNL     1      49.600  36.024 136.343  1.00  0.00     0.004 C 
BRANCH  14  15
ATOM     15  C   UNL     1      50.531  36.207 135.131  1.00  0.00     0.000 C 
BRANCH  15  16
ATOM     16  C   UNL     1      49.764  36.542 133.841  1.00  0.00     0.000 C 
BRANCH  16  17
ATOM     17  C   UNL     1      48.254  36.279 133.971  1.00  0.00    -0.000 C 
BRANCH  17  18
ATOM     18  C   UNL     1      47.404  37.465 133.486  1.00  0.00    -0.000 C 
BRANCH  18  19
ATOM     19  C   UNL     1      46.240  37.787 134.433  1.00  0.00    -0.003 C 
ATOM     20  C   UNL     1      44.895  37.523 133.761  1.00  0.00     0.004 C 
ENDBRANCH  18  19
ENDBRANCH  17  18
ENDBRANCH  16  17
ENDBRANCH  15  16
ENDBRANCH  14  15
ENDBRANCH  13  14
ENDBRANCH   2  13
TORSDOF 15
ENDMDL
MODEL 3
REMARK VINA RESULT:    -3.063      2.807      5.037
REMARK INTER + INTRA:          -7.672
REMARK INTER:                  -5.174
REMARK INTRA:                  -2.498
REMARK UNBOUND:                -1.922
REMARK SMILES CCCCCCCCC=CCCCCCCCC(=O)[O-]
REMARK SMILES IDX 10 1 9 2 11 3 12 4 13 5 14 6 15 7 16 8 17 9 18 10 19 11
REMARK SMILES IDX 20 12 8 13 7 14 6 15 5 16 4 17 3 18 2 19 1 20
REMARK H PARENT
REMARK Flexibility Score: inf
ROOT
ATOM      1  C   UNL     1      49.151  37.663 138.041  1.00  0.00    -0.031 C 
ATOM      2  C   UNL     1      48.519  38.384 137.097  1.00  0.00    -0.031 C 
ENDROOT
BRANCH   1   3
ATOM      3  C   UNL     1      49.493  36.198 137.916  1.00  0.00     0.027 C 
BRANCH   3   4
ATOM      4  C   UNL     1      50.965  35.986 137.536  1.00  0.00     0.004 C 
BRANCH   4   5
ATOM      5  C   UNL     1      51.891  37.003 138.224  1.00  0.00     0.000 C 
BRANCH   5   6
ATOM      6  C   UNL     1      52.845  37.695 137.239  1.00  0.00     0.000 C 
BRANCH   6   7
ATOM      7  C   UNL     1      52.255  37.803 135.824  1.00  0.00     0.000 C 
BRANCH   7   8
ATOM      8  C   UNL     1      51.717  39.215 135.559  1.00  0.00     0.006 C 
BRANCH   8   9
ATOM      9  C   UNL     1      52.696  40.023 134.702  1.00  0.00     0.053 C 
BRANCH   9  10
ATOM     10  C   UNL     1      52.467  41.491 134.887  1.00  0.00     0.041 C 
ATOM     11  O   UNL     1      52.714  42.035 135.994  1.00  0.00    -0.550 OA
ATOM     12  O   UNL     1      51.938  42.247 133.850  1.00  0.00    -0.550 OA
ENDBRANCH   9  10
ENDBRANCH   8   9
ENDBRANCH   7   8
ENDBRANCH   6   7
ENDBRANCH   5   6
ENDBRANCH   4   5
ENDBRANCH   3   4
ENDBRANCH   1   3
BRANCH   2  13
ATOM     13  C   UNL     1      48.147  37.869 135.727  1.00  0.00     0.027 C 
BRANCH  13  14
ATOM     14  C   UNL     1      47.243  38.858 134.974  1.00  0.00     0.004 C 
BRANCH  14  15
ATOM     15  C   UNL     1      47.907  39.380 133.687  1.00  0.00     0.000 C 
BRANCH  15  16
ATOM     16  C   UNL     1      48.739  40.652 133.925  1.00  0.00     0.000 C 
BRANCH  16  17
ATOM     17  C   UNL     1      48.129  41.558 135.009  1.00  0.00    -0.000 C 
BRANCH  17  18
ATOM     18  C   UNL     1      49.134  41.906 136.120  1.00  0.00    -0.000 C 
BRANCH  18  19
ATOM     19  C   UNL     1      49.170  43.407 136.438  1.00  0.00    -0.003 C 
ATOM     20  C   UNL     1      49.563  43.652 137.892  1.00  0.00     0.004 C 
ENDBRANCH  18  19
ENDBRANCH  17  18
ENDBRANCH  16  17
ENDBRANCH  15  16
ENDBRANCH  14  15
ENDBRANCH  13  14
ENDBRANCH   2  13
TORSDOF 15
ENDMDL
MODEL 4
REMARK VINA RESULT:    -3.058      4.573      7.920
REMARK INTER + INTRA:          -7.661
REMARK INTER:                  -6.239
REMARK INTRA:                  -1.423
REMARK UNBOUND:                -1.922
REMARK SMILES CCCCCCCCC=CCCCCCCCC(=O)[O-]
REMARK SMILES IDX 10 1 9 2 11 3 12 4 13 5 14 6 15 7 16 8 17 9 18 10 19 11
REMARK SMILES IDX 20 12 8 13 7 14 6 15 5 16 4 17 3 18 2 19 1 20
REMARK H PARENT
REMARK Flexibility Score: inf
ROOT
ATOM      1  C   UNL     1      49.853  41.296 135.688  1.00  0.00    -0.031 C 
ATOM      2  C   UNL     1      49.948  39.959 135.563  1.00  0.00    -0.031 C 
ENDROOT
BRANCH   1   3
ATOM      3  C   UNL     1      48.611  42.101 135.390  1.00  0.00     0.027 C 
BRANCH   3   4
ATOM      4  C   UNL     1      48.655  43.484 136.054  1.00  0.00     0.004 C 
BRANCH   4   5
ATOM      5  C   UNL     1      49.675  43.539 137.205  1.00  0.00     0.000 C 
BRANCH   5   6
ATOM      6  C   UNL     1      49.067  44.084 138.507  1.00  0.00     0.000 C 
BRANCH   6   7
ATOM      7  C   UNL     1      48.045  45.203 138.258  1.00  0.00     0.000 C 
BRANCH   7   8
ATOM      8  C   UNL     1      47.691  45.927 139.563  1.00  0.00     0.006 C 
BRANCH   8   9
ATOM      9  C   UNL     1      48.643  45.519 140.691  1.00  0.00     0.053 C 
BRANCH   9  10
ATOM     10  C   UNL     1      47.872  45.115 141.908  1.00  0.00     0.041 C 
ATOM     11  O   UNL     1      46.695  45.526 142.077  1.00  0.00    -0.550 OA
ATOM     12  O   UNL     1      48.470  44.321 142.878  1.00  0.00    -0.550 OA
ENDBRANCH   9  10
ENDBRANCH   8   9
ENDBRANCH   7   8
ENDBRANCH   6   7
ENDBRANCH   5   6
ENDBRANCH   4   5
ENDBRANCH   3   4
ENDBRANCH   1   3
BRANCH   2  13
ATOM     13  C   UNL     1      48.799  39.046 135.205  1.00  0.00     0.027 C 
BRANCH  13  14
ATOM     14  C   UNL     1      47.990  38.637 136.446  1.00  0.00     0.004 C 
BRANCH  14  15
ATOM     15  C   UNL     1      48.819  37.777 137.417  1.00  0.00     0.000 C 
BRANCH  15  16
ATOM     16  C   UNL     1      49.438  36.546 136.734  1.00  0.00     0.000 C 
BRANCH  16  17
ATOM     17  C   UNL     1      50.571  35.921 137.566  1.00  0.00    -0.000 C 
BRANCH  17  18
ATOM     18  C   UNL     1      51.460  36.978 138.242  1.00  0.00    -0.000 C 
BRANCH  18  19
ATOM     19  C   UNL     1      52.876  37.027 137.651  1.00  0.00    -0.003 C 
ATOM     20  C   UNL     1      53.067  38.268 136.784  1.00  0.00     0.004 C 
ENDBRANCH  18  19
ENDBRANCH  17  18
ENDBRANCH  16  17
ENDBRANCH  15  16
ENDBRANCH  14  15
ENDBRANCH  13  14
ENDBRANCH   2  13
TORSDOF 15
ENDMDL
MODEL 5
REMARK VINA RESULT:    -3.049      4.044      7.628
REMARK INTER + INTRA:          -7.645
REMARK INTER:                  -6.203
REMARK INTRA:                  -1.442
REMARK UNBOUND:                -1.922
REMARK SMILES CCCCCCCCC=CCCCCCCCC(=O)[O-]
REMARK SMILES IDX 10 1 9 2 11 3 12 4 13 5 14 6 15 7 16 8 17 9 18 10 19 11
REMARK SMILES IDX 20 12 8 13 7 14 6 15 5 16 4 17 3 18 2 19 1 20
REMARK H PARENT
REMARK Flexibility Score: inf
ROOT
ATOM      1  C   UNL     1      47.023  39.771 135.262  1.00  0.00    -0.031 C 
ATOM      2  C   UNL     1      47.279  38.520 135.686  1.00  0.00    -0.031 C 
ENDROOT
BRANCH   1   3
ATOM      3  C   UNL     1      48.024  40.901 135.264  1.00  0.00     0.027 C 
BRANCH   3   4
ATOM      4  C   UNL     1      47.346  42.264 135.063  1.00  0.00     0.004 C 
BRANCH   4   5
ATOM      5  C   UNL     1      48.181  43.416 135.648  1.00  0.00     0.000 C 
BRANCH   5   6
ATOM      6  C   UNL     1      49.470  42.926 136.326  1.00  0.00     0.000 C 
BRANCH   6   7
ATOM      7  C   UNL     1      49.592  43.409 137.779  1.00  0.00     0.000 C 
BRANCH   7   8
ATOM      8  C   UNL     1      48.790  44.697 138.000  1.00  0.00     0.006 C 
BRANCH   8   9
ATOM      9  C   UNL     1      48.516  44.924 139.490  1.00  0.00     0.053 C 
BRANCH   9  10
ATOM     10  C   UNL     1      48.998  46.277 139.912  1.00  0.00     0.041 C 
ATOM     11  O   UNL     1      48.757  46.701 141.072  1.00  0.00    -0.550 OA
ATOM     12  O   UNL     1      49.674  47.087 139.009  1.00  0.00    -0.550 OA
ENDBRANCH   9  10
ENDBRANCH   8   9
ENDBRANCH   7   8
ENDBRANCH   6   7
ENDBRANCH   5   6
ENDBRANCH   4   5
ENDBRANCH   3   4
ENDBRANCH   1   3
BRANCH   2  13
ATOM     13  C   UNL     1      48.634  38.025 136.133  1.00  0.00     0.027 C 
BRANCH  13  14
ATOM     14  C   UNL     1      48.830  38.193 137.648  1.00  0.00     0.004 C 
BRANCH  14  15
ATOM     15  C   UNL     1      49.320  36.894 138.313  1.00  0.00     0.000 C 
BRANCH  15  16
ATOM     16  C   UNL     1      50.550  36.298 137.610  1.00  0.00     0.000 C 
BRANCH  16  17
ATOM     17  C   UNL     1      51.872  36.844 138.175  1.00  0.00    -0.000 C 
BRANCH  17  18
ATOM     18  C   UNL     1      52.629  37.720 137.164  1.00  0.00    -0.000 C 
BRANCH  18  19
ATOM     19  C   UNL     1      52.442  37.250 135.714  1.00  0.00    -0.003 C 
ATOM     20  C   UNL     1      52.047  38.411 134.806  1.00  0.00     0.004 C 
ENDBRANCH  18  19
ENDBRANCH  17  18
ENDBRANCH  16  17
ENDBRANCH  15  16
ENDBRANCH  14  15
ENDBRANCH  13  14
ENDBRANCH   2  13
TORSDOF 15
ENDMDL
MODEL 6
REMARK VINA RESULT:    -3.022      2.875      6.433
REMARK INTER + INTRA:          -7.594
REMARK INTER:                  -4.934
REMARK INTRA:                  -2.660
REMARK UNBOUND:                -1.922
REMARK SMILES CCCCCCCCC=CCCCCCCCC(=O)[O-]
REMARK SMILES IDX 10 1 9 2 11 3 12 4 13 5 14 6 15 7 16 8 17 9 18 10 19 11
REMARK SMILES IDX 20 12 8 13 7 14 6 15 5 16 4 17 3 18 2 19 1 20
REMARK H PARENT
REMARK Flexibility Score: inf
ROOT
ATOM      1  C   UNL     1      47.135  38.562 135.138  1.00  0.00    -0.031 C 
ATOM      2  C   UNL     1      48.002  37.914 135.938  1.00  0.00    -0.031 C 
ENDROOT
BRANCH   1   3
ATOM      3  C   UNL     1      46.559  39.927 135.424  1.00  0.00     0.027 C 
BRANCH   3   4
ATOM      4  C   UNL     1      47.519  41.050 135.007  1.00  0.00     0.004 C 
BRANCH   4   5
ATOM      5  C   UNL     1      47.912  40.952 133.524  1.00  0.00     0.000 C 
BRANCH   5   6
ATOM      6  C   UNL     1      49.416  40.704 133.326  1.00  0.00     0.000 C 
BRANCH   6   7
ATOM      7  C   UNL     1      49.702  39.415 132.540  1.00  0.00     0.000 C 
BRANCH   7   8
ATOM      8  C   UNL     1      48.641  39.184 131.456  1.00  0.00     0.006 C 
BRANCH   8   9
ATOM      9  C   UNL     1      47.881  37.878 131.703  1.00  0.00     0.053 C 
BRANCH   9  10
ATOM     10  C   UNL     1      48.835  36.737 131.864  1.00  0.00     0.041 C 
ATOM     11  O   UNL     1      49.592  36.405 130.915  1.00  0.00    -0.550 OA
ATOM     12  O   UNL     1      48.857  36.012 133.049  1.00  0.00    -0.550 OA
ENDBRANCH   9  10
ENDBRANCH   8   9
ENDBRANCH   7   8
ENDBRANCH   6   7
ENDBRANCH   5   6
ENDBRANCH   4   5
ENDBRANCH   3   4
ENDBRANCH   1   3
BRANCH   2  13
ATOM     13  C   UNL     1      48.613  38.494 137.191  1.00  0.00     0.027 C 
BRANCH  13  14
ATOM     14  C   UNL     1      49.135  37.396 138.131  1.00  0.00     0.004 C 
BRANCH  14  15
ATOM     15  C   UNL     1      49.492  36.107 137.368  1.00  0.00     0.000 C 
BRANCH  15  16
ATOM     16  C   UNL     1      51.007  35.935 137.174  1.00  0.00     0.000 C 
BRANCH  16  17
ATOM     17  C   UNL     1      51.410  35.904 135.690  1.00  0.00    -0.000 C 
BRANCH  17  18
ATOM     18  C   UNL     1      51.459  37.307 135.063  1.00  0.00    -0.000 C 
BRANCH  18  19
ATOM     19  C   UNL     1      52.113  38.347 135.984  1.00  0.00    -0.003 C 
ATOM     20  C   UNL     1      52.374  39.653 135.240  1.00  0.00     0.004 C 
ENDBRANCH  18  19
ENDBRANCH  17  18
ENDBRANCH  16  17
ENDBRANCH  15  16
ENDBRANCH  14  15
ENDBRANCH  13  14
ENDBRANCH   2  13
TORSDOF 15
ENDMDL
MODEL 7
REMARK VINA RESULT:    -3.013      8.482     10.055
REMARK INTER + INTRA:          -7.577
REMARK INTER:                  -4.945
REMARK INTRA:                  -2.632
REMARK UNBOUND:                -1.922
REMARK SMILES CCCCCCCCC=CCCCCCCCC(=O)[O-]
REMARK SMILES IDX 10 1 9 2 11 3 12 4 13 5 14 6 15 7 16 8 17 9 18 10 19 11
REMARK SMILES IDX 20 12 8 13 7 14 6 15 5 16 4 17 3 18 2 19 1 20
REMARK H PARENT
REMARK Flexibility Score: inf
ROOT
ATOM      1  C   UNL     1      49.992  46.452 142.963  1.00  0.00    -0.031 C 
ATOM      2  C   UNL     1      48.680  46.159 143.036  1.00  0.00    -0.031 C 
ENDROOT
BRANCH   1   3
ATOM      3  C   UNL     1      50.960  45.821 141.993  1.00  0.00     0.027 C 
BRANCH   3   4
ATOM      4  C   UNL     1      51.826  46.872 141.285  1.00  0.00     0.004 C 
BRANCH   4   5
ATOM      5  C   UNL     1      52.695  46.254 140.177  1.00  0.00     0.000 C 
BRANCH   5   6
ATOM      6  C   UNL     1      52.448  44.747 140.004  1.00  0.00     0.000 C 
BRANCH   6   7
ATOM      7  C   UNL     1      53.581  44.049 139.237  1.00  0.00     0.000 C 
BRANCH   7   8
ATOM      8  C   UNL     1      54.375  43.114 140.158  1.00  0.00     0.006 C 
BRANCH   8   9
ATOM      9  C   UNL     1      55.661  43.788 140.646  1.00  0.00     0.053 C 
BRANCH   9  10
ATOM     10  C   UNL     1      56.394  42.893 141.596  1.00  0.00     0.041 C 
ATOM     11  O   UNL     1      55.759  42.213 142.444  1.00  0.00    -0.550 OA
ATOM     12  O   UNL     1      57.782  42.845 141.575  1.00  0.00    -0.550 OA
ENDBRANCH   9  10
ENDBRANCH   8   9
ENDBRANCH   7   8
ENDBRANCH   6   7
ENDBRANCH   5   6
ENDBRANCH   4   5
ENDBRANCH   3   4
ENDBRANCH   1   3
BRANCH   2  13
ATOM     13  C   UNL     1      47.954  45.230 142.094  1.00  0.00     0.027 C 
BRANCH  13  14
ATOM     14  C   UNL     1      46.863  45.965 141.299  1.00  0.00     0.004 C 
BRANCH  14  15
ATOM     15  C   UNL     1      47.093  45.867 139.780  1.00  0.00     0.000 C 
BRANCH  15  16
ATOM     16  C   UNL     1      48.447  45.230 139.426  1.00  0.00     0.000 C 
BRANCH  16  17
ATOM     17  C   UNL     1      49.309  46.140 138.534  1.00  0.00    -0.000 C 
BRANCH  17  18
ATOM     18  C   UNL     1      48.746  47.567 138.427  1.00  0.00    -0.000 C 
BRANCH  18  19
ATOM     19  C   UNL     1      49.591  48.597 139.189  1.00  0.00    -0.003 C 
ATOM     20  C   UNL     1      48.884  49.056 140.460  1.00  0.00     0.004 C 
ENDBRANCH  18  19
ENDBRANCH  17  18
ENDBRANCH  16  17
ENDBRANCH  15  16
ENDBRANCH  14  15
ENDBRANCH  13  14
ENDBRANCH   2  13
TORSDOF 15
ENDMDL
MODEL 8
REMARK VINA RESULT:    -3.003      4.084      8.026
REMARK INTER + INTRA:          -7.559
REMARK INTER:                  -5.288
REMARK INTRA:                  -2.271
REMARK UNBOUND:                -1.922
REMARK SMILES CCCCCCCCC=CCCCCCCCC(=O)[O-]
REMARK SMILES IDX 10 1 9 2 11 3 12 4 13 5 14 6 15 7 16 8 17 9 18 10 19 11
REMARK SMILES IDX 20 12 8 13 7 14 6 15 5 16 4 17 3 18 2 19 1 20
REMARK H PARENT
REMARK Flexibility Score: inf
ROOT
ATOM      1  C   UNL     1      48.478  38.358 136.939  1.00  0.00    -0.031 C 
ATOM      2  C   UNL     1      49.083  37.743 137.971  1.00  0.00    -0.031 C 
ENDROOT
BRANCH   1   3
ATOM      3  C   UNL     1      48.096  37.686 135.642  1.00  0.00     0.027 C 
BRANCH   3   4
ATOM      4  C   UNL     1      47.582  38.695 134.606  1.00  0.00     0.004 C 
BRANCH   4   5
ATOM      5  C   UNL     1      46.859  39.882 135.266  1.00  0.00     0.000 C 
BRANCH   5   6
ATOM      6  C   UNL     1      47.005  41.183 134.463  1.00  0.00     0.000 C 
BRANCH   6   7
ATOM      7  C   UNL     1      45.792  42.113 134.622  1.00  0.00     0.000 C 
BRANCH   7   8
ATOM      8  C   UNL     1      44.596  41.360 135.219  1.00  0.00     0.006 C 
BRANCH   8   9
ATOM      9  C   UNL     1      43.273  41.958 134.732  1.00  0.00     0.053 C 
BRANCH   9  10
ATOM     10  C   UNL     1      42.489  42.505 135.884  1.00  0.00     0.041 C 
ATOM     11  O   UNL     1      41.621  43.396 135.693  1.00  0.00    -0.550 OA
ATOM     12  O   UNL     1      42.749  42.062 137.175  1.00  0.00    -0.550 OA
ENDBRANCH   9  10
ENDBRANCH   8   9
ENDBRANCH   7   8
ENDBRANCH   6   7
ENDBRANCH   5   6
ENDBRANCH   4   5
ENDBRANCH   3   4
ENDBRANCH   1   3
BRANCH   2  13
ATOM     13  C   UNL     1      49.380  36.264 138.035  1.00  0.00     0.027 C 
BRANCH  13  14
ATOM     14  C   UNL     1      50.839  35.960 137.659  1.00  0.00     0.004 C 
BRANCH  14  15
ATOM     15  C   UNL     1      51.807  37.031 138.192  1.00  0.00     0.000 C 
BRANCH  15  16
ATOM     16  C   UNL     1      52.651  37.673 137.078  1.00  0.00     0.000 C 
BRANCH  16  17
ATOM     17  C   UNL     1      52.247  37.180 135.678  1.00  0.00    -0.000 C 
BRANCH  17  18
ATOM     18  C   UNL     1      51.556  38.273 134.845  1.00  0.00    -0.000 C 
BRANCH  18  19
ATOM     19  C   UNL     1      51.782  39.682 135.411  1.00  0.00    -0.003 C 
ATOM     20  C   UNL     1      50.710  40.650 134.918  1.00  0.00     0.004 C 
ENDBRANCH  18  19
ENDBRANCH  17  18
ENDBRANCH  16  17
ENDBRANCH  15  16
ENDBRANCH  14  15
ENDBRANCH  13  14
ENDBRANCH   2  13
TORSDOF 15
ENDMDL
MODEL 9
REMARK VINA RESULT:    -2.997      2.806      5.392
REMARK INTER + INTRA:          -7.547
REMARK INTER:                  -4.899
REMARK INTRA:                  -2.648
REMARK UNBOUND:                -1.922
REMARK SMILES CCCCCCCCC=CCCCCCCCC(=O)[O-]
REMARK SMILES IDX 10 1 9 2 11 3 12 4 13 5 14 6 15 7 16 8 17 9 18 10 19 11
REMARK SMILES IDX 20 12 8 13 7 14 6 15 5 16 4 17 3 18 2 19 1 20
REMARK H PARENT
REMARK Flexibility Score: inf
ROOT
ATOM      1  C   UNL     1      49.005  37.988 137.815  1.00  0.00    -0.031 C 
ATOM      2  C   UNL     1      48.213  38.475 136.842  1.00  0.00    -0.031 C 
ENDROOT
BRANCH   1   3
ATOM      3  C   UNL     1      49.616  36.608 137.814  1.00  0.00     0.027 C 
BRANCH   3   4
ATOM      4  C   UNL     1      51.100  36.642 138.206  1.00  0.00     0.004 C 
BRANCH   4   5
ATOM      5  C   UNL     1      51.948  37.423 137.188  1.00  0.00     0.000 C 
BRANCH   5   6
ATOM      6  C   UNL     1      52.028  36.721 135.824  1.00  0.00     0.000 C 
BRANCH   6   7
ATOM      7  C   UNL     1      51.431  37.568 134.690  1.00  0.00     0.000 C 
BRANCH   7   8
ATOM      8  C   UNL     1      50.685  36.687 133.679  1.00  0.00     0.006 C 
BRANCH   8   9
ATOM      9  C   UNL     1      50.254  37.501 132.456  1.00  0.00     0.053 C 
BRANCH   9  10
ATOM     10  C   UNL     1      48.943  37.004 131.931  1.00  0.00     0.041 C 
ATOM     11  O   UNL     1      48.354  37.625 131.008  1.00  0.00    -0.550 OA
ATOM     12  O   UNL     1      48.349  35.881 132.493  1.00  0.00    -0.550 OA
ENDBRANCH   9  10
ENDBRANCH   8   9
ENDBRANCH   7   8
ENDBRANCH   6   7
ENDBRANCH   5   6
ENDBRANCH   4   5
ENDBRANCH   3   4
ENDBRANCH   1   3
BRANCH   2  13
ATOM     13  C   UNL     1      47.897  37.757 135.551  1.00  0.00     0.027 C 
BRANCH  13  14
ATOM     14  C   UNL     1      46.762  38.447 134.780  1.00  0.00     0.004 C 
BRANCH  14  15
ATOM     15  C   UNL     1      46.540  39.896 135.253  1.00  0.00     0.000 C 
BRANCH  15  16
ATOM     16  C   UNL     1      47.149  40.930 134.292  1.00  0.00     0.000 C 
BRANCH  16  17
ATOM     17  C   UNL     1      48.456  41.536 134.832  1.00  0.00    -0.000 C 
BRANCH  17  18
ATOM     18  C   UNL     1      49.701  40.768 134.358  1.00  0.00    -0.000 C 
BRANCH  18  19
ATOM     19  C   UNL     1      51.003  41.322 134.956  1.00  0.00    -0.003 C 
ATOM     20  C   UNL     1      52.162  41.180 133.975  1.00  0.00     0.004 C 
ENDBRANCH  18  19
ENDBRANCH  17  18
ENDBRANCH  16  17
ENDBRANCH  15  16
ENDBRANCH  14  15
ENDBRANCH  13  14
ENDBRANCH   2  13
TORSDOF 15
ENDMDL
