MODEL 1
REMARK VINA RESULT:     4.456      0.000      0.000
REMARK INTER + INTRA:           7.083
REMARK INTER:                   8.103
REMARK INTRA:                  -1.020
REMARK UNBOUND:                -1.020
REMARK SMILES CCCCCCCCCCCCCCCC(=O)[O-]
REMARK SMILES IDX 9 1 10 2 11 3 12 4 13 5 14 6 15 7 16 8 17 9 18 10 8 11 7 12
REMARK SMILES IDX 6 13 5 14 4 15 3 16 2 17 1 18
REMARK H PARENT
REMARK Flexibility Score: inf
ROOT
ATOM      1  C   UNL     1      10.288  13.467  -0.451  1.00  0.00     0.000 C 
ENDROOT
BRANCH   1   2
ATOM      2  C   UNL     1      10.269  14.433  -1.647  1.00  0.00     0.000 C 
BRANCH   2   3
ATOM      3  C   UNL     1      11.036  13.891  -2.868  1.00  0.00     0.000 C 
BRANCH   3   4
ATOM      4  C   UNL     1      10.685  14.556  -4.212  1.00  0.00     0.000 C 
BRANCH   4   5
ATOM      5  C   UNL     1      11.388  15.906  -4.416  1.00  0.00     0.000 C 
BRANCH   5   6
ATOM      6  C   UNL     1      11.947  16.026  -5.839  1.00  0.00     0.006 C 
BRANCH   6   7
ATOM      7  C   UNL     1      12.347  17.470  -6.153  1.00  0.00     0.053 C 
BRANCH   7   8
ATOM      8  C   UNL     1      13.747  17.524  -6.675  1.00  0.00     0.041 C 
ATOM      9  O   UNL     1      14.494  18.497  -6.388  1.00  0.00    -0.550 OA
ATOM     10  O   UNL     1      14.214  16.524  -7.520  1.00  0.00    -0.550 OA
ENDBRANCH   7   8
ENDBRANCH   6   7
ENDBRANCH   5   6
ENDBRANCH   4   5
ENDBRANCH   3   4
ENDBRANCH   2   3
ENDBRANCH   1   2
BRANCH   1  11
ATOM     11  C   UNL     1      11.714  13.126   0.020  1.00  0.00     0.000 C 
BRANCH  11  12
ATOM     12  C   UNL     1      12.018  13.458   1.495  1.00  0.00    -0.000 C 
BRANCH  12  13
ATOM     13  C   UNL     1      11.345  14.738   2.034  1.00  0.00    -0.000 C 
BRANCH  13  14
ATOM     14  C   UNL     1      12.023  16.054   1.610  1.00  0.00    -0.000 C 
BRANCH  14  15
ATOM     15  C   UNL     1      11.053  17.182   1.210  1.00  0.00    -0.000 C 
BRANCH  15  16
ATOM     16  C   UNL     1       9.796  17.267   2.103  1.00  0.00    -0.000 C 
BRANCH  16  17
ATOM     17  C   UNL     1       8.497  17.078   1.309  1.00  0.00    -0.003 C 
ATOM     18  C   UNL     1       7.284  17.514   2.125  1.00  0.00     0.004 C 
ENDBRANCH  16  17
ENDBRANCH  15  16
ENDBRANCH  14  15
ENDBRANCH  13  14
ENDBRANCH  12  13
ENDBRANCH  11  12
ENDBRANCH   1  11
TORSDOF 14
ENDMDL
MODEL 2
REMARK VINA RESULT:     4.651      3.404      7.467
REMARK INTER + INTRA:           7.438
REMARK INTER:                   6.985
REMARK INTRA:                   0.453
REMARK UNBOUND:                -1.020
REMARK SMILES CCCCCCCCCCCCCCCC(=O)[O-]
REMARK SMILES IDX 9 1 10 2 11 3 12 4 13 5 14 6 15 7 16 8 17 9 18 10 8 11 7 12
REMARK SMILES IDX 6 13 5 14 4 15 3 16 2 17 1 18
REMARK H PARENT
REMARK Flexibility Score: inf
ROOT
ATOM      1  C   UNL     1      10.814  14.114  -1.147  1.00  0.00     0.000 C 
ENDROOT
BRANCH   1   2
ATOM      2  C   UNL     1      11.083  12.887  -0.260  1.00  0.00     0.000 C 
BRANCH   2   3
ATOM      3  C   UNL     1      12.501  12.879   0.339  1.00  0.00     0.000 C 
BRANCH   3   4
ATOM      4  C   UNL     1      12.598  13.350   1.802  1.00  0.00     0.000 C 
BRANCH   4   5
ATOM      5  C   UNL     1      11.644  14.510   2.124  1.00  0.00     0.000 C 
BRANCH   5   6
ATOM      6  C   UNL     1      12.217  15.845   1.632  1.00  0.00     0.006 C 
BRANCH   6   7
ATOM      7  C   UNL     1      11.281  17.005   1.977  1.00  0.00     0.053 C 
BRANCH   7   8
ATOM      8  C   UNL     1       9.881  16.693   1.553  1.00  0.00     0.041 C 
ATOM      9  O   UNL     1       9.491  15.498   1.483  1.00  0.00    -0.550 OA
ATOM     10  O   UNL     1       9.020  17.720   1.184  1.00  0.00    -0.550 OA
ENDBRANCH   7   8
ENDBRANCH   6   7
ENDBRANCH   5   6
ENDBRANCH   4   5
ENDBRANCH   3   4
ENDBRANCH   2   3
ENDBRANCH   1   2
BRANCH   1  11
ATOM     11  C   UNL     1      10.187  13.747  -2.504  1.00  0.00     0.000 C 
BRANCH  11  12
ATOM     12  C   UNL     1      11.174  13.665  -3.686  1.00  0.00    -0.000 C 
BRANCH  12  13
ATOM     13  C   UNL     1      10.713  14.368  -4.979  1.00  0.00    -0.000 C 
BRANCH  13  14
ATOM     14  C   UNL     1      11.005  15.880  -5.034  1.00  0.00    -0.000 C 
BRANCH  14  15
ATOM     15  C   UNL     1      11.985  16.309  -6.143  1.00  0.00    -0.000 C 
BRANCH  15  16
ATOM     16  C   UNL     1      12.546  17.736  -5.958  1.00  0.00    -0.000 C 
BRANCH  16  17
ATOM     17  C   UNL     1      14.006  17.857  -6.415  1.00  0.00    -0.003 C 
ATOM     18  C   UNL     1      14.398  16.692  -7.319  1.00  0.00     0.004 C 
ENDBRANCH  16  17
ENDBRANCH  15  16
ENDBRANCH  14  15
ENDBRANCH  13  14
ENDBRANCH  12  13
ENDBRANCH  11  12
ENDBRANCH   1  11
TORSDOF 14
ENDMDL
MODEL 3
REMARK VINA RESULT:     6.190      1.319      2.264
REMARK INTER + INTRA:          10.236
REMARK INTER:                  10.528
REMARK INTRA:                  -0.292
REMARK UNBOUND:                -1.020
REMARK SMILES CCCCCCCCCCCCCCCC(=O)[O-]
REMARK SMILES IDX 9 1 10 2 11 3 12 4 13 5 14 6 15 7 16 8 17 9 18 10 8 11 7 12
REMARK SMILES IDX 6 13 5 14 4 15 3 16 2 17 1 18
REMARK H PARENT
REMARK Flexibility Score: inf
ROOT
ATOM      1  C   UNL     1      10.976  13.945  -2.986  1.00  0.00     0.000 C 
ENDROOT
BRANCH   1   2
ATOM      2  C   UNL     1      11.373  15.289  -3.619  1.00  0.00     0.000 C 
BRANCH   2   3
ATOM      3  C   UNL     1      11.070  15.355  -5.127  1.00  0.00     0.000 C 
BRANCH   3   4
ATOM      4  C   UNL     1      11.482  16.665  -5.823  1.00  0.00     0.000 C 
BRANCH   4   5
ATOM      5  C   UNL     1      12.868  17.165  -5.390  1.00  0.00     0.000 C 
BRANCH   5   6
ATOM      6  C   UNL     1      13.740  17.491  -6.610  1.00  0.00     0.006 C 
BRANCH   6   7
ATOM      7  C   UNL     1      13.534  16.462  -7.723  1.00  0.00     0.053 C 
BRANCH   7   8
ATOM      8  C   UNL     1      14.843  15.868  -8.137  1.00  0.00     0.041 C 
ATOM      9  O   UNL     1      15.313  14.876  -7.520  1.00  0.00    -0.550 OA
ATOM     10  O   UNL     1      15.571  16.442  -9.172  1.00  0.00    -0.550 OA
ENDBRANCH   7   8
ENDBRANCH   6   7
ENDBRANCH   5   6
ENDBRANCH   4   5
ENDBRANCH   3   4
ENDBRANCH   2   3
ENDBRANCH   1   2
BRANCH   1  11
ATOM     11  C   UNL     1      10.714  14.051  -1.472  1.00  0.00     0.000 C 
BRANCH  11  12
ATOM     12  C   UNL     1      11.909  13.682  -0.569  1.00  0.00    -0.000 C 
BRANCH  12  13
ATOM     13  C   UNL     1      11.544  13.297   0.880  1.00  0.00    -0.000 C 
BRANCH  13  14
ATOM     14  C   UNL     1      11.434  14.482   1.858  1.00  0.00    -0.000 C 
BRANCH  14  15
ATOM     15  C   UNL     1      11.306  15.864   1.189  1.00  0.00    -0.000 C 
BRANCH  15  16
ATOM     16  C   UNL     1      10.746  16.957   2.124  1.00  0.00    -0.000 C 
BRANCH  16  17
ATOM     17  C   UNL     1       9.225  17.118   1.995  1.00  0.00    -0.003 C 
ATOM     18  C   UNL     1       8.516  15.774   2.125  1.00  0.00     0.004 C 
ENDBRANCH  16  17
ENDBRANCH  15  16
ENDBRANCH  14  15
ENDBRANCH  13  14
ENDBRANCH  12  13
ENDBRANCH  11  12
ENDBRANCH   1  11
TORSDOF 14
ENDMDL
MODEL 4
REMARK VINA RESULT:     7.146      6.322     10.786
REMARK INTER + INTRA:          11.974
REMARK INTER:                  12.845
REMARK INTRA:                  -0.872
REMARK UNBOUND:                -1.020
REMARK SMILES CCCCCCCCCCCCCCCC(=O)[O-]
REMARK SMILES IDX 9 1 10 2 11 3 12 4 13 5 14 6 15 7 16 8 17 9 18 10 8 11 7 12
REMARK SMILES IDX 6 13 5 14 4 15 3 16 2 17 1 18
REMARK H PARENT
REMARK Flexibility Score: inf
ROOT
ATOM      1  C   UNL     1      15.907  15.215 -13.382  1.00  0.00     0.000 C 
ENDROOT
BRANCH   1   2
ATOM      2  C   UNL     1      17.354  14.711 -13.508  1.00  0.00     0.000 C 
BRANCH   2   3
ATOM      3  C   UNL     1      18.398  15.799 -13.195  1.00  0.00     0.000 C 
BRANCH   3   4
ATOM      4  C   UNL     1      17.819  17.181 -12.840  1.00  0.00     0.000 C 
BRANCH   4   5
ATOM      5  C   UNL     1      18.294  17.698 -11.474  1.00  0.00     0.000 C 
BRANCH   5   6
ATOM      6  C   UNL     1      17.902  19.168 -11.277  1.00  0.00     0.006 C 
BRANCH   6   7
ATOM      7  C   UNL     1      18.054  19.957 -12.580  1.00  0.00     0.053 C 
BRANCH   7   8
ATOM      8  C   UNL     1      19.252  20.849 -12.516  1.00  0.00     0.041 C 
ATOM      9  O   UNL     1      19.113  22.101 -12.524  1.00  0.00    -0.550 OA
ATOM     10  O   UNL     1      20.529  20.300 -12.497  1.00  0.00    -0.550 OA
ENDBRANCH   7   8
ENDBRANCH   6   7
ENDBRANCH   5   6
ENDBRANCH   4   5
ENDBRANCH   3   4
ENDBRANCH   2   3
ENDBRANCH   1   2
BRANCH   1  11
ATOM     11  C   UNL     1      15.224  14.753 -12.082  1.00  0.00     0.000 C 
BRANCH  11  12
ATOM     12  C   UNL     1      15.294  15.753 -10.909  1.00  0.00    -0.000 C 
BRANCH  12  13
ATOM     13  C   UNL     1      14.394  15.416  -9.702  1.00  0.00    -0.000 C 
BRANCH  13  14
ATOM     14  C   UNL     1      15.017  15.716  -8.325  1.00  0.00    -0.000 C 
BRANCH  14  15
ATOM     15  C   UNL     1      14.010  16.129  -7.236  1.00  0.00    -0.000 C 
BRANCH  15  16
ATOM     16  C   UNL     1      14.126  17.609  -6.811  1.00  0.00    -0.000 C 
BRANCH  16  17
ATOM     17  C   UNL     1      12.867  18.115  -6.093  1.00  0.00    -0.003 C 
ATOM     18  C   UNL     1      12.058  16.956  -5.519  1.00  0.00     0.004 C 
ENDBRANCH  16  17
ENDBRANCH  15  16
ENDBRANCH  14  15
ENDBRANCH  13  14
ENDBRANCH  12  13
ENDBRANCH  11  12
ENDBRANCH   1  11
TORSDOF 14
ENDMDL
MODEL 5
REMARK VINA RESULT:     7.364      6.569     12.314
REMARK INTER + INTRA:          12.371
REMARK INTER:                  13.393
REMARK INTRA:                  -1.022
REMARK UNBOUND:                -1.020
REMARK SMILES CCCCCCCCCCCCCCCC(=O)[O-]
REMARK SMILES IDX 9 1 10 2 11 3 12 4 13 5 14 6 15 7 16 8 17 9 18 10 8 11 7 12
REMARK SMILES IDX 6 13 5 14 4 15 3 16 2 17 1 18
REMARK H PARENT
REMARK Flexibility Score: inf
ROOT
ATOM      1  C   UNL     1      15.980  15.126 -13.360  1.00  0.00     0.000 C 
ENDROOT
BRANCH   1   2
ATOM      2  C   UNL     1      15.461  14.322 -12.157  1.00  0.00     0.000 C 
BRANCH   2   3
ATOM      3  C   UNL     1      14.554  15.150 -11.228  1.00  0.00     0.000 C 
BRANCH   3   4
ATOM      4  C   UNL     1      15.259  15.782 -10.014  1.00  0.00     0.000 C 
BRANCH   4   5
ATOM      5  C   UNL     1      14.801  15.186  -8.675  1.00  0.00     0.000 C 
BRANCH   5   6
ATOM      6  C   UNL     1      14.679  16.275  -7.602  1.00  0.00     0.006 C 
BRANCH   6   7
ATOM      7  C   UNL     1      13.210  16.589  -7.303  1.00  0.00     0.053 C 
BRANCH   7   8
ATOM      8  C   UNL     1      13.105  17.630  -6.234  1.00  0.00     0.041 C 
ATOM      9  O   UNL     1      12.488  17.380  -5.164  1.00  0.00    -0.550 OA
ATOM     10  O   UNL     1      13.644  18.894  -6.438  1.00  0.00    -0.550 OA
ENDBRANCH   7   8
ENDBRANCH   6   7
ENDBRANCH   5   6
ENDBRANCH   4   5
ENDBRANCH   3   4
ENDBRANCH   2   3
ENDBRANCH   1   2
BRANCH   1  11
ATOM     11  C   UNL     1      17.495  14.961 -13.582  1.00  0.00     0.000 C 
BRANCH  11  12
ATOM     12  C   UNL     1      18.382  16.009 -12.879  1.00  0.00    -0.000 C 
BRANCH  12  13
ATOM     13  C   UNL     1      17.718  17.382 -12.646  1.00  0.00    -0.000 C 
BRANCH  13  14
ATOM     14  C   UNL     1      18.240  18.155 -11.420  1.00  0.00    -0.000 C 
BRANCH  14  15
ATOM     15  C   UNL     1      17.854  19.646 -11.382  1.00  0.00    -0.000 C 
BRANCH  15  16
ATOM     16  C   UNL     1      18.198  20.410 -12.679  1.00  0.00    -0.000 C 
BRANCH  16  17
ATOM     17  C   UNL     1      19.285  21.473 -12.464  1.00  0.00    -0.003 C 
ATOM     18  C   UNL     1      20.678  20.855 -12.530  1.00  0.00     0.004 C 
ENDBRANCH  16  17
ENDBRANCH  15  16
ENDBRANCH  14  15
ENDBRANCH  13  14
ENDBRANCH  12  13
ENDBRANCH  11  12
ENDBRANCH   1  11
TORSDOF 14
ENDMDL
