MODEL 1
REMARK VINA RESULT:    -4.595      0.000      0.000
REMARK INTER + INTRA:          -9.676
REMARK INTER:                  -8.625
REMARK INTRA:                  -1.051
REMARK UNBOUND:                -1.051
REMARK SMILES CCCCCCCCC=CCCCCCCCC(=O)[O-]
REMARK SMILES IDX 10 1 9 2 11 3 12 4 13 5 14 6 15 7 16 8 17 9 18 10 19 11
REMARK SMILES IDX 20 12 8 13 7 14 6 15 5 16 4 17 3 18 2 19 1 20
REMARK H PARENT
REMARK Flexibility Score: inf
ROOT
ATOM      1  C   UNL     1     -44.494  27.160  -1.014  1.00  0.00    -0.031 C 
ATOM      2  C   UNL     1     -45.209  26.094  -1.402  1.00  0.00    -0.031 C 
ENDROOT
BRANCH   1   3
ATOM      3  C   UNL     1     -43.776  27.187   0.307  1.00  0.00     0.027 C 
BRANCH   3   4
ATOM      4  C   UNL     1     -42.459  27.965   0.206  1.00  0.00     0.004 C 
BRANCH   4   5
ATOM      5  C   UNL     1     -42.636  29.410   0.688  1.00  0.00     0.000 C 
BRANCH   5   6
ATOM      6  C   UNL     1     -43.971  29.583   1.428  1.00  0.00     0.000 C 
BRANCH   6   7
ATOM      7  C   UNL     1     -43.786  29.952   2.909  1.00  0.00     0.000 C 
BRANCH   7   8
ATOM      8  C   UNL     1     -42.980  28.898   3.686  1.00  0.00     0.006 C 
BRANCH   8   9
ATOM      9  C   UNL     1     -43.845  28.144   4.705  1.00  0.00     0.053 C 
BRANCH   9  10
ATOM     10  C   UNL     1     -44.723  27.126   4.043  1.00  0.00     0.041 C 
ATOM     11  O   UNL     1     -45.968  27.306   3.981  1.00  0.00    -0.550 OA
ATOM     12  O   UNL     1     -44.162  25.993   3.468  1.00  0.00    -0.550 OA
ENDBRANCH   9  10
ENDBRANCH   8   9
ENDBRANCH   7   8
ENDBRANCH   6   7
ENDBRANCH   5   6
ENDBRANCH   4   5
ENDBRANCH   3   4
ENDBRANCH   1   3
BRANCH   2  13
ATOM     13  C   UNL     1     -45.961  26.079  -2.707  1.00  0.00     0.027 C 
BRANCH  13  14
ATOM     14  C   UNL     1     -46.914  27.276  -2.839  1.00  0.00     0.004 C 
BRANCH  14  15
ATOM     15  C   UNL     1     -47.125  27.691  -4.306  1.00  0.00     0.000 C 
BRANCH  15  16
ATOM     16  C   UNL     1     -46.071  28.716  -4.774  1.00  0.00     0.000 C 
BRANCH  16  17
ATOM     17  C   UNL     1     -46.240  29.144  -6.243  1.00  0.00    -0.000 C 
BRANCH  17  18
ATOM     18  C   UNL     1     -45.310  28.379  -7.201  1.00  0.00    -0.000 C 
BRANCH  18  19
ATOM     19  C   UNL     1     -45.490  26.856  -7.105  1.00  0.00    -0.003 C 
ATOM     20  C   UNL     1     -46.540  26.321  -8.079  1.00  0.00     0.004 C 
ENDBRANCH  18  19
ENDBRANCH  17  18
ENDBRANCH  16  17
ENDBRANCH  15  16
ENDBRANCH  14  15
ENDBRANCH  13  14
ENDBRANCH   2  13
TORSDOF 15
ENDMDL
MODEL 2
REMARK VINA RESULT:    -4.575      1.667      2.241
REMARK INTER + INTRA:          -9.638
REMARK INTER:                  -8.242
REMARK INTRA:                  -1.396
REMARK UNBOUND:                -1.051
REMARK SMILES CCCCCCCCC=CCCCCCCCC(=O)[O-]
REMARK SMILES IDX 10 1 9 2 11 3 12 4 13 5 14 6 15 7 16 8 17 9 18 10 19 11
REMARK SMILES IDX 20 12 8 13 7 14 6 15 5 16 4 17 3 18 2 19 1 20
REMARK H PARENT
REMARK Flexibility Score: inf
ROOT
ATOM      1  C   UNL     1     -43.570  27.660  -0.556  1.00  0.00    -0.031 C 
ATOM      2  C   UNL     1     -44.517  26.715  -0.459  1.00  0.00    -0.031 C 
ENDROOT
BRANCH   1   3
ATOM      3  C   UNL     1     -42.605  27.924   0.566  1.00  0.00     0.027 C 
BRANCH   3   4
ATOM      4  C   UNL     1     -42.681  29.383   1.030  1.00  0.00     0.004 C 
BRANCH   4   5
ATOM      5  C   UNL     1     -42.971  29.468   2.534  1.00  0.00     0.000 C 
BRANCH   5   6
ATOM      6  C   UNL     1     -44.463  29.728   2.793  1.00  0.00     0.000 C 
BRANCH   6   7
ATOM      7  C   UNL     1     -45.185  28.508   3.386  1.00  0.00     0.000 C 
BRANCH   7   8
ATOM      8  C   UNL     1     -44.210  27.446   3.921  1.00  0.00     0.006 C 
BRANCH   8   9
ATOM      9  C   UNL     1     -44.477  27.107   5.394  1.00  0.00     0.053 C 
BRANCH   9  10
ATOM     10  C   UNL     1     -43.462  27.733   6.300  1.00  0.00     0.041 C 
ATOM     11  O   UNL     1     -42.629  28.561   5.846  1.00  0.00    -0.550 OA
ATOM     12  O   UNL     1     -43.456  27.425   7.655  1.00  0.00    -0.550 OA
ENDBRANCH   9  10
ENDBRANCH   8   9
ENDBRANCH   7   8
ENDBRANCH   6   7
ENDBRANCH   5   6
ENDBRANCH   4   5
ENDBRANCH   3   4
ENDBRANCH   1   3
BRANCH   2  13
ATOM     13  C   UNL     1     -45.509  26.473  -1.566  1.00  0.00     0.027 C 
BRANCH  13  14
ATOM     14  C   UNL     1     -46.020  27.785  -2.182  1.00  0.00     0.004 C 
BRANCH  14  15
ATOM     15  C   UNL     1     -46.775  27.551  -3.502  1.00  0.00     0.000 C 
BRANCH  15  16
ATOM     16  C   UNL     1     -46.144  26.417  -4.336  1.00  0.00     0.000 C 
BRANCH  16  17
ATOM     17  C   UNL     1     -46.731  26.297  -5.754  1.00  0.00    -0.000 C 
BRANCH  17  18
ATOM     18  C   UNL     1     -45.689  26.553  -6.857  1.00  0.00    -0.000 C 
BRANCH  18  19
ATOM     19  C   UNL     1     -45.916  27.887  -7.584  1.00  0.00    -0.003 C 
ATOM     20  C   UNL     1     -45.318  29.079  -6.836  1.00  0.00     0.004 C 
ENDBRANCH  18  19
ENDBRANCH  17  18
ENDBRANCH  16  17
ENDBRANCH  15  16
ENDBRANCH  14  15
ENDBRANCH  13  14
ENDBRANCH   2  13
TORSDOF 15
ENDMDL
MODEL 3
REMARK VINA RESULT:    -4.513      0.888      1.893
REMARK INTER + INTRA:          -9.521
REMARK INTER:                  -8.494
REMARK INTRA:                  -1.027
REMARK UNBOUND:                -1.051
REMARK SMILES CCCCCCCCC=CCCCCCCCC(=O)[O-]
REMARK SMILES IDX 10 1 9 2 11 3 12 4 13 5 14 6 15 7 16 8 17 9 18 10 19 11
REMARK SMILES IDX 20 12 8 13 7 14 6 15 5 16 4 17 3 18 2 19 1 20
REMARK H PARENT
REMARK Flexibility Score: inf
ROOT
ATOM      1  C   UNL     1     -43.723  27.204   0.216  1.00  0.00    -0.031 C 
ATOM      2  C   UNL     1     -44.421  27.287  -0.927  1.00  0.00    -0.031 C 
ENDROOT
BRANCH   1   3
ATOM      3  C   UNL     1     -42.401  27.901   0.383  1.00  0.00     0.027 C 
BRANCH   3   4
ATOM      4  C   UNL     1     -42.595  29.381   0.735  1.00  0.00     0.004 C 
BRANCH   4   5
ATOM      5  C   UNL     1     -43.467  29.538   1.987  1.00  0.00     0.000 C 
BRANCH   5   6
ATOM      6  C   UNL     1     -42.609  29.876   3.216  1.00  0.00     0.000 C 
BRANCH   6   7
ATOM      7  C   UNL     1     -43.400  29.801   4.532  1.00  0.00     0.000 C 
BRANCH   7   8
ATOM      8  C   UNL     1     -43.215  28.457   5.257  1.00  0.00     0.006 C 
BRANCH   8   9
ATOM      9  C   UNL     1     -44.533  27.681   5.382  1.00  0.00     0.053 C 
BRANCH   9  10
ATOM     10  C   UNL     1     -44.969  27.112   4.067  1.00  0.00     0.041 C 
ATOM     11  O   UNL     1     -44.301  26.195   3.519  1.00  0.00    -0.550 OA
ATOM     12  O   UNL     1     -46.131  27.572   3.459  1.00  0.00    -0.550 OA
ENDBRANCH   9  10
ENDBRANCH   8   9
ENDBRANCH   7   8
ENDBRANCH   6   7
ENDBRANCH   5   6
ENDBRANCH   4   5
ENDBRANCH   3   4
ENDBRANCH   1   3
BRANCH   2  13
ATOM     13  C   UNL     1     -45.726  26.560  -1.111  1.00  0.00     0.027 C 
BRANCH  13  14
ATOM     14  C   UNL     1     -45.866  25.969  -2.522  1.00  0.00     0.004 C 
BRANCH  14  15
ATOM     15  C   UNL     1     -46.308  27.023  -3.552  1.00  0.00     0.000 C 
BRANCH  15  16
ATOM     16  C   UNL     1     -46.842  26.378  -4.848  1.00  0.00     0.000 C 
BRANCH  16  17
ATOM     17  C   UNL     1     -45.863  26.475  -6.031  1.00  0.00    -0.000 C 
BRANCH  17  18
ATOM     18  C   UNL     1     -46.569  26.748  -7.371  1.00  0.00    -0.000 C 
BRANCH  18  19
ATOM     19  C   UNL     1     -46.348  28.183  -7.873  1.00  0.00    -0.003 C 
ATOM     20  C   UNL     1     -45.347  28.962  -7.018  1.00  0.00     0.004 C 
ENDBRANCH  18  19
ENDBRANCH  17  18
ENDBRANCH  16  17
ENDBRANCH  15  16
ENDBRANCH  14  15
ENDBRANCH  13  14
ENDBRANCH   2  13
TORSDOF 15
ENDMDL
MODEL 4
REMARK VINA RESULT:    -4.428      2.413      3.742
REMARK INTER + INTRA:          -9.362
REMARK INTER:                  -8.338
REMARK INTRA:                  -1.024
REMARK UNBOUND:                -1.051
REMARK SMILES CCCCCCCCC=CCCCCCCCC(=O)[O-]
REMARK SMILES IDX 10 1 9 2 11 3 12 4 13 5 14 6 15 7 16 8 17 9 18 10 19 11
REMARK SMILES IDX 20 12 8 13 7 14 6 15 5 16 4 17 3 18 2 19 1 20
REMARK H PARENT
REMARK Flexibility Score: inf
ROOT
ATOM      1  C   UNL     1     -43.422  27.365   1.726  1.00  0.00    -0.031 C 
ATOM      2  C   UNL     1     -43.989  27.796   0.589  1.00  0.00    -0.031 C 
ENDROOT
BRANCH   1   3
ATOM      3  C   UNL     1     -43.265  28.269   2.918  1.00  0.00     0.027 C 
BRANCH   3   4
ATOM      4  C   UNL     1     -44.586  28.415   3.682  1.00  0.00     0.004 C 
BRANCH   4   5
ATOM      5  C   UNL     1     -44.884  27.160   4.510  1.00  0.00     0.000 C 
BRANCH   5   6
ATOM      6  C   UNL     1     -46.160  27.342   5.347  1.00  0.00     0.000 C 
BRANCH   6   7
ATOM      7  C   UNL     1     -45.929  28.199   6.602  1.00  0.00     0.000 C 
BRANCH   7   8
ATOM      8  C   UNL     1     -44.837  27.624   7.520  1.00  0.00     0.006 C 
BRANCH   8   9
ATOM      9  C   UNL     1     -43.993  28.725   8.175  1.00  0.00     0.053 C 
BRANCH   9  10
ATOM     10  C   UNL     1     -42.571  28.689   7.707  1.00  0.00     0.041 C 
ATOM     11  O   UNL     1     -42.255  28.019   6.688  1.00  0.00    -0.550 OA
ATOM     12  O   UNL     1     -41.598  29.419   8.379  1.00  0.00    -0.550 OA
ENDBRANCH   9  10
ENDBRANCH   8   9
ENDBRANCH   7   8
ENDBRANCH   6   7
ENDBRANCH   5   6
ENDBRANCH   4   5
ENDBRANCH   3   4
ENDBRANCH   1   3
BRANCH   2  13
ATOM     13  C   UNL     1     -44.114  26.905  -0.618  1.00  0.00     0.027 C 
BRANCH  13  14
ATOM     14  C   UNL     1     -45.466  27.078  -1.327  1.00  0.00     0.004 C 
BRANCH  14  15
ATOM     15  C   UNL     1     -45.916  25.790  -2.040  1.00  0.00     0.000 C 
BRANCH  15  16
ATOM     16  C   UNL     1     -46.672  26.089  -3.352  1.00  0.00     0.000 C 
BRANCH  16  17
ATOM     17  C   UNL     1     -46.700  27.584  -3.717  1.00  0.00    -0.000 C 
BRANCH  17  18
ATOM     18  C   UNL     1     -46.223  27.858  -5.154  1.00  0.00    -0.000 C 
BRANCH  18  19
ATOM     19  C   UNL     1     -45.939  26.568  -5.937  1.00  0.00    -0.003 C 
ATOM     20  C   UNL     1     -45.537  26.832  -7.389  1.00  0.00     0.004 C 
ENDBRANCH  18  19
ENDBRANCH  17  18
ENDBRANCH  16  17
ENDBRANCH  15  16
ENDBRANCH  14  15
ENDBRANCH  13  14
ENDBRANCH   2  13
TORSDOF 15
ENDMDL
MODEL 5
REMARK VINA RESULT:    -4.399      2.328      4.753
REMARK INTER + INTRA:          -9.308
REMARK INTER:                  -7.666
REMARK INTRA:                  -1.642
REMARK UNBOUND:                -1.051
REMARK SMILES CCCCCCCCC=CCCCCCCCC(=O)[O-]
REMARK SMILES IDX 10 1 9 2 11 3 12 4 13 5 14 6 15 7 16 8 17 9 18 10 19 11
REMARK SMILES IDX 20 12 8 13 7 14 6 15 5 16 4 17 3 18 2 19 1 20
REMARK H PARENT
REMARK Flexibility Score: inf
ROOT
ATOM      1  C   UNL     1     -43.625  28.647   3.306  1.00  0.00    -0.031 C 
ATOM      2  C   UNL     1     -43.801  27.869   2.227  1.00  0.00    -0.031 C 
ENDROOT
BRANCH   1   3
ATOM      3  C   UNL     1     -44.776  29.035   4.192  1.00  0.00     0.027 C 
BRANCH   3   4
ATOM      4  C   UNL     1     -46.060  28.303   3.784  1.00  0.00     0.004 C 
BRANCH   4   5
ATOM      5  C   UNL     1     -46.596  27.449   4.940  1.00  0.00     0.000 C 
BRANCH   5   6
ATOM      6  C   UNL     1     -47.020  28.330   6.125  1.00  0.00     0.000 C 
BRANCH   6   7
ATOM      7  C   UNL     1     -46.503  27.801   7.473  1.00  0.00     0.000 C 
BRANCH   7   8
ATOM      8  C   UNL     1     -45.249  28.546   7.960  1.00  0.00     0.006 C 
BRANCH   8   9
ATOM      9  C   UNL     1     -44.084  27.590   8.245  1.00  0.00     0.053 C 
BRANCH   9  10
ATOM     10  C   UNL     1     -43.248  27.353   7.025  1.00  0.00     0.041 C 
ATOM     11  O   UNL     1     -43.531  26.416   6.232  1.00  0.00    -0.550 OA
ATOM     12  O   UNL     1     -42.172  28.188   6.746  1.00  0.00    -0.550 OA
ENDBRANCH   9  10
ENDBRANCH   8   9
ENDBRANCH   7   8
ENDBRANCH   6   7
ENDBRANCH   5   6
ENDBRANCH   4   5
ENDBRANCH   3   4
ENDBRANCH   1   3
BRANCH   2  13
ATOM     13  C   UNL     1     -42.657  27.510   1.316  1.00  0.00     0.027 C 
BRANCH  13  14
ATOM     14  C   UNL     1     -42.946  27.875  -0.148  1.00  0.00     0.004 C 
BRANCH  14  15
ATOM     15  C   UNL     1     -44.298  28.591  -0.311  1.00  0.00     0.000 C 
BRANCH  15  16
ATOM     16  C   UNL     1     -45.228  27.853  -1.296  1.00  0.00     0.000 C 
BRANCH  16  17
ATOM     17  C   UNL     1     -45.167  26.320  -1.168  1.00  0.00    -0.000 C 
BRANCH  17  18
ATOM     18  C   UNL     1     -45.560  25.595  -2.467  1.00  0.00    -0.000 C 
BRANCH  18  19
ATOM     19  C   UNL     1     -46.689  26.311  -3.223  1.00  0.00    -0.003 C 
ATOM     20  C   UNL     1     -46.350  26.564  -4.692  1.00  0.00     0.004 C 
ENDBRANCH  18  19
ENDBRANCH  17  18
ENDBRANCH  16  17
ENDBRANCH  15  16
ENDBRANCH  14  15
ENDBRANCH  13  14
ENDBRANCH   2  13
TORSDOF 15
ENDMDL
MODEL 6
REMARK VINA RESULT:    -4.374      2.911      5.025
REMARK INTER + INTRA:          -9.260
REMARK INTER:                  -7.237
REMARK INTRA:                  -2.023
REMARK UNBOUND:                -1.051
REMARK SMILES CCCCCCCCC=CCCCCCCCC(=O)[O-]
REMARK SMILES IDX 10 1 9 2 11 3 12 4 13 5 14 6 15 7 16 8 17 9 18 10 19 11
REMARK SMILES IDX 20 12 8 13 7 14 6 15 5 16 4 17 3 18 2 19 1 20
REMARK H PARENT
REMARK Flexibility Score: inf
ROOT
ATOM      1  C   UNL     1     -43.857  27.746   2.674  1.00  0.00    -0.031 C 
ATOM      2  C   UNL     1     -43.150  27.137   1.711  1.00  0.00    -0.031 C 
ENDROOT
BRANCH   1   3
ATOM      3  C   UNL     1     -44.439  26.978   3.828  1.00  0.00     0.027 C 
BRANCH   3   4
ATOM      4  C   UNL     1     -45.756  27.603   4.303  1.00  0.00     0.004 C 
BRANCH   4   5
ATOM      5  C   UNL     1     -45.549  29.062   4.729  1.00  0.00     0.000 C 
BRANCH   5   6
ATOM      6  C   UNL     1     -46.123  29.312   6.132  1.00  0.00     0.000 C 
BRANCH   6   7
ATOM      7  C   UNL     1     -46.056  28.068   7.032  1.00  0.00     0.000 C 
BRANCH   7   8
ATOM      8  C   UNL     1     -44.894  28.127   8.038  1.00  0.00     0.006 C 
BRANCH   8   9
ATOM      9  C   UNL     1     -43.651  27.383   7.531  1.00  0.00     0.053 C 
BRANCH   9  10
ATOM     10  C   UNL     1     -42.541  28.328   7.185  1.00  0.00     0.041 C 
ATOM     11  O   UNL     1     -42.302  28.614   5.981  1.00  0.00    -0.550 OA
ATOM     12  O   UNL     1     -41.789  28.917   8.194  1.00  0.00    -0.550 OA
ENDBRANCH   9  10
ENDBRANCH   8   9
ENDBRANCH   7   8
ENDBRANCH   6   7
ENDBRANCH   5   6
ENDBRANCH   4   5
ENDBRANCH   3   4
ENDBRANCH   1   3
BRANCH   2  13
ATOM     13  C   UNL     1     -42.599  27.898   0.534  1.00  0.00     0.027 C 
BRANCH  13  14
ATOM     14  C   UNL     1     -42.687  29.419   0.735  1.00  0.00     0.004 C 
BRANCH  14  15
ATOM     15  C   UNL     1     -43.917  30.026   0.037  1.00  0.00     0.000 C 
BRANCH  15  16
ATOM     16  C   UNL     1     -44.569  29.036  -0.951  1.00  0.00     0.000 C 
BRANCH  16  17
ATOM     17  C   UNL     1     -45.996  28.621  -0.553  1.00  0.00    -0.000 C 
BRANCH  17  18
ATOM     18  C   UNL     1     -46.169  27.095  -0.451  1.00  0.00    -0.000 C 
BRANCH  18  19
ATOM     19  C   UNL     1     -45.268  26.333  -1.434  1.00  0.00    -0.003 C 
ATOM     20  C   UNL     1     -45.972  26.004  -2.751  1.00  0.00     0.004 C 
ENDBRANCH  18  19
ENDBRANCH  17  18
ENDBRANCH  16  17
ENDBRANCH  15  16
ENDBRANCH  14  15
ENDBRANCH  13  14
ENDBRANCH   2  13
TORSDOF 15
ENDMDL
MODEL 7
REMARK VINA RESULT:    -4.327      3.522      8.312
REMARK INTER + INTRA:          -9.173
REMARK INTER:                  -6.910
REMARK INTRA:                  -2.263
REMARK UNBOUND:                -1.051
REMARK SMILES CCCCCCCCC=CCCCCCCCC(=O)[O-]
REMARK SMILES IDX 10 1 9 2 11 3 12 4 13 5 14 6 15 7 16 8 17 9 18 10 19 11
REMARK SMILES IDX 20 12 8 13 7 14 6 15 5 16 4 17 3 18 2 19 1 20
REMARK H PARENT
REMARK Flexibility Score: inf
ROOT
ATOM      1  C   UNL     1     -43.119  28.155   1.881  1.00  0.00    -0.031 C 
ATOM      2  C   UNL     1     -43.757  27.095   2.398  1.00  0.00    -0.031 C 
ENDROOT
BRANCH   1   3
ATOM      3  C   UNL     1     -42.273  28.038   0.644  1.00  0.00     0.027 C 
BRANCH   3   4
ATOM      4  C   UNL     1     -42.426  29.273  -0.252  1.00  0.00     0.004 C 
BRANCH   4   5
ATOM      5  C   UNL     1     -43.721  30.027   0.069  1.00  0.00     0.000 C 
BRANCH   5   6
ATOM      6  C   UNL     1     -44.873  29.550  -0.829  1.00  0.00     0.000 C 
BRANCH   6   7
ATOM      7  C   UNL     1     -46.076  29.029  -0.026  1.00  0.00     0.000 C 
BRANCH   7   8
ATOM      8  C   UNL     1     -46.387  27.551  -0.317  1.00  0.00     0.006 C 
BRANCH   8   9
ATOM      9  C   UNL     1     -45.222  26.844  -1.023  1.00  0.00     0.053 C 
BRANCH   9  10
ATOM     10  C   UNL     1     -45.706  25.851  -2.035  1.00  0.00     0.041 C 
ATOM     11  O   UNL     1     -45.746  24.624  -1.752  1.00  0.00    -0.550 OA
ATOM     12  O   UNL     1     -46.143  26.284  -3.281  1.00  0.00    -0.550 OA
ENDBRANCH   9  10
ENDBRANCH   8   9
ENDBRANCH   7   8
ENDBRANCH   6   7
ENDBRANCH   5   6
ENDBRANCH   4   5
ENDBRANCH   3   4
ENDBRANCH   1   3
BRANCH   2  13
ATOM     13  C   UNL     1     -44.575  27.201   3.658  1.00  0.00     0.027 C 
BRANCH  13  14
ATOM     14  C   UNL     1     -45.190  28.598   3.833  1.00  0.00     0.004 C 
BRANCH  14  15
ATOM     15  C   UNL     1     -46.429  28.577   4.745  1.00  0.00     0.000 C 
BRANCH  15  16
ATOM     16  C   UNL     1     -46.591  27.223   5.468  1.00  0.00     0.000 C 
BRANCH  16  17
ATOM     17  C   UNL     1     -46.300  27.294   6.978  1.00  0.00    -0.000 C 
BRANCH  17  18
ATOM     18  C   UNL     1     -45.144  28.250   7.320  1.00  0.00    -0.000 C 
BRANCH  18  19
ATOM     19  C   UNL     1     -43.828  27.508   7.597  1.00  0.00    -0.003 C 
ATOM     20  C   UNL     1     -42.660  28.044   6.768  1.00  0.00     0.004 C 
ENDBRANCH  18  19
ENDBRANCH  17  18
ENDBRANCH  16  17
ENDBRANCH  15  16
ENDBRANCH  14  15
ENDBRANCH  13  14
ENDBRANCH   2  13
TORSDOF 15
ENDMDL
MODEL 8
REMARK VINA RESULT:    -4.285      3.800      9.672
REMARK INTER + INTRA:          -9.094
REMARK INTER:                  -7.751
REMARK INTRA:                  -1.342
REMARK UNBOUND:                -1.051
REMARK SMILES CCCCCCCCC=CCCCCCCCC(=O)[O-]
REMARK SMILES IDX 10 1 9 2 11 3 12 4 13 5 14 6 15 7 16 8 17 9 18 10 19 11
REMARK SMILES IDX 20 12 8 13 7 14 6 15 5 16 4 17 3 18 2 19 1 20
REMARK H PARENT
REMARK Flexibility Score: inf
ROOT
ATOM      1  C   UNL     1     -43.487  27.465   1.362  1.00  0.00    -0.031 C 
ATOM      2  C   UNL     1     -44.604  27.547   2.101  1.00  0.00    -0.031 C 
ENDROOT
BRANCH   1   3
ATOM      3  C   UNL     1     -43.542  27.297  -0.131  1.00  0.00     0.027 C 
BRANCH   3   4
ATOM      4  C   UNL     1     -44.988  27.153  -0.619  1.00  0.00     0.004 C 
BRANCH   4   5
ATOM      5  C   UNL     1     -45.103  26.046  -1.674  1.00  0.00     0.000 C 
BRANCH   5   6
ATOM      6  C   UNL     1     -46.217  26.363  -2.685  1.00  0.00     0.000 C 
BRANCH   6   7
ATOM      7  C   UNL     1     -46.351  27.868  -2.969  1.00  0.00     0.000 C 
BRANCH   7   8
ATOM      8  C   UNL     1     -46.476  28.178  -4.470  1.00  0.00     0.006 C 
BRANCH   8   9
ATOM      9  C   UNL     1     -46.461  26.905  -5.326  1.00  0.00     0.053 C 
BRANCH   9  10
ATOM     10  C   UNL     1     -45.619  27.071  -6.554  1.00  0.00     0.041 C 
ATOM     11  O   UNL     1     -45.259  26.063  -7.218  1.00  0.00    -0.550 OA
ATOM     12  O   UNL     1     -45.256  28.342  -6.982  1.00  0.00    -0.550 OA
ENDBRANCH   9  10
ENDBRANCH   8   9
ENDBRANCH   7   8
ENDBRANCH   6   7
ENDBRANCH   5   6
ENDBRANCH   4   5
ENDBRANCH   3   4
ENDBRANCH   1   3
BRANCH   2  13
ATOM     13  C   UNL     1     -44.552  27.677   3.600  1.00  0.00     0.027 C 
BRANCH  13  14
ATOM     14  C   UNL     1     -44.460  29.142   4.052  1.00  0.00     0.004 C 
BRANCH  14  15
ATOM     15  C   UNL     1     -43.416  29.342   5.165  1.00  0.00     0.000 C 
BRANCH  15  16
ATOM     16  C   UNL     1     -42.934  27.999   5.753  1.00  0.00     0.000 C 
BRANCH  16  17
ATOM     17  C   UNL     1     -43.192  27.861   7.264  1.00  0.00    -0.000 C 
BRANCH  17  18
ATOM     18  C   UNL     1     -44.495  28.546   7.713  1.00  0.00    -0.000 C 
BRANCH  18  19
ATOM     19  C   UNL     1     -45.615  27.539   8.020  1.00  0.00    -0.003 C 
ATOM     20  C   UNL     1     -46.420  27.154   6.778  1.00  0.00     0.004 C 
ENDBRANCH  18  19
ENDBRANCH  17  18
ENDBRANCH  16  17
ENDBRANCH  15  16
ENDBRANCH  14  15
ENDBRANCH  13  14
ENDBRANCH   2  13
TORSDOF 15
ENDMDL
MODEL 9
REMARK VINA RESULT:    -4.205      3.447      9.069
REMARK INTER + INTRA:          -8.943
REMARK INTER:                  -6.899
REMARK INTRA:                  -2.044
REMARK UNBOUND:                -1.051
REMARK SMILES CCCCCCCCC=CCCCCCCCC(=O)[O-]
REMARK SMILES IDX 10 1 9 2 11 3 12 4 13 5 14 6 15 7 16 8 17 9 18 10 19 11
REMARK SMILES IDX 20 12 8 13 7 14 6 15 5 16 4 17 3 18 2 19 1 20
REMARK H PARENT
REMARK Flexibility Score: inf
ROOT
ATOM      1  C   UNL     1     -44.066  28.434   3.534  1.00  0.00    -0.031 C 
ATOM      2  C   UNL     1     -43.362  28.598   4.664  1.00  0.00    -0.031 C 
ENDROOT
BRANCH   1   3
ATOM      3  C   UNL     1     -44.095  27.116   2.811  1.00  0.00     0.027 C 
BRANCH   3   4
ATOM      4  C   UNL     1     -43.002  27.049   1.737  1.00  0.00     0.004 C 
BRANCH   4   5
ATOM      5  C   UNL     1     -42.816  28.410   1.057  1.00  0.00     0.000 C 
BRANCH   5   6
ATOM      6  C   UNL     1     -43.262  28.356  -0.413  1.00  0.00     0.000 C 
BRANCH   6   7
ATOM      7  C   UNL     1     -44.392  29.349  -0.728  1.00  0.00     0.000 C 
BRANCH   7   8
ATOM      8  C   UNL     1     -45.694  28.649  -1.152  1.00  0.00     0.006 C 
BRANCH   8   9
ATOM      9  C   UNL     1     -45.736  27.183  -0.700  1.00  0.00     0.053 C 
BRANCH   9  10
ATOM     10  C   UNL     1     -45.868  26.246  -1.861  1.00  0.00     0.041 C 
ATOM     11  O   UNL     1     -46.072  26.696  -3.020  1.00  0.00    -0.550 OA
ATOM     12  O   UNL     1     -45.734  24.877  -1.669  1.00  0.00    -0.550 OA
ENDBRANCH   9  10
ENDBRANCH   8   9
ENDBRANCH   7   8
ENDBRANCH   6   7
ENDBRANCH   5   6
ENDBRANCH   4   5
ENDBRANCH   3   4
ENDBRANCH   1   3
BRANCH   2  13
ATOM     13  C   UNL     1     -43.300  29.927   5.370  1.00  0.00     0.027 C 
BRANCH  13  14
ATOM     14  C   UNL     1     -43.257  29.769   6.898  1.00  0.00     0.004 C 
BRANCH  14  15
ATOM     15  C   UNL     1     -42.703  28.398   7.324  1.00  0.00     0.000 C 
BRANCH  15  16
ATOM     16  C   UNL     1     -43.727  27.592   8.151  1.00  0.00     0.000 C 
BRANCH  16  17
ATOM     17  C   UNL     1     -45.032  28.360   8.430  1.00  0.00    -0.000 C 
BRANCH  17  18
ATOM     18  C   UNL     1     -46.289  27.572   8.025  1.00  0.00    -0.000 C 
BRANCH  18  19
ATOM     19  C   UNL     1     -46.375  27.339   6.508  1.00  0.00    -0.003 C 
ATOM     20  C   UNL     1     -46.978  28.529   5.760  1.00  0.00     0.004 C 
ENDBRANCH  18  19
ENDBRANCH  17  18
ENDBRANCH  16  17
ENDBRANCH  15  16
ENDBRANCH  14  15
ENDBRANCH  13  14
ENDBRANCH   2  13
TORSDOF 15
ENDMDL
