MODEL 1
REMARK VINA RESULT:    -2.889      0.000      0.000
REMARK INTER + INTRA:         -11.193
REMARK INTER:                  -6.605
REMARK INTRA:                  -4.587
REMARK UNBOUND:                -4.587
REMARK SMILES CCCCCCCCCCCCCCCCCCCCCCCC(=O)[O-]
REMARK SMILES IDX 13 1 14 2 15 3 16 4 17 5 18 6 19 7 20 8 21 9 22 10 23 11
REMARK SMILES IDX 24 12 25 13 26 14 12 15 11 16 10 17 9 18 8 19 7 20 6 21 5 22
REMARK SMILES IDX 4 23 3 24 2 25 1 26
REMARK H PARENT
REMARK Flexibility Score: inf
ROOT
ATOM      1  C   UNL     1      57.221  26.969  52.928  1.00  0.00     0.000 C 
ENDROOT
BRANCH   1   2
ATOM      2  C   UNL     1      58.382  26.308  53.688  1.00  0.00     0.000 C 
BRANCH   2   3
ATOM      3  C   UNL     1      59.765  26.726  53.145  1.00  0.00     0.000 C 
BRANCH   3   4
ATOM      4  C   UNL     1      60.394  25.704  52.176  1.00  0.00     0.000 C 
BRANCH   4   5
ATOM      5  C   UNL     1      60.950  26.297  50.871  1.00  0.00     0.000 C 
BRANCH   5   6
ATOM      6  C   UNL     1      59.853  26.868  49.960  1.00  0.00     0.000 C 
BRANCH   6   7
ATOM      7  C   UNL     1      60.110  28.351  49.656  1.00  0.00     0.000 C 
BRANCH   7   8
ATOM      8  C   UNL     1      58.813  29.151  49.452  1.00  0.00     0.000 C 
BRANCH   8   9
ATOM      9  C   UNL     1      58.279  29.758  50.761  1.00  0.00     0.000 C 
BRANCH   9  10
ATOM     10  C   UNL     1      59.407  30.129  51.744  1.00  0.00     0.006 C 
BRANCH  10  11
ATOM     11  C   UNL     1      58.921  30.510  53.152  1.00  0.00     0.053 C 
BRANCH  11  12
ATOM     12  C   UNL     1      58.373  31.903  53.198  1.00  0.00     0.041 C 
ATOM     13  O   UNL     1      57.134  32.092  53.312  1.00  0.00    -0.550 OA
ATOM     14  O   UNL     1      59.230  32.993  53.094  1.00  0.00    -0.550 OA
ENDBRANCH  11  12
ENDBRANCH  10  11
ENDBRANCH   9  10
ENDBRANCH   8   9
ENDBRANCH   7   8
ENDBRANCH   6   7
ENDBRANCH   5   6
ENDBRANCH   4   5
ENDBRANCH   3   4
ENDBRANCH   2   3
ENDBRANCH   1   2
BRANCH   1  15
ATOM     15  C   UNL     1      56.533  25.966  51.996  1.00  0.00     0.000 C 
BRANCH  15  16
ATOM     16  C   UNL     1      56.360  26.552  50.589  1.00  0.00     0.000 C 
BRANCH  16  17
ATOM     17  C   UNL     1      54.922  26.419  50.059  1.00  0.00     0.000 C 
BRANCH  17  18
ATOM     18  C   UNL     1      53.877  27.159  50.921  1.00  0.00    -0.000 C 
BRANCH  18  19
ATOM     19  C   UNL     1      53.496  28.530  50.332  1.00  0.00    -0.000 C 
BRANCH  19  20
ATOM     20  C   UNL     1      54.519  29.626  50.704  1.00  0.00    -0.000 C 
BRANCH  20  21
ATOM     21  C   UNL     1      54.901  29.633  52.194  1.00  0.00    -0.000 C 
BRANCH  21  22
ATOM     22  C   UNL     1      53.765  30.139  53.101  1.00  0.00    -0.000 C 
BRANCH  22  23
ATOM     23  C   UNL     1      53.212  29.034  54.027  1.00  0.00    -0.000 C 
BRANCH  23  24
ATOM     24  C   UNL     1      54.297  28.297  54.835  1.00  0.00    -0.000 C 
BRANCH  24  25
ATOM     25  C   UNL     1      54.982  29.141  55.922  1.00  0.00    -0.003 C 
ATOM     26  C   UNL     1      56.496  29.239  55.732  1.00  0.00     0.004 C 
ENDBRANCH  24  25
ENDBRANCH  23  24
ENDBRANCH  22  23
ENDBRANCH  21  22
ENDBRANCH  20  21
ENDBRANCH  19  20
ENDBRANCH  18  19
ENDBRANCH  17  18
ENDBRANCH  16  17
ENDBRANCH  15  16
ENDBRANCH   1  15
TORSDOF 22
ENDMDL
MODEL 2
REMARK VINA RESULT:    -2.871      1.491      5.596
REMARK INTER + INTRA:         -11.151
REMARK INTER:                  -6.514
REMARK INTRA:                  -4.637
REMARK UNBOUND:                -4.587
REMARK SMILES CCCCCCCCCCCCCCCCCCCCCCCC(=O)[O-]
REMARK SMILES IDX 13 1 14 2 15 3 16 4 17 5 18 6 19 7 20 8 21 9 22 10 23 11
REMARK SMILES IDX 24 12 25 13 26 14 12 15 11 16 10 17 9 18 8 19 7 20 6 21 5 22
REMARK SMILES IDX 4 23 3 24 2 25 1 26
REMARK H PARENT
REMARK Flexibility Score: inf
ROOT
ATOM      1  C   UNL     1      57.941  27.114  52.889  1.00  0.00     0.000 C 
ENDROOT
BRANCH   1   2
ATOM      2  C   UNL     1      57.034  25.990  53.413  1.00  0.00     0.000 C 
BRANCH   2   3
ATOM      3  C   UNL     1      55.867  25.670  52.455  1.00  0.00     0.000 C 
BRANCH   3   4
ATOM      4  C   UNL     1      56.028  26.275  51.045  1.00  0.00     0.000 C 
BRANCH   4   5
ATOM      5  C   UNL     1      54.713  26.545  50.296  1.00  0.00     0.000 C 
BRANCH   5   6
ATOM      6  C   UNL     1      54.260  28.010  50.392  1.00  0.00     0.000 C 
BRANCH   6   7
ATOM      7  C   UNL     1      55.443  28.928  50.736  1.00  0.00     0.000 C 
BRANCH   7   8
ATOM      8  C   UNL     1      55.121  29.915  51.870  1.00  0.00     0.000 C 
BRANCH   8   9
ATOM      9  C   UNL     1      54.922  29.215  53.225  1.00  0.00     0.000 C 
BRANCH   9  10
ATOM     10  C   UNL     1      55.391  30.078  54.411  1.00  0.00     0.006 C 
BRANCH  10  11
ATOM     11  C   UNL     1      55.330  31.594  54.156  1.00  0.00     0.053 C 
BRANCH  11  12
ATOM     12  C   UNL     1      56.598  32.282  54.557  1.00  0.00     0.041 C 
ATOM     13  O   UNL     1      56.873  33.421  54.097  1.00  0.00    -0.550 OA
ATOM     14  O   UNL     1      57.487  31.656  55.423  1.00  0.00    -0.550 OA
ENDBRANCH  11  12
ENDBRANCH  10  11
ENDBRANCH   9  10
ENDBRANCH   8   9
ENDBRANCH   7   8
ENDBRANCH   6   7
ENDBRANCH   5   6
ENDBRANCH   4   5
ENDBRANCH   3   4
ENDBRANCH   2   3
ENDBRANCH   1   2
BRANCH   1  15
ATOM     15  C   UNL     1      59.005  27.490  53.926  1.00  0.00     0.000 C 
BRANCH  15  16
ATOM     16  C   UNL     1      59.543  28.904  53.677  1.00  0.00     0.000 C 
BRANCH  16  17
ATOM     17  C   UNL     1      58.648  29.725  52.733  1.00  0.00     0.000 C 
BRANCH  17  18
ATOM     18  C   UNL     1      59.421  30.777  51.910  1.00  0.00    -0.000 C 
BRANCH  18  19
ATOM     19  C   UNL     1      59.959  30.205  50.585  1.00  0.00    -0.000 C 
BRANCH  19  20
ATOM     20  C   UNL     1      58.907  29.343  49.853  1.00  0.00    -0.000 C 
BRANCH  20  21
ATOM     21  C   UNL     1      59.360  27.894  49.609  1.00  0.00    -0.000 C 
BRANCH  21  22
ATOM     22  C   UNL     1      60.817  27.643  50.035  1.00  0.00    -0.000 C 
BRANCH  22  23
ATOM     23  C   UNL     1      60.979  26.342  50.851  1.00  0.00    -0.000 C 
BRANCH  23  24
ATOM     24  C   UNL     1      59.952  25.251  50.494  1.00  0.00    -0.000 C 
BRANCH  24  25
ATOM     25  C   UNL     1      60.307  23.839  50.988  1.00  0.00    -0.003 C 
ATOM     26  C   UNL     1      60.774  22.915  49.861  1.00  0.00     0.004 C 
ENDBRANCH  24  25
ENDBRANCH  23  24
ENDBRANCH  22  23
ENDBRANCH  21  22
ENDBRANCH  20  21
ENDBRANCH  19  20
ENDBRANCH  18  19
ENDBRANCH  17  18
ENDBRANCH  16  17
ENDBRANCH  15  16
ENDBRANCH   1  15
TORSDOF 22
ENDMDL
MODEL 3
REMARK VINA RESULT:    -2.830      2.825      4.171
REMARK INTER + INTRA:         -11.057
REMARK INTER:                  -6.861
REMARK INTRA:                  -4.195
REMARK UNBOUND:                -4.587
REMARK SMILES CCCCCCCCCCCCCCCCCCCCCCCC(=O)[O-]
REMARK SMILES IDX 13 1 14 2 15 3 16 4 17 5 18 6 19 7 20 8 21 9 22 10 23 11
REMARK SMILES IDX 24 12 25 13 26 14 12 15 11 16 10 17 9 18 8 19 7 20 6 21 5 22
REMARK SMILES IDX 4 23 3 24 2 25 1 26
REMARK H PARENT
REMARK Flexibility Score: inf
ROOT
ATOM      1  C   UNL     1      56.750  26.662  52.481  1.00  0.00     0.000 C 
ENDROOT
BRANCH   1   2
ATOM      2  C   UNL     1      58.188  26.731  53.020  1.00  0.00     0.000 C 
BRANCH   2   3
ATOM      3  C   UNL     1      58.661  28.178  53.272  1.00  0.00     0.000 C 
BRANCH   3   4
ATOM      4  C   UNL     1      57.914  29.238  52.437  1.00  0.00     0.000 C 
BRANCH   4   5
ATOM      5  C   UNL     1      58.767  29.953  51.376  1.00  0.00     0.000 C 
BRANCH   5   6
ATOM      6  C   UNL     1      58.420  29.523  49.943  1.00  0.00     0.000 C 
BRANCH   6   7
ATOM      7  C   UNL     1      59.277  28.326  49.506  1.00  0.00     0.000 C 
BRANCH   7   8
ATOM      8  C   UNL     1      60.726  28.415  50.011  1.00  0.00     0.000 C 
BRANCH   8   9
ATOM      9  C   UNL     1      61.215  27.101  50.646  1.00  0.00     0.000 C 
BRANCH   9  10
ATOM     10  C   UNL     1      60.322  25.900  50.279  1.00  0.00     0.006 C 
BRANCH  10  11
ATOM     11  C   UNL     1      60.935  24.530  50.613  1.00  0.00     0.053 C 
BRANCH  11  12
ATOM     12  C   UNL     1      60.502  24.033  51.958  1.00  0.00     0.041 C 
ATOM     13  O   UNL     1      59.521  23.251  52.058  1.00  0.00    -0.550 OA
ATOM     14  O   UNL     1      61.169  24.453  53.103  1.00  0.00    -0.550 OA
ENDBRANCH  11  12
ENDBRANCH  10  11
ENDBRANCH   9  10
ENDBRANCH   8   9
ENDBRANCH   7   8
ENDBRANCH   6   7
ENDBRANCH   5   6
ENDBRANCH   4   5
ENDBRANCH   3   4
ENDBRANCH   2   3
ENDBRANCH   1   2
BRANCH   1  15
ATOM     15  C   UNL     1      56.734  26.220  51.013  1.00  0.00     0.000 C 
BRANCH  15  16
ATOM     16  C   UNL     1      55.422  26.625  50.331  1.00  0.00     0.000 C 
BRANCH  16  17
ATOM     17  C   UNL     1      54.628  27.668  51.135  1.00  0.00     0.000 C 
BRANCH  17  18
ATOM     18  C   UNL     1      54.771  29.106  50.592  1.00  0.00    -0.000 C 
BRANCH  18  19
ATOM     19  C   UNL     1      53.458  29.903  50.688  1.00  0.00    -0.000 C 
BRANCH  19  20
ATOM     20  C   UNL     1      53.552  31.059  51.709  1.00  0.00    -0.000 C 
BRANCH  20  21
ATOM     21  C   UNL     1      53.404  30.603  53.171  1.00  0.00    -0.000 C 
BRANCH  21  22
ATOM     22  C   UNL     1      54.722  30.682  53.959  1.00  0.00    -0.000 C 
BRANCH  22  23
ATOM     23  C   UNL     1      55.652  31.803  53.445  1.00  0.00    -0.000 C 
BRANCH  23  24
ATOM     24  C   UNL     1      56.373  32.577  54.566  1.00  0.00    -0.000 C 
BRANCH  24  25
ATOM     25  C   UNL     1      57.861  32.234  54.737  1.00  0.00    -0.003 C 
ATOM     26  C   UNL     1      58.092  31.035  55.659  1.00  0.00     0.004 C 
ENDBRANCH  24  25
ENDBRANCH  23  24
ENDBRANCH  22  23
ENDBRANCH  21  22
ENDBRANCH  20  21
ENDBRANCH  19  20
ENDBRANCH  18  19
ENDBRANCH  17  18
ENDBRANCH  16  17
ENDBRANCH  15  16
ENDBRANCH   1  15
TORSDOF 22
ENDMDL
MODEL 4
REMARK VINA RESULT:    -2.812      1.930      5.893
REMARK INTER + INTRA:         -11.017
REMARK INTER:                  -6.626
REMARK INTRA:                  -4.391
REMARK UNBOUND:                -4.587
REMARK SMILES CCCCCCCCCCCCCCCCCCCCCCCC(=O)[O-]
REMARK SMILES IDX 13 1 14 2 15 3 16 4 17 5 18 6 19 7 20 8 21 9 22 10 23 11
REMARK SMILES IDX 24 12 25 13 26 14 12 15 11 16 10 17 9 18 8 19 7 20 6 21 5 22
REMARK SMILES IDX 4 23 3 24 2 25 1 26
REMARK H PARENT
REMARK Flexibility Score: inf
ROOT
ATOM      1  C   UNL     1      55.214  28.448  50.449  1.00  0.00     0.000 C 
ENDROOT
BRANCH   1   2
ATOM      2  C   UNL     1      53.688  28.329  50.307  1.00  0.00     0.000 C 
BRANCH   2   3
ATOM      3  C   UNL     1      52.960  29.668  50.548  1.00  0.00     0.000 C 
BRANCH   3   4
ATOM      4  C   UNL     1      53.663  30.592  51.564  1.00  0.00     0.000 C 
BRANCH   4   5
ATOM      5  C   UNL     1      53.407  30.251  53.041  1.00  0.00     0.000 C 
BRANCH   5   6
ATOM      6  C   UNL     1      54.491  30.805  53.979  1.00  0.00     0.000 C 
BRANCH   6   7
ATOM      7  C   UNL     1      55.712  31.288  53.181  1.00  0.00     0.000 C 
BRANCH   7   8
ATOM      8  C   UNL     1      56.387  32.517  53.811  1.00  0.00     0.000 C 
BRANCH   8   9
ATOM      9  C   UNL     1      57.919  32.390  53.863  1.00  0.00     0.000 C 
BRANCH   9  10
ATOM     10  C   UNL     1      58.473  32.494  55.297  1.00  0.00     0.006 C 
BRANCH  10  11
ATOM     11  C   UNL     1      58.072  31.329  56.217  1.00  0.00     0.053 C 
BRANCH  11  12
ATOM     12  C   UNL     1      57.214  31.783  57.357  1.00  0.00     0.041 C 
ATOM     13  O   UNL     1      55.963  31.660  57.297  1.00  0.00    -0.550 OA
ATOM     14  O   UNL     1      57.796  32.363  58.478  1.00  0.00    -0.550 OA
ENDBRANCH  11  12
ENDBRANCH  10  11
ENDBRANCH   9  10
ENDBRANCH   8   9
ENDBRANCH   7   8
ENDBRANCH   6   7
ENDBRANCH   5   6
ENDBRANCH   4   5
ENDBRANCH   3   4
ENDBRANCH   2   3
ENDBRANCH   1   2
BRANCH   1  15
ATOM     15  C   UNL     1      55.835  27.107  50.854  1.00  0.00     0.000 C 
BRANCH  15  16
ATOM     16  C   UNL     1      55.493  26.758  52.308  1.00  0.00     0.000 C 
BRANCH  16  17
ATOM     17  C   UNL     1      56.344  27.538  53.324  1.00  0.00     0.000 C 
BRANCH  17  18
ATOM     18  C   UNL     1      57.854  27.524  53.005  1.00  0.00    -0.000 C 
BRANCH  18  19
ATOM     19  C   UNL     1      58.537  28.862  53.342  1.00  0.00    -0.000 C 
BRANCH  19  20
ATOM     20  C   UNL     1      59.323  29.432  52.141  1.00  0.00    -0.000 C 
BRANCH  20  21
ATOM     21  C   UNL     1      58.424  29.909  50.988  1.00  0.00    -0.000 C 
BRANCH  21  22
ATOM     22  C   UNL     1      58.854  29.346  49.622  1.00  0.00    -0.000 C 
BRANCH  22  23
ATOM     23  C   UNL     1      59.879  28.199  49.751  1.00  0.00    -0.000 C 
BRANCH  23  24
ATOM     24  C   UNL     1      59.250  26.793  49.698  1.00  0.00    -0.000 C 
BRANCH  24  25
ATOM     25  C   UNL     1      60.035  25.702  50.444  1.00  0.00    -0.003 C 
ATOM     26  C   UNL     1      61.388  26.193  50.963  1.00  0.00     0.004 C 
ENDBRANCH  24  25
ENDBRANCH  23  24
ENDBRANCH  22  23
ENDBRANCH  21  22
ENDBRANCH  20  21
ENDBRANCH  19  20
ENDBRANCH  18  19
ENDBRANCH  17  18
ENDBRANCH  16  17
ENDBRANCH  15  16
ENDBRANCH   1  15
TORSDOF 22
ENDMDL
MODEL 5
REMARK VINA RESULT:    -2.787      3.056      5.288
REMARK INTER + INTRA:         -10.959
REMARK INTER:                  -6.584
REMARK INTRA:                  -4.375
REMARK UNBOUND:                -4.587
REMARK SMILES CCCCCCCCCCCCCCCCCCCCCCCC(=O)[O-]
REMARK SMILES IDX 13 1 14 2 15 3 16 4 17 5 18 6 19 7 20 8 21 9 22 10 23 11
REMARK SMILES IDX 24 12 25 13 26 14 12 15 11 16 10 17 9 18 8 19 7 20 6 21 5 22
REMARK SMILES IDX 4 23 3 24 2 25 1 26
REMARK H PARENT
REMARK Flexibility Score: inf
ROOT
ATOM      1  C   UNL     1      59.561  29.754  53.089  1.00  0.00     0.000 C 
ENDROOT
BRANCH   1   2
ATOM      2  C   UNL     1      60.999  29.818  52.549  1.00  0.00     0.000 C 
BRANCH   2   3
ATOM      3  C   UNL     1      61.803  28.534  52.843  1.00  0.00     0.000 C 
BRANCH   3   4
ATOM      4  C   UNL     1      63.168  28.470  52.126  1.00  0.00     0.000 C 
BRANCH   4   5
ATOM      5  C   UNL     1      63.507  27.114  51.488  1.00  0.00     0.000 C 
BRANCH   5   6
ATOM      6  C   UNL     1      63.775  27.214  49.978  1.00  0.00     0.000 C 
BRANCH   6   7
ATOM      7  C   UNL     1      63.314  28.572  49.428  1.00  0.00     0.000 C 
BRANCH   7   8
ATOM      8  C   UNL     1      64.466  29.395  48.831  1.00  0.00     0.000 C 
BRANCH   8   9
ATOM      9  C   UNL     1      64.338  30.899  49.130  1.00  0.00     0.000 C 
BRANCH   9  10
ATOM     10  C   UNL     1      62.911  31.298  49.553  1.00  0.00     0.006 C 
BRANCH  10  11
ATOM     11  C   UNL     1      62.810  32.683  50.213  1.00  0.00     0.053 C 
BRANCH  11  12
ATOM     12  C   UNL     1      62.793  33.787  49.201  1.00  0.00     0.041 C 
ATOM     13  O   UNL     1      63.864  34.358  48.869  1.00  0.00    -0.550 OA
ATOM     14  O   UNL     1      61.590  34.199  48.639  1.00  0.00    -0.550 OA
ENDBRANCH  11  12
ENDBRANCH  10  11
ENDBRANCH   9  10
ENDBRANCH   8   9
ENDBRANCH   7   8
ENDBRANCH   6   7
ENDBRANCH   5   6
ENDBRANCH   4   5
ENDBRANCH   3   4
ENDBRANCH   2   3
ENDBRANCH   1   2
BRANCH   1  15
ATOM     15  C   UNL     1      58.602  30.545  52.192  1.00  0.00     0.000 C 
BRANCH  15  16
ATOM     16  C   UNL     1      57.371  29.706  51.828  1.00  0.00     0.000 C 
BRANCH  16  17
ATOM     17  C   UNL     1      57.461  29.095  50.420  1.00  0.00     0.000 C 
BRANCH  17  18
ATOM     18  C   UNL     1      58.672  29.597  49.606  1.00  0.00    -0.000 C 
BRANCH  18  19
ATOM     19  C   UNL     1      59.752  28.514  49.434  1.00  0.00    -0.000 C 
BRANCH  19  20
ATOM     20  C   UNL     1      59.207  27.097  49.719  1.00  0.00    -0.000 C 
BRANCH  20  21
ATOM     21  C   UNL     1      60.219  26.179  50.424  1.00  0.00    -0.000 C 
BRANCH  21  22
ATOM     22  C   UNL     1      59.554  25.184  51.391  1.00  0.00    -0.000 C 
BRANCH  22  23
ATOM     23  C   UNL     1      59.404  25.757  52.817  1.00  0.00    -0.000 C 
BRANCH  23  24
ATOM     24  C   UNL     1      58.021  26.376  53.098  1.00  0.00    -0.000 C 
BRANCH  24  25
ATOM     25  C   UNL     1      56.824  25.507  52.679  1.00  0.00    -0.003 C 
ATOM     26  C   UNL     1      55.955  26.169  51.607  1.00  0.00     0.004 C 
ENDBRANCH  24  25
ENDBRANCH  23  24
ENDBRANCH  22  23
ENDBRANCH  21  22
ENDBRANCH  20  21
ENDBRANCH  19  20
ENDBRANCH  18  19
ENDBRANCH  17  18
ENDBRANCH  16  17
ENDBRANCH  15  16
ENDBRANCH   1  15
TORSDOF 22
ENDMDL
MODEL 6
REMARK VINA RESULT:    -2.759      3.011      4.635
REMARK INTER + INTRA:         -10.894
REMARK INTER:                  -6.495
REMARK INTRA:                  -4.399
REMARK UNBOUND:                -4.587
REMARK SMILES CCCCCCCCCCCCCCCCCCCCCCCC(=O)[O-]
REMARK SMILES IDX 13 1 14 2 15 3 16 4 17 5 18 6 19 7 20 8 21 9 22 10 23 11
REMARK SMILES IDX 24 12 25 13 26 14 12 15 11 16 10 17 9 18 8 19 7 20 6 21 5 22
REMARK SMILES IDX 4 23 3 24 2 25 1 26
REMARK H PARENT
REMARK Flexibility Score: inf
ROOT
ATOM      1  C   UNL     1      57.334  28.144  54.816  1.00  0.00     0.000 C 
ENDROOT
BRANCH   1   2
ATOM      2  C   UNL     1      57.706  28.471  53.361  1.00  0.00     0.000 C 
BRANCH   2   3
ATOM      3  C   UNL     1      58.765  29.587  53.252  1.00  0.00     0.000 C 
BRANCH   3   4
ATOM      4  C   UNL     1      58.672  30.419  51.957  1.00  0.00     0.000 C 
BRANCH   4   5
ATOM      5  C   UNL     1      57.976  29.717  50.779  1.00  0.00     0.000 C 
BRANCH   5   6
ATOM      6  C   UNL     1      58.928  29.429  49.608  1.00  0.00     0.000 C 
BRANCH   6   7
ATOM      7  C   UNL     1      59.295  27.938  49.553  1.00  0.00     0.000 C 
BRANCH   7   8
ATOM      8  C   UNL     1      60.587  27.614  50.321  1.00  0.00     0.000 C 
BRANCH   8   9
ATOM      9  C   UNL     1      60.379  26.543  51.405  1.00  0.00     0.000 C 
BRANCH   9  10
ATOM     10  C   UNL     1      59.508  25.369  50.917  1.00  0.00     0.006 C 
BRANCH  10  11
ATOM     11  C   UNL     1      60.302  24.125  50.487  1.00  0.00     0.053 C 
BRANCH  11  12
ATOM     12  C   UNL     1      61.323  23.730  51.509  1.00  0.00     0.041 C 
ATOM     13  O   UNL     1      60.960  23.233  52.607  1.00  0.00    -0.550 OA
ATOM     14  O   UNL     1      62.675  23.930  51.256  1.00  0.00    -0.550 OA
ENDBRANCH  11  12
ENDBRANCH  10  11
ENDBRANCH   9  10
ENDBRANCH   8   9
ENDBRANCH   7   8
ENDBRANCH   6   7
ENDBRANCH   5   6
ENDBRANCH   4   5
ENDBRANCH   3   4
ENDBRANCH   2   3
ENDBRANCH   1   2
BRANCH   1  15
ATOM     15  C   UNL     1      57.446  26.640  55.088  1.00  0.00     0.000 C 
BRANCH  15  16
ATOM     16  C   UNL     1      57.156  25.828  53.819  1.00  0.00     0.000 C 
BRANCH  16  17
ATOM     17  C   UNL     1      55.688  25.379  53.720  1.00  0.00     0.000 C 
BRANCH  17  18
ATOM     18  C   UNL     1      54.960  25.922  52.472  1.00  0.00    -0.000 C 
BRANCH  18  19
ATOM     19  C   UNL     1      55.915  26.141  51.285  1.00  0.00    -0.000 C 
BRANCH  19  20
ATOM     20  C   UNL     1      55.386  27.208  50.301  1.00  0.00    -0.000 C 
BRANCH  20  21
ATOM     21  C   UNL     1      53.850  27.279  50.239  1.00  0.00    -0.000 C 
BRANCH  21  22
ATOM     22  C   UNL     1      53.311  28.713  50.382  1.00  0.00    -0.000 C 
BRANCH  22  23
ATOM     23  C   UNL     1      54.379  29.696  50.907  1.00  0.00    -0.000 C 
BRANCH  23  24
ATOM     24  C   UNL     1      54.391  29.843  52.441  1.00  0.00    -0.000 C 
BRANCH  24  25
ATOM     25  C   UNL     1      55.021  31.144  52.963  1.00  0.00    -0.003 C 
ATOM     26  C   UNL     1      55.230  31.136  54.479  1.00  0.00     0.004 C 
ENDBRANCH  24  25
ENDBRANCH  23  24
ENDBRANCH  22  23
ENDBRANCH  21  22
ENDBRANCH  20  21
ENDBRANCH  19  20
ENDBRANCH  18  19
ENDBRANCH  17  18
ENDBRANCH  16  17
ENDBRANCH  15  16
ENDBRANCH   1  15
TORSDOF 22
ENDMDL
MODEL 7
REMARK VINA RESULT:    -2.713      2.429      5.294
REMARK INTER + INTRA:         -10.790
REMARK INTER:                  -6.339
REMARK INTRA:                  -4.452
REMARK UNBOUND:                -4.587
REMARK SMILES CCCCCCCCCCCCCCCCCCCCCCCC(=O)[O-]
REMARK SMILES IDX 13 1 14 2 15 3 16 4 17 5 18 6 19 7 20 8 21 9 22 10 23 11
REMARK SMILES IDX 24 12 25 13 26 14 12 15 11 16 10 17 9 18 8 19 7 20 6 21 5 22
REMARK SMILES IDX 4 23 3 24 2 25 1 26
REMARK H PARENT
REMARK Flexibility Score: inf
ROOT
ATOM      1  C   UNL     1      53.137  30.002  51.289  1.00  0.00     0.000 C 
ENDROOT
BRANCH   1   2
ATOM      2  C   UNL     1      53.600  28.898  50.325  1.00  0.00     0.000 C 
BRANCH   2   3
ATOM      3  C   UNL     1      53.364  27.480  50.886  1.00  0.00     0.000 C 
BRANCH   3   4
ATOM      4  C   UNL     1      54.394  26.436  50.407  1.00  0.00     0.000 C 
BRANCH   4   5
ATOM      5  C   UNL     1      55.857  26.910  50.415  1.00  0.00     0.000 C 
BRANCH   5   6
ATOM      6  C   UNL     1      56.400  27.148  51.831  1.00  0.00     0.000 C 
BRANCH   6   7
ATOM      7  C   UNL     1      57.256  28.422  51.884  1.00  0.00     0.000 C 
BRANCH   7   8
ATOM      8  C   UNL     1      57.259  29.193  50.555  1.00  0.00     0.000 C 
BRANCH   8   9
ATOM      9  C   UNL     1      58.672  29.621  50.122  1.00  0.00     0.000 C 
BRANCH   9  10
ATOM     10  C   UNL     1      59.384  28.545  49.281  1.00  0.00     0.006 C 
BRANCH  10  11
ATOM     11  C   UNL     1      60.614  27.920  49.960  1.00  0.00     0.053 C 
BRANCH  11  12
ATOM     12  C   UNL     1      60.280  26.638  50.658  1.00  0.00     0.041 C 
ATOM     13  O   UNL     1      59.326  25.925  50.251  1.00  0.00    -0.550 OA
ATOM     14  O   UNL     1      61.008  26.242  51.774  1.00  0.00    -0.550 OA
ENDBRANCH  11  12
ENDBRANCH  10  11
ENDBRANCH   9  10
ENDBRANCH   8   9
ENDBRANCH   7   8
ENDBRANCH   6   7
ENDBRANCH   5   6
ENDBRANCH   4   5
ENDBRANCH   3   4
ENDBRANCH   2   3
ENDBRANCH   1   2
BRANCH   1  15
ATOM     15  C   UNL     1      54.213  30.301  52.339  1.00  0.00     0.000 C 
BRANCH  15  16
ATOM     16  C   UNL     1      53.726  29.930  53.746  1.00  0.00     0.000 C 
BRANCH  16  17
ATOM     17  C   UNL     1      54.750  29.093  54.530  1.00  0.00     0.000 C 
BRANCH  17  18
ATOM     18  C   UNL     1      55.453  29.878  55.659  1.00  0.00    -0.000 C 
BRANCH  18  19
ATOM     19  C   UNL     1      54.835  31.271  55.877  1.00  0.00    -0.000 C 
BRANCH  19  20
ATOM     20  C   UNL     1      55.911  32.375  55.981  1.00  0.00    -0.000 C 
BRANCH  20  21
ATOM     21  C   UNL     1      55.896  33.361  54.800  1.00  0.00    -0.000 C 
BRANCH  21  22
ATOM     22  C   UNL     1      57.184  33.308  53.960  1.00  0.00    -0.000 C 
BRANCH  22  23
ATOM     23  C   UNL     1      57.432  31.912  53.347  1.00  0.00    -0.000 C 
BRANCH  23  24
ATOM     24  C   UNL     1      58.915  31.617  53.051  1.00  0.00    -0.000 C 
BRANCH  24  25
ATOM     25  C   UNL     1      59.595  30.658  54.041  1.00  0.00    -0.003 C 
ATOM     26  C   UNL     1      60.502  29.637  53.352  1.00  0.00     0.004 C 
ENDBRANCH  24  25
ENDBRANCH  23  24
ENDBRANCH  22  23
ENDBRANCH  21  22
ENDBRANCH  20  21
ENDBRANCH  19  20
ENDBRANCH  18  19
ENDBRANCH  17  18
ENDBRANCH  16  17
ENDBRANCH  15  16
ENDBRANCH   1  15
TORSDOF 22
ENDMDL
MODEL 8
REMARK VINA RESULT:    -2.682      4.409      6.186
REMARK INTER + INTRA:         -10.719
REMARK INTER:                  -6.903
REMARK INTRA:                  -3.816
REMARK UNBOUND:                -4.587
REMARK SMILES CCCCCCCCCCCCCCCCCCCCCCCC(=O)[O-]
REMARK SMILES IDX 13 1 14 2 15 3 16 4 17 5 18 6 19 7 20 8 21 9 22 10 23 11
REMARK SMILES IDX 24 12 25 13 26 14 12 15 11 16 10 17 9 18 8 19 7 20 6 21 5 22
REMARK SMILES IDX 4 23 3 24 2 25 1 26
REMARK H PARENT
REMARK Flexibility Score: inf
ROOT
ATOM      1  C   UNL     1      60.662  26.917  53.208  1.00  0.00     0.000 C 
ENDROOT
BRANCH   1   2
ATOM      2  C   UNL     1      60.534  28.448  53.170  1.00  0.00     0.000 C 
BRANCH   2   3
ATOM      3  C   UNL     1      61.783  29.137  52.581  1.00  0.00     0.000 C 
BRANCH   3   4
ATOM      4  C   UNL     1      63.102  28.386  52.856  1.00  0.00     0.000 C 
BRANCH   4   5
ATOM      5  C   UNL     1      64.015  28.200  51.633  1.00  0.00     0.000 C 
BRANCH   5   6
ATOM      6  C   UNL     1      63.399  27.287  50.562  1.00  0.00     0.000 C 
BRANCH   6   7
ATOM      7  C   UNL     1      63.142  28.063  49.262  1.00  0.00     0.000 C 
BRANCH   7   8
ATOM      8  C   UNL     1      64.034  29.307  49.124  1.00  0.00     0.000 C 
BRANCH   8   9
ATOM      9  C   UNL     1      64.499  29.545  47.677  1.00  0.00     0.000 C 
BRANCH   9  10
ATOM     10  C   UNL     1      65.933  29.040  47.427  1.00  0.00     0.006 C 
BRANCH  10  11
ATOM     11  C   UNL     1      66.014  27.748  46.597  1.00  0.00     0.053 C 
BRANCH  11  12
ATOM     12  C   UNL     1      66.565  26.604  47.392  1.00  0.00     0.041 C 
ATOM     13  O   UNL     1      67.066  25.609  46.806  1.00  0.00    -0.550 OA
ATOM     14  O   UNL     1      66.506  26.629  48.780  1.00  0.00    -0.550 OA
ENDBRANCH  11  12
ENDBRANCH  10  11
ENDBRANCH   9  10
ENDBRANCH   8   9
ENDBRANCH   7   8
ENDBRANCH   6   7
ENDBRANCH   5   6
ENDBRANCH   4   5
ENDBRANCH   3   4
ENDBRANCH   2   3
ENDBRANCH   1   2
BRANCH   1  15
ATOM     15  C   UNL     1      59.566  26.253  52.367  1.00  0.00     0.000 C 
BRANCH  15  16
ATOM     16  C   UNL     1      59.970  26.187  50.889  1.00  0.00     0.000 C 
BRANCH  16  17
ATOM     17  C   UNL     1      59.005  26.957  49.972  1.00  0.00     0.000 C 
BRANCH  17  18
ATOM     18  C   UNL     1      59.594  28.274  49.424  1.00  0.00    -0.000 C 
BRANCH  18  19
ATOM     19  C   UNL     1      58.950  29.516  50.068  1.00  0.00    -0.000 C 
BRANCH  19  20
ATOM     20  C   UNL     1      57.491  29.255  50.505  1.00  0.00    -0.000 C 
BRANCH  20  21
ATOM     21  C   UNL     1      57.218  29.606  51.977  1.00  0.00    -0.000 C 
BRANCH  21  22
ATOM     22  C   UNL     1      56.001  28.862  52.554  1.00  0.00    -0.000 C 
BRANCH  22  23
ATOM     23  C   UNL     1      56.170  27.328  52.508  1.00  0.00    -0.000 C 
BRANCH  23  24
ATOM     24  C   UNL     1      55.017  26.595  51.795  1.00  0.00    -0.000 C 
BRANCH  24  25
ATOM     25  C   UNL     1      55.184  26.447  50.275  1.00  0.00    -0.003 C 
ATOM     26  C   UNL     1      53.931  25.901  49.589  1.00  0.00     0.004 C 
ENDBRANCH  24  25
ENDBRANCH  23  24
ENDBRANCH  22  23
ENDBRANCH  21  22
ENDBRANCH  20  21
ENDBRANCH  19  20
ENDBRANCH  18  19
ENDBRANCH  17  18
ENDBRANCH  16  17
ENDBRANCH  15  16
ENDBRANCH   1  15
TORSDOF 22
ENDMDL
MODEL 9
REMARK VINA RESULT:    -2.673      2.955      4.874
REMARK INTER + INTRA:         -10.698
REMARK INTER:                  -6.457
REMARK INTRA:                  -4.241
REMARK UNBOUND:                -4.587
REMARK SMILES CCCCCCCCCCCCCCCCCCCCCCCC(=O)[O-]
REMARK SMILES IDX 13 1 14 2 15 3 16 4 17 5 18 6 19 7 20 8 21 9 22 10 23 11
REMARK SMILES IDX 24 12 25 13 26 14 12 15 11 16 10 17 9 18 8 19 7 20 6 21 5 22
REMARK SMILES IDX 4 23 3 24 2 25 1 26
REMARK H PARENT
REMARK Flexibility Score: inf
ROOT
ATOM      1  C   UNL     1      59.505  30.436  51.995  1.00  0.00     0.000 C 
ENDROOT
BRANCH   1   2
ATOM      2  C   UNL     1      60.520  30.021  53.071  1.00  0.00     0.000 C 
BRANCH   2   3
ATOM      3  C   UNL     1      60.854  28.516  53.028  1.00  0.00     0.000 C 
BRANCH   3   4
ATOM      4  C   UNL     1      62.316  28.207  52.648  1.00  0.00     0.000 C 
BRANCH   4   5
ATOM      5  C   UNL     1      62.593  26.749  52.246  1.00  0.00     0.000 C 
BRANCH   5   6
ATOM      6  C   UNL     1      62.669  26.552  50.725  1.00  0.00     0.000 C 
BRANCH   6   7
ATOM      7  C   UNL     1      63.783  27.415  50.114  1.00  0.00     0.000 C 
BRANCH   7   8
ATOM      8  C   UNL     1      63.248  28.475  49.138  1.00  0.00     0.000 C 
BRANCH   8   9
ATOM      9  C   UNL     1      64.133  29.733  49.085  1.00  0.00     0.000 C 
BRANCH   9  10
ATOM     10  C   UNL     1      63.383  31.002  49.530  1.00  0.00     0.006 C 
BRANCH  10  11
ATOM     11  C   UNL     1      63.559  31.355  51.017  1.00  0.00     0.053 C 
BRANCH  11  12
ATOM     12  C   UNL     1      64.643  32.366  51.230  1.00  0.00     0.041 C 
ATOM     13  O   UNL     1      64.657  33.430  50.558  1.00  0.00    -0.550 OA
ATOM     14  O   UNL     1      65.650  32.122  52.156  1.00  0.00    -0.550 OA
ENDBRANCH  11  12
ENDBRANCH  10  11
ENDBRANCH   9  10
ENDBRANCH   8   9
ENDBRANCH   7   8
ENDBRANCH   6   7
ENDBRANCH   5   6
ENDBRANCH   4   5
ENDBRANCH   3   4
ENDBRANCH   2   3
ENDBRANCH   1   2
BRANCH   1  15
ATOM     15  C   UNL     1      60.033  30.121  50.590  1.00  0.00     0.000 C 
BRANCH  15  16
ATOM     16  C   UNL     1      59.036  29.259  49.807  1.00  0.00     0.000 C 
BRANCH  16  17
ATOM     17  C   UNL     1      59.551  27.832  49.555  1.00  0.00     0.000 C 
BRANCH  17  18
ATOM     18  C   UNL     1      58.539  26.733  49.945  1.00  0.00    -0.000 C 
BRANCH  18  19
ATOM     19  C   UNL     1      58.912  26.035  51.265  1.00  0.00    -0.000 C 
BRANCH  19  20
ATOM     20  C   UNL     1      57.716  25.956  52.240  1.00  0.00    -0.000 C 
BRANCH  20  21
ATOM     21  C   UNL     1      57.519  27.231  53.077  1.00  0.00    -0.000 C 
BRANCH  21  22
ATOM     22  C   UNL     1      56.099  27.810  52.962  1.00  0.00    -0.000 C 
BRANCH  22  23
ATOM     23  C   UNL     1      56.059  29.121  52.147  1.00  0.00    -0.000 C 
BRANCH  23  24
ATOM     24  C   UNL     1      55.614  28.932  50.684  1.00  0.00    -0.000 C 
BRANCH  24  25
ATOM     25  C   UNL     1      54.168  28.444  50.504  1.00  0.00    -0.003 C 
ATOM     26  C   UNL     1      53.155  29.589  50.455  1.00  0.00     0.004 C 
ENDBRANCH  24  25
ENDBRANCH  23  24
ENDBRANCH  22  23
ENDBRANCH  21  22
ENDBRANCH  20  21
ENDBRANCH  19  20
ENDBRANCH  18  19
ENDBRANCH  17  18
ENDBRANCH  16  17
ENDBRANCH  15  16
ENDBRANCH   1  15
TORSDOF 22
ENDMDL
