MODEL 1
REMARK VINA RESULT:     0.000      0.000      0.000
REMARK INTER + INTRA:          -3.132
REMARK INTER:                   0.000
REMARK INTRA:                  -3.132
REMARK UNBOUND:                -3.132
REMARK SMILES CCCCCCCCCCCCCCCC(=O)[O-]
REMARK SMILES IDX 9 1 10 2 11 3 12 4 13 5 14 6 15 7 16 8 17 9 18 10 8 11 7 12
REMARK SMILES IDX 6 13 5 14 4 15 3 16 2 17 1 18
REMARK H PARENT
REMARK Flexibility Score: inf
ROOT
ATOM      1  C   UNL     1     182.951 188.728 180.494  1.00  0.00     0.000 C 
ENDROOT
BRANCH   1   2
ATOM      2  C   UNL     1     183.284 187.711 181.593  1.00  0.00     0.000 C 
BRANCH   2   3
ATOM      3  C   UNL     1     184.259 186.645 181.080  1.00  0.00     0.000 C 
BRANCH   3   4
ATOM      4  C   UNL     1     185.290 186.279 182.154  1.00  0.00     0.000 C 
BRANCH   4   5
ATOM      5  C   UNL     1     184.910 186.888 183.512  1.00  0.00     0.000 C 
BRANCH   5   6
ATOM      6  C   UNL     1     186.136 187.318 184.337  1.00  0.00     0.006 C 
BRANCH   6   7
ATOM      7  C   UNL     1     185.888 188.525 185.256  1.00  0.00     0.053 C 
BRANCH   7   8
ATOM      8  C   UNL     1     187.091 189.411 185.355  1.00  0.00     0.041 C 
ATOM      9  O   UNL     1     188.217 188.997 184.973  1.00  0.00    -0.550 OA
ATOM     10  O   UNL     1     186.974 190.684 185.898  1.00  0.00    -0.550 OA
ENDBRANCH   7   8
ENDBRANCH   6   7
ENDBRANCH   5   6
ENDBRANCH   4   5
ENDBRANCH   3   4
ENDBRANCH   2   3
ENDBRANCH   1   2
BRANCH   1  11
ATOM     11  C   UNL     1     183.252 190.160 180.962  1.00  0.00     0.000 C 
BRANCH  11  12
ATOM     12  C   UNL     1     183.687 190.223 182.434  1.00  0.00    -0.000 C 
BRANCH  12  13
ATOM     13  C   UNL     1     185.025 190.961 182.628  1.00  0.00    -0.000 C 
BRANCH  13  14
ATOM     14  C   UNL     1     185.973 190.773 181.424  1.00  0.00    -0.000 C 
BRANCH  14  15
ATOM     15  C   UNL     1     186.971 189.617 181.603  1.00  0.00    -0.000 C 
BRANCH  15  16
ATOM     16  C   UNL     1     187.211 188.830 180.307  1.00  0.00    -0.000 C 
BRANCH  16  17
ATOM     17  C   UNL     1     186.408 189.425 179.146  1.00  0.00    -0.003 C 
ATOM     18  C   UNL     1     185.896 188.333 178.211  1.00  0.00     0.004 C 
ENDBRANCH  16  17
ENDBRANCH  15  16
ENDBRANCH  14  15
ENDBRANCH  13  14
ENDBRANCH  12  13
ENDBRANCH  11  12
ENDBRANCH   1  11
TORSDOF 14
ENDMDL
MODEL 2
REMARK VINA RESULT:     0.003      7.430      9.422
REMARK INTER + INTRA:          -3.126
REMARK INTER:                   0.000
REMARK INTRA:                  -3.126
REMARK UNBOUND:                -3.132
REMARK SMILES CCCCCCCCCCCCCCCC(=O)[O-]
REMARK SMILES IDX 9 1 10 2 11 3 12 4 13 5 14 6 15 7 16 8 17 9 18 10 8 11 7 12
REMARK SMILES IDX 6 13 5 14 4 15 3 16 2 17 1 18
REMARK H PARENT
REMARK Flexibility Score: inf
ROOT
ATOM      1  C   UNL     1     182.599 182.483 179.472  1.00  0.00     0.000 C 
ENDROOT
BRANCH   1   2
ATOM      2  C   UNL     1     181.841 181.315 178.830  1.00  0.00     0.000 C 
BRANCH   2   3
ATOM      3  C   UNL     1     182.809 180.233 178.339  1.00  0.00     0.000 C 
BRANCH   3   4
ATOM      4  C   UNL     1     182.522 179.857 176.880  1.00  0.00     0.000 C 
BRANCH   4   5
ATOM      5  C   UNL     1     183.822 179.787 176.064  1.00  0.00     0.000 C 
BRANCH   5   6
ATOM      6  C   UNL     1     185.083 179.791 176.948  1.00  0.00     0.006 C 
BRANCH   6   7
ATOM      7  C   UNL     1     186.353 180.280 176.235  1.00  0.00     0.053 C 
BRANCH   7   8
ATOM      8  C   UNL     1     187.276 181.002 177.167  1.00  0.00     0.041 C 
ATOM      9  O   UNL     1     187.942 181.991 176.760  1.00  0.00    -0.550 OA
ATOM     10  O   UNL     1     187.425 180.564 178.476  1.00  0.00    -0.550 OA
ENDBRANCH   7   8
ENDBRANCH   6   7
ENDBRANCH   5   6
ENDBRANCH   4   5
ENDBRANCH   3   4
ENDBRANCH   2   3
ENDBRANCH   1   2
BRANCH   1  11
ATOM     11  C   UNL     1     184.101 182.177 179.568  1.00  0.00     0.000 C 
BRANCH  11  12
ATOM     12  C   UNL     1     184.968 183.254 178.898  1.00  0.00    -0.000 C 
BRANCH  12  13
ATOM     13  C   UNL     1     184.217 184.021 177.794  1.00  0.00    -0.000 C 
BRANCH  13  14
ATOM     14  C   UNL     1     184.604 183.535 176.382  1.00  0.00    -0.000 C 
BRANCH  14  15
ATOM     15  C   UNL     1     183.402 183.363 175.439  1.00  0.00    -0.000 C 
BRANCH  15  16
ATOM     16  C   UNL     1     182.083 183.843 176.060  1.00  0.00    -0.000 C 
BRANCH  16  17
ATOM     17  C   UNL     1     180.908 182.977 175.593  1.00  0.00    -0.003 C 
ATOM     18  C   UNL     1     181.252 182.230 174.307  1.00  0.00     0.004 C 
ENDBRANCH  16  17
ENDBRANCH  15  16
ENDBRANCH  14  15
ENDBRANCH  13  14
ENDBRANCH  12  13
ENDBRANCH  11  12
ENDBRANCH   1  11
TORSDOF 14
ENDMDL
MODEL 3
REMARK VINA RESULT:     0.005      7.785     10.287
REMARK INTER + INTRA:          -3.123
REMARK INTER:                   0.000
REMARK INTRA:                  -3.123
REMARK UNBOUND:                -3.132
REMARK SMILES CCCCCCCCCCCCCCCC(=O)[O-]
REMARK SMILES IDX 9 1 10 2 11 3 12 4 13 5 14 6 15 7 16 8 17 9 18 10 8 11 7 12
REMARK SMILES IDX 6 13 5 14 4 15 3 16 2 17 1 18
REMARK H PARENT
REMARK Flexibility Score: inf
ROOT
ATOM      1  C   UNL     1     183.263 181.585 176.272  1.00  0.00     0.000 C 
ENDROOT
BRANCH   1   2
ATOM      2  C   UNL     1     183.468 183.104 176.236  1.00  0.00     0.000 C 
BRANCH   2   3
ATOM      3  C   UNL     1     182.199 183.821 175.762  1.00  0.00     0.000 C 
BRANCH   3   4
ATOM      4  C   UNL     1     181.723 184.845 176.800  1.00  0.00     0.000 C 
BRANCH   4   5
ATOM      5  C   UNL     1     180.215 184.711 177.054  1.00  0.00     0.000 C 
BRANCH   5   6
ATOM      6  C   UNL     1     179.472 184.022 175.895  1.00  0.00     0.006 C 
BRANCH   6   7
ATOM      7  C   UNL     1     178.400 183.016 176.340  1.00  0.00     0.053 C 
BRANCH   7   8
ATOM      8  C   UNL     1     177.421 183.626 177.295  1.00  0.00     0.041 C 
ATOM      9  O   UNL     1     176.646 184.542 176.910  1.00  0.00    -0.550 OA
ATOM     10  O   UNL     1     177.385 183.207 178.618  1.00  0.00    -0.550 OA
ENDBRANCH   7   8
ENDBRANCH   6   7
ENDBRANCH   5   6
ENDBRANCH   4   5
ENDBRANCH   3   4
ENDBRANCH   2   3
ENDBRANCH   1   2
BRANCH   1  11
ATOM     11  C   UNL     1     181.889 181.202 175.702  1.00  0.00     0.000 C 
BRANCH  11  12
ATOM     12  C   UNL     1     181.044 180.385 176.691  1.00  0.00    -0.000 C 
BRANCH  12  13
ATOM     13  C   UNL     1     181.483 180.583 178.154  1.00  0.00    -0.000 C 
BRANCH  13  14
ATOM     14  C   UNL     1     180.499 181.476 178.940  1.00  0.00    -0.000 C 
BRANCH  14  15
ATOM     15  C   UNL     1     181.193 182.531 179.817  1.00  0.00    -0.000 C 
BRANCH  15  16
ATOM     16  C   UNL     1     182.718 182.365 179.859  1.00  0.00    -0.000 C 
BRANCH  16  17
ATOM     17  C   UNL     1     183.418 183.726 179.934  1.00  0.00    -0.003 C 
ATOM     18  C   UNL     1     182.468 184.806 180.445  1.00  0.00     0.004 C 
ENDBRANCH  16  17
ENDBRANCH  15  16
ENDBRANCH  14  15
ENDBRANCH  13  14
ENDBRANCH  12  13
ENDBRANCH  11  12
ENDBRANCH   1  11
TORSDOF 14
ENDMDL
MODEL 4
REMARK VINA RESULT:     0.008     11.917     13.892
REMARK INTER + INTRA:          -3.118
REMARK INTER:                   0.000
REMARK INTRA:                  -3.118
REMARK UNBOUND:                -3.132
REMARK SMILES CCCCCCCCCCCCCCCC(=O)[O-]
REMARK SMILES IDX 9 1 10 2 11 3 12 4 13 5 14 6 15 7 16 8 17 9 18 10 8 11 7 12
REMARK SMILES IDX 6 13 5 14 4 15 3 16 2 17 1 18
REMARK H PARENT
REMARK Flexibility Score: inf
ROOT
ATOM      1  C   UNL     1     181.773 178.045 185.261  1.00  0.00     0.000 C 
ENDROOT
BRANCH   1   2
ATOM      2  C   UNL     1     181.953 177.092 184.074  1.00  0.00     0.000 C 
BRANCH   2   3
ATOM      3  C   UNL     1     181.956 175.630 184.537  1.00  0.00     0.000 C 
BRANCH   3   4
ATOM      4  C   UNL     1     183.312 174.967 184.264  1.00  0.00     0.000 C 
BRANCH   4   5
ATOM      5  C   UNL     1     183.747 174.096 185.451  1.00  0.00     0.000 C 
BRANCH   5   6
ATOM      6  C   UNL     1     182.592 173.787 186.421  1.00  0.00     0.006 C 
BRANCH   6   7
ATOM      7  C   UNL     1     182.974 173.870 187.907  1.00  0.00     0.053 C 
BRANCH   7   8
ATOM      8  C   UNL     1     184.224 173.100 188.208  1.00  0.00     0.041 C 
ATOM      9  O   UNL     1     184.228 171.843 188.135  1.00  0.00    -0.550 OA
ATOM     10  O   UNL     1     185.375 173.770 188.599  1.00  0.00    -0.550 OA
ENDBRANCH   7   8
ENDBRANCH   6   7
ENDBRANCH   5   6
ENDBRANCH   4   5
ENDBRANCH   3   4
ENDBRANCH   2   3
ENDBRANCH   1   2
BRANCH   1  11
ATOM     11  C   UNL     1     181.281 177.289 186.504  1.00  0.00     0.000 C 
BRANCH  11  12
ATOM     12  C   UNL     1     182.187 177.507 187.726  1.00  0.00    -0.000 C 
BRANCH  12  13
ATOM     13  C   UNL     1     183.546 178.129 187.357  1.00  0.00    -0.000 C 
BRANCH  13  14
ATOM     14  C   UNL     1     184.701 177.111 187.470  1.00  0.00    -0.000 C 
BRANCH  14  15
ATOM     15  C   UNL     1     185.661 177.134 186.269  1.00  0.00    -0.000 C 
BRANCH  15  16
ATOM     16  C   UNL     1     185.452 178.353 185.360  1.00  0.00    -0.000 C 
BRANCH  16  17
ATOM     17  C   UNL     1     185.542 177.958 183.882  1.00  0.00    -0.003 C 
ATOM     18  C   UNL     1     186.493 176.781 183.683  1.00  0.00     0.004 C 
ENDBRANCH  16  17
ENDBRANCH  15  16
ENDBRANCH  14  15
ENDBRANCH  13  14
ENDBRANCH  12  13
ENDBRANCH  11  12
ENDBRANCH   1  11
TORSDOF 14
ENDMDL
MODEL 5
REMARK VINA RESULT:     0.010     10.034     12.211
REMARK INTER + INTRA:          -3.113
REMARK INTER:                   0.000
REMARK INTRA:                  -3.113
REMARK UNBOUND:                -3.132
REMARK SMILES CCCCCCCCCCCCCCCC(=O)[O-]
REMARK SMILES IDX 9 1 10 2 11 3 12 4 13 5 14 6 15 7 16 8 17 9 18 10 8 11 7 12
REMARK SMILES IDX 6 13 5 14 4 15 3 16 2 17 1 18
REMARK H PARENT
REMARK Flexibility Score: inf
ROOT
ATOM      1  C   UNL     1     185.841 180.340 175.607  1.00  0.00     0.000 C 
ENDROOT
BRANCH   1   2
ATOM      2  C   UNL     1     185.294 180.750 176.979  1.00  0.00     0.000 C 
BRANCH   2   3
ATOM      3  C   UNL     1     184.091 181.690 176.835  1.00  0.00     0.000 C 
BRANCH   3   4
ATOM      4  C   UNL     1     183.009 181.362 177.871  1.00  0.00     0.000 C 
BRANCH   4   5
ATOM      5  C   UNL     1     183.490 180.278 178.846  1.00  0.00     0.000 C 
BRANCH   5   6
ATOM      6  C   UNL     1     182.364 179.324 179.282  1.00  0.00     0.006 C 
BRANCH   6   7
ATOM      7  C   UNL     1     182.855 178.028 179.946  1.00  0.00     0.053 C 
BRANCH   7   8
ATOM      8  C   UNL     1     182.029 176.845 179.545  1.00  0.00     0.041 C 
ATOM      9  O   UNL     1     182.512 175.684 179.603  1.00  0.00    -0.550 OA
ATOM     10  O   UNL     1     180.734 177.028 179.076  1.00  0.00    -0.550 OA
ENDBRANCH   7   8
ENDBRANCH   6   7
ENDBRANCH   5   6
ENDBRANCH   4   5
ENDBRANCH   3   4
ENDBRANCH   2   3
ENDBRANCH   1   2
BRANCH   1  11
ATOM     11  C   UNL     1     185.907 178.811 175.476  1.00  0.00     0.000 C 
BRANCH  11  12
ATOM     12  C   UNL     1     185.678 178.092 176.814  1.00  0.00    -0.000 C 
BRANCH  12  13
ATOM     13  C   UNL     1     184.501 177.100 176.763  1.00  0.00    -0.000 C 
BRANCH  13  14
ATOM     14  C   UNL     1     183.589 177.343 175.542  1.00  0.00    -0.000 C 
BRANCH  14  15
ATOM     15  C   UNL     1     182.199 177.889 175.912  1.00  0.00    -0.000 C 
BRANCH  15  16
ATOM     16  C   UNL     1     181.857 179.196 175.182  1.00  0.00    -0.000 C 
BRANCH  16  17
ATOM     17  C   UNL     1     182.637 179.311 173.867  1.00  0.00    -0.003 C 
ATOM     18  C   UNL     1     182.793 180.769 173.445  1.00  0.00     0.004 C 
ENDBRANCH  16  17
ENDBRANCH  15  16
ENDBRANCH  14  15
ENDBRANCH  13  14
ENDBRANCH  12  13
ENDBRANCH  11  12
ENDBRANCH   1  11
TORSDOF 14
ENDMDL
MODEL 6
REMARK VINA RESULT:     0.019      2.953      5.193
REMARK INTER + INTRA:          -3.097
REMARK INTER:                   0.000
REMARK INTRA:                  -3.097
REMARK UNBOUND:                -3.132
REMARK SMILES CCCCCCCCCCCCCCCC(=O)[O-]
REMARK SMILES IDX 9 1 10 2 11 3 12 4 13 5 14 6 15 7 16 8 17 9 18 10 8 11 7 12
REMARK SMILES IDX 6 13 5 14 4 15 3 16 2 17 1 18
REMARK H PARENT
REMARK Flexibility Score: inf
ROOT
ATOM      1  C   UNL     1     183.627 183.746 179.768  1.00  0.00     0.000 C 
ENDROOT
BRANCH   1   2
ATOM      2  C   UNL     1     184.515 182.711 180.467  1.00  0.00     0.000 C 
BRANCH   2   3
ATOM      3  C   UNL     1     185.923 183.266 180.709  1.00  0.00     0.000 C 
BRANCH   3   4
ATOM      4  C   UNL     1     186.086 183.745 182.157  1.00  0.00     0.000 C 
BRANCH   4   5
ATOM      5  C   UNL     1     186.936 185.022 182.223  1.00  0.00     0.000 C 
BRANCH   5   6
ATOM      6  C   UNL     1     187.562 185.393 180.866  1.00  0.00     0.006 C 
BRANCH   6   7
ATOM      7  C   UNL     1     187.489 186.889 180.524  1.00  0.00     0.053 C 
BRANCH   7   8
ATOM      8  C   UNL     1     187.943 187.747 181.664  1.00  0.00     0.041 C 
ATOM      9  O   UNL     1     187.139 188.540 182.221  1.00  0.00    -0.550 OA
ATOM     10  O   UNL     1     189.264 187.695 182.091  1.00  0.00    -0.550 OA
ENDBRANCH   7   8
ENDBRANCH   6   7
ENDBRANCH   5   6
ENDBRANCH   4   5
ENDBRANCH   3   4
ENDBRANCH   2   3
ENDBRANCH   1   2
BRANCH   1  11
ATOM     11  C   UNL     1     184.463 184.676 178.876  1.00  0.00     0.000 C 
BRANCH  11  12
ATOM     12  C   UNL     1     184.157 186.162 179.118  1.00  0.00    -0.000 C 
BRANCH  12  13
ATOM     13  C   UNL     1     183.216 186.388 180.316  1.00  0.00    -0.000 C 
BRANCH  13  14
ATOM     14  C   UNL     1     183.926 187.102 181.486  1.00  0.00    -0.000 C 
BRANCH  14  15
ATOM     15  C   UNL     1     183.609 186.494 182.862  1.00  0.00    -0.000 C 
BRANCH  15  16
ATOM     16  C   UNL     1     182.417 185.527 182.828  1.00  0.00    -0.000 C 
BRANCH  16  17
ATOM     17  C   UNL     1     182.747 184.222 183.562  1.00  0.00    -0.003 C 
ATOM     18  C   UNL     1     181.873 183.074 183.065  1.00  0.00     0.004 C 
ENDBRANCH  16  17
ENDBRANCH  15  16
ENDBRANCH  14  15
ENDBRANCH  13  14
ENDBRANCH  12  13
ENDBRANCH  11  12
ENDBRANCH   1  11
TORSDOF 14
ENDMDL
MODEL 7
REMARK VINA RESULT:     0.020      7.757      9.558
REMARK INTER + INTRA:          -3.096
REMARK INTER:                   0.000
REMARK INTRA:                  -3.096
REMARK UNBOUND:                -3.132
REMARK SMILES CCCCCCCCCCCCCCCC(=O)[O-]
REMARK SMILES IDX 9 1 10 2 11 3 12 4 13 5 14 6 15 7 16 8 17 9 18 10 8 11 7 12
REMARK SMILES IDX 6 13 5 14 4 15 3 16 2 17 1 18
REMARK H PARENT
REMARK Flexibility Score: inf
ROOT
ATOM      1  C   UNL     1     179.465 183.705 180.967  1.00  0.00     0.000 C 
ENDROOT
BRANCH   1   2
ATOM      2  C   UNL     1     179.544 184.231 182.405  1.00  0.00     0.000 C 
BRANCH   2   3
ATOM      3  C   UNL     1     180.973 184.128 182.951  1.00  0.00     0.000 C 
BRANCH   3   4
ATOM      4  C   UNL     1     180.978 183.570 184.380  1.00  0.00     0.000 C 
BRANCH   4   5
ATOM      5  C   UNL     1     179.606 183.751 185.046  1.00  0.00     0.000 C 
BRANCH   5   6
ATOM      6  C   UNL     1     179.253 182.602 186.008  1.00  0.00     0.006 C 
BRANCH   6   7
ATOM      7  C   UNL     1     180.408 181.627 186.279  1.00  0.00     0.053 C 
BRANCH   7   8
ATOM      8  C   UNL     1     179.921 180.317 186.819  1.00  0.00     0.041 C 
ATOM      9  O   UNL     1     179.134 179.605 186.142  1.00  0.00    -0.550 OA
ATOM     10  O   UNL     1     180.313 179.898 188.083  1.00  0.00    -0.550 OA
ENDBRANCH   7   8
ENDBRANCH   6   7
ENDBRANCH   5   6
ENDBRANCH   4   5
ENDBRANCH   3   4
ENDBRANCH   2   3
ENDBRANCH   1   2
BRANCH   1  11
ATOM     11  C   UNL     1     178.713 182.367 180.912  1.00  0.00     0.000 C 
BRANCH  11  12
ATOM     12  C   UNL     1     177.973 182.049 182.220  1.00  0.00    -0.000 C 
BRANCH  12  13
ATOM     13  C   UNL     1     178.433 180.725 182.858  1.00  0.00    -0.000 C 
BRANCH  13  14
ATOM     14  C   UNL     1     179.670 180.137 182.148  1.00  0.00    -0.000 C 
BRANCH  14  15
ATOM     15  C   UNL     1     180.903 180.014 183.059  1.00  0.00    -0.000 C 
BRANCH  15  16
ATOM     16  C   UNL     1     182.161 180.648 182.450  1.00  0.00    -0.000 C 
BRANCH  16  17
ATOM     17  C   UNL     1     182.046 180.741 180.925  1.00  0.00    -0.003 C 
ATOM     18  C   UNL     1     182.728 182.000 180.396  1.00  0.00     0.004 C 
ENDBRANCH  16  17
ENDBRANCH  15  16
ENDBRANCH  14  15
ENDBRANCH  13  14
ENDBRANCH  12  13
ENDBRANCH  11  12
ENDBRANCH   1  11
TORSDOF 14
ENDMDL
MODEL 8
REMARK VINA RESULT:     0.020     12.107     14.196
REMARK INTER + INTRA:          -3.095
REMARK INTER:                   0.000
REMARK INTRA:                  -3.095
REMARK UNBOUND:                -3.132
REMARK SMILES CCCCCCCCCCCCCCCC(=O)[O-]
REMARK SMILES IDX 9 1 10 2 11 3 12 4 13 5 14 6 15 7 16 8 17 9 18 10 8 11 7 12
REMARK SMILES IDX 6 13 5 14 4 15 3 16 2 17 1 18
REMARK H PARENT
REMARK Flexibility Score: inf
ROOT
ATOM      1  C   UNL     1     178.582 177.243 179.909  1.00  0.00     0.000 C 
ENDROOT
BRANCH   1   2
ATOM      2  C   UNL     1     179.843 177.991 180.359  1.00  0.00     0.000 C 
BRANCH   2   3
ATOM      3  C   UNL     1     180.472 177.322 181.586  1.00  0.00     0.000 C 
BRANCH   3   4
ATOM      4  C   UNL     1     180.620 178.319 182.742  1.00  0.00     0.000 C 
BRANCH   4   5
ATOM      5  C   UNL     1     180.347 177.641 184.093  1.00  0.00     0.000 C 
BRANCH   5   6
ATOM      6  C   UNL     1     180.134 176.122 183.966  1.00  0.00     0.006 C 
BRANCH   6   7
ATOM      7  C   UNL     1     179.135 175.537 184.977  1.00  0.00     0.053 C 
BRANCH   7   8
ATOM      8  C   UNL     1     178.389 174.366 184.414  1.00  0.00     0.041 C 
ATOM      9  O   UNL     1     177.207 174.132 184.781  1.00  0.00    -0.550 OA
ATOM     10  O   UNL     1     179.009 173.516 183.508  1.00  0.00    -0.550 OA
ENDBRANCH   7   8
ENDBRANCH   6   7
ENDBRANCH   5   6
ENDBRANCH   4   5
ENDBRANCH   3   4
ENDBRANCH   2   3
ENDBRANCH   1   2
BRANCH   1  11
ATOM     11  C   UNL     1     178.423 175.922 180.677  1.00  0.00     0.000 C 
BRANCH  11  12
ATOM     12  C   UNL     1     177.037 175.778 181.325  1.00  0.00    -0.000 C 
BRANCH  12  13
ATOM     13  C   UNL     1     176.410 177.134 181.697  1.00  0.00    -0.000 C 
BRANCH  13  14
ATOM     14  C   UNL     1     176.498 177.418 183.212  1.00  0.00    -0.000 C 
BRANCH  14  15
ATOM     15  C   UNL     1     176.953 178.849 183.544  1.00  0.00    -0.000 C 
BRANCH  15  16
ATOM     16  C   UNL     1     177.121 179.728 182.297  1.00  0.00    -0.000 C 
BRANCH  16  17
ATOM     17  C   UNL     1     178.001 180.946 182.597  1.00  0.00    -0.003 C 
ATOM     18  C   UNL     1     178.779 181.382 181.359  1.00  0.00     0.004 C 
ENDBRANCH  16  17
ENDBRANCH  15  16
ENDBRANCH  14  15
ENDBRANCH  13  14
ENDBRANCH  12  13
ENDBRANCH  11  12
ENDBRANCH   1  11
TORSDOF 14
ENDMDL
MODEL 9
REMARK VINA RESULT:     0.021     10.211     12.499
REMARK INTER + INTRA:          -3.093
REMARK INTER:                   0.000
REMARK INTRA:                  -3.093
REMARK UNBOUND:                -3.132
REMARK SMILES CCCCCCCCCCCCCCCC(=O)[O-]
REMARK SMILES IDX 9 1 10 2 11 3 12 4 13 5 14 6 15 7 16 8 17 9 18 10 8 11 7 12
REMARK SMILES IDX 6 13 5 14 4 15 3 16 2 17 1 18
REMARK H PARENT
REMARK Flexibility Score: inf
ROOT
ATOM      1  C   UNL     1     177.209 183.709 182.489  1.00  0.00     0.000 C 
ENDROOT
BRANCH   1   2
ATOM      2  C   UNL     1     176.955 185.221 182.438  1.00  0.00     0.000 C 
BRANCH   2   3
ATOM      3  C   UNL     1     177.576 185.926 183.649  1.00  0.00     0.000 C 
BRANCH   3   4
ATOM      4  C   UNL     1     176.676 187.064 184.145  1.00  0.00     0.000 C 
BRANCH   4   5
ATOM      5  C   UNL     1     175.583 187.390 183.117  1.00  0.00     0.000 C 
BRANCH   5   6
ATOM      6  C   UNL     1     174.197 187.585 183.759  1.00  0.00     0.006 C 
BRANCH   6   7
ATOM      7  C   UNL     1     173.025 187.100 182.892  1.00  0.00     0.053 C 
BRANCH   7   8
ATOM      8  C   UNL     1     171.915 186.529 183.719  1.00  0.00     0.041 C 
ATOM      9  O   UNL     1     171.077 185.744 183.202  1.00  0.00    -0.550 OA
ATOM     10  O   UNL     1     171.787 186.889 185.055  1.00  0.00    -0.550 OA
ENDBRANCH   7   8
ENDBRANCH   6   7
ENDBRANCH   5   6
ENDBRANCH   4   5
ENDBRANCH   3   4
ENDBRANCH   2   3
ENDBRANCH   1   2
BRANCH   1  11
ATOM     11  C   UNL     1     175.895 182.926 182.355  1.00  0.00     0.000 C 
BRANCH  11  12
ATOM     12  C   UNL     1     174.655 183.818 182.515  1.00  0.00    -0.000 C 
BRANCH  12  13
ATOM     13  C   UNL     1     173.560 183.166 183.379  1.00  0.00    -0.000 C 
BRANCH  13  14
ATOM     14  C   UNL     1     173.982 183.045 184.859  1.00  0.00    -0.000 C 
BRANCH  14  15
ATOM     15  C   UNL     1     174.411 184.382 185.488  1.00  0.00    -0.000 C 
BRANCH  15  16
ATOM     16  C   UNL     1     175.657 184.252 186.375  1.00  0.00    -0.000 C 
BRANCH  16  17
ATOM     17  C   UNL     1     176.398 182.940 186.093  1.00  0.00    -0.003 C 
ATOM     18  C   UNL     1     177.910 183.143 186.123  1.00  0.00     0.004 C 
ENDBRANCH  16  17
ENDBRANCH  15  16
ENDBRANCH  14  15
ENDBRANCH  13  14
ENDBRANCH  12  13
ENDBRANCH  11  12
ENDBRANCH   1  11
TORSDOF 14
ENDMDL
