MODEL 1
REMARK VINA RESULT:    -5.610      0.000      0.000
REMARK INTER + INTRA:          -7.912
REMARK INTER:                  -7.742
REMARK INTRA:                  -0.170
REMARK UNBOUND:                -0.170
REMARK SMILES CC[C@@H](CC[C@@H](C)[C@@H]1CC[C@@H]2[C@@H]3CC=C4C[C@@H](O)CC[C@@]4(C)[C@H]3CC[C@]21C)C(C)C
REMARK SMILES IDX 5 1 4 2 3 3 2 4 1 5 28 6 29 7 30 8 6 9 7 10 8 11 9 12 26 13
REMARK SMILES IDX 10 14 11 15 25 16 27 17 12 18 24 19 23 20 13 21 21 22 14 23
REMARK SMILES IDX 15 24 20 25 22 26 16 27 19 28 17 29 18 30
REMARK H PARENT 18 31
REMARK Flexibility Score: inf
ROOT
ATOM      1  C   UNL     1     -22.128 -15.135 -13.319  1.00  0.00     0.004 C 
ENDROOT
BRANCH   1   2
ATOM      2  C   UNL     1     -20.951 -14.191 -13.634  1.00  0.00     0.004 C 
BRANCH   2   3
ATOM      3  C   UNL     1     -19.530 -14.777 -13.388  1.00  0.00    -0.009 C 
BRANCH   3   4
ATOM      4  C   UNL     1     -19.610 -16.275 -12.988  1.00  0.00     0.000 C 
ATOM      5  C   UNL     1     -18.339 -17.058 -13.318  1.00  0.00     0.004 C 
ENDBRANCH   3   4
BRANCH   3   6
ATOM      6  C   UNL     1     -18.568 -13.916 -12.493  1.00  0.00    -0.014 C 
ATOM      7  C   UNL     1     -17.072 -14.268 -12.588  1.00  0.00     0.007 C 
ATOM      8  C   UNL     1     -19.014 -13.875 -11.023  1.00  0.00     0.007 C 
ENDBRANCH   3   6
ENDBRANCH   2   3
ENDBRANCH   1   2
BRANCH   1   9
ATOM      9  C   UNL     1     -23.401 -14.815 -14.158  1.00  0.00    -0.011 C 
ATOM     10  C   UNL     1     -22.994 -13.878 -15.316  1.00  0.00     0.008 C 
BRANCH   9  11
ATOM     11  C   UNL     1     -24.125 -16.109 -14.692  1.00  0.00    -0.002 C 
ATOM     12  C   UNL     1     -25.656 -15.899 -14.885  1.00  0.00     0.005 C 
ATOM     13  C   UNL     1     -24.042 -17.412 -13.821  1.00  0.00    -0.026 C 
ATOM     14  C   UNL     1     -26.352 -17.235 -14.585  1.00  0.00     0.005 C 
ATOM     15  C   UNL     1     -25.206 -18.216 -14.431  1.00  0.00    -0.001 C 
ATOM     16  C   UNL     1     -22.730 -18.257 -13.996  1.00  0.00     0.007 C 
ATOM     17  C   UNL     1     -24.276 -17.042 -12.321  1.00  0.00     0.012 C 
ATOM     18  C   UNL     1     -25.470 -19.630 -13.832  1.00  0.00     0.000 C 
ATOM     19  C   UNL     1     -22.938 -19.802 -14.018  1.00  0.00     0.005 C 
ATOM     20  C   UNL     1     -24.187 -20.248 -13.218  1.00  0.00     0.003 C 
ATOM     21  C   UNL     1     -26.597 -19.754 -12.804  1.00  0.00     0.031 C 
ATOM     22  C   UNL     1     -24.355 -21.795 -12.981  1.00  0.00    -0.008 C 
ATOM     23  C   UNL     1     -26.781 -21.204 -12.435  1.00  0.00    -0.027 C 
ATOM     24  C   UNL     1     -25.790 -22.131 -12.521  1.00  0.00    -0.065 C 
ATOM     25  C   UNL     1     -24.065 -22.609 -14.279  1.00  0.00     0.014 C 
ATOM     26  C   UNL     1     -23.365 -22.225 -11.864  1.00  0.00     0.016 C 
ATOM     27  C   UNL     1     -26.151 -23.595 -12.376  1.00  0.00     0.063 C 
ATOM     28  C   UNL     1     -24.421 -24.105 -14.160  1.00  0.00     0.033 C 
ATOM     29  C   UNL     1     -25.873 -24.331 -13.694  1.00  0.00     0.118 C 
BRANCH  29  30
ATOM     30  O   UNL     1     -26.778 -23.893 -14.676  1.00  0.00    -0.393 OA
ATOM     31  H   UNL     1     -26.773 -24.574 -15.397  1.00  0.00     0.210 HD
ENDBRANCH  29  30
ENDBRANCH   9  11
ENDBRANCH   1   9
TORSDOF 7
ENDMDL
MODEL 2
REMARK VINA RESULT:    -5.378      3.181      8.559
REMARK INTER + INTRA:          -7.591
REMARK INTER:                  -6.292
REMARK INTRA:                  -1.300
REMARK UNBOUND:                -0.170
REMARK SMILES CC[C@@H](CC[C@@H](C)[C@@H]1CC[C@@H]2[C@@H]3CC=C4C[C@@H](O)CC[C@@]4(C)[C@H]3CC[C@]21C)C(C)C
REMARK SMILES IDX 5 1 4 2 3 3 2 4 1 5 28 6 29 7 30 8 6 9 7 10 8 11 9 12 26 13
REMARK SMILES IDX 10 14 11 15 25 16 27 17 12 18 24 19 23 20 13 21 21 22 14 23
REMARK SMILES IDX 15 24 20 25 22 26 16 27 19 28 17 29 18 30
REMARK H PARENT 18 31
REMARK Flexibility Score: inf
ROOT
ATOM      1  C   UNL     1     -27.390 -23.243 -13.446  1.00  0.00     0.004 C 
ENDROOT
BRANCH   1   2
ATOM      2  C   UNL     1     -26.750 -23.200 -14.848  1.00  0.00     0.004 C 
BRANCH   2   3
ATOM      3  C   UNL     1     -26.168 -24.547 -15.366  1.00  0.00    -0.009 C 
BRANCH   3   4
ATOM      4  C   UNL     1     -27.028 -25.746 -14.881  1.00  0.00     0.000 C 
ATOM      5  C   UNL     1     -27.409 -26.712 -16.003  1.00  0.00     0.004 C 
ENDBRANCH   3   4
BRANCH   3   6
ATOM      6  C   UNL     1     -24.620 -24.747 -15.197  1.00  0.00    -0.014 C 
ATOM      7  C   UNL     1     -24.190 -25.790 -14.149  1.00  0.00     0.007 C 
ATOM      8  C   UNL     1     -23.879 -23.421 -14.966  1.00  0.00     0.007 C 
ENDBRANCH   3   6
ENDBRANCH   2   3
ENDBRANCH   1   2
BRANCH   1   9
ATOM      9  C   UNL     1     -26.429 -22.742 -12.327  1.00  0.00    -0.011 C 
ATOM     10  C   UNL     1     -25.861 -23.973 -11.589  1.00  0.00     0.008 C 
BRANCH   9  11
ATOM     11  C   UNL     1     -25.276 -21.819 -12.878  1.00  0.00    -0.002 C 
ATOM     12  C   UNL     1     -24.055 -21.749 -11.913  1.00  0.00     0.005 C 
ATOM     13  C   UNL     1     -25.608 -20.310 -13.154  1.00  0.00    -0.026 C 
ATOM     14  C   UNL     1     -23.439 -20.348 -12.039  1.00  0.00     0.005 C 
ATOM     15  C   UNL     1     -24.184 -19.726 -13.205  1.00  0.00    -0.001 C 
ATOM     16  C   UNL     1     -26.299 -20.014 -14.534  1.00  0.00     0.007 C 
ATOM     17  C   UNL     1     -26.457 -19.746 -11.970  1.00  0.00     0.012 C 
ATOM     18  C   UNL     1     -24.063 -18.197 -13.477  1.00  0.00     0.000 C 
ATOM     19  C   UNL     1     -25.801 -18.727 -15.258  1.00  0.00     0.005 C 
ATOM     20  C   UNL     1     -25.276 -17.652 -14.274  1.00  0.00     0.003 C 
ATOM     21  C   UNL     1     -23.841 -17.288 -12.266  1.00  0.00     0.031 C 
ATOM     22  C   UNL     1     -24.970 -16.232 -14.880  1.00  0.00    -0.008 C 
ATOM     23  C   UNL     1     -23.627 -15.871 -12.736  1.00  0.00    -0.027 C 
ATOM     24  C   UNL     1     -24.116 -15.389 -13.909  1.00  0.00    -0.065 C 
ATOM     25  C   UNL     1     -24.197 -16.339 -16.229  1.00  0.00     0.014 C 
ATOM     26  C   UNL     1     -26.322 -15.502 -15.111  1.00  0.00     0.016 C 
ATOM     27  C   UNL     1     -23.626 -14.043 -14.401  1.00  0.00     0.063 C 
ATOM     28  C   UNL     1     -23.687 -14.982 -16.757  1.00  0.00     0.033 C 
ATOM     29  C   UNL     1     -22.847 -14.221 -15.711  1.00  0.00     0.118 C 
BRANCH  29  30
ATOM     30  O   UNL     1     -21.646 -14.904 -15.453  1.00  0.00    -0.393 OA
ATOM     31  H   UNL     1     -21.893 -15.807 -15.124  1.00  0.00     0.210 HD
ENDBRANCH  29  30
ENDBRANCH   9  11
ENDBRANCH   1   9
TORSDOF 7
ENDMDL
MODEL 3
REMARK VINA RESULT:    -5.365      1.199      1.830
REMARK INTER + INTRA:          -7.573
REMARK INTER:                  -8.511
REMARK INTRA:                   0.938
REMARK UNBOUND:                -0.170
REMARK SMILES CC[C@@H](CC[C@@H](C)[C@@H]1CC[C@@H]2[C@@H]3CC=C4C[C@@H](O)CC[C@@]4(C)[C@H]3CC[C@]21C)C(C)C
REMARK SMILES IDX 5 1 4 2 3 3 2 4 1 5 28 6 29 7 30 8 6 9 7 10 8 11 9 12 26 13
REMARK SMILES IDX 10 14 11 15 25 16 27 17 12 18 24 19 23 20 13 21 21 22 14 23
REMARK SMILES IDX 15 24 20 25 22 26 16 27 19 28 17 29 18 30
REMARK H PARENT 18 31
REMARK Flexibility Score: inf
ROOT
ATOM      1  C   UNL     1     -22.238 -15.626 -14.054  1.00  0.00     0.004 C 
ENDROOT
BRANCH   1   2
ATOM      2  C   UNL     1     -21.112 -16.269 -13.221  1.00  0.00     0.004 C 
BRANCH   2   3
ATOM      3  C   UNL     1     -20.078 -15.281 -12.606  1.00  0.00    -0.009 C 
BRANCH   3   4
ATOM      4  C   UNL     1     -20.199 -13.876 -13.255  1.00  0.00     0.000 C 
ATOM      5  C   UNL     1     -21.015 -13.875 -14.548  1.00  0.00     0.004 C 
ENDBRANCH   3   4
BRANCH   3   6
ATOM      6  C   UNL     1     -18.605 -15.810 -12.471  1.00  0.00    -0.014 C 
ATOM      7  C   UNL     1     -17.497 -14.752 -12.624  1.00  0.00     0.007 C 
ATOM      8  C   UNL     1     -18.327 -17.010 -13.389  1.00  0.00     0.007 C 
ENDBRANCH   3   6
ENDBRANCH   2   3
ENDBRANCH   1   2
BRANCH   1   9
ATOM      9  C   UNL     1     -23.660 -16.041 -13.572  1.00  0.00    -0.011 C 
ATOM     10  C   UNL     1     -24.613 -14.846 -13.789  1.00  0.00     0.008 C 
BRANCH   9  11
ATOM     11  C   UNL     1     -24.194 -17.341 -14.286  1.00  0.00    -0.002 C 
ATOM     12  C   UNL     1     -25.706 -17.245 -14.645  1.00  0.00     0.005 C 
ATOM     13  C   UNL     1     -24.089 -18.703 -13.513  1.00  0.00    -0.026 C 
ATOM     14  C   UNL     1     -26.303 -18.655 -14.534  1.00  0.00     0.005 C 
ATOM     15  C   UNL     1     -25.096 -19.546 -14.317  1.00  0.00    -0.001 C 
ATOM     16  C   UNL     1     -22.692 -19.416 -13.592  1.00  0.00     0.007 C 
ATOM     17  C   UNL     1     -24.524 -18.485 -12.028  1.00  0.00     0.012 C 
ATOM     18  C   UNL     1     -25.291 -21.024 -13.865  1.00  0.00     0.000 C 
ATOM     19  C   UNL     1     -22.750 -20.965 -13.756  1.00  0.00     0.005 C 
ATOM     20  C   UNL     1     -24.034 -21.582 -13.149  1.00  0.00     0.003 C 
ATOM     21  C   UNL     1     -26.511 -21.330 -12.992  1.00  0.00     0.031 C 
ATOM     22  C   UNL     1     -24.082 -23.153 -13.052  1.00  0.00    -0.008 C 
ATOM     23  C   UNL     1     -26.599 -22.818 -12.760  1.00  0.00    -0.027 C 
ATOM     24  C   UNL     1     -25.523 -23.646 -12.796  1.00  0.00    -0.065 C 
ATOM     25  C   UNL     1     -23.572 -23.824 -14.363  1.00  0.00     0.014 C 
ATOM     26  C   UNL     1     -23.189 -23.593 -11.860  1.00  0.00     0.016 C 
ATOM     27  C   UNL     1     -25.759 -25.143 -12.807  1.00  0.00     0.063 C 
ATOM     28  C   UNL     1     -23.797 -25.350 -14.403  1.00  0.00     0.033 C 
ATOM     29  C   UNL     1     -25.265 -25.736 -14.134  1.00  0.00     0.118 C 
BRANCH  29  30
ATOM     30  O   UNL     1     -26.090 -25.292 -15.181  1.00  0.00    -0.393 OA
ATOM     31  H   UNL     1     -25.538 -25.299 -16.005  1.00  0.00     0.210 HD
ENDBRANCH  29  30
ENDBRANCH   9  11
ENDBRANCH   1   9
TORSDOF 7
ENDMDL
MODEL 4
REMARK VINA RESULT:    -3.848      2.709      8.176
REMARK INTER + INTRA:          -5.481
REMARK INTER:                  -5.418
REMARK INTRA:                  -0.062
REMARK UNBOUND:                -0.170
REMARK SMILES CC[C@@H](CC[C@@H](C)[C@@H]1CC[C@@H]2[C@@H]3CC=C4C[C@@H](O)CC[C@@]4(C)[C@H]3CC[C@]21C)C(C)C
REMARK SMILES IDX 5 1 4 2 3 3 2 4 1 5 28 6 29 7 30 8 6 9 7 10 8 11 9 12 26 13
REMARK SMILES IDX 10 14 11 15 25 16 27 17 12 18 24 19 23 20 13 21 21 22 14 23
REMARK SMILES IDX 15 24 20 25 22 26 16 27 19 28 17 29 18 30
REMARK H PARENT 18 31
REMARK Flexibility Score: inf
ROOT
ATOM      1  C   UNL     1     -25.969 -23.336 -11.792  1.00  0.00     0.004 C 
ENDROOT
BRANCH   1   2
ATOM      2  C   UNL     1     -25.503 -24.779 -12.068  1.00  0.00     0.004 C 
BRANCH   2   3
ATOM      3  C   UNL     1     -24.066 -24.925 -12.648  1.00  0.00    -0.009 C 
BRANCH   3   4
ATOM      4  C   UNL     1     -23.162 -23.747 -12.193  1.00  0.00     0.000 C 
ATOM      5  C   UNL     1     -22.350 -23.131 -13.334  1.00  0.00     0.004 C 
ENDBRANCH   3   4
BRANCH   3   6
ATOM      6  C   UNL     1     -23.964 -25.269 -14.177  1.00  0.00    -0.014 C 
ATOM      7  C   UNL     1     -25.303 -25.507 -14.900  1.00  0.00     0.007 C 
ATOM      8  C   UNL     1     -22.995 -26.428 -14.454  1.00  0.00     0.007 C 
ENDBRANCH   3   6
ENDBRANCH   2   3
ENDBRANCH   1   2
BRANCH   1   9
ATOM      9  C   UNL     1     -27.037 -22.840 -12.813  1.00  0.00    -0.011 C 
ATOM     10  C   UNL     1     -28.237 -22.274 -12.022  1.00  0.00     0.008 C 
BRANCH   9  11
ATOM     11  C   UNL     1     -26.467 -21.781 -13.830  1.00  0.00    -0.002 C 
ATOM     12  C   UNL     1     -25.397 -22.387 -14.786  1.00  0.00     0.005 C 
ATOM     13  C   UNL     1     -25.756 -20.508 -13.248  1.00  0.00    -0.026 C 
ATOM     14  C   UNL     1     -24.376 -21.286 -15.103  1.00  0.00     0.005 C 
ATOM     15  C   UNL     1     -24.986 -20.037 -14.496  1.00  0.00    -0.001 C 
ATOM     16  C   UNL     1     -26.714 -19.345 -12.806  1.00  0.00     0.007 C 
ATOM     17  C   UNL     1     -24.816 -20.937 -12.077  1.00  0.00     0.012 C 
ATOM     18  C   UNL     1     -24.126 -18.747 -14.343  1.00  0.00     0.000 C 
ATOM     19  C   UNL     1     -26.215 -17.910 -13.156  1.00  0.00     0.005 C 
ATOM     20  C   UNL     1     -24.670 -17.816 -13.229  1.00  0.00     0.003 C 
ATOM     21  C   UNL     1     -22.623 -18.934 -14.115  1.00  0.00     0.031 C 
ATOM     22  C   UNL     1     -24.058 -16.370 -13.343  1.00  0.00    -0.008 C 
ATOM     23  C   UNL     1     -21.946 -17.586 -14.115  1.00  0.00    -0.027 C 
ATOM     24  C   UNL     1     -22.579 -16.430 -13.784  1.00  0.00    -0.065 C 
ATOM     25  C   UNL     1     -24.832 -15.500 -14.380  1.00  0.00     0.014 C 
ATOM     26  C   UNL     1     -24.131 -15.700 -11.944  1.00  0.00     0.016 C 
ATOM     27  C   UNL     1     -21.883 -15.115 -14.066  1.00  0.00     0.063 C 
ATOM     28  C   UNL     1     -24.147 -14.152 -14.686  1.00  0.00     0.033 C 
ATOM     29  C   UNL     1     -22.676 -14.323 -15.115  1.00  0.00     0.118 C 
BRANCH  29  30
ATOM     30  O   UNL     1     -22.597 -14.978 -16.355  1.00  0.00    -0.393 OA
ATOM     31  H   UNL     1     -22.566 -15.952 -16.165  1.00  0.00     0.210 HD
ENDBRANCH  29  30
ENDBRANCH   9  11
ENDBRANCH   1   9
TORSDOF 7
ENDMDL
MODEL 5
REMARK VINA RESULT:    -3.740      3.167      8.787
REMARK INTER + INTRA:          -5.332
REMARK INTER:                  -4.848
REMARK INTRA:                  -0.484
REMARK UNBOUND:                -0.170
REMARK SMILES CC[C@@H](CC[C@@H](C)[C@@H]1CC[C@@H]2[C@@H]3CC=C4C[C@@H](O)CC[C@@]4(C)[C@H]3CC[C@]21C)C(C)C
REMARK SMILES IDX 5 1 4 2 3 3 2 4 1 5 28 6 29 7 30 8 6 9 7 10 8 11 9 12 26 13
REMARK SMILES IDX 10 14 11 15 25 16 27 17 12 18 24 19 23 20 13 21 21 22 14 23
REMARK SMILES IDX 15 24 20 25 22 26 16 27 19 28 17 29 18 30
REMARK H PARENT 18 31
REMARK Flexibility Score: inf
ROOT
ATOM      1  C   UNL     1     -23.710 -25.041 -13.680  1.00  0.00     0.004 C 
ENDROOT
BRANCH   1   2
ATOM      2  C   UNL     1     -24.523 -25.288 -14.966  1.00  0.00     0.004 C 
BRANCH   2   3
ATOM      3  C   UNL     1     -26.068 -25.336 -14.789  1.00  0.00    -0.009 C 
BRANCH   3   4
ATOM      4  C   UNL     1     -26.717 -26.282 -15.835  1.00  0.00     0.000 C 
ATOM      5  C   UNL     1     -27.934 -27.037 -15.298  1.00  0.00     0.004 C 
ENDBRANCH   3   4
BRANCH   3   6
ATOM      6  C   UNL     1     -26.793 -23.953 -14.626  1.00  0.00    -0.014 C 
ATOM      7  C   UNL     1     -27.203 -23.577 -13.189  1.00  0.00     0.007 C 
ATOM      8  C   UNL     1     -27.989 -23.801 -15.578  1.00  0.00     0.007 C 
ENDBRANCH   3   6
ENDBRANCH   2   3
ENDBRANCH   1   2
BRANCH   1   9
ATOM      9  C   UNL     1     -24.061 -23.687 -12.994  1.00  0.00    -0.011 C 
ATOM     10  C   UNL     1     -23.631 -23.768 -11.513  1.00  0.00     0.008 C 
BRANCH   9  11
ATOM     11  C   UNL     1     -23.408 -22.447 -13.715  1.00  0.00    -0.002 C 
ATOM     12  C   UNL     1     -21.979 -22.131 -13.182  1.00  0.00     0.005 C 
ATOM     13  C   UNL     1     -24.147 -21.065 -13.619  1.00  0.00    -0.026 C 
ATOM     14  C   UNL     1     -21.777 -20.611 -13.259  1.00  0.00     0.005 C 
ATOM     15  C   UNL     1     -22.997 -20.119 -14.013  1.00  0.00    -0.001 C 
ATOM     16  C   UNL     1     -25.318 -20.854 -14.644  1.00  0.00     0.007 C 
ATOM     17  C   UNL     1     -24.639 -20.848 -12.152  1.00  0.00     0.012 C 
ATOM     18  C   UNL     1     -23.326 -18.596 -14.052  1.00  0.00     0.000 C 
ATOM     19  C   UNL     1     -25.404 -19.426 -15.263  1.00  0.00     0.005 C 
ATOM     20  C   UNL     1     -24.829 -18.334 -14.327  1.00  0.00     0.003 C 
ATOM     21  C   UNL     1     -22.911 -17.763 -12.836  1.00  0.00     0.031 C 
ATOM     22  C   UNL     1     -25.079 -16.839 -14.754  1.00  0.00    -0.008 C 
ATOM     23  C   UNL     1     -23.198 -16.307 -13.107  1.00  0.00    -0.027 C 
ATOM     24  C   UNL     1     -24.156 -15.880 -13.971  1.00  0.00    -0.065 C 
ATOM     25  C   UNL     1     -24.815 -16.625 -16.275  1.00  0.00     0.014 C 
ATOM     26  C   UNL     1     -26.555 -16.482 -14.426  1.00  0.00     0.016 C 
ATOM     27  C   UNL     1     -24.182 -14.416 -14.360  1.00  0.00     0.063 C 
ATOM     28  C   UNL     1     -24.837 -15.143 -16.701  1.00  0.00     0.033 C 
ATOM     29  C   UNL     1     -23.884 -14.272 -15.859  1.00  0.00     0.118 C 
BRANCH  29  30
ATOM     30  O   UNL     1     -22.547 -14.626 -16.106  1.00  0.00    -0.393 OA
ATOM     31  H   UNL     1     -22.170 -13.929 -16.704  1.00  0.00     0.210 HD
ENDBRANCH  29  30
ENDBRANCH   9  11
ENDBRANCH   1   9
TORSDOF 7
ENDMDL
MODEL 6
REMARK VINA RESULT:    -3.352      1.468      2.630
REMARK INTER + INTRA:          -4.796
REMARK INTER:                  -3.711
REMARK INTRA:                  -1.085
REMARK UNBOUND:                -0.170
REMARK SMILES CC[C@@H](CC[C@@H](C)[C@@H]1CC[C@@H]2[C@@H]3CC=C4C[C@@H](O)CC[C@@]4(C)[C@H]3CC[C@]21C)C(C)C
REMARK SMILES IDX 5 1 4 2 3 3 2 4 1 5 28 6 29 7 30 8 6 9 7 10 8 11 9 12 26 13
REMARK SMILES IDX 10 14 11 15 25 16 27 17 12 18 24 19 23 20 13 21 21 22 14 23
REMARK SMILES IDX 15 24 20 25 22 26 16 27 19 28 17 29 18 30
REMARK H PARENT 18 31
REMARK Flexibility Score: inf
ROOT
ATOM      1  C   UNL     1     -23.914 -14.756 -12.875  1.00  0.00     0.004 C 
ENDROOT
BRANCH   1   2
ATOM      2  C   UNL     1     -22.542 -15.360 -12.516  1.00  0.00     0.004 C 
BRANCH   2   3
ATOM      3  C   UNL     1     -21.318 -14.738 -13.249  1.00  0.00    -0.009 C 
BRANCH   3   4
ATOM      4  C   UNL     1     -21.411 -14.972 -14.781  1.00  0.00     0.000 C 
ATOM      5  C   UNL     1     -22.184 -13.875 -15.515  1.00  0.00     0.004 C 
ENDBRANCH   3   4
BRANCH   3   6
ATOM      6  C   UNL     1     -19.907 -15.044 -12.630  1.00  0.00    -0.014 C 
ATOM      7  C   UNL     1     -18.901 -13.878 -12.648  1.00  0.00     0.007 C 
ATOM      8  C   UNL     1     -19.268 -16.309 -13.223  1.00  0.00     0.007 C 
ENDBRANCH   3   6
ENDBRANCH   2   3
ENDBRANCH   1   2
BRANCH   1   9
ATOM      9  C   UNL     1     -24.840 -15.761 -13.623  1.00  0.00    -0.011 C 
ATOM     10  C   UNL     1     -25.303 -15.104 -14.942  1.00  0.00     0.008 C 
BRANCH   9  11
ATOM     11  C   UNL     1     -24.148 -17.153 -13.886  1.00  0.00    -0.002 C 
ATOM     12  C   UNL     1     -23.756 -17.351 -15.380  1.00  0.00     0.005 C 
ATOM     13  C   UNL     1     -24.957 -18.454 -13.546  1.00  0.00    -0.026 C 
ATOM     14  C   UNL     1     -23.890 -18.846 -15.705  1.00  0.00     0.005 C 
ATOM     15  C   UNL     1     -24.153 -19.489 -14.357  1.00  0.00    -0.001 C 
ATOM     16  C   UNL     1     -24.924 -18.893 -12.039  1.00  0.00     0.007 C 
ATOM     17  C   UNL     1     -26.426 -18.291 -14.051  1.00  0.00     0.012 C 
ATOM     18  C   UNL     1     -24.639 -20.967 -14.282  1.00  0.00     0.000 C 
ATOM     19  C   UNL     1     -24.798 -20.429 -11.800  1.00  0.00     0.005 C 
ATOM     20  C   UNL     1     -25.394 -21.264 -12.961  1.00  0.00     0.003 C 
ATOM     21  C   UNL     1     -25.494 -21.479 -15.445  1.00  0.00     0.031 C 
ATOM     22  C   UNL     1     -25.529 -22.813 -12.715  1.00  0.00    -0.008 C 
ATOM     23  C   UNL     1     -25.762 -22.952 -15.257  1.00  0.00    -0.027 C 
ATOM     24  C   UNL     1     -25.768 -23.563 -14.044  1.00  0.00    -0.065 C 
ATOM     25  C   UNL     1     -24.246 -23.403 -12.056  1.00  0.00     0.014 C 
ATOM     26  C   UNL     1     -26.750 -23.052 -11.785  1.00  0.00     0.016 C 
ATOM     27  C   UNL     1     -25.790 -25.077 -13.994  1.00  0.00     0.063 C 
ATOM     28  C   UNL     1     -24.240 -24.944 -11.990  1.00  0.00     0.033 C 
ATOM     29  C   UNL     1     -24.489 -25.594 -13.365  1.00  0.00     0.118 C 
BRANCH  29  30
ATOM     30  O   UNL     1     -23.414 -25.336 -14.233  1.00  0.00    -0.393 OA
ATOM     31  H   UNL     1     -23.715 -24.630 -14.862  1.00  0.00     0.210 HD
ENDBRANCH  29  30
ENDBRANCH   9  11
ENDBRANCH   1   9
TORSDOF 7
ENDMDL
MODEL 7
REMARK VINA RESULT:    -3.104      1.834      3.607
REMARK INTER + INTRA:          -4.454
REMARK INTER:                  -3.637
REMARK INTRA:                  -0.816
REMARK UNBOUND:                -0.170
REMARK SMILES CC[C@@H](CC[C@@H](C)[C@@H]1CC[C@@H]2[C@@H]3CC=C4C[C@@H](O)CC[C@@]4(C)[C@H]3CC[C@]21C)C(C)C
REMARK SMILES IDX 5 1 4 2 3 3 2 4 1 5 28 6 29 7 30 8 6 9 7 10 8 11 9 12 26 13
REMARK SMILES IDX 10 14 11 15 25 16 27 17 12 18 24 19 23 20 13 21 21 22 14 23
REMARK SMILES IDX 15 24 20 25 22 26 16 27 19 28 17 29 18 30
REMARK H PARENT 18 31
REMARK Flexibility Score: inf
ROOT
ATOM      1  C   UNL     1     -22.919 -16.114 -12.647  1.00  0.00     0.004 C 
ENDROOT
BRANCH   1   2
ATOM      2  C   UNL     1     -23.123 -14.731 -13.296  1.00  0.00     0.004 C 
BRANCH   2   3
ATOM      3  C   UNL     1     -22.745 -14.630 -14.802  1.00  0.00    -0.009 C 
BRANCH   3   4
ATOM      4  C   UNL     1     -21.400 -13.876 -14.987  1.00  0.00     0.000 C 
ATOM      5  C   UNL     1     -20.511 -13.909 -13.743  1.00  0.00     0.004 C 
ENDBRANCH   3   4
BRANCH   3   6
ATOM      6  C   UNL     1     -23.887 -14.169 -15.777  1.00  0.00    -0.014 C 
ATOM      7  C   UNL     1     -25.283 -14.013 -15.146  1.00  0.00     0.007 C 
ATOM      8  C   UNL     1     -23.967 -15.040 -17.040  1.00  0.00     0.007 C 
ENDBRANCH   3   6
ENDBRANCH   2   3
ENDBRANCH   1   2
BRANCH   1   9
ATOM      9  C   UNL     1     -24.201 -16.999 -12.695  1.00  0.00    -0.011 C 
ATOM     10  C   UNL     1     -25.405 -16.089 -13.021  1.00  0.00     0.008 C 
BRANCH   9  11
ATOM     11  C   UNL     1     -24.085 -18.190 -13.721  1.00  0.00    -0.002 C 
ATOM     12  C   UNL     1     -25.033 -18.017 -14.945  1.00  0.00     0.005 C 
ATOM     13  C   UNL     1     -24.411 -19.638 -13.210  1.00  0.00    -0.026 C 
ATOM     14  C   UNL     1     -25.480 -19.416 -15.391  1.00  0.00     0.005 C 
ATOM     15  C   UNL     1     -24.631 -20.355 -14.555  1.00  0.00    -0.001 C 
ATOM     16  C   UNL     1     -23.240 -20.368 -12.461  1.00  0.00     0.007 C 
ATOM     17  C   UNL     1     -25.699 -19.592 -12.326  1.00  0.00     0.012 C 
ATOM     18  C   UNL     1     -24.980 -21.871 -14.492  1.00  0.00     0.000 C 
ATOM     19  C   UNL     1     -23.089 -21.884 -12.790  1.00  0.00     0.005 C 
ATOM     20  C   UNL     1     -24.428 -22.541 -13.208  1.00  0.00     0.003 C 
ATOM     21  C   UNL     1     -26.457 -22.253 -14.632  1.00  0.00     0.031 C 
ATOM     22  C   UNL     1     -24.433 -24.110 -13.333  1.00  0.00    -0.008 C 
ATOM     23  C   UNL     1     -26.583 -23.756 -14.670  1.00  0.00    -0.027 C 
ATOM     24  C   UNL     1     -25.679 -24.598 -14.104  1.00  0.00    -0.065 C 
ATOM     25  C   UNL     1     -23.170 -24.628 -14.086  1.00  0.00     0.014 C 
ATOM     26  C   UNL     1     -24.470 -24.711 -11.902  1.00  0.00     0.016 C 
ATOM     27  C   UNL     1     -25.765 -26.076 -14.424  1.00  0.00     0.063 C 
ATOM     28  C   UNL     1     -23.229 -26.133 -14.423  1.00  0.00     0.033 C 
ATOM     29  C   UNL     1     -24.511 -26.515 -15.190  1.00  0.00     0.118 C 
BRANCH  29  30
ATOM     30  O   UNL     1     -24.513 -25.930 -16.468  1.00  0.00    -0.393 OA
ATOM     31  H   UNL     1     -25.270 -26.331 -16.968  1.00  0.00     0.210 HD
ENDBRANCH  29  30
ENDBRANCH   9  11
ENDBRANCH   1   9
TORSDOF 7
ENDMDL
