MODEL 1
REMARK VINA RESULT:    72.435      0.000      0.000
REMARK INTER + INTRA:         106.316
REMARK INTER:                 106.311
REMARK INTRA:                   0.004
REMARK UNBOUND:                 0.004
REMARK SMILES O=c1c(O[C@H]2O[C@@H](CO)[C@H](O)[C@@H](O)[C@H]2O)c(-c2ccc(O)c(O)c2)oc2cc(O)cc(O)c12
REMARK SMILES IDX 4 1 3 2 16 3 25 4 2 5 26 6 1 7 33 8 27 9 31 10 28 11 30 12
REMARK SMILES IDX 17 13 18 14 19 15 20 16 24 17 22 18 21 19 23 21 32 23 29 25
REMARK SMILES IDX 5 27 14 28 6 29 12 30 7 31 10 32 15 33 13 35 8 37 9 38 11 40
REMARK H PARENT 21 20 23 22 32 24 29 26 15 34 13 36 9 39 11 41
REMARK Flexibility Score: inf
ROOT
ATOM      1  O   UNL     1     -38.861  29.656 -21.559  1.00  0.00    -0.454 OA
ENDROOT
BRANCH   1   2
ATOM      2  C   UNL     1     -40.000  30.316 -22.062  1.00  0.00     0.214 A 
ATOM      3  C   UNL     1     -39.970  31.279 -23.104  1.00  0.00     0.180 A 
ATOM      4  O   UNL     1     -41.077  31.948 -23.415  1.00  0.00    -0.452 OA
ATOM      5  C   UNL     1     -41.239  29.998 -21.495  1.00  0.00     0.239 A 
ATOM      6  C   UNL     1     -42.254  31.717 -22.855  1.00  0.00     0.146 A 
ATOM      7  O   UNL     1     -41.300  29.089 -20.627  1.00  0.00    -0.285 OA
ATOM      8  C   UNL     1     -42.399  30.698 -21.884  1.00  0.00     0.111 A 
ATOM      9  C   UNL     1     -43.362  32.469 -23.262  1.00  0.00     0.094 A 
ATOM     10  C   UNL     1     -43.688  30.414 -21.370  1.00  0.00     0.134 A 
ATOM     11  C   UNL     1     -44.629  32.201 -22.732  1.00  0.00     0.123 A 
ATOM     12  C   UNL     1     -44.787  31.171 -21.795  1.00  0.00     0.093 A 
BRANCH   3  13
ATOM     13  C   UNL     1     -38.788  31.536 -23.946  1.00  0.00     0.025 A 
ATOM     14  C   UNL     1     -38.707  32.695 -24.735  1.00  0.00     0.016 A 
ATOM     15  C   UNL     1     -37.545  32.970 -25.463  1.00  0.00     0.051 A 
ATOM     16  C   UNL     1     -36.439  32.108 -25.386  1.00  0.00     0.157 A 
ATOM     17  C   UNL     1     -37.668  30.696 -23.846  1.00  0.00     0.062 A 
ATOM     18  C   UNL     1     -36.508  30.961 -24.580  1.00  0.00     0.158 A 
BRANCH  16  19
ATOM     19  O   UNL     1     -35.285  32.381 -26.119  1.00  0.00    -0.504 OA
ATOM     20  H   UNL     1     -35.248  32.238 -27.121  1.00  0.00     0.293 HD
ENDBRANCH  16  19
BRANCH  18  21
ATOM     21  O   UNL     1     -35.445  30.061 -24.520  1.00  0.00    -0.504 OA
ATOM     22  H   UNL     1     -35.417  29.225 -25.089  1.00  0.00     0.293 HD
ENDBRANCH  18  21
ENDBRANCH   3  13
BRANCH  10  23
ATOM     23  O   UNL     1     -43.893  29.372 -20.465  1.00  0.00    -0.507 OA
ATOM     24  H   UNL     1     -44.199  29.561 -19.519  1.00  0.00     0.293 HD
ENDBRANCH  10  23
BRANCH  11  25
ATOM     25  O   UNL     1     -45.719  32.961 -23.148  1.00  0.00    -0.508 OA
ATOM     26  H   UNL     1     -45.957  33.043 -24.132  1.00  0.00     0.293 HD
ENDBRANCH  11  25
ENDBRANCH   1   2
BRANCH   1  27
ATOM     27  C   UNL     1     -38.740  28.251 -21.319  1.00  0.00     0.339 C 
ATOM     28  C   UNL     1     -37.253  27.882 -21.218  1.00  0.00     0.214 C 
ATOM     29  O   UNL     1     -39.344  27.520 -22.376  1.00  0.00    -0.332 OA
ATOM     30  C   UNL     1     -37.131  26.384 -20.908  1.00  0.00     0.180 C 
ATOM     31  C   UNL     1     -39.415  26.144 -22.033  1.00  0.00     0.179 C 
ATOM     32  C   UNL     1     -37.989  25.542 -21.881  1.00  0.00     0.177 C 
BRANCH  28  33
ATOM     33  O   UNL     1     -36.597  28.170 -22.427  1.00  0.00    -0.384 OA
ATOM     34  H   UNL     1     -35.626  28.031 -22.269  1.00  0.00     0.211 HD
ENDBRANCH  28  33
BRANCH  30  35
ATOM     35  O   UNL     1     -35.781  25.997 -20.995  1.00  0.00    -0.387 OA
ATOM     36  H   UNL     1     -35.775  25.039 -21.254  1.00  0.00     0.211 HD
ENDBRANCH  30  35
BRANCH  31  37
ATOM     37  C   UNL     1     -40.182  25.408 -23.142  1.00  0.00     0.191 C 
BRANCH  37  38
ATOM     38  O   UNL     1     -41.382  26.067 -23.432  1.00  0.00    -0.394 OA
ATOM     39  H   UNL     1     -42.117  25.489 -23.091  1.00  0.00     0.210 HD
ENDBRANCH  37  38
ENDBRANCH  31  37
BRANCH  32  40
ATOM     40  O   UNL     1     -38.053  24.203 -21.451  1.00  0.00    -0.387 OA
ATOM     41  H   UNL     1     -38.115  23.639 -22.271  1.00  0.00     0.211 HD
ENDBRANCH  32  40
ENDBRANCH   1  27
TORSDOF 12
ENDMDL
