MODEL 1
REMARK VINA RESULT:    -4.658      0.000      0.000
REMARK INTER + INTRA:          -5.574
REMARK INTER:                  -5.339
REMARK INTRA:                  -0.236
REMARK UNBOUND:                -0.236
REMARK SMILES O=C([O-])C=Cc1ccc(O)cc1
REMARK SMILES IDX 6 1 7 2 12 3 8 4 11 5 9 6 5 7 4 8 2 9 1 10 3 11 10 12
REMARK H PARENT 10 13
REMARK Flexibility Score: inf
ROOT
ATOM      1  C   UNL     1       4.556   5.266  -8.974  1.00  0.00    -0.025 A 
ATOM      2  C   UNL     1       5.810   4.736  -9.329  1.00  0.00     0.012 A 
ATOM      3  C   UNL     1       3.895   4.765  -7.843  1.00  0.00     0.012 A 
ATOM      4  C   UNL     1       6.411   3.757  -8.532  1.00  0.00     0.047 A 
ATOM      5  C   UNL     1       4.499   3.785  -7.047  1.00  0.00     0.047 A 
ATOM      6  C   UNL     1       5.762   3.282  -7.389  1.00  0.00     0.115 A 
ENDROOT
BRANCH   1   7
ATOM      7  C   UNL     1       3.875   6.260  -9.829  1.00  0.00     0.010 C 
ATOM      8  C   UNL     1       3.904   7.590  -9.650  1.00  0.00     0.025 C 
BRANCH   8   9
ATOM      9  C   UNL     1       4.463   8.290  -8.477  1.00  0.00     0.064 C 
ATOM     10  O   UNL     1       3.876   8.282  -7.363  1.00  0.00    -0.545 OA
ATOM     11  O   UNL     1       5.630   9.029  -8.623  1.00  0.00    -0.545 OA
ENDBRANCH   8   9
ENDBRANCH   1   7
BRANCH   6  12
ATOM     12  O   UNL     1       6.374   2.308  -6.603  1.00  0.00    -0.508 OA
ATOM     13  H   UNL     1       6.175   2.224  -5.613  1.00  0.00     0.293 HD
ENDBRANCH   6  12
TORSDOF 3
ENDMDL
MODEL 2
REMARK VINA RESULT:    -4.573     12.070     13.641
REMARK INTER + INTRA:          -5.477
REMARK INTER:                  -5.178
REMARK INTRA:                  -0.299
REMARK UNBOUND:                -0.236
REMARK SMILES O=C([O-])C=Cc1ccc(O)cc1
REMARK SMILES IDX 6 1 7 2 12 3 8 4 11 5 9 6 5 7 4 8 2 9 1 10 3 11 10 12
REMARK H PARENT 10 13
REMARK Flexibility Score: inf
ROOT
ATOM      1  C   UNL     1       8.422  -7.497  -9.134  1.00  0.00    -0.025 A 
ATOM      2  C   UNL     1       9.701  -7.859  -8.673  1.00  0.00     0.012 A 
ATOM      3  C   UNL     1       7.809  -6.345  -8.621  1.00  0.00     0.012 A 
ATOM      4  C   UNL     1      10.372  -7.050  -7.752  1.00  0.00     0.047 A 
ATOM      5  C   UNL     1       8.482  -5.537  -7.699  1.00  0.00     0.047 A 
ATOM      6  C   UNL     1       9.769  -5.887  -7.265  1.00  0.00     0.115 A 
ENDROOT
BRANCH   1   7
ATOM      7  C   UNL     1       7.670  -8.364 -10.066  1.00  0.00     0.010 C 
ATOM      8  C   UNL     1       7.768  -8.337 -11.405  1.00  0.00     0.025 C 
BRANCH   8   9
ATOM      9  C   UNL     1       8.499  -7.327 -12.195  1.00  0.00     0.064 C 
ATOM     10  O   UNL     1       9.714  -7.473 -12.490  1.00  0.00    -0.545 OA
ATOM     11  O   UNL     1       7.847  -6.157 -12.564  1.00  0.00    -0.545 OA
ENDBRANCH   8   9
ENDBRANCH   1   7
BRANCH   6  12
ATOM     12  O   UNL     1      10.450  -5.089  -6.349  1.00  0.00    -0.508 OA
ATOM     13  H   UNL     1      10.025  -4.807  -5.473  1.00  0.00     0.293 HD
ENDBRANCH   6  12
TORSDOF 3
ENDMDL
MODEL 3
REMARK VINA RESULT:    -4.556     12.105     13.687
REMARK INTER + INTRA:          -5.458
REMARK INTER:                  -5.176
REMARK INTRA:                  -0.282
REMARK UNBOUND:                -0.236
REMARK SMILES O=C([O-])C=Cc1ccc(O)cc1
REMARK SMILES IDX 6 1 7 2 12 3 8 4 11 5 9 6 5 7 4 8 2 9 1 10 3 11 10 12
REMARK H PARENT 10 13
REMARK Flexibility Score: inf
ROOT
ATOM      1  C   UNL     1       8.352  -7.584  -9.048  1.00  0.00    -0.025 A 
ATOM      2  C   UNL     1       7.779  -6.390  -8.574  1.00  0.00     0.012 A 
ATOM      3  C   UNL     1       9.655  -7.922  -8.653  1.00  0.00     0.012 A 
ATOM      4  C   UNL     1       8.482  -5.577  -7.680  1.00  0.00     0.047 A 
ATOM      5  C   UNL     1      10.357  -7.108  -7.758  1.00  0.00     0.047 A 
ATOM      6  C   UNL     1       9.769  -5.934  -7.266  1.00  0.00     0.115 A 
ENDROOT
BRANCH   1   7
ATOM      7  C   UNL     1       7.651  -8.431 -10.035  1.00  0.00     0.010 C 
ATOM      8  C   UNL     1       7.769  -8.331 -11.369  1.00  0.00     0.025 C 
BRANCH   8   9
ATOM      9  C   UNL     1       8.471  -7.254 -12.094  1.00  0.00     0.064 C 
ATOM     10  O   UNL     1       7.846  -6.286 -12.602  1.00  0.00    -0.545 OA
ATOM     11  O   UNL     1       9.844  -7.346 -12.278  1.00  0.00    -0.545 OA
ENDBRANCH   8   9
ENDBRANCH   1   7
BRANCH   6  12
ATOM     12  O   UNL     1      10.457  -5.116  -6.373  1.00  0.00    -0.508 OA
ATOM     13  H   UNL     1      10.041  -4.271  -6.000  1.00  0.00     0.293 HD
ENDBRANCH   6  12
TORSDOF 3
ENDMDL
MODEL 4
REMARK VINA RESULT:    -4.397     16.739     19.309
REMARK INTER + INTRA:          -5.276
REMARK INTER:                  -5.002
REMARK INTRA:                  -0.274
REMARK UNBOUND:                -0.236
REMARK SMILES O=C([O-])C=Cc1ccc(O)cc1
REMARK SMILES IDX 6 1 7 2 12 3 8 4 11 5 9 6 5 7 4 8 2 9 1 10 3 11 10 12
REMARK H PARENT 10 13
REMARK Flexibility Score: inf
ROOT
ATOM      1  C   UNL     1      21.729  -2.403  -7.549  1.00  0.00    -0.025 A 
ATOM      2  C   UNL     1      20.682  -2.308  -8.484  1.00  0.00     0.012 A 
ATOM      3  C   UNL     1      21.424  -2.643  -6.201  1.00  0.00     0.012 A 
ATOM      4  C   UNL     1      19.358  -2.502  -8.081  1.00  0.00     0.047 A 
ATOM      5  C   UNL     1      20.098  -2.838  -5.799  1.00  0.00     0.047 A 
ATOM      6  C   UNL     1      19.062  -2.772  -6.741  1.00  0.00     0.115 A 
ENDROOT
BRANCH   1   7
ATOM      7  C   UNL     1      23.131  -2.147  -7.940  1.00  0.00     0.010 C 
ATOM      8  C   UNL     1      24.022  -3.085  -8.299  1.00  0.00     0.025 C 
BRANCH   8   9
ATOM      9  C   UNL     1      23.826  -4.544  -8.197  1.00  0.00     0.064 C 
ATOM     10  O   UNL     1      24.120  -5.178  -7.150  1.00  0.00    -0.545 OA
ATOM     11  O   UNL     1      23.369  -5.243  -9.307  1.00  0.00    -0.545 OA
ENDBRANCH   8   9
ENDBRANCH   1   7
BRANCH   6  12
ATOM     12  O   UNL     1      17.738  -2.965  -6.354  1.00  0.00    -0.508 OA
ATOM     13  H   UNL     1      17.113  -3.562  -6.883  1.00  0.00     0.293 HD
ENDBRANCH   6  12
TORSDOF 3
ENDMDL
MODEL 5
REMARK VINA RESULT:    -4.372     12.298     14.128
REMARK INTER + INTRA:          -5.246
REMARK INTER:                  -4.954
REMARK INTRA:                  -0.292
REMARK UNBOUND:                -0.236
REMARK SMILES O=C([O-])C=Cc1ccc(O)cc1
REMARK SMILES IDX 6 1 7 2 12 3 8 4 11 5 9 6 5 7 4 8 2 9 1 10 3 11 10 12
REMARK H PARENT 10 13
REMARK Flexibility Score: inf
ROOT
ATOM      1  C   UNL     1       9.825  -7.692  -7.742  1.00  0.00    -0.025 A 
ATOM      2  C   UNL     1      10.220  -6.366  -7.490  1.00  0.00     0.012 A 
ATOM      3  C   UNL     1       8.702  -8.210  -7.080  1.00  0.00     0.012 A 
ATOM      4  C   UNL     1       9.472  -5.559  -6.628  1.00  0.00     0.047 A 
ATOM      5  C   UNL     1       7.954  -7.401  -6.217  1.00  0.00     0.047 A 
ATOM      6  C   UNL     1       8.336  -6.071  -5.993  1.00  0.00     0.115 A 
ENDROOT
BRANCH   1   7
ATOM      7  C   UNL     1      10.630  -8.580  -8.606  1.00  0.00     0.010 C 
ATOM      8  C   UNL     1      10.584  -8.612  -9.948  1.00  0.00     0.025 C 
BRANCH   8   9
ATOM      9  C   UNL     1       9.603  -7.904 -10.793  1.00  0.00     0.064 C 
ATOM     10  O   UNL     1       9.888  -6.820 -11.366  1.00  0.00    -0.545 OA
ATOM     11  O   UNL     1       8.315  -8.412 -10.904  1.00  0.00    -0.545 OA
ENDBRANCH   8   9
ENDBRANCH   1   7
BRANCH   6  12
ATOM     12  O   UNL     1       7.599  -5.256  -5.138  1.00  0.00    -0.508 OA
ATOM     13  H   UNL     1       7.486  -4.265  -5.316  1.00  0.00     0.293 HD
ENDBRANCH   6  12
TORSDOF 3
ENDMDL
MODEL 6
REMARK VINA RESULT:    -4.363     10.123     12.495
REMARK INTER + INTRA:          -5.237
REMARK INTER:                  -4.973
REMARK INTRA:                  -0.263
REMARK UNBOUND:                -0.236
REMARK SMILES O=C([O-])C=Cc1ccc(O)cc1
REMARK SMILES IDX 6 1 7 2 12 3 8 4 11 5 9 6 5 7 4 8 2 9 1 10 3 11 10 12
REMARK H PARENT 10 13
REMARK Flexibility Score: inf
ROOT
ATOM      1  C   UNL     1       8.678  -5.973 -10.817  1.00  0.00    -0.025 A 
ATOM      2  C   UNL     1       8.077  -4.919 -11.528  1.00  0.00     0.012 A 
ATOM      3  C   UNL     1       8.432  -6.100  -9.442  1.00  0.00     0.012 A 
ATOM      4  C   UNL     1       7.205  -4.039 -10.880  1.00  0.00     0.047 A 
ATOM      5  C   UNL     1       7.559  -5.219  -8.795  1.00  0.00     0.047 A 
ATOM      6  C   UNL     1       6.940  -4.188  -9.516  1.00  0.00     0.115 A 
ENDROOT
BRANCH   1   7
ATOM      7  C   UNL     1       9.645  -6.882 -11.467  1.00  0.00     0.010 C 
ATOM      8  C   UNL     1      10.981  -6.796 -11.369  1.00  0.00     0.025 C 
BRANCH   8   9
ATOM      9  C   UNL     1      11.730  -5.685 -10.750  1.00  0.00     0.064 C 
ATOM     10  O   UNL     1      12.247  -5.794  -9.607  1.00  0.00    -0.545 OA
ATOM     11  O   UNL     1      11.808  -4.469 -11.416  1.00  0.00    -0.545 OA
ENDBRANCH   8   9
ENDBRANCH   1   7
BRANCH   6  12
ATOM     12  O   UNL     1       6.067  -3.306  -8.883  1.00  0.00    -0.508 OA
ATOM     13  H   UNL     1       5.066  -3.349  -9.036  1.00  0.00     0.293 HD
ENDBRANCH   6  12
TORSDOF 3
ENDMDL
MODEL 7
REMARK VINA RESULT:    -4.315      8.710     10.542
REMARK INTER + INTRA:          -5.182
REMARK INTER:                  -4.947
REMARK INTRA:                  -0.235
REMARK UNBOUND:                -0.236
REMARK SMILES O=C([O-])C=Cc1ccc(O)cc1
REMARK SMILES IDX 6 1 7 2 12 3 8 4 11 5 9 6 5 7 4 8 2 9 1 10 3 11 10 12
REMARK H PARENT 10 13
REMARK Flexibility Score: inf
ROOT
ATOM      1  C   UNL     1      14.164   4.030  -5.294  1.00  0.00    -0.025 A 
ATOM      2  C   UNL     1      12.831   3.942  -5.733  1.00  0.00     0.012 A 
ATOM      3  C   UNL     1      14.521   3.451  -4.067  1.00  0.00     0.012 A 
ATOM      4  C   UNL     1      11.885   3.242  -4.979  1.00  0.00     0.047 A 
ATOM      5  C   UNL     1      13.573   2.751  -3.313  1.00  0.00     0.047 A 
ATOM      6  C   UNL     1      12.253   2.641  -3.771  1.00  0.00     0.115 A 
ENDROOT
BRANCH   1   7
ATOM      7  C   UNL     1      15.169   4.810  -6.046  1.00  0.00     0.010 C 
ATOM      8  C   UNL     1      15.884   4.359  -7.088  1.00  0.00     0.025 C 
BRANCH   8   9
ATOM      9  C   UNL     1      15.934   2.961  -7.558  1.00  0.00     0.064 C 
ATOM     10  O   UNL     1      16.972   2.259  -7.433  1.00  0.00    -0.545 OA
ATOM     11  O   UNL     1      14.831   2.429  -8.215  1.00  0.00    -0.545 OA
ENDBRANCH   8   9
ENDBRANCH   1   7
BRANCH   6  12
ATOM     12  O   UNL     1      11.301   1.945  -3.030  1.00  0.00    -0.508 OA
ATOM     13  H   UNL     1      11.319   1.938  -2.017  1.00  0.00     0.293 HD
ENDBRANCH   6  12
TORSDOF 3
ENDMDL
MODEL 8
REMARK VINA RESULT:    -4.177     11.031     13.714
REMARK INTER + INTRA:          -5.024
REMARK INTER:                  -4.739
REMARK INTRA:                  -0.284
REMARK UNBOUND:                -0.236
REMARK SMILES O=C([O-])C=Cc1ccc(O)cc1
REMARK SMILES IDX 6 1 7 2 12 3 8 4 11 5 9 6 5 7 4 8 2 9 1 10 3 11 10 12
REMARK H PARENT 10 13
REMARK Flexibility Score: inf
ROOT
ATOM      1  C   UNL     1       9.948  -5.840  -9.242  1.00  0.00    -0.025 A 
ATOM      2  C   UNL     1       9.104  -5.274 -10.214  1.00  0.00     0.012 A 
ATOM      3  C   UNL     1       9.493  -5.950  -7.919  1.00  0.00     0.012 A 
ATOM      4  C   UNL     1       7.809  -4.872  -9.874  1.00  0.00     0.047 A 
ATOM      5  C   UNL     1       8.197  -5.547  -7.581  1.00  0.00     0.047 A 
ATOM      6  C   UNL     1       7.350  -5.010  -8.561  1.00  0.00     0.115 A 
ENDROOT
BRANCH   1   7
ATOM      7  C   UNL     1      11.339  -6.222  -9.564  1.00  0.00     0.010 C 
ATOM      8  C   UNL     1      11.725  -7.409 -10.056  1.00  0.00     0.025 C 
BRANCH   8   9
ATOM      9  C   UNL     1      10.870  -8.604 -10.197  1.00  0.00     0.064 C 
ATOM     10  O   UNL     1      10.101  -8.752 -11.183  1.00  0.00    -0.545 OA
ATOM     11  O   UNL     1      10.866  -9.555  -9.185  1.00  0.00    -0.545 OA
ENDBRANCH   8   9
ENDBRANCH   1   7
BRANCH   6  12
ATOM     12  O   UNL     1       6.056  -4.607  -8.237  1.00  0.00    -0.508 OA
ATOM     13  H   UNL     1       5.440  -4.198  -8.929  1.00  0.00     0.293 HD
ENDBRANCH   6  12
TORSDOF 3
ENDMDL
MODEL 9
REMARK VINA RESULT:    -4.175     19.841     20.948
REMARK INTER + INTRA:          -5.021
REMARK INTER:                  -4.742
REMARK INTRA:                  -0.279
REMARK UNBOUND:                -0.236
REMARK SMILES O=C([O-])C=Cc1ccc(O)cc1
REMARK SMILES IDX 6 1 7 2 12 3 8 4 11 5 9 6 5 7 4 8 2 9 1 10 3 11 10 12
REMARK H PARENT 10 13
REMARK Flexibility Score: inf
ROOT
ATOM      1  C   UNL     1      23.610   7.485 -19.168  1.00  0.00    -0.025 A 
ATOM      2  C   UNL     1      22.762   7.477 -20.290  1.00  0.00     0.012 A 
ATOM      3  C   UNL     1      23.889   6.278 -18.511  1.00  0.00     0.012 A 
ATOM      4  C   UNL     1      22.245   6.272 -20.774  1.00  0.00     0.047 A 
ATOM      5  C   UNL     1      23.371   5.073 -18.996  1.00  0.00     0.047 A 
ATOM      6  C   UNL     1      22.550   5.067 -20.132  1.00  0.00     0.115 A 
ENDROOT
BRANCH   1   7
ATOM      7  C   UNL     1      24.125   8.752 -18.606  1.00  0.00     0.010 C 
ATOM      8  C   UNL     1      23.503   9.503 -17.684  1.00  0.00     0.025 C 
BRANCH   8   9
ATOM      9  C   UNL     1      22.124   9.305 -17.198  1.00  0.00     0.064 C 
ATOM     10  O   UNL     1      21.164   9.991 -17.638  1.00  0.00    -0.545 OA
ATOM     11  O   UNL     1      21.891   8.386 -16.183  1.00  0.00    -0.545 OA
ENDBRANCH   8   9
ENDBRANCH   1   7
BRANCH   6  12
ATOM     12  O   UNL     1      22.029   3.873 -20.625  1.00  0.00    -0.508 OA
ATOM     13  H   UNL     1      21.657   3.162 -20.007  1.00  0.00     0.293 HD
ENDBRANCH   6  12
TORSDOF 3
ENDMDL
