MODEL 1
REMARK VINA RESULT:    -6.064      0.000      0.000
REMARK INTER + INTRA:          -6.819
REMARK INTER:                  -7.305
REMARK INTRA:                   0.486
REMARK UNBOUND:                 0.486
REMARK SMILES O=c1c(O)c(-c2ccc(O)c(O)c2)oc2cc(O)cc(O)c12
REMARK SMILES IDX 5 1 3 2 2 3 1 4 22 5 20 6 19 7 17 8 16 9 15 10 14 11 6 12
REMARK SMILES IDX 7 13 8 14 9 15 13 16 11 17 10 18 12 20 4 22 21 24 18 26
REMARK H PARENT 10 19 12 21 4 23 21 25 18 27
REMARK Flexibility Score: inf
ROOT
ATOM      1  C   UNL     1     -38.762 -19.170  59.853  1.00  0.00     0.180 A 
ATOM      2  C   UNL     1     -38.157 -17.934  59.567  1.00  0.00     0.208 A 
ATOM      3  C   UNL     1     -38.866 -16.751  59.833  1.00  0.00     0.238 A 
ATOM      4  O   UNL     1     -38.299 -15.647  59.625  1.00  0.00    -0.285 OA
ATOM      5  C   UNL     1     -40.175 -16.820  60.368  1.00  0.00     0.111 A 
ATOM      6  C   UNL     1     -41.000 -15.687  60.639  1.00  0.00     0.134 A 
ATOM      7  C   UNL     1     -42.227 -15.865  61.289  1.00  0.00     0.093 A 
ATOM      8  C   UNL     1     -42.688 -17.139  61.619  1.00  0.00     0.123 A 
ATOM      9  C   UNL     1     -41.917 -18.259  61.304  1.00  0.00     0.094 A 
ATOM     10  C   UNL     1     -40.672 -18.109  60.689  1.00  0.00     0.146 A 
ATOM     11  O   UNL     1     -39.964 -19.200  60.416  1.00  0.00    -0.452 OA
ENDROOT
BRANCH   1  12
ATOM     12  C   UNL     1     -38.088 -20.460  59.578  1.00  0.00     0.025 A 
ATOM     13  C   UNL     1     -38.795 -21.673  59.600  1.00  0.00     0.016 A 
ATOM     14  C   UNL     1     -38.134 -22.879  59.362  1.00  0.00     0.051 A 
ATOM     15  C   UNL     1     -36.758 -22.902  59.110  1.00  0.00     0.157 A 
ATOM     16  C   UNL     1     -36.704 -20.482  59.349  1.00  0.00     0.062 A 
ATOM     17  C   UNL     1     -36.032 -21.687  59.108  1.00  0.00     0.158 A 
BRANCH  15  18
ATOM     18  O   UNL     1     -36.158 -24.141  58.875  1.00  0.00    -0.504 OA
ATOM     19  H   UNL     1     -36.242 -24.935  59.492  1.00  0.00     0.293 HD
ENDBRANCH  15  18
BRANCH  17  20
ATOM     20  O   UNL     1     -34.656 -21.631  58.875  1.00  0.00    -0.504 OA
ATOM     21  H   UNL     1     -34.179 -20.826  58.496  1.00  0.00     0.293 HD
ENDBRANCH  17  20
ENDBRANCH   1  12
BRANCH   2  22
ATOM     22  O   UNL     1     -36.856 -17.888  59.059  1.00  0.00    -0.502 OA
ATOM     23  H   UNL     1     -36.038 -17.931  59.655  1.00  0.00     0.293 HD
ENDBRANCH   2  22
BRANCH   6  24
ATOM     24  O   UNL     1     -40.675 -14.378  60.268  1.00  0.00    -0.507 OA
ATOM     25  H   UNL     1     -40.156 -14.127  59.441  1.00  0.00     0.293 HD
ENDBRANCH   6  24
BRANCH   8  26
ATOM     26  O   UNL     1     -43.922 -17.282  62.251  1.00  0.00    -0.508 OA
ATOM     27  H   UNL     1     -44.781 -16.974  61.811  1.00  0.00     0.293 HD
ENDBRANCH   8  26
TORSDOF 6
ENDMDL
MODEL 2
REMARK VINA RESULT:    -5.929      2.432      4.461
REMARK INTER + INTRA:          -6.657
REMARK INTER:                  -6.803
REMARK INTRA:                   0.147
REMARK UNBOUND:                 0.486
REMARK SMILES O=c1c(O)c(-c2ccc(O)c(O)c2)oc2cc(O)cc(O)c12
REMARK SMILES IDX 5 1 3 2 2 3 1 4 22 5 20 6 19 7 17 8 16 9 15 10 14 11 6 12
REMARK SMILES IDX 7 13 8 14 9 15 13 16 11 17 10 18 12 20 4 22 21 24 18 26
REMARK H PARENT 10 19 12 21 4 23 21 25 18 27
REMARK Flexibility Score: inf
ROOT
ATOM      1  C   UNL     1     -41.504 -16.719  60.724  1.00  0.00     0.180 A 
ATOM      2  C   UNL     1     -41.765 -15.360  60.967  1.00  0.00     0.208 A 
ATOM      3  C   UNL     1     -43.051 -14.977  61.382  1.00  0.00     0.238 A 
ATOM      4  O   UNL     1     -43.264 -13.766  61.649  1.00  0.00    -0.285 OA
ATOM      5  C   UNL     1     -44.062 -15.955  61.534  1.00  0.00     0.111 A 
ATOM      6  C   UNL     1     -45.411 -15.675  61.911  1.00  0.00     0.134 A 
ATOM      7  C   UNL     1     -46.293 -16.734  62.158  1.00  0.00     0.093 A 
ATOM      8  C   UNL     1     -45.896 -18.059  61.979  1.00  0.00     0.123 A 
ATOM      9  C   UNL     1     -44.597 -18.342  61.553  1.00  0.00     0.094 A 
ATOM     10  C   UNL     1     -43.684 -17.308  61.334  1.00  0.00     0.146 A 
ATOM     11  O   UNL     1     -42.455 -17.621  60.939  1.00  0.00    -0.452 OA
ENDROOT
BRANCH   1  12
ATOM     12  C   UNL     1     -40.181 -17.197  60.261  1.00  0.00     0.025 A 
ATOM     13  C   UNL     1     -39.413 -16.453  59.351  1.00  0.00     0.016 A 
ATOM     14  C   UNL     1     -38.180 -16.934  58.909  1.00  0.00     0.051 A 
ATOM     15  C   UNL     1     -37.694 -18.169  59.353  1.00  0.00     0.157 A 
ATOM     16  C   UNL     1     -39.707 -18.446  60.690  1.00  0.00     0.062 A 
ATOM     17  C   UNL     1     -38.471 -18.937  60.253  1.00  0.00     0.158 A 
BRANCH  15  18
ATOM     18  O   UNL     1     -36.452 -18.592  58.877  1.00  0.00    -0.504 OA
ATOM     19  H   UNL     1     -35.665 -17.977  58.731  1.00  0.00     0.293 HD
ENDBRANCH  15  18
BRANCH  17  20
ATOM     20  O   UNL     1     -38.057 -20.182  60.733  1.00  0.00    -0.504 OA
ATOM     21  H   UNL     1     -37.828 -20.367  61.698  1.00  0.00     0.293 HD
ENDBRANCH  17  20
ENDBRANCH   1  12
BRANCH   2  22
ATOM     22  O   UNL     1     -40.747 -14.413  60.831  1.00  0.00    -0.502 OA
ATOM     23  H   UNL     1     -39.843 -14.517  61.278  1.00  0.00     0.293 HD
ENDBRANCH   2  22
BRANCH   6  24
ATOM     24  O   UNL     1     -45.937 -14.385  62.029  1.00  0.00    -0.507 OA
ATOM     25  H   UNL     1     -45.572 -13.669  62.638  1.00  0.00     0.293 HD
ENDBRANCH   6  24
BRANCH   8  26
ATOM     26  O   UNL     1     -46.805 -19.087  62.219  1.00  0.00    -0.508 OA
ATOM     27  H   UNL     1     -47.379 -19.471  61.477  1.00  0.00     0.293 HD
ENDBRANCH   8  26
TORSDOF 6
ENDMDL
MODEL 3
REMARK VINA RESULT:    -5.923      5.546      8.684
REMARK INTER + INTRA:          -6.649
REMARK INTER:                  -6.375
REMARK INTRA:                  -0.274
REMARK UNBOUND:                 0.486
REMARK SMILES O=c1c(O)c(-c2ccc(O)c(O)c2)oc2cc(O)cc(O)c12
REMARK SMILES IDX 5 1 3 2 2 3 1 4 22 5 20 6 19 7 17 8 16 9 15 10 14 11 6 12
REMARK SMILES IDX 7 13 8 14 9 15 13 16 11 17 10 18 12 20 4 22 21 24 18 26
REMARK H PARENT 10 19 12 21 4 23 21 25 18 27
REMARK Flexibility Score: inf
ROOT
ATOM      1  C   UNL     1     -44.975 -18.357  60.799  1.00  0.00     0.180 A 
ATOM      2  C   UNL     1     -44.033 -18.921  59.922  1.00  0.00     0.208 A 
ATOM      3  C   UNL     1     -44.052 -20.307  59.702  1.00  0.00     0.238 A 
ATOM      4  O   UNL     1     -43.240 -20.799  58.875  1.00  0.00    -0.285 OA
ATOM      5  C   UNL     1     -45.002 -21.114  60.372  1.00  0.00     0.111 A 
ATOM      6  C   UNL     1     -45.086 -22.535  60.256  1.00  0.00     0.134 A 
ATOM      7  C   UNL     1     -46.148 -23.216  60.863  1.00  0.00     0.093 A 
ATOM      8  C   UNL     1     -47.090 -22.539  61.635  1.00  0.00     0.123 A 
ATOM      9  C   UNL     1     -46.983 -21.157  61.806  1.00  0.00     0.094 A 
ATOM     10  C   UNL     1     -45.956 -20.446  61.183  1.00  0.00     0.146 A 
ATOM     11  O   UNL     1     -45.896 -19.131  61.362  1.00  0.00    -0.452 OA
ENDROOT
BRANCH   1  12
ATOM     12  C   UNL     1     -45.003 -16.907  61.100  1.00  0.00     0.025 A 
ATOM     13  C   UNL     1     -45.938 -16.053  60.493  1.00  0.00     0.016 A 
ATOM     14  C   UNL     1     -45.930 -14.685  60.773  1.00  0.00     0.051 A 
ATOM     15  C   UNL     1     -44.986 -14.142  61.651  1.00  0.00     0.157 A 
ATOM     16  C   UNL     1     -44.041 -16.361  61.963  1.00  0.00     0.062 A 
ATOM     17  C   UNL     1     -44.025 -14.991  62.251  1.00  0.00     0.158 A 
BRANCH  15  18
ATOM     18  O   UNL     1     -45.034 -12.767  61.893  1.00  0.00    -0.504 OA
ATOM     19  H   UNL     1     -44.314 -12.119  61.609  1.00  0.00     0.293 HD
ENDBRANCH  15  18
BRANCH  17  20
ATOM     20  O   UNL     1     -43.046 -14.520  63.129  1.00  0.00    -0.504 OA
ATOM     21  H   UNL     1     -42.805 -13.546  63.235  1.00  0.00     0.293 HD
ENDBRANCH  17  20
ENDBRANCH   1  12
BRANCH   2  22
ATOM     22  O   UNL     1     -43.117 -18.104  59.253  1.00  0.00    -0.502 OA
ATOM     23  H   UNL     1     -42.152 -18.374  59.106  1.00  0.00     0.293 HD
ENDBRANCH   2  22
BRANCH   6  24
ATOM     24  O   UNL     1     -44.144 -23.320  59.583  1.00  0.00    -0.507 OA
ATOM     25  H   UNL     1     -44.238 -23.640  58.631  1.00  0.00     0.293 HD
ENDBRANCH   6  24
BRANCH   8  26
ATOM     26  O   UNL     1     -48.125 -23.251  62.238  1.00  0.00    -0.508 OA
ATOM     27  H   UNL     1     -48.346 -23.135  63.220  1.00  0.00     0.293 HD
ENDBRANCH   8  26
TORSDOF 6
ENDMDL
MODEL 4
REMARK VINA RESULT:    -5.901      6.061      7.276
REMARK INTER + INTRA:          -6.623
REMARK INTER:                  -6.407
REMARK INTRA:                  -0.215
REMARK UNBOUND:                 0.486
REMARK SMILES O=c1c(O)c(-c2ccc(O)c(O)c2)oc2cc(O)cc(O)c12
REMARK SMILES IDX 5 1 3 2 2 3 1 4 22 5 20 6 19 7 17 8 16 9 15 10 14 11 6 12
REMARK SMILES IDX 7 13 8 14 9 15 13 16 11 17 10 18 12 20 4 22 21 24 18 26
REMARK H PARENT 10 19 12 21 4 23 21 25 18 27
REMARK Flexibility Score: inf
ROOT
ATOM      1  C   UNL     1     -45.418 -17.913  61.003  1.00  0.00     0.180 A 
ATOM      2  C   UNL     1     -44.254 -17.411  61.610  1.00  0.00     0.208 A 
ATOM      3  C   UNL     1     -43.973 -16.039  61.515  1.00  0.00     0.238 A 
ATOM      4  O   UNL     1     -42.958 -15.586  62.105  1.00  0.00    -0.285 OA
ATOM      5  C   UNL     1     -44.851 -15.189  60.800  1.00  0.00     0.111 A 
ATOM      6  C   UNL     1     -44.645 -13.790  60.605  1.00  0.00     0.134 A 
ATOM      7  C   UNL     1     -45.644 -13.023  59.993  1.00  0.00     0.093 A 
ATOM      8  C   UNL     1     -46.812 -13.613  59.513  1.00  0.00     0.123 A 
ATOM      9  C   UNL     1     -46.998 -14.990  59.644  1.00  0.00     0.094 A 
ATOM     10  C   UNL     1     -46.035 -15.775  60.283  1.00  0.00     0.146 A 
ATOM     11  O   UNL     1     -46.255 -17.080  60.397  1.00  0.00    -0.452 OA
ENDROOT
BRANCH   1  12
ATOM     12  C   UNL     1     -45.768 -19.352  61.041  1.00  0.00     0.025 A 
ATOM     13  C   UNL     1     -46.832 -19.824  61.827  1.00  0.00     0.016 A 
ATOM     14  C   UNL     1     -47.129 -21.187  61.866  1.00  0.00     0.051 A 
ATOM     15  C   UNL     1     -46.368 -22.106  61.135  1.00  0.00     0.157 A 
ATOM     16  C   UNL     1     -44.990 -20.273  60.325  1.00  0.00     0.062 A 
ATOM     17  C   UNL     1     -45.280 -21.642  60.357  1.00  0.00     0.158 A 
BRANCH  15  18
ATOM     18  O   UNL     1     -46.720 -23.455  61.214  1.00  0.00    -0.504 OA
ATOM     19  H   UNL     1     -46.641 -24.011  62.053  1.00  0.00     0.293 HD
ENDBRANCH  15  18
BRANCH  17  20
ATOM     20  O   UNL     1     -44.469 -22.499  59.609  1.00  0.00    -0.504 OA
ATOM     21  H   UNL     1     -43.673 -22.993  59.985  1.00  0.00     0.293 HD
ENDBRANCH  17  20
ENDBRANCH   1  12
BRANCH   2  22
ATOM     22  O   UNL     1     -43.412 -18.264  62.329  1.00  0.00    -0.502 OA
ATOM     23  H   UNL     1     -43.755 -19.078  62.825  1.00  0.00     0.293 HD
ENDBRANCH   2  22
BRANCH   6  24
ATOM     24  O   UNL     1     -43.474 -13.116  60.965  1.00  0.00    -0.507 OA
ATOM     25  H   UNL     1     -43.026 -13.183  61.866  1.00  0.00     0.293 HD
ENDBRANCH   6  24
BRANCH   8  26
ATOM     26  O   UNL     1     -47.779 -12.822  58.895  1.00  0.00    -0.508 OA
ATOM     27  H   UNL     1     -48.765 -13.040  58.965  1.00  0.00     0.293 HD
ENDBRANCH   8  26
TORSDOF 6
ENDMDL
MODEL 5
REMARK VINA RESULT:    -5.897      2.845      6.804
REMARK INTER + INTRA:          -6.618
REMARK INTER:                  -6.385
REMARK INTRA:                  -0.233
REMARK UNBOUND:                 0.486
REMARK SMILES O=c1c(O)c(-c2ccc(O)c(O)c2)oc2cc(O)cc(O)c12
REMARK SMILES IDX 5 1 3 2 2 3 1 4 22 5 20 6 19 7 17 8 16 9 15 10 14 11 6 12
REMARK SMILES IDX 7 13 8 14 9 15 13 16 11 17 10 18 12 20 4 22 21 24 18 26
REMARK H PARENT 10 19 12 21 4 23 21 25 18 27
REMARK Flexibility Score: inf
ROOT
ATOM      1  C   UNL     1     -42.973 -18.199  60.611  1.00  0.00     0.180 A 
ATOM      2  C   UNL     1     -42.778 -16.840  60.310  1.00  0.00     0.208 A 
ATOM      3  C   UNL     1     -41.469 -16.360  60.143  1.00  0.00     0.238 A 
ATOM      4  O   UNL     1     -41.303 -15.155  59.821  1.00  0.00    -0.285 OA
ATOM      5  C   UNL     1     -40.372 -17.241  60.294  1.00  0.00     0.111 A 
ATOM      6  C   UNL     1     -39.001 -16.855  60.186  1.00  0.00     0.134 A 
ATOM      7  C   UNL     1     -38.002 -17.835  60.225  1.00  0.00     0.093 A 
ATOM      8  C   UNL     1     -38.318 -19.177  60.432  1.00  0.00     0.123 A 
ATOM      9  C   UNL     1     -39.650 -19.559  60.598  1.00  0.00     0.094 A 
ATOM     10  C   UNL     1     -40.671 -18.608  60.528  1.00  0.00     0.146 A 
ATOM     11  O   UNL     1     -41.927 -19.014  60.681  1.00  0.00    -0.452 OA
ENDROOT
BRANCH   1  12
ATOM     12  C   UNL     1     -44.321 -18.773  60.825  1.00  0.00     0.025 A 
ATOM     13  C   UNL     1     -45.086 -18.439  61.954  1.00  0.00     0.016 A 
ATOM     14  C   UNL     1     -46.345 -19.011  62.148  1.00  0.00     0.051 A 
ATOM     15  C   UNL     1     -46.859 -19.935  61.231  1.00  0.00     0.157 A 
ATOM     16  C   UNL     1     -44.824 -19.716  59.917  1.00  0.00     0.062 A 
ATOM     17  C   UNL     1     -46.086 -20.295  60.102  1.00  0.00     0.158 A 
BRANCH  15  18
ATOM     18  O   UNL     1     -48.125 -20.468  61.481  1.00  0.00    -0.504 OA
ATOM     19  H   UNL     1     -48.567 -21.166  60.903  1.00  0.00     0.293 HD
ENDBRANCH  15  18
BRANCH  17  20
ATOM     20  O   UNL     1     -46.527 -21.217  59.150  1.00  0.00    -0.504 OA
ATOM     21  H   UNL     1     -47.448 -21.205  58.737  1.00  0.00     0.293 HD
ENDBRANCH  17  20
ENDBRANCH   1  12
BRANCH   2  22
ATOM     22  O   UNL     1     -43.877 -15.992  60.144  1.00  0.00    -0.502 OA
ATOM     23  H   UNL     1     -44.583 -16.149  59.435  1.00  0.00     0.293 HD
ENDBRANCH   2  22
BRANCH   6  24
ATOM     24  O   UNL     1     -38.571 -15.530  60.069  1.00  0.00    -0.507 OA
ATOM     25  H   UNL     1     -38.206 -14.975  60.828  1.00  0.00     0.293 HD
ENDBRANCH   6  24
BRANCH   8  26
ATOM     26  O   UNL     1     -37.297 -20.124  60.481  1.00  0.00    -0.508 OA
ATOM     27  H   UNL     1     -37.082 -20.629  61.333  1.00  0.00     0.293 HD
ENDBRANCH   8  26
TORSDOF 6
ENDMDL
MODEL 6
REMARK VINA RESULT:    -5.825      5.295      7.128
REMARK INTER + INTRA:          -6.531
REMARK INTER:                  -6.211
REMARK INTRA:                  -0.320
REMARK UNBOUND:                 0.486
REMARK SMILES O=c1c(O)c(-c2ccc(O)c(O)c2)oc2cc(O)cc(O)c12
REMARK SMILES IDX 5 1 3 2 2 3 1 4 22 5 20 6 19 7 17 8 16 9 15 10 14 11 6 12
REMARK SMILES IDX 7 13 8 14 9 15 13 16 11 17 10 18 12 20 4 22 21 24 18 26
REMARK H PARENT 10 19 12 21 4 23 21 25 18 27
REMARK Flexibility Score: inf
ROOT
ATOM      1  C   UNL     1     -44.374 -17.168  60.951  1.00  0.00     0.180 A 
ATOM      2  C   UNL     1     -43.014 -17.274  61.285  1.00  0.00     0.208 A 
ATOM      3  C   UNL     1     -42.192 -16.142  61.164  1.00  0.00     0.238 A 
ATOM      4  O   UNL     1     -40.986 -16.229  61.516  1.00  0.00    -0.285 OA
ATOM      5  C   UNL     1     -42.737 -14.923  60.695  1.00  0.00     0.111 A 
ATOM      6  C   UNL     1     -41.989 -13.723  60.495  1.00  0.00     0.134 A 
ATOM      7  C   UNL     1     -42.657 -12.542  60.152  1.00  0.00     0.093 A 
ATOM      8  C   UNL     1     -44.035 -12.529  59.939  1.00  0.00     0.123 A 
ATOM      9  C   UNL     1     -44.768 -13.709  60.073  1.00  0.00     0.094 A 
ATOM     10  C   UNL     1     -44.135 -14.895  60.450  1.00  0.00     0.146 A 
ATOM     11  O   UNL     1     -44.870 -15.994  60.577  1.00  0.00    -0.452 OA
ENDROOT
BRANCH   1  12
ATOM     12  C   UNL     1     -45.298 -18.323  61.030  1.00  0.00     0.025 A 
ATOM     13  C   UNL     1     -46.040 -18.586  62.192  1.00  0.00     0.016 A 
ATOM     14  C   UNL     1     -46.886 -19.695  62.253  1.00  0.00     0.051 A 
ATOM     15  C   UNL     1     -46.999 -20.568  61.165  1.00  0.00     0.157 A 
ATOM     16  C   UNL     1     -45.392 -19.209  59.946  1.00  0.00     0.062 A 
ATOM     17  C   UNL     1     -46.239 -20.323  59.997  1.00  0.00     0.158 A 
BRANCH  15  18
ATOM     18  O   UNL     1     -47.866 -21.656  61.288  1.00  0.00    -0.504 OA
ATOM     19  H   UNL     1     -47.796 -22.498  60.736  1.00  0.00     0.293 HD
ENDBRANCH  15  18
BRANCH  17  20
ATOM     20  O   UNL     1     -46.291 -21.154  58.876  1.00  0.00    -0.504 OA
ATOM     21  H   UNL     1     -45.973 -22.112  58.868  1.00  0.00     0.293 HD
ENDBRANCH  17  20
ENDBRANCH   1  12
BRANCH   2  22
ATOM     22  O   UNL     1     -42.499 -18.481  61.767  1.00  0.00    -0.502 OA
ATOM     23  H   UNL     1     -41.643 -18.889  61.410  1.00  0.00     0.293 HD
ENDBRANCH   2  22
BRANCH   6  24
ATOM     24  O   UNL     1     -40.596 -13.647  60.592  1.00  0.00    -0.507 OA
ATOM     25  H   UNL     1     -40.025 -14.263  61.150  1.00  0.00     0.293 HD
ENDBRANCH   6  24
BRANCH   8  26
ATOM     26  O   UNL     1     -44.665 -11.338  59.583  1.00  0.00    -0.508 OA
ATOM     27  H   UNL     1     -44.136 -10.529  59.279  1.00  0.00     0.293 HD
ENDBRANCH   8  26
TORSDOF 6
ENDMDL
MODEL 7
REMARK VINA RESULT:    -5.825      2.592      7.530
REMARK INTER + INTRA:          -6.531
REMARK INTER:                  -6.309
REMARK INTRA:                  -0.222
REMARK UNBOUND:                 0.486
REMARK SMILES O=c1c(O)c(-c2ccc(O)c(O)c2)oc2cc(O)cc(O)c12
REMARK SMILES IDX 5 1 3 2 2 3 1 4 22 5 20 6 19 7 17 8 16 9 15 10 14 11 6 12
REMARK SMILES IDX 7 13 8 14 9 15 13 16 11 17 10 18 12 20 4 22 21 24 18 26
REMARK H PARENT 10 19 12 21 4 23 21 25 18 27
REMARK Flexibility Score: inf
ROOT
ATOM      1  C   UNL     1     -42.445 -15.967  60.309  1.00  0.00     0.180 A 
ATOM      2  C   UNL     1     -41.638 -14.906  59.864  1.00  0.00     0.208 A 
ATOM      3  C   UNL     1     -40.256 -15.112  59.727  1.00  0.00     0.238 A 
ATOM      4  O   UNL     1     -39.546 -14.175  59.278  1.00  0.00    -0.285 OA
ATOM      5  C   UNL     1     -39.696 -16.371  60.052  1.00  0.00     0.111 A 
ATOM      6  C   UNL     1     -38.304 -16.680  59.990  1.00  0.00     0.134 A 
ATOM      7  C   UNL     1     -37.878 -17.995  60.208  1.00  0.00     0.093 A 
ATOM      8  C   UNL     1     -38.783 -18.999  60.550  1.00  0.00     0.123 A 
ATOM      9  C   UNL     1     -40.140 -18.695  60.673  1.00  0.00     0.094 A 
ATOM     10  C   UNL     1     -40.600 -17.400  60.425  1.00  0.00     0.146 A 
ATOM     11  O   UNL     1     -41.900 -17.155  60.542  1.00  0.00    -0.452 OA
ENDROOT
BRANCH   1  12
ATOM     12  C   UNL     1     -43.906 -15.819  60.501  1.00  0.00     0.025 A 
ATOM     13  C   UNL     1     -44.431 -15.000  61.514  1.00  0.00     0.016 A 
ATOM     14  C   UNL     1     -45.811 -14.896  61.692  1.00  0.00     0.051 A 
ATOM     15  C   UNL     1     -46.693 -15.611  60.875  1.00  0.00     0.157 A 
ATOM     16  C   UNL     1     -44.788 -16.555  59.695  1.00  0.00     0.062 A 
ATOM     17  C   UNL     1     -46.174 -16.456  59.865  1.00  0.00     0.158 A 
BRANCH  15  18
ATOM     18  O   UNL     1     -48.063 -15.459  61.102  1.00  0.00    -0.504 OA
ATOM     19  H   UNL     1     -48.779 -15.912  60.555  1.00  0.00     0.293 HD
ENDBRANCH  15  18
BRANCH  17  20
ATOM     20  O   UNL     1     -46.991 -17.208  59.018  1.00  0.00    -0.504 OA
ATOM     21  H   UNL     1     -46.824 -17.325  58.030  1.00  0.00     0.293 HD
ENDBRANCH  17  20
ENDBRANCH   1  12
BRANCH   2  22
ATOM     22  O   UNL     1     -42.214 -13.677  59.528  1.00  0.00    -0.502 OA
ATOM     23  H   UNL     1     -43.037 -13.316  59.995  1.00  0.00     0.293 HD
ENDBRANCH   2  22
BRANCH   6  24
ATOM     24  O   UNL     1     -37.304 -15.733  59.746  1.00  0.00    -0.507 OA
ATOM     25  H   UNL     1     -37.150 -15.274  58.861  1.00  0.00     0.293 HD
ENDBRANCH   6  24
BRANCH   8  26
ATOM     26  O   UNL     1     -38.322 -20.294  60.776  1.00  0.00    -0.508 OA
ATOM     27  H   UNL     1     -37.604 -20.710  60.195  1.00  0.00     0.293 HD
ENDBRANCH   8  26
TORSDOF 6
ENDMDL
MODEL 8
REMARK VINA RESULT:    -5.813      4.069      7.136
REMARK INTER + INTRA:          -6.517
REMARK INTER:                  -6.233
REMARK INTRA:                  -0.283
REMARK UNBOUND:                 0.486
REMARK SMILES O=c1c(O)c(-c2ccc(O)c(O)c2)oc2cc(O)cc(O)c12
REMARK SMILES IDX 5 1 3 2 2 3 1 4 22 5 20 6 19 7 17 8 16 9 15 10 14 11 6 12
REMARK SMILES IDX 7 13 8 14 9 15 13 16 11 17 10 18 12 20 4 22 21 24 18 26
REMARK H PARENT 10 19 12 21 4 23 21 25 18 27
REMARK Flexibility Score: inf
ROOT
ATOM      1  C   UNL     1     -43.678 -18.112  60.722  1.00  0.00     0.180 A 
ATOM      2  C   UNL     1     -44.728 -17.723  61.571  1.00  0.00     0.208 A 
ATOM      3  C   UNL     1     -45.811 -18.597  61.758  1.00  0.00     0.238 A 
ATOM      4  O   UNL     1     -46.723 -18.267  62.561  1.00  0.00    -0.285 OA
ATOM      5  C   UNL     1     -45.838 -19.840  61.082  1.00  0.00     0.111 A 
ATOM      6  C   UNL     1     -46.904 -20.786  61.166  1.00  0.00     0.134 A 
ATOM      7  C   UNL     1     -46.765 -22.039  60.558  1.00  0.00     0.093 A 
ATOM      8  C   UNL     1     -45.628 -22.358  59.816  1.00  0.00     0.123 A 
ATOM      9  C   UNL     1     -44.605 -21.418  59.677  1.00  0.00     0.094 A 
ATOM     10  C   UNL     1     -44.700 -20.173  60.303  1.00  0.00     0.146 A 
ATOM     11  O   UNL     1     -43.700 -19.312  60.154  1.00  0.00    -0.452 OA
ENDROOT
BRANCH   1  12
ATOM     12  C   UNL     1     -42.514 -17.235  60.457  1.00  0.00     0.025 A 
ATOM     13  C   UNL     1     -42.616 -16.124  59.604  1.00  0.00     0.016 A 
ATOM     14  C   UNL     1     -41.500 -15.325  59.349  1.00  0.00     0.051 A 
ATOM     15  C   UNL     1     -40.261 -15.624  59.926  1.00  0.00     0.157 A 
ATOM     16  C   UNL     1     -41.268 -17.550  61.018  1.00  0.00     0.062 A 
ATOM     17  C   UNL     1     -40.142 -16.755  60.769  1.00  0.00     0.158 A 
BRANCH  15  18
ATOM     18  O   UNL     1     -39.184 -14.784  59.634  1.00  0.00    -0.504 OA
ATOM     19  H   UNL     1     -39.114 -14.228  58.794  1.00  0.00     0.293 HD
ENDBRANCH  15  18
BRANCH  17  20
ATOM     20  O   UNL     1     -38.937 -17.123  61.372  1.00  0.00    -0.504 OA
ATOM     21  H   UNL     1     -38.217 -17.660  60.912  1.00  0.00     0.293 HD
ENDBRANCH  17  20
ENDBRANCH   1  12
BRANCH   2  22
ATOM     22  O   UNL     1     -44.672 -16.500  62.246  1.00  0.00    -0.502 OA
ATOM     23  H   UNL     1     -45.003 -15.636  61.834  1.00  0.00     0.293 HD
ENDBRANCH   2  22
BRANCH   6  24
ATOM     24  O   UNL     1     -48.122 -20.534  61.806  1.00  0.00    -0.507 OA
ATOM     25  H   UNL     1     -49.005 -20.943  61.541  1.00  0.00     0.293 HD
ENDBRANCH   6  24
BRANCH   8  26
ATOM     26  O   UNL     1     -45.530 -23.609  59.211  1.00  0.00    -0.508 OA
ATOM     27  H   UNL     1     -45.959 -23.799  58.313  1.00  0.00     0.293 HD
ENDBRANCH   8  26
TORSDOF 6
ENDMDL
MODEL 9
REMARK VINA RESULT:    -5.724      1.913      7.103
REMARK INTER + INTRA:          -6.409
REMARK INTER:                  -6.193
REMARK INTRA:                  -0.216
REMARK UNBOUND:                 0.486
REMARK SMILES O=c1c(O)c(-c2ccc(O)c(O)c2)oc2cc(O)cc(O)c12
REMARK SMILES IDX 5 1 3 2 2 3 1 4 22 5 20 6 19 7 17 8 16 9 15 10 14 11 6 12
REMARK SMILES IDX 7 13 8 14 9 15 13 16 11 17 10 18 12 20 4 22 21 24 18 26
REMARK H PARENT 10 19 12 21 4 23 21 25 18 27
REMARK Flexibility Score: inf
ROOT
ATOM      1  C   UNL     1     -40.547 -16.620  59.946  1.00  0.00     0.180 A 
ATOM      2  C   UNL     1     -39.221 -16.267  59.645  1.00  0.00     0.208 A 
ATOM      3  C   UNL     1     -38.303 -17.279  59.325  1.00  0.00     0.238 A 
ATOM      4  O   UNL     1     -37.130 -16.953  59.004  1.00  0.00    -0.285 OA
ATOM      5  C   UNL     1     -38.717 -18.633  59.326  1.00  0.00     0.111 A 
ATOM      6  C   UNL     1     -37.862 -19.744  59.057  1.00  0.00     0.134 A 
ATOM      7  C   UNL     1     -38.409 -21.028  58.957  1.00  0.00     0.093 A 
ATOM      8  C   UNL     1     -39.767 -21.253  59.181  1.00  0.00     0.123 A 
ATOM      9  C   UNL     1     -40.602 -20.182  59.504  1.00  0.00     0.094 A 
ATOM     10  C   UNL     1     -40.092 -18.884  59.575  1.00  0.00     0.146 A 
ATOM     11  O   UNL     1     -40.922 -17.892  59.875  1.00  0.00    -0.452 OA
ENDROOT
BRANCH   1  12
ATOM     12  C   UNL     1     -41.567 -15.611  60.316  1.00  0.00     0.025 A 
ATOM     13  C   UNL     1     -42.069 -14.701  59.372  1.00  0.00     0.016 A 
ATOM     14  C   UNL     1     -43.012 -13.743  59.749  1.00  0.00     0.051 A 
ATOM     15  C   UNL     1     -43.462 -13.664  61.071  1.00  0.00     0.157 A 
ATOM     16  C   UNL     1     -41.999 -15.520  61.647  1.00  0.00     0.062 A 
ATOM     17  C   UNL     1     -42.945 -14.563  62.035  1.00  0.00     0.158 A 
BRANCH  15  18
ATOM     18  O   UNL     1     -44.409 -12.686  61.382  1.00  0.00    -0.504 OA
ATOM     19  H   UNL     1     -45.335 -12.650  60.982  1.00  0.00     0.293 HD
ENDBRANCH  15  18
BRANCH  17  20
ATOM     20  O   UNL     1     -43.339 -14.540  63.375  1.00  0.00    -0.504 OA
ATOM     21  H   UNL     1     -42.695 -14.544  64.152  1.00  0.00     0.293 HD
ENDBRANCH  17  20
ENDBRANCH   1  12
BRANCH   2  22
ATOM     22  O   UNL     1     -38.837 -14.923  59.628  1.00  0.00    -0.502 OA
ATOM     23  H   UNL     1     -38.768 -14.388  58.771  1.00  0.00     0.293 HD
ENDBRANCH   2  22
BRANCH   6  24
ATOM     24  O   UNL     1     -36.475 -19.642  58.908  1.00  0.00    -0.507 OA
ATOM     25  H   UNL     1     -35.948 -20.046  58.150  1.00  0.00     0.293 HD
ENDBRANCH   6  24
BRANCH   8  26
ATOM     26  O   UNL     1     -40.274 -22.547  59.089  1.00  0.00    -0.508 OA
ATOM     27  H   UNL     1     -41.118 -22.821  59.578  1.00  0.00     0.293 HD
ENDBRANCH   8  26
TORSDOF 6
ENDMDL
