MODEL 1
REMARK VINA RESULT:    -7.174      0.000      0.000
REMARK INTER + INTRA:          -8.520
REMARK INTER:                  -8.851
REMARK INTRA:                   0.331
REMARK UNBOUND:                 0.331
REMARK SMILES Oc1cc(O)c2cc(O)c(-c3cc(O)c(O)c(O)c3)[o+]c2c1
REMARK SMILES IDX 10 1 20 2 21 3 22 4 2 5 3 6 4 7 6 8 7 9 8 10 11 11 12 12
REMARK SMILES IDX 13 13 19 14 15 15 17 16 14 17 16 19 18 21 9 23 1 25 5 27
REMARK H PARENT 14 18 16 20 18 22 9 24 1 26 5 28
REMARK Flexibility Score: inf
ROOT
ATOM      1  C   UNL     1       9.567  13.234  23.393  1.00  0.00     0.402 A 
ATOM      2  O   UNL     1       9.678  11.908  23.422  1.00  0.00    -0.202 OA
ATOM      3  C   UNL     1       9.315  11.168  24.465  1.00  0.00     0.368 A 
ATOM      4  C   UNL     1       9.474   9.781  24.401  1.00  0.00     0.162 A 
ATOM      5  C   UNL     1       9.106   8.980  25.482  1.00  0.00     0.128 A 
ATOM      6  C   UNL     1       8.575   9.567  26.637  1.00  0.00     0.093 A 
ATOM      7  C   UNL     1       8.408  10.954  26.726  1.00  0.00     0.136 A 
ATOM      8  C   UNL     1       8.778  11.773  25.627  1.00  0.00     0.125 A 
ATOM      9  C   UNL     1       8.634  13.170  25.620  1.00  0.00     0.078 A 
ATOM     10  C   UNL     1       9.018  13.910  24.498  1.00  0.00     0.223 A 
ENDROOT
BRANCH   1  11
ATOM     11  C   UNL     1      10.015  13.947  22.175  1.00  0.00     0.091 A 
ATOM     12  C   UNL     1      10.182  15.342  22.164  1.00  0.00     0.068 A 
ATOM     13  C   UNL     1      10.628  15.997  21.008  1.00  0.00     0.162 A 
ATOM     14  C   UNL     1      10.333  13.213  21.023  1.00  0.00     0.068 A 
ATOM     15  C   UNL     1      10.923  15.255  19.852  1.00  0.00     0.200 A 
ATOM     16  C   UNL     1      10.777  13.858  19.864  1.00  0.00     0.162 A 
BRANCH  13  17
ATOM     17  O   UNL     1      10.785  17.383  21.007  1.00  0.00    -0.504 OA
ATOM     18  H   UNL     1      11.457  17.842  21.610  1.00  0.00     0.293 HD
ENDBRANCH  13  17
BRANCH  15  19
ATOM     19  O   UNL     1      11.364  15.892  18.691  1.00  0.00    -0.502 OA
ATOM     20  H   UNL     1      10.786  15.968  17.862  1.00  0.00     0.293 HD
ENDBRANCH  15  19
BRANCH  16  21
ATOM     21  O   UNL     1      11.069  13.093  18.735  1.00  0.00    -0.504 OA
ATOM     22  H   UNL     1      11.568  12.215  18.793  1.00  0.00     0.293 HD
ENDBRANCH  16  21
ENDBRANCH   1  11
BRANCH  10  23
ATOM     23  O   UNL     1       8.828  15.292  24.472  1.00  0.00    -0.500 OA
ATOM     24  H   UNL     1       8.014  15.709  24.036  1.00  0.00     0.294 HD
ENDBRANCH  10  23
BRANCH   5  25
ATOM     25  O   UNL     1       9.269   7.599  25.400  1.00  0.00    -0.507 OA
ATOM     26  H   UNL     1       8.989   6.986  26.157  1.00  0.00     0.293 HD
ENDBRANCH   5  25
BRANCH   7  27
ATOM     27  O   UNL     1       7.875  11.465  27.913  1.00  0.00    -0.507 OA
ATOM     28  H   UNL     1       7.328  10.929  28.570  1.00  0.00     0.293 HD
ENDBRANCH   7  27
TORSDOF 7
ENDMDL
MODEL 2
REMARK VINA RESULT:    -6.861      3.872      6.042
REMARK INTER + INTRA:          -8.134
REMARK INTER:                  -8.146
REMARK INTRA:                   0.012
REMARK UNBOUND:                 0.331
REMARK SMILES Oc1cc(O)c2cc(O)c(-c3cc(O)c(O)c(O)c3)[o+]c2c1
REMARK SMILES IDX 10 1 20 2 21 3 22 4 2 5 3 6 4 7 6 8 7 9 8 10 11 11 12 12
REMARK SMILES IDX 13 13 19 14 15 15 17 16 14 17 16 19 18 21 9 23 1 25 5 27
REMARK H PARENT 14 18 16 20 18 22 9 24 1 26 5 28
REMARK Flexibility Score: inf
ROOT
ATOM      1  C   UNL     1       9.821  17.133  22.836  1.00  0.00     0.402 A 
ATOM      2  O   UNL     1      10.051  16.806  24.105  1.00  0.00    -0.202 OA
ATOM      3  C   UNL     1       9.849  17.638  25.121  1.00  0.00     0.368 A 
ATOM      4  C   UNL     1      10.124  17.203  26.420  1.00  0.00     0.162 A 
ATOM      5  C   UNL     1       9.925  18.056  27.506  1.00  0.00     0.128 A 
ATOM      6  C   UNL     1       9.447  19.355  27.294  1.00  0.00     0.093 A 
ATOM      7  C   UNL     1       9.165  19.815  26.002  1.00  0.00     0.136 A 
ATOM      8  C   UNL     1       9.364  18.949  24.895  1.00  0.00     0.125 A 
ATOM      9  C   UNL     1       9.096  19.318  23.566  1.00  0.00     0.078 A 
ATOM     10  C   UNL     1       9.312  18.408  22.527  1.00  0.00     0.223 A 
ENDROOT
BRANCH   1  11
ATOM     11  C   UNL     1      10.095  16.120  21.791  1.00  0.00     0.091 A 
ATOM     12  C   UNL     1      10.714  16.468  20.579  1.00  0.00     0.068 A 
ATOM     13  C   UNL     1      10.986  15.491  19.611  1.00  0.00     0.162 A 
ATOM     14  C   UNL     1       9.782  14.774  22.035  1.00  0.00     0.068 A 
ATOM     15  C   UNL     1      10.648  14.149  19.855  1.00  0.00     0.200 A 
ATOM     16  C   UNL     1      10.047  13.793  21.075  1.00  0.00     0.162 A 
BRANCH  13  17
ATOM     17  O   UNL     1      11.596  15.850  18.409  1.00  0.00    -0.504 OA
ATOM     18  H   UNL     1      12.048  15.163  17.817  1.00  0.00     0.293 HD
ENDBRANCH  13  17
BRANCH  15  19
ATOM     19  O   UNL     1      10.907  13.165  18.900  1.00  0.00    -0.502 OA
ATOM     20  H   UNL     1      10.166  12.668  18.422  1.00  0.00     0.293 HD
ENDBRANCH  15  19
BRANCH  16  21
ATOM     21  O   UNL     1       9.708  12.468  21.350  1.00  0.00    -0.504 OA
ATOM     22  H   UNL     1       9.725  11.749  20.639  1.00  0.00     0.293 HD
ENDBRANCH  16  21
ENDBRANCH   1  11
BRANCH  10  23
ATOM     23  O   UNL     1       8.999  18.757  21.214  1.00  0.00    -0.500 OA
ATOM     24  H   UNL     1       8.478  19.599  20.997  1.00  0.00     0.294 HD
ENDBRANCH  10  23
BRANCH   5  25
ATOM     25  O   UNL     1      10.203  17.604  28.794  1.00  0.00    -0.507 OA
ATOM     26  H   UNL     1       9.542  17.036  29.310  1.00  0.00     0.293 HD
ENDBRANCH   5  25
BRANCH   7  27
ATOM     27  O   UNL     1       8.695  21.125  25.872  1.00  0.00    -0.507 OA
ATOM     28  H   UNL     1       8.005  21.546  26.476  1.00  0.00     0.293 HD
ENDBRANCH   7  27
TORSDOF 7
ENDMDL
MODEL 3
REMARK VINA RESULT:    -6.635      1.651      7.164
REMARK INTER + INTRA:          -7.856
REMARK INTER:                  -7.742
REMARK INTRA:                  -0.114
REMARK UNBOUND:                 0.331
REMARK SMILES Oc1cc(O)c2cc(O)c(-c3cc(O)c(O)c(O)c3)[o+]c2c1
REMARK SMILES IDX 10 1 20 2 21 3 22 4 2 5 3 6 4 7 6 8 7 9 8 10 11 11 12 12
REMARK SMILES IDX 13 13 19 14 15 15 17 16 14 17 16 19 18 21 9 23 1 25 5 27
REMARK H PARENT 14 18 16 20 18 22 9 24 1 26 5 28
REMARK Flexibility Score: inf
ROOT
ATOM      1  C   UNL     1       9.639  12.982  23.794  1.00  0.00     0.402 A 
ATOM      2  O   UNL     1       9.081  14.139  24.142  1.00  0.00    -0.202 OA
ATOM      3  C   UNL     1       9.293  15.276  23.489  1.00  0.00     0.368 A 
ATOM      4  C   UNL     1       8.664  16.442  23.934  1.00  0.00     0.162 A 
ATOM      5  C   UNL     1       8.871  17.652  23.271  1.00  0.00     0.128 A 
ATOM      6  C   UNL     1       9.715  17.700  22.155  1.00  0.00     0.093 A 
ATOM      7  C   UNL     1      10.357  16.546  21.690  1.00  0.00     0.136 A 
ATOM      8  C   UNL     1      10.147  15.313  22.360  1.00  0.00     0.125 A 
ATOM      9  C   UNL     1      10.739  14.104  21.958  1.00  0.00     0.078 A 
ATOM     10  C   UNL     1      10.480  12.927  22.667  1.00  0.00     0.223 A 
ENDROOT
BRANCH   1  11
ATOM     11  C   UNL     1       9.332  11.783  24.608  1.00  0.00     0.091 A 
ATOM     12  C   UNL     1       9.556  11.763  25.994  1.00  0.00     0.068 A 
ATOM     13  C   UNL     1       9.239  10.627  26.751  1.00  0.00     0.162 A 
ATOM     14  C   UNL     1       8.754  10.662  23.994  1.00  0.00     0.068 A 
ATOM     15  C   UNL     1       8.681   9.500  26.124  1.00  0.00     0.200 A 
ATOM     16  C   UNL     1       8.436   9.524  24.740  1.00  0.00     0.162 A 
BRANCH  13  17
ATOM     17  O   UNL     1       9.471  10.617  28.127  1.00  0.00    -0.504 OA
ATOM     18  H   UNL     1       8.743  10.856  28.790  1.00  0.00     0.293 HD
ENDBRANCH  13  17
BRANCH  15  19
ATOM     19  O   UNL     1       8.363   8.359  26.862  1.00  0.00    -0.502 OA
ATOM     20  H   UNL     1       8.598   8.266  27.842  1.00  0.00     0.293 HD
ENDBRANCH  15  19
BRANCH  16  21
ATOM     21  O   UNL     1       7.875   8.424  24.090  1.00  0.00    -0.504 OA
ATOM     22  H   UNL     1       7.310   8.521  23.256  1.00  0.00     0.293 HD
ENDBRANCH  16  21
ENDBRANCH   1  11
BRANCH  10  23
ATOM     23  O   UNL     1      11.027  11.717  22.238  1.00  0.00    -0.500 OA
ATOM     24  H   UNL     1      11.727  11.227  22.783  1.00  0.00     0.294 HD
ENDBRANCH  10  23
BRANCH   5  25
ATOM     25  O   UNL     1       8.234  18.803  23.729  1.00  0.00    -0.507 OA
ATOM     26  H   UNL     1       8.750  19.655  23.918  1.00  0.00     0.293 HD
ENDBRANCH   5  25
BRANCH   7  27
ATOM     27  O   UNL     1      11.186  16.676  20.572  1.00  0.00    -0.507 OA
ATOM     28  H   UNL     1      12.101  17.102  20.586  1.00  0.00     0.293 HD
ENDBRANCH   7  27
TORSDOF 7
ENDMDL
MODEL 4
REMARK VINA RESULT:    -6.605      1.597      7.323
REMARK INTER + INTRA:          -7.819
REMARK INTER:                  -7.914
REMARK INTRA:                   0.095
REMARK UNBOUND:                 0.331
REMARK SMILES Oc1cc(O)c2cc(O)c(-c3cc(O)c(O)c(O)c3)[o+]c2c1
REMARK SMILES IDX 10 1 20 2 21 3 22 4 2 5 3 6 4 7 6 8 7 9 8 10 11 11 12 12
REMARK SMILES IDX 13 13 19 14 15 15 17 16 14 17 16 19 18 21 9 23 1 25 5 27
REMARK H PARENT 14 18 16 20 18 22 9 24 1 26 5 28
REMARK Flexibility Score: inf
ROOT
ATOM      1  C   UNL     1       9.823  13.048  23.643  1.00  0.00     0.402 A 
ATOM      2  O   UNL     1       9.274  14.196  24.031  1.00  0.00    -0.202 OA
ATOM      3  C   UNL     1       9.463  15.347  23.393  1.00  0.00     0.368 A 
ATOM      4  C   UNL     1       8.845  16.503  23.879  1.00  0.00     0.162 A 
ATOM      5  C   UNL     1       9.028  17.725  23.232  1.00  0.00     0.128 A 
ATOM      6  C   UNL     1       9.836  17.796  22.090  1.00  0.00     0.093 A 
ATOM      7  C   UNL     1      10.467  16.653  21.585  1.00  0.00     0.136 A 
ATOM      8  C   UNL     1      10.280  15.406  22.238  1.00  0.00     0.125 A 
ATOM      9  C   UNL     1      10.861  14.206  21.795  1.00  0.00     0.078 A 
ATOM     10  C   UNL     1      10.628  13.016  22.490  1.00  0.00     0.223 A 
ENDROOT
BRANCH   1  11
ATOM     11  C   UNL     1       9.544  11.834  24.444  1.00  0.00     0.091 A 
ATOM     12  C   UNL     1       9.319  10.589  23.832  1.00  0.00     0.068 A 
ATOM     13  C   UNL     1       9.079   9.447  24.608  1.00  0.00     0.162 A 
ATOM     14  C   UNL     1       9.557  11.913  25.845  1.00  0.00     0.068 A 
ATOM     15  C   UNL     1       9.072   9.540  26.010  1.00  0.00     0.200 A 
ATOM     16  C   UNL     1       9.317  10.779  26.627  1.00  0.00     0.162 A 
BRANCH  13  17
ATOM     17  O   UNL     1       8.851   8.218  23.989  1.00  0.00    -0.504 OA
ATOM     18  H   UNL     1       8.286   7.499  24.426  1.00  0.00     0.293 HD
ENDBRANCH  13  17
BRANCH  15  19
ATOM     19  O   UNL     1       8.830   8.413  26.797  1.00  0.00    -0.502 OA
ATOM     20  H   UNL     1       9.578   7.841  27.167  1.00  0.00     0.293 HD
ENDBRANCH  15  19
BRANCH  16  21
ATOM     21  O   UNL     1       9.325  10.902  28.016  1.00  0.00    -0.504 OA
ATOM     22  H   UNL     1      10.172  10.796  28.561  1.00  0.00     0.293 HD
ENDBRANCH  16  21
ENDBRANCH   1  11
BRANCH  10  23
ATOM     23  O   UNL     1      11.163  11.816  22.022  1.00  0.00    -0.500 OA
ATOM     24  H   UNL     1      10.693  10.930  22.168  1.00  0.00     0.294 HD
ENDBRANCH  10  23
BRANCH   5  25
ATOM     25  O   UNL     1       8.403  18.866  23.730  1.00  0.00    -0.507 OA
ATOM     26  H   UNL     1       8.862  19.769  23.718  1.00  0.00     0.293 HD
ENDBRANCH   5  25
BRANCH   7  27
ATOM     27  O   UNL     1      11.260  16.805  20.444  1.00  0.00    -0.507 OA
ATOM     28  H   UNL     1      12.015  16.187  20.187  1.00  0.00     0.293 HD
ENDBRANCH   7  27
TORSDOF 7
ENDMDL
MODEL 5
REMARK VINA RESULT:    -6.310      1.046      7.101
REMARK INTER + INTRA:          -7.455
REMARK INTER:                  -7.915
REMARK INTRA:                   0.460
REMARK UNBOUND:                 0.331
REMARK SMILES Oc1cc(O)c2cc(O)c(-c3cc(O)c(O)c(O)c3)[o+]c2c1
REMARK SMILES IDX 10 1 20 2 21 3 22 4 2 5 3 6 4 7 6 8 7 9 8 10 11 11 12 12
REMARK SMILES IDX 13 13 19 14 15 15 17 16 14 17 16 19 18 21 9 23 1 25 5 27
REMARK H PARENT 14 18 16 20 18 22 9 24 1 26 5 28
REMARK Flexibility Score: inf
ROOT
ATOM      1  C   UNL     1       9.121  12.503  24.335  1.00  0.00     0.402 A 
ATOM      2  O   UNL     1       9.607  12.356  23.105  1.00  0.00    -0.202 OA
ATOM      3  C   UNL     1       9.796  13.371  22.269  1.00  0.00     0.368 A 
ATOM      4  C   UNL     1      10.309  13.115  20.994  1.00  0.00     0.162 A 
ATOM      5  C   UNL     1      10.514  14.161  20.094  1.00  0.00     0.128 A 
ATOM      6  C   UNL     1      10.204  15.475  20.468  1.00  0.00     0.093 A 
ATOM      7  C   UNL     1       9.689  15.756  21.739  1.00  0.00     0.136 A 
ATOM      8  C   UNL     1       9.481  14.696  22.659  1.00  0.00     0.125 A 
ATOM      9  C   UNL     1       8.981  14.885  23.958  1.00  0.00     0.078 A 
ATOM     10  C   UNL     1       8.807  13.790  24.809  1.00  0.00     0.223 A 
ENDROOT
BRANCH   1  11
ATOM     11  C   UNL     1       8.947  11.291  25.168  1.00  0.00     0.091 A 
ATOM     12  C   UNL     1       9.275  10.015  24.681  1.00  0.00     0.068 A 
ATOM     13  C   UNL     1       9.124   8.882  25.493  1.00  0.00     0.162 A 
ATOM     14  C   UNL     1       8.496  11.422  26.490  1.00  0.00     0.068 A 
ATOM     15  C   UNL     1       8.651   9.021  26.809  1.00  0.00     0.200 A 
ATOM     16  C   UNL     1       8.341  10.298  27.307  1.00  0.00     0.162 A 
BRANCH  13  17
ATOM     17  O   UNL     1       9.448   7.619  24.998  1.00  0.00    -0.504 OA
ATOM     18  H   UNL     1       9.523   6.813  25.606  1.00  0.00     0.293 HD
ENDBRANCH  13  17
BRANCH  15  19
ATOM     19  O   UNL     1       8.490   7.903  27.629  1.00  0.00    -0.502 OA
ATOM     20  H   UNL     1       9.069   7.742  28.444  1.00  0.00     0.293 HD
ENDBRANCH  15  19
BRANCH  16  21
ATOM     21  O   UNL     1       7.877  10.469  28.612  1.00  0.00    -0.504 OA
ATOM     22  H   UNL     1       6.947  10.187  28.894  1.00  0.00     0.293 HD
ENDBRANCH  16  21
ENDBRANCH   1  11
BRANCH  10  23
ATOM     23  O   UNL     1       8.359  13.983  26.116  1.00  0.00    -0.500 OA
ATOM     24  H   UNL     1       7.598  13.438  26.503  1.00  0.00     0.294 HD
ENDBRANCH  10  23
BRANCH   5  25
ATOM     25  O   UNL     1      11.027  13.887  18.828  1.00  0.00    -0.507 OA
ATOM     26  H   UNL     1      11.748  13.188  18.689  1.00  0.00     0.293 HD
ENDBRANCH   5  25
BRANCH   7  27
ATOM     27  O   UNL     1       9.402  17.092  22.036  1.00  0.00    -0.507 OA
ATOM     28  H   UNL     1       9.923  17.880  21.682  1.00  0.00     0.293 HD
ENDBRANCH   7  27
TORSDOF 7
ENDMDL
MODEL 6
REMARK VINA RESULT:    -6.257      1.146      6.817
REMARK INTER + INTRA:          -7.389
REMARK INTER:                  -7.722
REMARK INTRA:                   0.333
REMARK UNBOUND:                 0.331
REMARK SMILES Oc1cc(O)c2cc(O)c(-c3cc(O)c(O)c(O)c3)[o+]c2c1
REMARK SMILES IDX 10 1 20 2 21 3 22 4 2 5 3 6 4 7 6 8 7 9 8 10 11 11 12 12
REMARK SMILES IDX 13 13 19 14 15 15 17 16 14 17 16 19 18 21 9 23 1 25 5 27
REMARK H PARENT 14 18 16 20 18 22 9 24 1 26 5 28
REMARK Flexibility Score: inf
ROOT
ATOM      1  C   UNL     1       9.565  13.168  24.079  1.00  0.00     0.402 A 
ATOM      2  O   UNL     1       9.974  13.186  22.813  1.00  0.00    -0.202 OA
ATOM      3  C   UNL     1      10.120  14.304  22.110  1.00  0.00     0.368 A 
ATOM      4  C   UNL     1      10.553  14.220  20.784  1.00  0.00     0.162 A 
ATOM      5  C   UNL     1      10.711  15.376  20.020  1.00  0.00     0.128 A 
ATOM      6  C   UNL     1      10.435  16.628  20.584  1.00  0.00     0.093 A 
ATOM      7  C   UNL     1       9.999  16.738  21.909  1.00  0.00     0.136 A 
ATOM      8  C   UNL     1       9.839  15.564  22.691  1.00  0.00     0.125 A 
ATOM      9  C   UNL     1       9.420  15.579  24.032  1.00  0.00     0.078 A 
ATOM     10  C   UNL     1       9.290  14.380  24.739  1.00  0.00     0.223 A 
ENDROOT
BRANCH   1  11
ATOM     11  C   UNL     1       9.432  11.856  24.754  1.00  0.00     0.091 A 
ATOM     12  C   UNL     1       9.357  11.757  26.153  1.00  0.00     0.068 A 
ATOM     13  C   UNL     1       9.209  10.508  26.772  1.00  0.00     0.162 A 
ATOM     14  C   UNL     1       9.324  10.691  23.980  1.00  0.00     0.068 A 
ATOM     15  C   UNL     1       9.124   9.344  25.990  1.00  0.00     0.200 A 
ATOM     16  C   UNL     1       9.178   9.440  24.589  1.00  0.00     0.162 A 
BRANCH  13  17
ATOM     17  O   UNL     1       9.141  10.421  28.162  1.00  0.00    -0.504 OA
ATOM     18  H   UNL     1       8.261  10.272  28.643  1.00  0.00     0.293 HD
ENDBRANCH  13  17
BRANCH  15  19
ATOM     19  O   UNL     1       8.981   8.092  26.590  1.00  0.00    -0.502 OA
ATOM     20  H   UNL     1       9.686   7.370  26.509  1.00  0.00     0.293 HD
ENDBRANCH  15  19
BRANCH  16  21
ATOM     21  O   UNL     1       9.088   8.304  23.785  1.00  0.00    -0.504 OA
ATOM     22  H   UNL     1       8.346   8.180  23.108  1.00  0.00     0.293 HD
ENDBRANCH  16  21
ENDBRANCH   1  11
BRANCH  10  23
ATOM     23  O   UNL     1       8.923  14.398  26.084  1.00  0.00    -0.500 OA
ATOM     24  H   UNL     1       8.607  15.247  26.539  1.00  0.00     0.294 HD
ENDBRANCH  10  23
BRANCH   5  25
ATOM     25  O   UNL     1      11.145  15.273  18.700  1.00  0.00    -0.507 OA
ATOM     26  H   UNL     1      12.022  14.823  18.464  1.00  0.00     0.293 HD
ENDBRANCH   5  25
BRANCH   7  27
ATOM     27  O   UNL     1       9.741  18.022  22.398  1.00  0.00    -0.507 OA
ATOM     28  H   UNL     1      10.401  18.785  22.376  1.00  0.00     0.293 HD
ENDBRANCH   7  27
TORSDOF 7
ENDMDL
MODEL 7
REMARK VINA RESULT:    -6.045      1.557      7.581
REMARK INTER + INTRA:          -7.127
REMARK INTER:                  -7.203
REMARK INTRA:                   0.075
REMARK UNBOUND:                 0.331
REMARK SMILES Oc1cc(O)c2cc(O)c(-c3cc(O)c(O)c(O)c3)[o+]c2c1
REMARK SMILES IDX 10 1 20 2 21 3 22 4 2 5 3 6 4 7 6 8 7 9 8 10 11 11 12 12
REMARK SMILES IDX 13 13 19 14 15 15 17 16 14 17 16 19 18 21 9 23 1 25 5 27
REMARK H PARENT 14 18 16 20 18 22 9 24 1 26 5 28
REMARK Flexibility Score: inf
ROOT
ATOM      1  C   UNL     1       9.489  12.113  24.434  1.00  0.00     0.402 A 
ATOM      2  O   UNL     1       9.114  13.388  24.501  1.00  0.00    -0.202 OA
ATOM      3  C   UNL     1       9.417  14.286  23.570  1.00  0.00     0.368 A 
ATOM      4  C   UNL     1       8.981  15.604  23.730  1.00  0.00     0.162 A 
ATOM      5  C   UNL     1       9.288  16.570  22.772  1.00  0.00     0.128 A 
ATOM      6  C   UNL     1      10.038  16.218  21.642  1.00  0.00     0.093 A 
ATOM      7  C   UNL     1      10.487  14.905  21.459  1.00  0.00     0.136 A 
ATOM      8  C   UNL     1      10.175  13.919  22.431  1.00  0.00     0.125 A 
ATOM      9  C   UNL     1      10.572  12.576  22.325  1.00  0.00     0.078 A 
ATOM     10  C   UNL     1      10.222  11.660  23.322  1.00  0.00     0.223 A 
ENDROOT
BRANCH   1  11
ATOM     11  C   UNL     1       9.097  11.209  25.541  1.00  0.00     0.091 A 
ATOM     12  C   UNL     1       8.659   9.897  25.293  1.00  0.00     0.068 A 
ATOM     13  C   UNL     1       8.314   9.050  26.355  1.00  0.00     0.162 A 
ATOM     14  C   UNL     1       9.215  11.651  26.867  1.00  0.00     0.068 A 
ATOM     15  C   UNL     1       8.414   9.509  27.679  1.00  0.00     0.200 A 
ATOM     16  C   UNL     1       8.871  10.813  27.932  1.00  0.00     0.162 A 
BRANCH  13  17
ATOM     17  O   UNL     1       7.875   7.751  26.098  1.00  0.00    -0.504 OA
ATOM     18  H   UNL     1       6.892   7.509  26.114  1.00  0.00     0.293 HD
ENDBRANCH  13  17
BRANCH  15  19
ATOM     19  O   UNL     1       8.069   8.680  28.748  1.00  0.00    -0.502 OA
ATOM     20  H   UNL     1       8.664   7.921  29.057  1.00  0.00     0.293 HD
ENDBRANCH  15  19
BRANCH  16  21
ATOM     21  O   UNL     1       8.989  11.295  29.236  1.00  0.00    -0.504 OA
ATOM     22  H   UNL     1       9.446  10.764  29.967  1.00  0.00     0.293 HD
ENDBRANCH  16  21
ENDBRANCH   1  11
BRANCH  10  23
ATOM     23  O   UNL     1      10.573  10.316  23.192  1.00  0.00    -0.500 OA
ATOM     24  H   UNL     1      10.194   9.737  22.451  1.00  0.00     0.294 HD
ENDBRANCH  10  23
BRANCH   5  25
ATOM     25  O   UNL     1       8.842  17.879  22.948  1.00  0.00    -0.507 OA
ATOM     26  H   UNL     1       8.841  18.319  23.860  1.00  0.00     0.293 HD
ENDBRANCH   5  25
BRANCH   7  27
ATOM     27  O   UNL     1      11.233  14.634  20.309  1.00  0.00    -0.507 OA
ATOM     28  H   UNL     1      12.226  14.794  20.221  1.00  0.00     0.293 HD
ENDBRANCH   7  27
TORSDOF 7
ENDMDL
MODEL 8
REMARK VINA RESULT:    -5.864     15.195     16.303
REMARK INTER + INTRA:          -6.904
REMARK INTER:                  -6.592
REMARK INTRA:                  -0.312
REMARK UNBOUND:                 0.331
REMARK SMILES Oc1cc(O)c2cc(O)c(-c3cc(O)c(O)c(O)c3)[o+]c2c1
REMARK SMILES IDX 10 1 20 2 21 3 22 4 2 5 3 6 4 7 6 8 7 9 8 10 11 11 12 12
REMARK SMILES IDX 13 13 19 14 15 15 17 16 14 17 16 19 18 21 9 23 1 25 5 27
REMARK H PARENT 14 18 16 20 18 22 9 24 1 26 5 28
REMARK Flexibility Score: inf
ROOT
ATOM      1  C   UNL     1      23.676   7.714  28.872  1.00  0.00     0.402 A 
ATOM      2  O   UNL     1      22.997   6.999  29.766  1.00  0.00    -0.202 OA
ATOM      3  C   UNL     1      22.907   5.674  29.724  1.00  0.00     0.368 A 
ATOM      4  C   UNL     1      22.167   5.012  30.707  1.00  0.00     0.162 A 
ATOM      5  C   UNL     1      22.052   3.622  30.686  1.00  0.00     0.128 A 
ATOM      6  C   UNL     1      22.679   2.885  29.674  1.00  0.00     0.093 A 
ATOM      7  C   UNL     1      23.425   3.525  28.677  1.00  0.00     0.136 A 
ATOM      8  C   UNL     1      23.547   4.939  28.696  1.00  0.00     0.125 A 
ATOM      9  C   UNL     1      24.285   5.665  27.746  1.00  0.00     0.078 A 
ATOM     10  C   UNL     1      24.363   7.058  27.833  1.00  0.00     0.223 A 
ENDROOT
BRANCH   1  11
ATOM     11  C   UNL     1      23.694   9.187  29.021  1.00  0.00     0.091 A 
ATOM     12  C   UNL     1      24.473   9.813  30.008  1.00  0.00     0.068 A 
ATOM     13  C   UNL     1      24.494  11.210  30.119  1.00  0.00     0.162 A 
ATOM     14  C   UNL     1      22.961   9.980  28.126  1.00  0.00     0.068 A 
ATOM     15  C   UNL     1      23.739  11.996  29.232  1.00  0.00     0.200 A 
ATOM     16  C   UNL     1      22.974  11.374  28.230  1.00  0.00     0.162 A 
BRANCH  13  17
ATOM     17  O   UNL     1      25.268  11.821  31.107  1.00  0.00    -0.504 OA
ATOM     18  H   UNL     1      26.196  12.175  30.910  1.00  0.00     0.293 HD
ENDBRANCH  13  17
BRANCH  15  19
ATOM     19  O   UNL     1      23.745  13.388  29.332  1.00  0.00    -0.502 OA
ATOM     20  H   UNL     1      24.136  13.871  30.131  1.00  0.00     0.293 HD
ENDBRANCH  15  19
BRANCH  16  21
ATOM     21  O   UNL     1      22.220  12.127  27.329  1.00  0.00    -0.504 OA
ATOM     22  H   UNL     1      22.254  13.138  27.311  1.00  0.00     0.293 HD
ENDBRANCH  16  21
ENDBRANCH   1  11
BRANCH  10  23
ATOM     23  O   UNL     1      25.136   7.774  26.920  1.00  0.00    -0.500 OA
ATOM     24  H   UNL     1      24.717   8.408  26.249  1.00  0.00     0.294 HD
ENDBRANCH  10  23
BRANCH   5  25
ATOM     25  O   UNL     1      21.312   2.979  31.676  1.00  0.00    -0.507 OA
ATOM     26  H   UNL     1      21.378   3.254  32.649  1.00  0.00     0.293 HD
ENDBRANCH   5  25
BRANCH   7  27
ATOM     27  O   UNL     1      24.018   2.721  27.699  1.00  0.00    -0.507 OA
ATOM     28  H   UNL     1      24.797   2.101  27.865  1.00  0.00     0.293 HD
ENDBRANCH   7  27
TORSDOF 7
ENDMDL
MODEL 9
REMARK VINA RESULT:    -5.791      3.392      7.347
REMARK INTER + INTRA:          -6.813
REMARK INTER:                  -6.863
REMARK INTRA:                   0.050
REMARK UNBOUND:                 0.331
REMARK SMILES Oc1cc(O)c2cc(O)c(-c3cc(O)c(O)c(O)c3)[o+]c2c1
REMARK SMILES IDX 10 1 20 2 21 3 22 4 2 5 3 6 4 7 6 8 7 9 8 10 11 11 12 12
REMARK SMILES IDX 13 13 19 14 15 15 17 16 14 17 16 19 18 21 9 23 1 25 5 27
REMARK H PARENT 14 18 16 20 18 22 9 24 1 26 5 28
REMARK Flexibility Score: inf
ROOT
ATOM      1  C   UNL     1       9.729  16.134  23.542  1.00  0.00     0.402 A 
ATOM      2  O   UNL     1       9.899  16.909  24.609  1.00  0.00    -0.202 OA
ATOM      3  C   UNL     1       9.854  18.237  24.562  1.00  0.00     0.368 A 
ATOM      4  C   UNL     1      10.048  18.966  25.738  1.00  0.00     0.162 A 
ATOM      5  C   UNL     1      10.010  20.360  25.718  1.00  0.00     0.128 A 
ATOM      6  C   UNL     1       9.777  21.034  24.512  1.00  0.00     0.093 A 
ATOM      7  C   UNL     1       9.581  20.326  23.320  1.00  0.00     0.136 A 
ATOM      8  C   UNL     1       9.616  18.908  23.337  1.00  0.00     0.125 A 
ATOM      9  C   UNL     1       9.417  18.115  22.195  1.00  0.00     0.078 A 
ATOM     10  C   UNL     1       9.462  16.721  22.291  1.00  0.00     0.223 A 
ENDROOT
BRANCH   1  11
ATOM     11  C   UNL     1       9.812  14.666  23.722  1.00  0.00     0.091 A 
ATOM     12  C   UNL     1       9.172  14.024  24.796  1.00  0.00     0.068 A 
ATOM     13  C   UNL     1       9.244  12.631  24.937  1.00  0.00     0.162 A 
ATOM     14  C   UNL     1      10.496  13.892  22.773  1.00  0.00     0.068 A 
ATOM     15  C   UNL     1       9.951  11.866  23.994  1.00  0.00     0.200 A 
ATOM     16  C   UNL     1      10.574  12.503  22.907  1.00  0.00     0.162 A 
BRANCH  13  17
ATOM     17  O   UNL     1       8.610  12.005  26.010  1.00  0.00    -0.504 OA
ATOM     18  H   UNL     1       8.002  12.515  26.640  1.00  0.00     0.293 HD
ENDBRANCH  13  17
BRANCH  15  19
ATOM     19  O   UNL     1      10.035  10.479  24.122  1.00  0.00    -0.502 OA
ATOM     20  H   UNL     1       9.214   9.888  24.158  1.00  0.00     0.293 HD
ENDBRANCH  15  19
BRANCH  16  21
ATOM     21  O   UNL     1      11.276  11.770  21.949  1.00  0.00    -0.504 OA
ATOM     22  H   UNL     1      11.699  10.875  22.159  1.00  0.00     0.293 HD
ENDBRANCH  16  21
ENDBRANCH   1  11
BRANCH  10  23
ATOM     23  O   UNL     1       9.214  15.934  21.167  1.00  0.00    -0.500 OA
ATOM     24  H   UNL     1       8.293  15.880  20.747  1.00  0.00     0.294 HD
ENDBRANCH  10  23
BRANCH   5  25
ATOM     25  O   UNL     1      10.204  21.070  26.900  1.00  0.00    -0.507 OA
ATOM     26  H   UNL     1      10.801  21.888  26.935  1.00  0.00     0.293 HD
ENDBRANCH   5  25
BRANCH   7  27
ATOM     27  O   UNL     1       9.358  21.071  22.158  1.00  0.00    -0.507 OA
ATOM     28  H   UNL     1       8.853  21.944  22.128  1.00  0.00     0.293 HD
ENDBRANCH   7  27
TORSDOF 7
ENDMDL
