MODEL 1
REMARK VINA RESULT:    14.445      0.000      0.000
REMARK INTER + INTRA:          30.352
REMARK INTER:                  31.335
REMARK INTRA:                  -0.983
REMARK UNBOUND:                -0.983
REMARK SMILES CCCCCCCCCCCCCCCCCCCCCC(=O)[O-]
REMARK SMILES IDX 12 1 11 2 10 3 9 4 8 5 7 6 6 7 5 8 4 9 3 10 2 11 1 12 13 13
REMARK SMILES IDX 14 14 15 15 16 16 17 17 18 18 19 19 20 20 21 21 22 22 23 23
REMARK SMILES IDX 24 24
REMARK H PARENT
REMARK Flexibility Score: inf
ROOT
ATOM      1  C   UNL     1       3.680  42.524  10.837  1.00  0.00     0.000 C 
ENDROOT
BRANCH   1   2
ATOM      2  C   UNL     1       4.335  41.561  11.842  1.00  0.00     0.000 C 
BRANCH   2   3
ATOM      3  C   UNL     1       3.861  41.791  13.288  1.00  0.00     0.000 C 
BRANCH   3   4
ATOM      4  C   UNL     1       4.273  40.695  14.291  1.00  0.00    -0.000 C 
BRANCH   4   5
ATOM      5  C   UNL     1       3.794  39.270  13.942  1.00  0.00    -0.000 C 
BRANCH   5   6
ATOM      6  C   UNL     1       3.525  38.361  15.156  1.00  0.00    -0.000 C 
BRANCH   6   7
ATOM      7  C   UNL     1       4.766  38.047  16.012  1.00  0.00    -0.000 C 
BRANCH   7   8
ATOM      8  C   UNL     1       6.093  38.126  15.225  1.00  0.00    -0.000 C 
BRANCH   8   9
ATOM      9  C   UNL     1       7.318  37.878  16.119  1.00  0.00    -0.000 C 
BRANCH   9  10
ATOM     10  C   UNL     1       8.411  38.924  15.857  1.00  0.00    -0.000 C 
BRANCH  10  11
ATOM     11  C   UNL     1       7.832  40.298  15.485  1.00  0.00    -0.003 C 
ATOM     12  C   UNL     1       8.216  40.733  14.072  1.00  0.00     0.004 C 
ENDBRANCH  10  11
ENDBRANCH   9  10
ENDBRANCH   8   9
ENDBRANCH   7   8
ENDBRANCH   6   7
ENDBRANCH   5   6
ENDBRANCH   4   5
ENDBRANCH   3   4
ENDBRANCH   2   3
ENDBRANCH   1   2
BRANCH   1  13
ATOM     13  C   UNL     1       4.650  42.986   9.738  1.00  0.00     0.000 C 
BRANCH  13  14
ATOM     14  C   UNL     1       6.036  42.335   9.857  1.00  0.00     0.000 C 
BRANCH  14  15
ATOM     15  C   UNL     1       6.708  42.221   8.484  1.00  0.00     0.000 C 
BRANCH  15  16
ATOM     16  C   UNL     1       6.338  43.413   7.586  1.00  0.00     0.000 C 
BRANCH  16  17
ATOM     17  C   UNL     1       6.685  43.163   6.102  1.00  0.00     0.000 C 
BRANCH  17  18
ATOM     18  C   UNL     1       8.198  43.139   5.807  1.00  0.00     0.000 C 
BRANCH  18  19
ATOM     19  C   UNL     1       8.959  41.936   6.390  1.00  0.00     0.000 C 
BRANCH  19  20
ATOM     20  C   UNL     1       8.650  40.621   5.652  1.00  0.00     0.006 C 
BRANCH  20  21
ATOM     21  C   UNL     1       8.658  40.798   4.129  1.00  0.00     0.053 C 
BRANCH  21  22
ATOM     22  C   UNL     1       9.933  40.301   3.515  1.00  0.00     0.041 C 
ATOM     23  O   UNL     1      10.334  40.770   2.418  1.00  0.00    -0.550 OA
ATOM     24  O   UNL     1      10.678  39.320   4.158  1.00  0.00    -0.550 OA
ENDBRANCH  21  22
ENDBRANCH  20  21
ENDBRANCH  19  20
ENDBRANCH  18  19
ENDBRANCH  17  18
ENDBRANCH  16  17
ENDBRANCH  15  16
ENDBRANCH  14  15
ENDBRANCH  13  14
ENDBRANCH   1  13
TORSDOF 20
ENDMDL
MODEL 2
REMARK VINA RESULT:    15.754      3.478      9.535
REMARK INTER + INTRA:          33.191
REMARK INTER:                  32.379
REMARK INTRA:                   0.813
REMARK UNBOUND:                -0.983
REMARK SMILES CCCCCCCCCCCCCCCCCCCCCC(=O)[O-]
REMARK SMILES IDX 12 1 11 2 10 3 9 4 8 5 7 6 6 7 5 8 4 9 3 10 2 11 1 12 13 13
REMARK SMILES IDX 14 14 15 15 16 16 17 17 18 18 19 19 20 20 21 21 22 22 23 23
REMARK SMILES IDX 24 24
REMARK H PARENT
REMARK Flexibility Score: inf
ROOT
ATOM      1  C   UNL     1       3.800  43.102   9.989  1.00  0.00     0.000 C 
ENDROOT
BRANCH   1   2
ATOM      2  C   UNL     1       4.609  43.324   8.700  1.00  0.00     0.000 C 
BRANCH   2   3
ATOM      3  C   UNL     1       6.129  43.314   8.939  1.00  0.00     0.000 C 
BRANCH   3   4
ATOM      4  C   UNL     1       6.969  42.755   7.772  1.00  0.00    -0.000 C 
BRANCH   4   5
ATOM      5  C   UNL     1       6.732  43.433   6.407  1.00  0.00    -0.000 C 
BRANCH   5   6
ATOM      6  C   UNL     1       7.762  43.076   5.318  1.00  0.00    -0.000 C 
BRANCH   6   7
ATOM      7  C   UNL     1       9.031  42.375   5.838  1.00  0.00    -0.000 C 
BRANCH   7   8
ATOM      8  C   UNL     1       8.747  41.031   6.543  1.00  0.00    -0.000 C 
BRANCH   8   9
ATOM      9  C   UNL     1       8.510  39.886   5.545  1.00  0.00    -0.000 C 
BRANCH   9  10
ATOM     10  C   UNL     1       8.691  40.372   4.099  1.00  0.00    -0.000 C 
BRANCH  10  11
ATOM     11  C   UNL     1      10.142  40.773   3.791  1.00  0.00    -0.003 C 
ATOM     12  C   UNL     1      10.728  39.999   2.612  1.00  0.00     0.004 C 
ENDBRANCH  10  11
ENDBRANCH   9  10
ENDBRANCH   8   9
ENDBRANCH   7   8
ENDBRANCH   6   7
ENDBRANCH   5   6
ENDBRANCH   4   5
ENDBRANCH   3   4
ENDBRANCH   2   3
ENDBRANCH   1   2
BRANCH   1  13
ATOM     13  C   UNL     1       4.373  41.975  10.863  1.00  0.00     0.000 C 
BRANCH  13  14
ATOM     14  C   UNL     1       3.877  42.039  12.316  1.00  0.00     0.000 C 
BRANCH  14  15
ATOM     15  C   UNL     1       3.525  40.641  12.837  1.00  0.00     0.000 C 
BRANCH  15  16
ATOM     16  C   UNL     1       3.773  40.535  14.350  1.00  0.00     0.000 C 
BRANCH  16  17
ATOM     17  C   UNL     1       4.185  39.111  14.782  1.00  0.00     0.000 C 
BRANCH  17  18
ATOM     18  C   UNL     1       5.682  38.967  15.123  1.00  0.00     0.000 C 
BRANCH  18  19
ATOM     19  C   UNL     1       6.346  40.229  15.698  1.00  0.00     0.000 C 
BRANCH  19  20
ATOM     20  C   UNL     1       7.871  40.245  15.496  1.00  0.00     0.006 C 
BRANCH  20  21
ATOM     21  C   UNL     1       8.549  39.019  16.122  1.00  0.00     0.053 C 
BRANCH  21  22
ATOM     22  C   UNL     1       9.899  38.762  15.525  1.00  0.00     0.041 C 
ATOM     23  O   UNL     1      10.045  37.875  14.642  1.00  0.00    -0.550 OA
ATOM     24  O   UNL     1      10.998  39.502  15.943  1.00  0.00    -0.550 OA
ENDBRANCH  21  22
ENDBRANCH  20  21
ENDBRANCH  19  20
ENDBRANCH  18  19
ENDBRANCH  17  18
ENDBRANCH  16  17
ENDBRANCH  15  16
ENDBRANCH  14  15
ENDBRANCH  13  14
ENDBRANCH   1  13
TORSDOF 20
ENDMDL
MODEL 3
REMARK VINA RESULT:    15.849      1.183      2.601
REMARK INTER + INTRA:          33.397
REMARK INTER:                  33.414
REMARK INTRA:                  -0.017
REMARK UNBOUND:                -0.983
REMARK SMILES CCCCCCCCCCCCCCCCCCCCCC(=O)[O-]
REMARK SMILES IDX 12 1 11 2 10 3 9 4 8 5 7 6 6 7 5 8 4 9 3 10 2 11 1 12 13 13
REMARK SMILES IDX 14 14 15 15 16 16 17 17 18 18 19 19 20 20 21 21 22 22 23 23
REMARK SMILES IDX 24 24
REMARK H PARENT
REMARK Flexibility Score: inf
ROOT
ATOM      1  C   UNL     1       4.287  42.896   9.871  1.00  0.00     0.000 C 
ENDROOT
BRANCH   1   2
ATOM      2  C   UNL     1       5.692  42.410  10.264  1.00  0.00     0.000 C 
BRANCH   2   3
ATOM      3  C   UNL     1       5.687  41.513  11.515  1.00  0.00     0.000 C 
BRANCH   3   4
ATOM      4  C   UNL     1       7.063  41.318  12.183  1.00  0.00    -0.000 C 
BRANCH   4   5
ATOM      5  C   UNL     1       7.125  40.203  13.247  1.00  0.00    -0.000 C 
BRANCH   5   6
ATOM      6  C   UNL     1       7.202  40.700  14.704  1.00  0.00    -0.000 C 
BRANCH   6   7
ATOM      7  C   UNL     1       8.018  39.800  15.649  1.00  0.00    -0.000 C 
BRANCH   7   8
ATOM      8  C   UNL     1       7.696  38.297  15.498  1.00  0.00    -0.000 C 
BRANCH   8   9
ATOM      9  C   UNL     1       6.188  38.012  15.581  1.00  0.00    -0.000 C 
BRANCH   9  10
ATOM     10  C   UNL     1       5.427  39.231  16.125  1.00  0.00    -0.000 C 
BRANCH  10  11
ATOM     11  C   UNL     1       3.903  39.037  16.084  1.00  0.00    -0.003 C 
ATOM     12  C   UNL     1       3.421  38.453  14.758  1.00  0.00     0.004 C 
ENDBRANCH  10  11
ENDBRANCH   9  10
ENDBRANCH   8   9
ENDBRANCH   7   8
ENDBRANCH   6   7
ENDBRANCH   5   6
ENDBRANCH   4   5
ENDBRANCH   3   4
ENDBRANCH   2   3
ENDBRANCH   1   2
BRANCH   1  13
ATOM     13  C   UNL     1       4.300  43.818   8.641  1.00  0.00     0.000 C 
BRANCH  13  14
ATOM     14  C   UNL     1       4.788  43.107   7.370  1.00  0.00     0.000 C 
BRANCH  14  15
ATOM     15  C   UNL     1       6.180  43.604   6.964  1.00  0.00     0.000 C 
BRANCH  15  16
ATOM     16  C   UNL     1       7.156  42.430   6.783  1.00  0.00     0.000 C 
BRANCH  16  17
ATOM     17  C   UNL     1       8.619  42.829   7.073  1.00  0.00     0.000 C 
BRANCH  17  18
ATOM     18  C   UNL     1       9.663  41.855   6.492  1.00  0.00     0.000 C 
BRANCH  18  19
ATOM     19  C   UNL     1       9.253  40.372   6.508  1.00  0.00     0.000 C 
BRANCH  19  20
ATOM     20  C   UNL     1       8.800  39.864   5.128  1.00  0.00     0.006 C 
BRANCH  20  21
ATOM     21  C   UNL     1       8.891  40.955   4.053  1.00  0.00     0.053 C 
BRANCH  21  22
ATOM     22  C   UNL     1       9.863  40.591   2.970  1.00  0.00     0.041 C 
ATOM     23  O   UNL     1       9.774  41.125   1.833  1.00  0.00    -0.550 OA
ATOM     24  O   UNL     1      10.866  39.663   3.219  1.00  0.00    -0.550 OA
ENDBRANCH  21  22
ENDBRANCH  20  21
ENDBRANCH  19  20
ENDBRANCH  18  19
ENDBRANCH  17  18
ENDBRANCH  16  17
ENDBRANCH  15  16
ENDBRANCH  14  15
ENDBRANCH  13  14
ENDBRANCH   1  13
TORSDOF 20
ENDMDL
MODEL 4
REMARK VINA RESULT:    15.907      4.293      9.872
REMARK INTER + INTRA:          33.523
REMARK INTER:                  33.481
REMARK INTRA:                   0.042
REMARK UNBOUND:                -0.983
REMARK SMILES CCCCCCCCCCCCCCCCCCCCCC(=O)[O-]
REMARK SMILES IDX 12 1 11 2 10 3 9 4 8 5 7 6 6 7 5 8 4 9 3 10 2 11 1 12 13 13
REMARK SMILES IDX 14 14 15 15 16 16 17 17 18 18 19 19 20 20 21 21 22 22 23 23
REMARK SMILES IDX 24 24
REMARK H PARENT
REMARK Flexibility Score: inf
ROOT
ATOM      1  C   UNL     1       7.123  42.474  11.343  1.00  0.00     0.000 C 
ENDROOT
BRANCH   1   2
ATOM      2  C   UNL     1       5.913  42.101  10.471  1.00  0.00     0.000 C 
BRANCH   2   3
ATOM      3  C   UNL     1       5.520  43.214   9.484  1.00  0.00     0.000 C 
BRANCH   3   4
ATOM      4  C   UNL     1       5.269  42.743   8.037  1.00  0.00    -0.000 C 
BRANCH   4   5
ATOM      5  C   UNL     1       6.473  42.881   7.082  1.00  0.00    -0.000 C 
BRANCH   5   6
ATOM      6  C   UNL     1       7.576  41.822   7.271  1.00  0.00    -0.000 C 
BRANCH   6   7
ATOM      7  C   UNL     1       8.874  42.352   7.908  1.00  0.00    -0.000 C 
BRANCH   7   8
ATOM      8  C   UNL     1       9.985  42.654   6.879  1.00  0.00    -0.000 C 
BRANCH   8   9
ATOM      9  C   UNL     1       9.554  42.326   5.440  1.00  0.00    -0.000 C 
BRANCH   9  10
ATOM     10  C   UNL     1       9.346  40.815   5.259  1.00  0.00    -0.000 C 
BRANCH  10  11
ATOM     11  C   UNL     1       9.790  40.324   3.873  1.00  0.00    -0.003 C 
ATOM     12  C   UNL     1       9.082  41.059   2.736  1.00  0.00     0.004 C 
ENDBRANCH  10  11
ENDBRANCH   9  10
ENDBRANCH   8   9
ENDBRANCH   7   8
ENDBRANCH   6   7
ENDBRANCH   5   6
ENDBRANCH   4   5
ENDBRANCH   3   4
ENDBRANCH   2   3
ENDBRANCH   1   2
BRANCH   1  13
ATOM     13  C   UNL     1       7.833  41.244  11.932  1.00  0.00     0.000 C 
BRANCH  13  14
ATOM     14  C   UNL     1       7.270  40.831  13.300  1.00  0.00     0.000 C 
BRANCH  14  15
ATOM     15  C   UNL     1       7.814  41.736  14.412  1.00  0.00     0.000 C 
BRANCH  15  16
ATOM     16  C   UNL     1       7.796  41.016  15.770  1.00  0.00     0.000 C 
BRANCH  16  17
ATOM     17  C   UNL     1       8.831  39.872  15.845  1.00  0.00     0.000 C 
BRANCH  17  18
ATOM     18  C   UNL     1       8.365  38.560  15.182  1.00  0.00     0.000 C 
BRANCH  18  19
ATOM     19  C   UNL     1       7.165  37.875  15.857  1.00  0.00     0.000 C 
BRANCH  19  20
ATOM     20  C   UNL     1       5.885  38.728  15.805  1.00  0.00     0.006 C 
BRANCH  20  21
ATOM     21  C   UNL     1       4.619  37.880  15.985  1.00  0.00     0.053 C 
BRANCH  21  22
ATOM     22  C   UNL     1       3.377  38.658  15.671  1.00  0.00     0.041 C 
ATOM     23  O   UNL     1       3.452  39.879  15.370  1.00  0.00    -0.550 OA
ATOM     24  O   UNL     1       2.137  38.033  15.710  1.00  0.00    -0.550 OA
ENDBRANCH  21  22
ENDBRANCH  20  21
ENDBRANCH  19  20
ENDBRANCH  18  19
ENDBRANCH  17  18
ENDBRANCH  16  17
ENDBRANCH  15  16
ENDBRANCH  14  15
ENDBRANCH  13  14
ENDBRANCH   1  13
TORSDOF 20
ENDMDL
MODEL 5
REMARK VINA RESULT:    16.103      1.196      2.785
REMARK INTER + INTRA:          33.948
REMARK INTER:                  34.983
REMARK INTRA:                  -1.036
REMARK UNBOUND:                -0.983
REMARK SMILES CCCCCCCCCCCCCCCCCCCCCC(=O)[O-]
REMARK SMILES IDX 12 1 11 2 10 3 9 4 8 5 7 6 6 7 5 8 4 9 3 10 2 11 1 12 13 13
REMARK SMILES IDX 14 14 15 15 16 16 17 17 18 18 19 19 20 20 21 21 22 22 23 23
REMARK SMILES IDX 24 24
REMARK H PARENT
REMARK Flexibility Score: inf
ROOT
ATOM      1  C   UNL     1       6.461  42.261  10.133  1.00  0.00     0.000 C 
ENDROOT
BRANCH   1   2
ATOM      2  C   UNL     1       6.520  41.109  11.151  1.00  0.00     0.000 C 
BRANCH   2   3
ATOM      3  C   UNL     1       7.574  41.336  12.249  1.00  0.00     0.000 C 
BRANCH   3   4
ATOM      4  C   UNL     1       7.010  41.449  13.680  1.00  0.00    -0.000 C 
BRANCH   4   5
ATOM      5  C   UNL     1       8.058  41.365  14.809  1.00  0.00    -0.000 C 
BRANCH   5   6
ATOM      6  C   UNL     1       7.595  40.611  16.070  1.00  0.00    -0.000 C 
BRANCH   6   7
ATOM      7  C   UNL     1       7.912  39.104  16.071  1.00  0.00    -0.000 C 
BRANCH   7   8
ATOM      8  C   UNL     1       6.652  38.210  16.089  1.00  0.00    -0.000 C 
BRANCH   8   9
ATOM      9  C   UNL     1       6.133  37.902  14.676  1.00  0.00    -0.000 C 
BRANCH   9  10
ATOM     10  C   UNL     1       4.597  37.908  14.640  1.00  0.00    -0.000 C 
BRANCH  10  11
ATOM     11  C   UNL     1       3.989  38.804  15.731  1.00  0.00    -0.003 C 
ATOM     12  C   UNL     1       3.285  40.032  15.157  1.00  0.00     0.004 C 
ENDBRANCH  10  11
ENDBRANCH   9  10
ENDBRANCH   8   9
ENDBRANCH   7   8
ENDBRANCH   6   7
ENDBRANCH   5   6
ENDBRANCH   4   5
ENDBRANCH   3   4
ENDBRANCH   2   3
ENDBRANCH   1   2
BRANCH   1  13
ATOM     13  C   UNL     1       5.183  43.105  10.265  1.00  0.00     0.000 C 
BRANCH  13  14
ATOM     14  C   UNL     1       4.647  43.588   8.909  1.00  0.00     0.000 C 
BRANCH  14  15
ATOM     15  C   UNL     1       5.271  42.791   7.758  1.00  0.00     0.000 C 
BRANCH  15  16
ATOM     16  C   UNL     1       6.274  43.648   6.970  1.00  0.00     0.000 C 
BRANCH  16  17
ATOM     17  C   UNL     1       7.435  42.812   6.387  1.00  0.00     0.000 C 
BRANCH  17  18
ATOM     18  C   UNL     1       7.956  41.714   7.336  1.00  0.00     0.000 C 
BRANCH  18  19
ATOM     19  C   UNL     1       9.410  41.276   7.094  1.00  0.00     0.000 C 
BRANCH  19  20
ATOM     20  C   UNL     1       9.568  40.397   5.841  1.00  0.00     0.006 C 
BRANCH  20  21
ATOM     21  C   UNL     1       9.270  41.173   4.551  1.00  0.00     0.053 C 
BRANCH  21  22
ATOM     22  C   UNL     1       9.916  40.539   3.356  1.00  0.00     0.041 C 
ATOM     23  O   UNL     1      10.705  39.568   3.502  1.00  0.00    -0.550 OA
ATOM     24  O   UNL     1       9.645  41.020   2.082  1.00  0.00    -0.550 OA
ENDBRANCH  21  22
ENDBRANCH  20  21
ENDBRANCH  19  20
ENDBRANCH  18  19
ENDBRANCH  17  18
ENDBRANCH  16  17
ENDBRANCH  15  16
ENDBRANCH  14  15
ENDBRANCH  13  14
ENDBRANCH   1  13
TORSDOF 20
ENDMDL
