MODEL 1
REMARK VINA RESULT:    -6.819      0.000      0.000
REMARK INTER + INTRA:          -8.303
REMARK INTER:                  -8.015
REMARK INTRA:                  -0.289
REMARK UNBOUND:                -0.289
REMARK SMILES O=c1c(O)c(-c2ccc(O)cc2)oc2cc(O)cc(O)c12
REMARK SMILES IDX 5 1 3 2 2 3 1 4 21 5 19 6 18 7 16 8 15 9 14 10 13 11 6 12
REMARK SMILES IDX 7 13 8 14 9 15 12 16 11 17 10 18 4 20 20 22 17 24
REMARK H PARENT 10 19 4 21 20 23 17 25
REMARK Flexibility Score: inf
ROOT
ATOM      1  C   UNL     1      54.190  11.393  90.040  1.00  0.00     0.180 A 
ATOM      2  C   UNL     1      54.947  12.486  90.494  1.00  0.00     0.208 A 
ATOM      3  C   UNL     1      54.920  13.684  89.761  1.00  0.00     0.238 A 
ATOM      4  O   UNL     1      55.642  14.641  90.142  1.00  0.00    -0.285 OA
ATOM      5  C   UNL     1      54.124  13.778  88.594  1.00  0.00     0.111 A 
ATOM      6  C   UNL     1      53.990  14.954  87.797  1.00  0.00     0.134 A 
ATOM      7  C   UNL     1      53.280  14.895  86.591  1.00  0.00     0.093 A 
ATOM      8  C   UNL     1      52.643  13.719  86.188  1.00  0.00     0.123 A 
ATOM      9  C   UNL     1      52.719  12.582  86.989  1.00  0.00     0.094 A 
ATOM     10  C   UNL     1      53.451  12.599  88.178  1.00  0.00     0.146 A 
ATOM     11  O   UNL     1      53.505  11.491  88.906  1.00  0.00    -0.452 OA
ENDROOT
BRANCH   1  12
ATOM     12  C   UNL     1      54.148  10.106  90.772  1.00  0.00     0.021 A 
ATOM     13  C   UNL     1      55.091   9.091  90.527  1.00  0.00     0.016 A 
ATOM     14  C   UNL     1      55.044   7.894  91.249  1.00  0.00     0.047 A 
ATOM     15  C   UNL     1      54.065   7.702  92.232  1.00  0.00     0.115 A 
ATOM     16  C   UNL     1      53.182   9.913  91.775  1.00  0.00     0.016 A 
ATOM     17  C   UNL     1      53.137   8.714  92.494  1.00  0.00     0.047 A 
BRANCH  15  18
ATOM     18  O   UNL     1      54.008   6.513  92.955  1.00  0.00    -0.508 OA
ATOM     19  H   UNL     1      54.795   6.190  93.506  1.00  0.00     0.293 HD
ENDBRANCH  15  18
ENDBRANCH   1  12
BRANCH   2  20
ATOM     20  O   UNL     1      55.744  12.365  91.636  1.00  0.00    -0.502 OA
ATOM     21  H   UNL     1      55.351  12.289  92.567  1.00  0.00     0.293 HD
ENDBRANCH   2  20
BRANCH   6  22
ATOM     22  O   UNL     1      54.507  16.203  88.155  1.00  0.00    -0.507 OA
ATOM     23  H   UNL     1      53.970  17.055  88.200  1.00  0.00     0.293 HD
ENDBRANCH   6  22
BRANCH   8  24
ATOM     24  O   UNL     1      51.925  13.673  84.995  1.00  0.00    -0.508 OA
ATOM     25  H   UNL     1      51.546  14.511  84.572  1.00  0.00     0.293 HD
ENDBRANCH   8  24
TORSDOF 5
ENDMDL
MODEL 2
REMARK VINA RESULT:    -6.547      1.241      3.194
REMARK INTER + INTRA:          -7.983
REMARK INTER:                  -7.695
REMARK INTRA:                  -0.288
REMARK UNBOUND:                -0.289
REMARK SMILES O=c1c(O)c(-c2ccc(O)cc2)oc2cc(O)cc(O)c12
REMARK SMILES IDX 5 1 3 2 2 3 1 4 21 5 19 6 18 7 16 8 15 9 14 10 13 11 6 12
REMARK SMILES IDX 7 13 8 14 9 15 12 16 11 17 10 18 4 20 20 22 17 24
REMARK H PARENT 10 19 4 21 20 23 17 25
REMARK Flexibility Score: inf
ROOT
ATOM      1  C   UNL     1      53.313  10.820  89.259  1.00  0.00     0.180 A 
ATOM      2  C   UNL     1      52.491  10.499  88.165  1.00  0.00     0.208 A 
ATOM      3  C   UNL     1      52.219  11.489  87.206  1.00  0.00     0.238 A 
ATOM      4  O   UNL     1      51.438  11.212  86.258  1.00  0.00    -0.285 OA
ATOM      5  C   UNL     1      52.785  12.778  87.343  1.00  0.00     0.111 A 
ATOM      6  C   UNL     1      52.610  13.844  86.411  1.00  0.00     0.134 A 
ATOM      7  C   UNL     1      53.108  15.118  86.714  1.00  0.00     0.093 A 
ATOM      8  C   UNL     1      53.833  15.346  87.886  1.00  0.00     0.123 A 
ATOM      9  C   UNL     1      54.061  14.298  88.774  1.00  0.00     0.094 A 
ATOM     10  C   UNL     1      53.544  13.025  88.517  1.00  0.00     0.146 A 
ATOM     11  O   UNL     1      53.776  12.058  89.395  1.00  0.00    -0.452 OA
ENDROOT
BRANCH   1  12
ATOM     12  C   UNL     1      53.666   9.824  90.297  1.00  0.00     0.021 A 
ATOM     13  C   UNL     1      52.875   9.652  91.447  1.00  0.00     0.016 A 
ATOM     14  C   UNL     1      53.216   8.688  92.402  1.00  0.00     0.047 A 
ATOM     15  C   UNL     1      54.342   7.877  92.213  1.00  0.00     0.115 A 
ATOM     16  C   UNL     1      54.782   8.992  90.105  1.00  0.00     0.016 A 
ATOM     17  C   UNL     1      55.121   8.030  91.062  1.00  0.00     0.047 A 
BRANCH  15  18
ATOM     18  O   UNL     1      54.691   6.915  93.158  1.00  0.00    -0.508 OA
ATOM     19  H   UNL     1      55.398   7.096  93.861  1.00  0.00     0.293 HD
ENDBRANCH  15  18
ENDBRANCH   1  12
BRANCH   2  20
ATOM     20  O   UNL     1      51.924   9.226  88.060  1.00  0.00    -0.502 OA
ATOM     21  H   UNL     1      52.465   8.379  88.188  1.00  0.00     0.293 HD
ENDBRANCH   2  20
BRANCH   6  22
ATOM     22  O   UNL     1      51.982  13.701  85.170  1.00  0.00    -0.507 OA
ATOM     23  H   UNL     1      50.988  13.775  85.017  1.00  0.00     0.293 HD
ENDBRANCH   6  22
BRANCH   8  24
ATOM     24  O   UNL     1      54.340  16.612  88.173  1.00  0.00    -0.508 OA
ATOM     25  H   UNL     1      54.901  16.783  88.998  1.00  0.00     0.293 HD
ENDBRANCH   8  24
TORSDOF 5
ENDMDL
MODEL 3
REMARK VINA RESULT:    -6.168      2.043      6.946
REMARK INTER + INTRA:          -7.538
REMARK INTER:                  -7.597
REMARK INTRA:                   0.059
REMARK UNBOUND:                -0.289
REMARK SMILES O=c1c(O)c(-c2ccc(O)cc2)oc2cc(O)cc(O)c12
REMARK SMILES IDX 5 1 3 2 2 3 1 4 21 5 19 6 18 7 16 8 15 9 14 10 13 11 6 12
REMARK SMILES IDX 7 13 8 14 9 15 12 16 11 17 10 18 4 20 20 22 17 24
REMARK H PARENT 10 19 4 21 20 23 17 25
REMARK Flexibility Score: inf
ROOT
ATOM      1  C   UNL     1      53.134  11.934  88.590  1.00  0.00     0.180 A 
ATOM      2  C   UNL     1      53.547  10.612  88.347  1.00  0.00     0.208 A 
ATOM      3  C   UNL     1      53.560   9.696  89.412  1.00  0.00     0.238 A 
ATOM      4  O   UNL     1      53.982   8.531  89.200  1.00  0.00    -0.285 OA
ATOM      5  C   UNL     1      53.145  10.108  90.701  1.00  0.00     0.111 A 
ATOM      6  C   UNL     1      53.079   9.255  91.842  1.00  0.00     0.134 A 
ATOM      7  C   UNL     1      52.780   9.800  93.097  1.00  0.00     0.093 A 
ATOM      8  C   UNL     1      52.477  11.157  93.239  1.00  0.00     0.123 A 
ATOM      9  C   UNL     1      52.481  11.986  92.120  1.00  0.00     0.094 A 
ATOM     10  C   UNL     1      52.812  11.479  90.862  1.00  0.00     0.146 A 
ATOM     11  O   UNL     1      52.813  12.307  89.824  1.00  0.00    -0.452 OA
ENDROOT
BRANCH   1  12
ATOM     12  C   UNL     1      53.069  12.949  87.514  1.00  0.00     0.021 A 
ATOM     13  C   UNL     1      52.481  12.662  86.269  1.00  0.00     0.016 A 
ATOM     14  C   UNL     1      52.409  13.645  85.278  1.00  0.00     0.047 A 
ATOM     15  C   UNL     1      52.912  14.930  85.522  1.00  0.00     0.115 A 
ATOM     16  C   UNL     1      53.551  14.247  87.758  1.00  0.00     0.016 A 
ATOM     17  C   UNL     1      53.480  15.227  86.764  1.00  0.00     0.047 A 
BRANCH  15  18
ATOM     18  O   UNL     1      52.848  15.916  84.540  1.00  0.00    -0.508 OA
ATOM     19  H   UNL     1      52.260  16.734  84.649  1.00  0.00     0.293 HD
ENDBRANCH  15  18
ENDBRANCH   1  12
BRANCH   2  20
ATOM     20  O   UNL     1      53.974  10.233  87.071  1.00  0.00    -0.502 OA
ATOM     21  H   UNL     1      53.336   9.882  86.367  1.00  0.00     0.293 HD
ENDBRANCH   2  20
BRANCH   6  22
ATOM     22  O   UNL     1      53.272   7.871  91.794  1.00  0.00    -0.507 OA
ATOM     23  H   UNL     1      52.558   7.200  91.552  1.00  0.00     0.293 HD
ENDBRANCH   6  22
BRANCH   8  24
ATOM     24  O   UNL     1      52.164  11.689  94.488  1.00  0.00    -0.508 OA
ATOM     25  H   UNL     1      52.545  11.297  95.341  1.00  0.00     0.293 HD
ENDBRANCH   8  24
TORSDOF 5
ENDMDL
MODEL 4
REMARK VINA RESULT:    -6.095      2.002      6.698
REMARK INTER + INTRA:          -7.452
REMARK INTER:                  -7.396
REMARK INTRA:                  -0.056
REMARK UNBOUND:                -0.289
REMARK SMILES O=c1c(O)c(-c2ccc(O)cc2)oc2cc(O)cc(O)c12
REMARK SMILES IDX 5 1 3 2 2 3 1 4 21 5 19 6 18 7 16 8 15 9 14 10 13 11 6 12
REMARK SMILES IDX 7 13 8 14 9 15 12 16 11 17 10 18 4 20 20 22 17 24
REMARK H PARENT 10 19 4 21 20 23 17 25
REMARK Flexibility Score: inf
ROOT
ATOM      1  C   UNL     1      53.197  12.528  88.094  1.00  0.00     0.180 A 
ATOM      2  C   UNL     1      54.249  12.645  89.019  1.00  0.00     0.208 A 
ATOM      3  C   UNL     1      54.474  11.598  89.929  1.00  0.00     0.238 A 
ATOM      4  O   UNL     1      55.382  11.732  90.790  1.00  0.00    -0.285 OA
ATOM      5  C   UNL     1      53.657  10.444  89.891  1.00  0.00     0.111 A 
ATOM      6  C   UNL     1      53.820   9.307  90.738  1.00  0.00     0.134 A 
ATOM      7  C   UNL     1      52.873   8.276  90.702  1.00  0.00     0.093 A 
ATOM      8  C   UNL     1      51.805   8.311  89.802  1.00  0.00     0.123 A 
ATOM      9  C   UNL     1      51.670   9.389  88.930  1.00  0.00     0.094 A 
ATOM     10  C   UNL     1      52.578  10.450  88.968  1.00  0.00     0.146 A 
ATOM     11  O   UNL     1      52.407  11.461  88.126  1.00  0.00    -0.452 OA
ENDROOT
BRANCH   1  12
ATOM     12  C   UNL     1      52.914  13.577  87.088  1.00  0.00     0.021 A 
ATOM     13  C   UNL     1      52.625  14.900  87.468  1.00  0.00     0.016 A 
ATOM     14  C   UNL     1      52.385  15.878  86.498  1.00  0.00     0.047 A 
ATOM     15  C   UNL     1      52.443  15.550  85.137  1.00  0.00     0.115 A 
ATOM     16  C   UNL     1      52.992  13.262  85.720  1.00  0.00     0.016 A 
ATOM     17  C   UNL     1      52.750  14.242  84.752  1.00  0.00     0.047 A 
BRANCH  15  18
ATOM     18  O   UNL     1      52.204  16.517  84.163  1.00  0.00    -0.508 OA
ATOM     19  H   UNL     1      52.708  16.519  83.284  1.00  0.00     0.293 HD
ENDBRANCH  15  18
ENDBRANCH   1  12
BRANCH   2  20
ATOM     20  O   UNL     1      55.030  13.803  89.054  1.00  0.00    -0.502 OA
ATOM     21  H   UNL     1      55.549  14.085  89.878  1.00  0.00     0.293 HD
ENDBRANCH   2  20
BRANCH   6  22
ATOM     22  O   UNL     1      54.902   9.129  91.606  1.00  0.00    -0.507 OA
ATOM     23  H   UNL     1      55.733   8.601  91.387  1.00  0.00     0.293 HD
ENDBRANCH   6  22
BRANCH   8  24
ATOM     24  O   UNL     1      50.875   7.274  89.761  1.00  0.00    -0.508 OA
ATOM     25  H   UNL     1      50.362   6.989  90.587  1.00  0.00     0.293 HD
ENDBRANCH   8  24
TORSDOF 5
ENDMDL
MODEL 5
REMARK VINA RESULT:    -6.091      2.343      7.100
REMARK INTER + INTRA:          -7.447
REMARK INTER:                  -7.166
REMARK INTRA:                  -0.282
REMARK UNBOUND:                -0.289
REMARK SMILES O=c1c(O)c(-c2ccc(O)cc2)oc2cc(O)cc(O)c12
REMARK SMILES IDX 5 1 3 2 2 3 1 4 21 5 19 6 18 7 16 8 15 9 14 10 13 11 6 12
REMARK SMILES IDX 7 13 8 14 9 15 12 16 11 17 10 18 4 20 20 22 17 24
REMARK H PARENT 10 19 4 21 20 23 17 25
REMARK Flexibility Score: inf
ROOT
ATOM      1  C   UNL     1      53.338  11.411  91.636  1.00  0.00     0.180 A 
ATOM      2  C   UNL     1      52.363  11.832  92.558  1.00  0.00     0.208 A 
ATOM      3  C   UNL     1      51.786  10.883  93.418  1.00  0.00     0.238 A 
ATOM      4  O   UNL     1      50.875  11.255  94.202  1.00  0.00    -0.285 OA
ATOM      5  C   UNL     1      52.203   9.532  93.358  1.00  0.00     0.111 A 
ATOM      6  C   UNL     1      51.716   8.495  94.209  1.00  0.00     0.134 A 
ATOM      7  C   UNL     1      52.102   7.169  93.974  1.00  0.00     0.093 A 
ATOM      8  C   UNL     1      53.009   6.852  92.960  1.00  0.00     0.123 A 
ATOM      9  C   UNL     1      53.536   7.865  92.162  1.00  0.00     0.094 A 
ATOM     10  C   UNL     1      53.141   9.193  92.348  1.00  0.00     0.146 A 
ATOM     11  O   UNL     1      53.660  10.125  91.559  1.00  0.00    -0.452 OA
ENDROOT
BRANCH   1  12
ATOM     12  C   UNL     1      54.009  12.356  90.715  1.00  0.00     0.021 A 
ATOM     13  C   UNL     1      53.526  12.579  89.412  1.00  0.00     0.016 A 
ATOM     14  C   UNL     1      54.164  13.494  88.569  1.00  0.00     0.047 A 
ATOM     15  C   UNL     1      55.282  14.207  89.020  1.00  0.00     0.115 A 
ATOM     16  C   UNL     1      55.119  13.091  91.166  1.00  0.00     0.016 A 
ATOM     17  C   UNL     1      55.755  14.005  90.320  1.00  0.00     0.047 A 
BRANCH  15  18
ATOM     18  O   UNL     1      55.926  15.120  88.188  1.00  0.00    -0.508 OA
ATOM     19  H   UNL     1      55.430  15.901  87.774  1.00  0.00     0.293 HD
ENDBRANCH  15  18
ENDBRANCH   1  12
BRANCH   2  20
ATOM     20  O   UNL     1      51.950  13.166  92.585  1.00  0.00    -0.502 OA
ATOM     21  H   UNL     1      52.559  13.929  92.312  1.00  0.00     0.293 HD
ENDBRANCH   2  20
BRANCH   6  22
ATOM     22  O   UNL     1      50.879   8.715  95.307  1.00  0.00    -0.507 OA
ATOM     23  H   UNL     1      50.594   9.624  95.639  1.00  0.00     0.293 HD
ENDBRANCH   6  22
BRANCH   8  24
ATOM     24  O   UNL     1      53.401   5.533  92.743  1.00  0.00    -0.508 OA
ATOM     25  H   UNL     1      53.919   5.263  91.915  1.00  0.00     0.293 HD
ENDBRANCH   8  24
TORSDOF 5
ENDMDL
MODEL 6
REMARK VINA RESULT:    -6.088      2.840      7.297
REMARK INTER + INTRA:          -7.445
REMARK INTER:                  -7.219
REMARK INTRA:                  -0.226
REMARK UNBOUND:                -0.289
REMARK SMILES O=c1c(O)c(-c2ccc(O)cc2)oc2cc(O)cc(O)c12
REMARK SMILES IDX 5 1 3 2 2 3 1 4 21 5 19 6 18 7 16 8 15 9 14 10 13 11 6 12
REMARK SMILES IDX 7 13 8 14 9 15 12 16 11 17 10 18 4 20 20 22 17 24
REMARK H PARENT 10 19 4 21 20 23 17 25
REMARK Flexibility Score: inf
ROOT
ATOM      1  C   UNL     1      52.656  15.267  88.202  1.00  0.00     0.180 A 
ATOM      2  C   UNL     1      52.587  14.911  86.844  1.00  0.00     0.208 A 
ATOM      3  C   UNL     1      52.874  13.587  86.473  1.00  0.00     0.238 A 
ATOM      4  O   UNL     1      52.864  13.287  85.251  1.00  0.00    -0.285 OA
ATOM      5  C   UNL     1      53.209  12.634  87.464  1.00  0.00     0.111 A 
ATOM      6  C   UNL     1      53.479  11.256  87.206  1.00  0.00     0.134 A 
ATOM      7  C   UNL     1      53.928  10.433  88.246  1.00  0.00     0.093 A 
ATOM      8  C   UNL     1      54.054  10.922  89.549  1.00  0.00     0.123 A 
ATOM      9  C   UNL     1      53.736  12.250  89.822  1.00  0.00     0.094 A 
ATOM     10  C   UNL     1      53.320  13.106  88.798  1.00  0.00     0.146 A 
ATOM     11  O   UNL     1      53.038  14.367  89.101  1.00  0.00    -0.452 OA
ENDROOT
BRANCH   1  12
ATOM     12  C   UNL     1      52.343  16.636  88.674  1.00  0.00     0.021 A 
ATOM     13  C   UNL     1      51.144  16.921  89.352  1.00  0.00     0.016 A 
ATOM     14  C   UNL     1      50.882  18.217  89.809  1.00  0.00     0.047 A 
ATOM     15  C   UNL     1      51.819  19.238  89.607  1.00  0.00     0.115 A 
ATOM     16  C   UNL     1      53.287  17.662  88.494  1.00  0.00     0.016 A 
ATOM     17  C   UNL     1      53.021  18.956  88.951  1.00  0.00     0.047 A 
BRANCH  15  18
ATOM     18  O   UNL     1      51.567  20.532  90.056  1.00  0.00    -0.508 OA
ATOM     19  H   UNL     1      52.307  21.119  90.424  1.00  0.00     0.293 HD
ENDBRANCH  15  18
ENDBRANCH   1  12
BRANCH   2  20
ATOM     20  O   UNL     1      52.276  15.873  85.879  1.00  0.00    -0.502 OA
ATOM     21  H   UNL     1      52.595  16.832  85.946  1.00  0.00     0.293 HD
ENDBRANCH   2  20
BRANCH   6  22
ATOM     22  O   UNL     1      53.296  10.645  85.962  1.00  0.00    -0.507 OA
ATOM     23  H   UNL     1      53.311   9.649  85.804  1.00  0.00     0.293 HD
ENDBRANCH   6  22
BRANCH   8  24
ATOM     24  O   UNL     1      54.486  10.093  90.581  1.00  0.00    -0.508 OA
ATOM     25  H   UNL     1      54.092  10.156  91.512  1.00  0.00     0.293 HD
ENDBRANCH   8  24
TORSDOF 5
ENDMDL
MODEL 7
REMARK VINA RESULT:    -5.991      2.337      6.883
REMARK INTER + INTRA:          -7.330
REMARK INTER:                  -7.236
REMARK INTRA:                  -0.094
REMARK UNBOUND:                -0.289
REMARK SMILES O=c1c(O)c(-c2ccc(O)cc2)oc2cc(O)cc(O)c12
REMARK SMILES IDX 5 1 3 2 2 3 1 4 21 5 19 6 18 7 16 8 15 9 14 10 13 11 6 12
REMARK SMILES IDX 7 13 8 14 9 15 12 16 11 17 10 18 4 20 20 22 17 24
REMARK H PARENT 10 19 4 21 20 23 17 25
REMARK Flexibility Score: inf
ROOT
ATOM      1  C   UNL     1      53.244  10.966  91.519  1.00  0.00     0.180 A 
ATOM      2  C   UNL     1      52.909  11.147  92.873  1.00  0.00     0.208 A 
ATOM      3  C   UNL     1      52.323  10.082  93.577  1.00  0.00     0.238 A 
ATOM      4  O   UNL     1      51.976  10.269  94.772  1.00  0.00    -0.285 OA
ATOM      5  C   UNL     1      52.096   8.847  92.926  1.00  0.00     0.111 A 
ATOM      6  C   UNL     1      51.547   7.689  93.554  1.00  0.00     0.134 A 
ATOM      7  C   UNL     1      51.244   6.561  92.780  1.00  0.00     0.093 A 
ATOM      8  C   UNL     1      51.533   6.526  91.414  1.00  0.00     0.123 A 
ATOM      9  C   UNL     1      52.124   7.630  90.804  1.00  0.00     0.094 A 
ATOM     10  C   UNL     1      52.404   8.783  91.541  1.00  0.00     0.146 A 
ATOM     11  O   UNL     1      52.958   9.816  90.918  1.00  0.00    -0.452 OA
ENDROOT
BRANCH   1  12
ATOM     12  C   UNL     1      53.887  12.032  90.717  1.00  0.00     0.021 A 
ATOM     13  C   UNL     1      55.122  12.590  91.095  1.00  0.00     0.016 A 
ATOM     14  C   UNL     1      55.721  13.578  90.308  1.00  0.00     0.047 A 
ATOM     15  C   UNL     1      55.101  14.012  89.129  1.00  0.00     0.115 A 
ATOM     16  C   UNL     1      53.283  12.457  89.521  1.00  0.00     0.016 A 
ATOM     17  C   UNL     1      53.884  13.446  88.737  1.00  0.00     0.047 A 
BRANCH  15  18
ATOM     18  O   UNL     1      55.689  14.997  88.338  1.00  0.00    -0.508 OA
ATOM     19  H   UNL     1      55.147  15.532  87.670  1.00  0.00     0.293 HD
ENDBRANCH  15  18
ENDBRANCH   1  12
BRANCH   2  20
ATOM     20  O   UNL     1      53.122  12.383  93.490  1.00  0.00    -0.502 OA
ATOM     21  H   UNL     1      52.469  12.776  94.158  1.00  0.00     0.293 HD
ENDBRANCH   2  20
BRANCH   6  22
ATOM     22  O   UNL     1      51.306   7.585  94.927  1.00  0.00    -0.507 OA
ATOM     23  H   UNL     1      51.390   8.347  95.583  1.00  0.00     0.293 HD
ENDBRANCH   6  22
BRANCH   8  24
ATOM     24  O   UNL     1      51.243   5.395  90.654  1.00  0.00    -0.508 OA
ATOM     25  H   UNL     1      50.884   5.468  89.710  1.00  0.00     0.293 HD
ENDBRANCH   8  24
TORSDOF 5
ENDMDL
MODEL 8
REMARK VINA RESULT:    -5.953      2.300      3.176
REMARK INTER + INTRA:          -7.286
REMARK INTER:                  -7.307
REMARK INTRA:                   0.021
REMARK UNBOUND:                -0.289
REMARK SMILES O=c1c(O)c(-c2ccc(O)cc2)oc2cc(O)cc(O)c12
REMARK SMILES IDX 5 1 3 2 2 3 1 4 21 5 19 6 18 7 16 8 15 9 14 10 13 11 6 12
REMARK SMILES IDX 7 13 8 14 9 15 12 16 11 17 10 18 4 20 20 22 17 24
REMARK H PARENT 10 19 4 21 20 23 17 25
REMARK Flexibility Score: inf
ROOT
ATOM      1  C   UNL     1      52.567  10.395  92.010  1.00  0.00     0.180 A 
ATOM      2  C   UNL     1      52.998  11.688  92.355  1.00  0.00     0.208 A 
ATOM      3  C   UNL     1      53.342  12.586  91.330  1.00  0.00     0.238 A 
ATOM      4  O   UNL     1      53.779  13.722  91.646  1.00  0.00    -0.285 OA
ATOM      5  C   UNL     1      53.235  12.185  89.977  1.00  0.00     0.111 A 
ATOM      6  C   UNL     1      53.518  13.025  88.858  1.00  0.00     0.134 A 
ATOM      7  C   UNL     1      53.504  12.484  87.566  1.00  0.00     0.093 A 
ATOM      8  C   UNL     1      53.152  11.150  87.349  1.00  0.00     0.123 A 
ATOM      9  C   UNL     1      52.817  10.338  88.429  1.00  0.00     0.094 A 
ATOM     10  C   UNL     1      52.857  10.839  89.733  1.00  0.00     0.146 A 
ATOM     11  O   UNL     1      52.540  10.027  90.734  1.00  0.00    -0.452 OA
ENDROOT
BRANCH   1  12
ATOM     12  C   UNL     1      52.164   9.402  93.032  1.00  0.00     0.021 A 
ATOM     13  C   UNL     1      51.260   9.731  94.059  1.00  0.00     0.016 A 
ATOM     14  C   UNL     1      50.876   8.769  94.998  1.00  0.00     0.047 A 
ATOM     15  C   UNL     1      51.377   7.464  94.915  1.00  0.00     0.115 A 
ATOM     16  C   UNL     1      52.645   8.084  92.944  1.00  0.00     0.016 A 
ATOM     17  C   UNL     1      52.260   7.125  93.885  1.00  0.00     0.047 A 
BRANCH  15  18
ATOM     18  O   UNL     1      51.002   6.498  95.845  1.00  0.00    -0.508 OA
ATOM     19  H   UNL     1      51.580   6.284  96.650  1.00  0.00     0.293 HD
ENDBRANCH  15  18
ENDBRANCH   1  12
BRANCH   2  20
ATOM     20  O   UNL     1      53.118  12.055  93.698  1.00  0.00    -0.502 OA
ATOM     21  H   UNL     1      52.326  12.070  94.330  1.00  0.00     0.293 HD
ENDBRANCH   2  20
BRANCH   6  22
ATOM     22  O   UNL     1      53.789  14.393  88.958  1.00  0.00    -0.507 OA
ATOM     23  H   UNL     1      54.577  14.788  89.450  1.00  0.00     0.293 HD
ENDBRANCH   6  22
BRANCH   8  24
ATOM     24  O   UNL     1      53.125  10.623  86.059  1.00  0.00    -0.508 OA
ATOM     25  H   UNL     1      53.961  10.262  85.617  1.00  0.00     0.293 HD
ENDBRANCH   8  24
TORSDOF 5
ENDMDL
MODEL 9
REMARK VINA RESULT:    -5.923      1.990      6.814
REMARK INTER + INTRA:          -7.250
REMARK INTER:                  -6.993
REMARK INTRA:                  -0.257
REMARK UNBOUND:                -0.289
REMARK SMILES O=c1c(O)c(-c2ccc(O)cc2)oc2cc(O)cc(O)c12
REMARK SMILES IDX 5 1 3 2 2 3 1 4 21 5 19 6 18 7 16 8 15 9 14 10 13 11 6 12
REMARK SMILES IDX 7 13 8 14 9 15 12 16 11 17 10 18 4 20 20 22 17 24
REMARK H PARENT 10 19 4 21 20 23 17 25
REMARK Flexibility Score: inf
ROOT
ATOM      1  C   UNL     1      53.026  12.146  88.846  1.00  0.00     0.180 A 
ATOM      2  C   UNL     1      52.119  12.242  89.916  1.00  0.00     0.208 A 
ATOM      3  C   UNL     1      52.191  11.300  90.955  1.00  0.00     0.238 A 
ATOM      4  O   UNL     1      51.342  11.358  91.882  1.00  0.00    -0.285 OA
ATOM      5  C   UNL     1      53.178  10.287  90.921  1.00  0.00     0.111 A 
ATOM      6  C   UNL     1      53.369   9.306  91.940  1.00  0.00     0.134 A 
ATOM      7  C   UNL     1      54.291   8.271  91.740  1.00  0.00     0.093 A 
ATOM      8  C   UNL     1      55.077   8.220  90.586  1.00  0.00     0.123 A 
ATOM      9  C   UNL     1      54.940   9.207  89.612  1.00  0.00     0.094 A 
ATOM     10  C   UNL     1      54.003  10.231  89.767  1.00  0.00     0.146 A 
ATOM     11  O   UNL     1      53.898  11.145  88.810  1.00  0.00    -0.452 OA
ENDROOT
BRANCH   1  12
ATOM     12  C   UNL     1      53.029  13.115  87.726  1.00  0.00     0.021 A 
ATOM     13  C   UNL     1      53.582  14.400  87.871  1.00  0.00     0.016 A 
ATOM     14  C   UNL     1      53.595  15.290  86.791  1.00  0.00     0.047 A 
ATOM     15  C   UNL     1      53.067  14.902  85.553  1.00  0.00     0.115 A 
ATOM     16  C   UNL     1      52.522  12.727  86.474  1.00  0.00     0.016 A 
ATOM     17  C   UNL     1      52.534  13.619  85.398  1.00  0.00     0.047 A 
BRANCH  15  18
ATOM     18  O   UNL     1      53.073  15.781  84.472  1.00  0.00    -0.508 OA
ATOM     19  H   UNL     1      52.530  15.597  83.637  1.00  0.00     0.293 HD
ENDBRANCH  15  18
ENDBRANCH   1  12
BRANCH   2  20
ATOM     20  O   UNL     1      51.137  13.237  89.918  1.00  0.00    -0.502 OA
ATOM     21  H   UNL     1      51.350  14.210  89.732  1.00  0.00     0.293 HD
ENDBRANCH   2  20
BRANCH   6  22
ATOM     22  O   UNL     1      52.703   9.318  93.169  1.00  0.00    -0.507 OA
ATOM     23  H   UNL     1      52.255   8.516  93.587  1.00  0.00     0.293 HD
ENDBRANCH   6  22
BRANCH   8  24
ATOM     24  O   UNL     1      56.004   7.196  90.401  1.00  0.00    -0.508 OA
ATOM     25  H   UNL     1      57.000   7.378  90.395  1.00  0.00     0.293 HD
ENDBRANCH   8  24
TORSDOF 5
ENDMDL
