MODEL 1
REMARK VINA RESULT:    -5.710      0.000      0.000
REMARK INTER + INTRA:         -13.410
REMARK INTER:                 -11.050
REMARK INTRA:                  -2.360
REMARK UNBOUND:                -2.360
REMARK SMILES CCCCCCCCCCCCCCCCCC(=O)[O-]
REMARK SMILES IDX 10 1 11 2 12 3 13 4 14 5 15 6 16 7 17 8 18 9 19 10 20 11
REMARK SMILES IDX 9 12 8 13 7 14 6 15 5 16 4 17 3 18 2 19 1 20
REMARK H PARENT
REMARK Flexibility Score: inf
ROOT
ATOM      1  C   UNL     1      15.855  22.762  17.026  1.00  0.00     0.000 C 
ENDROOT
BRANCH   1   2
ATOM      2  C   UNL     1      14.355  22.978  17.274  1.00  0.00     0.000 C 
BRANCH   2   3
ATOM      3  C   UNL     1      13.925  22.597  18.703  1.00  0.00     0.000 C 
BRANCH   3   4
ATOM      4  C   UNL     1      14.063  21.102  19.052  1.00  0.00     0.000 C 
BRANCH   4   5
ATOM      5  C   UNL     1      14.964  20.790  20.261  1.00  0.00     0.000 C 
BRANCH   5   6
ATOM      6  C   UNL     1      16.328  20.207  19.855  1.00  0.00     0.000 C 
BRANCH   6   7
ATOM      7  C   UNL     1      16.259  19.397  18.550  1.00  0.00     0.006 C 
BRANCH   7   8
ATOM      8  C   UNL     1      17.619  18.816  18.142  1.00  0.00     0.053 C 
BRANCH   8   9
ATOM      9  C   UNL     1      17.433  17.629  17.251  1.00  0.00     0.041 C 
ATOM     10  O   UNL     1      16.283  17.155  17.058  1.00  0.00    -0.550 OA
ATOM     11  O   UNL     1      18.537  17.013  16.674  1.00  0.00    -0.550 OA
ENDBRANCH   8   9
ENDBRANCH   7   8
ENDBRANCH   6   7
ENDBRANCH   5   6
ENDBRANCH   4   5
ENDBRANCH   3   4
ENDBRANCH   2   3
ENDBRANCH   1   2
BRANCH   1  12
ATOM     12  C   UNL     1      16.085  21.846  15.818  1.00  0.00     0.000 C 
BRANCH  12  13
ATOM     13  C   UNL     1      14.770  21.203  15.356  1.00  0.00    -0.000 C 
BRANCH  13  14
ATOM     14  C   UNL     1      14.460  21.471  13.871  1.00  0.00    -0.000 C 
BRANCH  14  15
ATOM     15  C   UNL     1      15.525  22.296  13.125  1.00  0.00    -0.000 C 
BRANCH  15  16
ATOM     16  C   UNL     1      15.795  21.779  11.702  1.00  0.00    -0.000 C 
BRANCH  16  17
ATOM     17  C   UNL     1      17.289  21.528  11.431  1.00  0.00    -0.000 C 
BRANCH  17  18
ATOM     18  C   UNL     1      17.732  20.056  11.551  1.00  0.00    -0.000 C 
BRANCH  18  19
ATOM     19  C   UNL     1      18.454  19.698  12.862  1.00  0.00    -0.003 C 
ATOM     20  C   UNL     1      17.512  19.136  13.926  1.00  0.00     0.004 C 
ENDBRANCH  18  19
ENDBRANCH  17  18
ENDBRANCH  16  17
ENDBRANCH  15  16
ENDBRANCH  14  15
ENDBRANCH  13  14
ENDBRANCH  12  13
ENDBRANCH   1  12
TORSDOF 16
ENDMDL
MODEL 2
REMARK VINA RESULT:    -5.629      2.402      5.395
REMARK INTER + INTRA:         -13.253
REMARK INTER:                 -10.938
REMARK INTRA:                  -2.315
REMARK UNBOUND:                -2.360
REMARK SMILES CCCCCCCCCCCCCCCCCC(=O)[O-]
REMARK SMILES IDX 10 1 11 2 12 3 13 4 14 5 15 6 16 7 17 8 18 9 19 10 20 11
REMARK SMILES IDX 9 12 8 13 7 14 6 15 5 16 4 17 3 18 2 19 1 20
REMARK H PARENT
REMARK Flexibility Score: inf
ROOT
ATOM      1  C   UNL     1      14.199  21.882  19.015  1.00  0.00     0.000 C 
ENDROOT
BRANCH   1   2
ATOM      2  C   UNL     1      13.982  22.607  17.680  1.00  0.00     0.000 C 
BRANCH   2   3
ATOM      3  C   UNL     1      15.301  22.962  16.970  1.00  0.00     0.000 C 
BRANCH   3   4
ATOM      4  C   UNL     1      15.350  22.618  15.468  1.00  0.00     0.000 C 
BRANCH   4   5
ATOM      5  C   UNL     1      14.596  21.339  15.062  1.00  0.00     0.000 C 
BRANCH   5   6
ATOM      6  C   UNL     1      14.671  21.056  13.552  1.00  0.00     0.000 C 
BRANCH   6   7
ATOM      7  C   UNL     1      15.842  21.783  12.872  1.00  0.00     0.006 C 
BRANCH   7   8
ATOM      8  C   UNL     1      15.954  21.456  11.378  1.00  0.00     0.053 C 
BRANCH   8   9
ATOM      9  C   UNL     1      17.221  20.708  11.101  1.00  0.00     0.041 C 
ATOM     10  O   UNL     1      17.887  20.217  12.049  1.00  0.00    -0.550 OA
ATOM     11  O   UNL     1      17.693  20.599   9.799  1.00  0.00    -0.550 OA
ENDBRANCH   8   9
ENDBRANCH   7   8
ENDBRANCH   6   7
ENDBRANCH   5   6
ENDBRANCH   4   5
ENDBRANCH   3   4
ENDBRANCH   2   3
ENDBRANCH   1   2
BRANCH   1  12
ATOM     12  C   UNL     1      13.939  20.377  18.870  1.00  0.00     0.000 C 
BRANCH  12  13
ATOM     13  C   UNL     1      15.163  19.561  19.310  1.00  0.00    -0.000 C 
BRANCH  13  14
ATOM     14  C   UNL     1      16.397  20.437  19.596  1.00  0.00    -0.000 C 
BRANCH  14  15
ATOM     15  C   UNL     1      17.680  20.008  18.862  1.00  0.00    -0.000 C 
BRANCH  15  16
ATOM     16  C   UNL     1      17.871  20.730  17.518  1.00  0.00    -0.000 C 
BRANCH  16  17
ATOM     17  C   UNL     1      17.923  19.762  16.323  1.00  0.00    -0.000 C 
BRANCH  17  18
ATOM     18  C   UNL     1      16.708  18.821  16.196  1.00  0.00    -0.000 C 
BRANCH  18  19
ATOM     19  C   UNL     1      16.903  17.421  16.803  1.00  0.00    -0.003 C 
ATOM     20  C   UNL     1      18.371  17.002  16.876  1.00  0.00     0.004 C 
ENDBRANCH  18  19
ENDBRANCH  17  18
ENDBRANCH  16  17
ENDBRANCH  15  16
ENDBRANCH  14  15
ENDBRANCH  13  14
ENDBRANCH  12  13
ENDBRANCH   1  12
TORSDOF 16
ENDMDL
MODEL 3
REMARK VINA RESULT:    -5.482      1.526      2.872
REMARK INTER + INTRA:         -12.969
REMARK INTER:                 -10.753
REMARK INTRA:                  -2.215
REMARK UNBOUND:                -2.360
REMARK SMILES CCCCCCCCCCCCCCCCCC(=O)[O-]
REMARK SMILES IDX 10 1 11 2 12 3 13 4 14 5 15 6 16 7 17 8 18 9 19 10 20 11
REMARK SMILES IDX 9 12 8 13 7 14 6 15 5 16 4 17 3 18 2 19 1 20
REMARK H PARENT
REMARK Flexibility Score: inf
ROOT
ATOM      1  C   UNL     1      14.049  21.107  18.318  1.00  0.00     0.000 C 
ENDROOT
BRANCH   1   2
ATOM      2  C   UNL     1      14.750  21.091  19.683  1.00  0.00     0.000 C 
BRANCH   2   3
ATOM      3  C   UNL     1      15.618  19.838  19.895  1.00  0.00     0.000 C 
BRANCH   3   4
ATOM      4  C   UNL     1      15.392  18.705  18.874  1.00  0.00     0.000 C 
BRANCH   4   5
ATOM      5  C   UNL     1      16.640  17.873  18.528  1.00  0.00     0.000 C 
BRANCH   5   6
ATOM      6  C   UNL     1      16.844  17.704  17.013  1.00  0.00     0.000 C 
BRANCH   6   7
ATOM      7  C   UNL     1      16.482  18.972  16.223  1.00  0.00     0.006 C 
BRANCH   7   8
ATOM      8  C   UNL     1      17.671  19.539  15.437  1.00  0.00     0.053 C 
BRANCH   8   9
ATOM      9  C   UNL     1      18.781  19.913  16.368  1.00  0.00     0.041 C 
ATOM     10  O   UNL     1      19.932  19.427  16.209  1.00  0.00    -0.550 OA
ATOM     11  O   UNL     1      18.533  20.758  17.442  1.00  0.00    -0.550 OA
ENDBRANCH   8   9
ENDBRANCH   7   8
ENDBRANCH   6   7
ENDBRANCH   5   6
ENDBRANCH   4   5
ENDBRANCH   3   4
ENDBRANCH   2   3
ENDBRANCH   1   2
BRANCH   1  12
ATOM     12  C   UNL     1      14.271  22.445  17.602  1.00  0.00     0.000 C 
BRANCH  12  13
ATOM     13  C   UNL     1      15.521  22.392  16.711  1.00  0.00    -0.000 C 
BRANCH  13  14
ATOM     14  C   UNL     1      15.203  22.600  15.218  1.00  0.00    -0.000 C 
BRANCH  14  15
ATOM     15  C   UNL     1      14.238  21.566  14.611  1.00  0.00    -0.000 C 
BRANCH  15  16
ATOM     16  C   UNL     1      14.819  20.858  13.375  1.00  0.00    -0.000 C 
BRANCH  16  17
ATOM     17  C   UNL     1      15.837  21.725  12.614  1.00  0.00    -0.000 C 
BRANCH  17  18
ATOM     18  C   UNL     1      15.995  21.380  11.119  1.00  0.00    -0.000 C 
BRANCH  18  19
ATOM     19  C   UNL     1      17.264  20.586  10.765  1.00  0.00    -0.003 C 
ATOM     20  C   UNL     1      18.193  20.384  11.962  1.00  0.00     0.004 C 
ENDBRANCH  18  19
ENDBRANCH  17  18
ENDBRANCH  16  17
ENDBRANCH  15  16
ENDBRANCH  14  15
ENDBRANCH  13  14
ENDBRANCH  12  13
ENDBRANCH   1  12
TORSDOF 16
ENDMDL
MODEL 4
REMARK VINA RESULT:    -5.413      1.265      5.577
REMARK INTER + INTRA:         -12.837
REMARK INTER:                 -10.589
REMARK INTRA:                  -2.248
REMARK UNBOUND:                -2.360
REMARK SMILES CCCCCCCCCCCCCCCCCC(=O)[O-]
REMARK SMILES IDX 10 1 11 2 12 3 13 4 14 5 15 6 16 7 17 8 18 9 19 10 20 11
REMARK SMILES IDX 9 12 8 13 7 14 6 15 5 16 4 17 3 18 2 19 1 20
REMARK H PARENT
REMARK Flexibility Score: inf
ROOT
ATOM      1  C   UNL     1      15.341  21.316  15.746  1.00  0.00     0.000 C 
ENDROOT
BRANCH   1   2
ATOM      2  C   UNL     1      14.436  21.727  14.577  1.00  0.00     0.000 C 
BRANCH   2   3
ATOM      3  C   UNL     1      14.861  21.092  13.240  1.00  0.00     0.000 C 
BRANCH   3   4
ATOM      4  C   UNL     1      15.990  21.832  12.494  1.00  0.00     0.000 C 
BRANCH   4   5
ATOM      5  C   UNL     1      16.815  20.966  11.525  1.00  0.00     0.000 C 
BRANCH   5   6
ATOM      6  C   UNL     1      17.294  19.650  12.160  1.00  0.00     0.000 C 
BRANCH   6   7
ATOM      7  C   UNL     1      18.501  19.850  13.091  1.00  0.00     0.006 C 
BRANCH   7   8
ATOM      8  C   UNL     1      18.238  19.347  14.516  1.00  0.00     0.053 C 
BRANCH   8   9
ATOM      9  C   UNL     1      19.489  18.778  15.109  1.00  0.00     0.041 C 
ATOM     10  O   UNL     1      19.670  17.533  15.132  1.00  0.00    -0.550 OA
ATOM     11  O   UNL     1      20.432  19.622  15.682  1.00  0.00    -0.550 OA
ENDBRANCH   8   9
ENDBRANCH   7   8
ENDBRANCH   6   7
ENDBRANCH   5   6
ENDBRANCH   4   5
ENDBRANCH   3   4
ENDBRANCH   2   3
ENDBRANCH   1   2
BRANCH   1  12
ATOM     12  C   UNL     1      15.606  22.505  16.679  1.00  0.00     0.000 C 
BRANCH  12  13
ATOM     13  C   UNL     1      14.383  22.798  17.559  1.00  0.00    -0.000 C 
BRANCH  13  14
ATOM     14  C   UNL     1      13.966  21.596  18.427  1.00  0.00    -0.000 C 
BRANCH  14  15
ATOM     15  C   UNL     1      14.723  21.467  19.761  1.00  0.00    -0.000 C 
BRANCH  15  16
ATOM     16  C   UNL     1      15.556  20.178  19.855  1.00  0.00    -0.000 C 
BRANCH  16  17
ATOM     17  C   UNL     1      16.982  20.347  19.303  1.00  0.00    -0.000 C 
BRANCH  17  18
ATOM     18  C   UNL     1      17.393  19.311  18.237  1.00  0.00    -0.000 C 
BRANCH  18  19
ATOM     19  C   UNL     1      16.664  17.959  18.328  1.00  0.00    -0.003 C 
ATOM     20  C   UNL     1      16.296  17.387  16.959  1.00  0.00     0.004 C 
ENDBRANCH  18  19
ENDBRANCH  17  18
ENDBRANCH  16  17
ENDBRANCH  15  16
ENDBRANCH  14  15
ENDBRANCH  13  14
ENDBRANCH  12  13
ENDBRANCH   1  12
TORSDOF 16
ENDMDL
MODEL 5
REMARK VINA RESULT:    -5.376      1.990      4.742
REMARK INTER + INTRA:         -12.764
REMARK INTER:                 -10.792
REMARK INTRA:                  -1.972
REMARK UNBOUND:                -2.360
REMARK SMILES CCCCCCCCCCCCCCCCCC(=O)[O-]
REMARK SMILES IDX 10 1 11 2 12 3 13 4 14 5 15 6 16 7 17 8 18 9 19 10 20 11
REMARK SMILES IDX 9 12 8 13 7 14 6 15 5 16 4 17 3 18 2 19 1 20
REMARK H PARENT
REMARK Flexibility Score: inf
ROOT
ATOM      1  C   UNL     1      18.660  18.965  13.767  1.00  0.00     0.000 C 
ENDROOT
BRANCH   1   2
ATOM      2  C   UNL     1      18.544  19.778  15.064  1.00  0.00     0.000 C 
BRANCH   2   3
ATOM      3  C   UNL     1      19.166  19.062  16.276  1.00  0.00     0.000 C 
BRANCH   3   4
ATOM      4  C   UNL     1      18.566  17.679  16.599  1.00  0.00     0.000 C 
BRANCH   4   5
ATOM      5  C   UNL     1      17.524  17.662  17.732  1.00  0.00     0.000 C 
BRANCH   5   6
ATOM      6  C   UNL     1      16.084  17.839  17.221  1.00  0.00     0.000 C 
BRANCH   6   7
ATOM      7  C   UNL     1      15.254  18.779  18.110  1.00  0.00     0.006 C 
BRANCH   7   8
ATOM      8  C   UNL     1      15.999  19.199  19.384  1.00  0.00     0.053 C 
BRANCH   8   9
ATOM      9  C   UNL     1      15.048  19.803  20.369  1.00  0.00     0.041 C 
ATOM     10  O   UNL     1      13.981  19.206  20.667  1.00  0.00    -0.550 OA
ATOM     11  O   UNL     1      15.317  21.050  20.920  1.00  0.00    -0.550 OA
ENDBRANCH   8   9
ENDBRANCH   7   8
ENDBRANCH   6   7
ENDBRANCH   5   6
ENDBRANCH   4   5
ENDBRANCH   3   4
ENDBRANCH   2   3
ENDBRANCH   1   2
BRANCH   1  12
ATOM     12  C   UNL     1      17.583  19.383  12.759  1.00  0.00     0.000 C 
BRANCH  12  13
ATOM     13  C   UNL     1      18.134  20.407  11.756  1.00  0.00    -0.000 C 
BRANCH  13  14
ATOM     14  C   UNL     1      17.118  21.509  11.402  1.00  0.00    -0.000 C 
BRANCH  14  15
ATOM     15  C   UNL     1      15.735  21.350  12.059  1.00  0.00    -0.000 C 
BRANCH  15  16
ATOM     16  C   UNL     1      15.541  22.271  13.276  1.00  0.00    -0.000 C 
BRANCH  16  17
ATOM     17  C   UNL     1      14.742  21.602  14.408  1.00  0.00    -0.000 C 
BRANCH  17  18
ATOM     18  C   UNL     1      15.465  21.549  15.770  1.00  0.00    -0.000 C 
BRANCH  18  19
ATOM     19  C   UNL     1      15.316  22.812  16.635  1.00  0.00    -0.003 C 
ATOM     20  C   UNL     1      14.472  22.580  17.888  1.00  0.00     0.004 C 
ENDBRANCH  18  19
ENDBRANCH  17  18
ENDBRANCH  16  17
ENDBRANCH  15  16
ENDBRANCH  14  15
ENDBRANCH  13  14
ENDBRANCH  12  13
ENDBRANCH   1  12
TORSDOF 16
ENDMDL
MODEL 6
REMARK VINA RESULT:    -5.367      1.484      3.447
REMARK INTER + INTRA:         -12.747
REMARK INTER:                 -10.722
REMARK INTRA:                  -2.025
REMARK UNBOUND:                -2.360
REMARK SMILES CCCCCCCCCCCCCCCCCC(=O)[O-]
REMARK SMILES IDX 10 1 11 2 12 3 13 4 14 5 15 6 16 7 17 8 18 9 19 10 20 11
REMARK SMILES IDX 9 12 8 13 7 14 6 15 5 16 4 17 3 18 2 19 1 20
REMARK H PARENT
REMARK Flexibility Score: inf
ROOT
ATOM      1  C   UNL     1      14.938  21.440  20.169  1.00  0.00     0.000 C 
ENDROOT
BRANCH   1   2
ATOM      2  C   UNL     1      15.619  20.084  20.400  1.00  0.00     0.000 C 
BRANCH   2   3
ATOM      3  C   UNL     1      15.600  19.185  19.151  1.00  0.00     0.000 C 
BRANCH   3   4
ATOM      4  C   UNL     1      16.927  19.123  18.368  1.00  0.00     0.000 C 
BRANCH   4   5
ATOM      5  C   UNL     1      17.624  20.478  18.147  1.00  0.00     0.000 C 
BRANCH   5   6
ATOM      6  C   UNL     1      18.803  20.390  17.164  1.00  0.00     0.000 C 
BRANCH   6   7
ATOM      7  C   UNL     1      18.439  19.643  15.871  1.00  0.00     0.006 C 
BRANCH   7   8
ATOM      8  C   UNL     1      19.667  19.062  15.158  1.00  0.00     0.053 C 
BRANCH   8   9
ATOM      9  C   UNL     1      19.840  17.618  15.511  1.00  0.00     0.041 C 
ATOM     10  O   UNL     1      20.738  16.933  14.954  1.00  0.00    -0.550 OA
ATOM     11  O   UNL     1      18.978  17.015  16.418  1.00  0.00    -0.550 OA
ENDBRANCH   8   9
ENDBRANCH   7   8
ENDBRANCH   6   7
ENDBRANCH   5   6
ENDBRANCH   4   5
ENDBRANCH   3   4
ENDBRANCH   2   3
ENDBRANCH   1   2
BRANCH   1  12
ATOM     12  C   UNL     1      14.048  21.402  18.921  1.00  0.00     0.000 C 
BRANCH  12  13
ATOM     13  C   UNL     1      14.133  22.722  18.143  1.00  0.00    -0.000 C 
BRANCH  13  14
ATOM     14  C   UNL     1      14.823  22.570  16.774  1.00  0.00    -0.000 C 
BRANCH  14  15
ATOM     15  C   UNL     1      14.629  21.200  16.100  1.00  0.00    -0.000 C 
BRANCH  15  16
ATOM     16  C   UNL     1      15.343  21.094  14.742  1.00  0.00    -0.000 C 
BRANCH  16  17
ATOM     17  C   UNL     1      15.009  22.265  13.800  1.00  0.00    -0.000 C 
BRANCH  17  18
ATOM     18  C   UNL     1      15.658  22.181  12.404  1.00  0.00    -0.000 C 
BRANCH  18  19
ATOM     19  C   UNL     1      16.592  20.976  12.192  1.00  0.00    -0.003 C 
ATOM     20  C   UNL     1      17.185  20.923  10.784  1.00  0.00     0.004 C 
ENDBRANCH  18  19
ENDBRANCH  17  18
ENDBRANCH  16  17
ENDBRANCH  15  16
ENDBRANCH  14  15
ENDBRANCH  13  14
ENDBRANCH  12  13
ENDBRANCH   1  12
TORSDOF 16
ENDMDL
MODEL 7
REMARK VINA RESULT:    -5.287      2.118      6.475
REMARK INTER + INTRA:         -12.592
REMARK INTER:                 -10.579
REMARK INTRA:                  -2.013
REMARK UNBOUND:                -2.360
REMARK SMILES CCCCCCCCCCCCCCCCCC(=O)[O-]
REMARK SMILES IDX 10 1 11 2 12 3 13 4 14 5 15 6 16 7 17 8 18 9 19 10 20 11
REMARK SMILES IDX 9 12 8 13 7 14 6 15 5 16 4 17 3 18 2 19 1 20
REMARK H PARENT
REMARK Flexibility Score: inf
ROOT
ATOM      1  C   UNL     1      18.704  19.059  13.628  1.00  0.00     0.000 C 
ENDROOT
BRANCH   1   2
ATOM      2  C   UNL     1      17.615  19.299  12.573  1.00  0.00     0.000 C 
BRANCH   2   3
ATOM      3  C   UNL     1      17.984  20.413  11.576  1.00  0.00     0.000 C 
BRANCH   3   4
ATOM      4  C   UNL     1      16.891  21.477  11.351  1.00  0.00     0.000 C 
BRANCH   4   5
ATOM      5  C   UNL     1      15.665  21.367  12.276  1.00  0.00     0.000 C 
BRANCH   5   6
ATOM      6  C   UNL     1      15.669  22.417  13.400  1.00  0.00     0.000 C 
BRANCH   6   7
ATOM      7  C   UNL     1      14.626  22.118  14.489  1.00  0.00     0.006 C 
BRANCH   7   8
ATOM      8  C   UNL     1      15.168  21.198  15.590  1.00  0.00     0.053 C 
BRANCH   8   9
ATOM      9  C   UNL     1      15.715  22.007  16.724  1.00  0.00     0.041 C 
ATOM     10  O   UNL     1      15.191  23.112  17.025  1.00  0.00    -0.550 OA
ATOM     11  O   UNL     1      16.837  21.567  17.415  1.00  0.00    -0.550 OA
ENDBRANCH   8   9
ENDBRANCH   7   8
ENDBRANCH   6   7
ENDBRANCH   5   6
ENDBRANCH   4   5
ENDBRANCH   3   4
ENDBRANCH   2   3
ENDBRANCH   1   2
BRANCH   1  12
ATOM     12  C   UNL     1      18.374  19.792  14.934  1.00  0.00     0.000 C 
BRANCH  12  13
ATOM     13  C   UNL     1      19.254  19.287  16.086  1.00  0.00    -0.000 C 
BRANCH  13  14
ATOM     14  C   UNL     1      19.458  17.760  16.062  1.00  0.00    -0.000 C 
BRANCH  14  15
ATOM     15  C   UNL     1      18.448  16.958  16.903  1.00  0.00    -0.000 C 
BRANCH  15  16
ATOM     16  C   UNL     1      17.505  17.855  17.723  1.00  0.00    -0.000 C 
BRANCH  16  17
ATOM     17  C   UNL     1      16.085  17.922  17.134  1.00  0.00    -0.000 C 
BRANCH  17  18
ATOM     18  C   UNL     1      14.947  17.782  18.166  1.00  0.00    -0.000 C 
BRANCH  18  19
ATOM     19  C   UNL     1      14.278  19.104  18.582  1.00  0.00    -0.003 C 
ATOM     20  C   UNL     1      14.922  19.735  19.817  1.00  0.00     0.004 C 
ENDBRANCH  18  19
ENDBRANCH  17  18
ENDBRANCH  16  17
ENDBRANCH  15  16
ENDBRANCH  14  15
ENDBRANCH  13  14
ENDBRANCH  12  13
ENDBRANCH   1  12
TORSDOF 16
ENDMDL
MODEL 8
REMARK VINA RESULT:    -5.259      2.373      6.494
REMARK INTER + INTRA:         -12.538
REMARK INTER:                 -10.472
REMARK INTRA:                  -2.067
REMARK UNBOUND:                -2.360
REMARK SMILES CCCCCCCCCCCCCCCCCC(=O)[O-]
REMARK SMILES IDX 10 1 11 2 12 3 13 4 14 5 15 6 16 7 17 8 18 9 19 10 20 11
REMARK SMILES IDX 9 12 8 13 7 14 6 15 5 16 4 17 3 18 2 19 1 20
REMARK H PARENT
REMARK Flexibility Score: inf
ROOT
ATOM      1  C   UNL     1      18.366  19.311  17.711  1.00  0.00     0.000 C 
ENDROOT
BRANCH   1   2
ATOM      2  C   UNL     1      19.181  20.365  16.950  1.00  0.00     0.000 C 
BRANCH   2   3
ATOM      3  C   UNL     1      19.460  19.965  15.489  1.00  0.00     0.000 C 
BRANCH   3   4
ATOM      4  C   UNL     1      18.677  18.736  14.986  1.00  0.00     0.000 C 
BRANCH   4   5
ATOM      5  C   UNL     1      17.700  19.007  13.828  1.00  0.00     0.000 C 
BRANCH   5   6
ATOM      6  C   UNL     1      18.311  19.887  12.725  1.00  0.00     0.000 C 
BRANCH   6   7
ATOM      7  C   UNL     1      17.349  20.109  11.547  1.00  0.00     0.006 C 
BRANCH   7   8
ATOM      8  C   UNL     1      16.862  21.561  11.446  1.00  0.00     0.053 C 
BRANCH   8   9
ATOM      9  C   UNL     1      15.630  21.756  12.273  1.00  0.00     0.041 C 
ATOM     10  O   UNL     1      14.869  20.783  12.515  1.00  0.00    -0.550 OA
ATOM     11  O   UNL     1      15.296  23.023  12.733  1.00  0.00    -0.550 OA
ENDBRANCH   8   9
ENDBRANCH   7   8
ENDBRANCH   6   7
ENDBRANCH   5   6
ENDBRANCH   4   5
ENDBRANCH   3   4
ENDBRANCH   2   3
ENDBRANCH   1   2
BRANCH   1  12
ATOM     12  C   UNL     1      17.437  19.971  18.737  1.00  0.00     0.000 C 
BRANCH  12  13
ATOM     13  C   UNL     1      16.205  19.096  19.008  1.00  0.00    -0.000 C 
BRANCH  13  14
ATOM     14  C   UNL     1      15.432  19.521  20.271  1.00  0.00    -0.000 C 
BRANCH  14  15
ATOM     15  C   UNL     1      14.900  20.965  20.250  1.00  0.00    -0.000 C 
BRANCH  15  16
ATOM     16  C   UNL     1      13.911  21.223  19.100  1.00  0.00    -0.000 C 
BRANCH  16  17
ATOM     17  C   UNL     1      13.973  22.667  18.573  1.00  0.00    -0.000 C 
BRANCH  17  18
ATOM     18  C   UNL     1      13.988  22.797  17.036  1.00  0.00    -0.000 C 
BRANCH  18  19
ATOM     19  C   UNL     1      14.382  21.517  16.278  1.00  0.00    -0.003 C 
ATOM     20  C   UNL     1      15.854  21.496  15.869  1.00  0.00     0.004 C 
ENDBRANCH  18  19
ENDBRANCH  17  18
ENDBRANCH  16  17
ENDBRANCH  15  16
ENDBRANCH  14  15
ENDBRANCH  13  14
ENDBRANCH  12  13
ENDBRANCH   1  12
TORSDOF 16
ENDMDL
MODEL 9
REMARK VINA RESULT:    -5.190      2.227      4.252
REMARK INTER + INTRA:         -12.405
REMARK INTER:                 -10.346
REMARK INTRA:                  -2.059
REMARK UNBOUND:                -2.360
REMARK SMILES CCCCCCCCCCCCCCCCCC(=O)[O-]
REMARK SMILES IDX 10 1 11 2 12 3 13 4 14 5 15 6 16 7 17 8 18 9 19 10 20 11
REMARK SMILES IDX 9 12 8 13 7 14 6 15 5 16 4 17 3 18 2 19 1 20
REMARK H PARENT
REMARK Flexibility Score: inf
ROOT
ATOM      1  C   UNL     1      18.712  20.364  16.960  1.00  0.00     0.000 C 
ENDROOT
BRANCH   1   2
ATOM      2  C   UNL     1      18.067  19.092  17.527  1.00  0.00     0.000 C 
BRANCH   2   3
ATOM      3  C   UNL     1      16.565  18.990  17.205  1.00  0.00     0.000 C 
BRANCH   3   4
ATOM      4  C   UNL     1      15.671  18.549  18.382  1.00  0.00     0.000 C 
BRANCH   4   5
ATOM      5  C   UNL     1      16.011  19.189  19.741  1.00  0.00     0.000 C 
BRANCH   5   6
ATOM      6  C   UNL     1      15.676  20.688  19.796  1.00  0.00     0.000 C 
BRANCH   6   7
ATOM      7  C   UNL     1      14.242  20.989  19.330  1.00  0.00     0.006 C 
BRANCH   7   8
ATOM      8  C   UNL     1      14.129  22.330  18.592  1.00  0.00     0.053 C 
BRANCH   8   9
ATOM      9  C   UNL     1      14.588  22.185  17.175  1.00  0.00     0.041 C 
ATOM     10  O   UNL     1      13.952  21.450  16.375  1.00  0.00    -0.550 OA
ATOM     11  O   UNL     1      15.749  22.821  16.752  1.00  0.00    -0.550 OA
ENDBRANCH   8   9
ENDBRANCH   7   8
ENDBRANCH   6   7
ENDBRANCH   5   6
ENDBRANCH   4   5
ENDBRANCH   3   4
ENDBRANCH   2   3
ENDBRANCH   1   2
BRANCH   1  12
ATOM     12  C   UNL     1      19.881  20.018  16.029  1.00  0.00     0.000 C 
BRANCH  12  13
ATOM     13  C   UNL     1      19.885  18.523  15.682  1.00  0.00    -0.000 C 
BRANCH  13  14
ATOM     14  C   UNL     1      19.316  18.229  14.281  1.00  0.00    -0.000 C 
BRANCH  14  15
ATOM     15  C   UNL     1      18.649  19.430  13.588  1.00  0.00    -0.000 C 
BRANCH  15  16
ATOM     16  C   UNL     1      17.114  19.390  13.665  1.00  0.00    -0.000 C 
BRANCH  16  17
ATOM     17  C   UNL     1      16.494  20.772  13.939  1.00  0.00    -0.000 C 
BRANCH  17  18
ATOM     18  C   UNL     1      15.483  21.252  12.877  1.00  0.00    -0.000 C 
BRANCH  18  19
ATOM     19  C   UNL     1      15.882  20.960  11.420  1.00  0.00    -0.003 C 
ATOM     20  C   UNL     1      17.207  21.610  11.023  1.00  0.00     0.004 C 
ENDBRANCH  18  19
ENDBRANCH  17  18
ENDBRANCH  16  17
ENDBRANCH  15  16
ENDBRANCH  14  15
ENDBRANCH  13  14
ENDBRANCH  12  13
ENDBRANCH   1  12
TORSDOF 16
ENDMDL
