MODEL 1
REMARK VINA RESULT:    -4.474      0.000      0.000
REMARK INTER + INTRA:          -8.691
REMARK INTER:                  -7.613
REMARK INTRA:                  -1.078
REMARK UNBOUND:                -1.078
REMARK SMILES CCCCCCCCCCCCCC(=O)[O-]
REMARK SMILES IDX 8 1 9 2 10 3 11 4 12 5 13 6 14 7 15 8 16 9 7 10 6 11 5 12
REMARK SMILES IDX 4 13 3 14 2 15 1 16
REMARK H PARENT
REMARK Flexibility Score: inf
ROOT
ATOM      1  C   UNL     1      97.297  84.599  81.937  1.00  0.00     0.000 C 
ENDROOT
BRANCH   1   2
ATOM      2  C   UNL     1      97.733  85.544  80.810  1.00  0.00     0.000 C 
BRANCH   2   3
ATOM      3  C   UNL     1      96.547  85.903  79.903  1.00  0.00     0.000 C 
BRANCH   3   4
ATOM      4  C   UNL     1      95.224  85.285  80.384  1.00  0.00     0.000 C 
BRANCH   4   5
ATOM      5  C   UNL     1      94.639  84.279  79.378  1.00  0.00     0.006 C 
BRANCH   5   6
ATOM      6  C   UNL     1      93.487  83.463  79.979  1.00  0.00     0.053 C 
BRANCH   6   7
ATOM      7  C   UNL     1      92.257  84.296  80.174  1.00  0.00     0.041 C 
ATOM      8  O   UNL     1      91.814  84.513  81.332  1.00  0.00    -0.550 OA
ATOM      9  O   UNL     1      91.583  84.807  79.072  1.00  0.00    -0.550 OA
ENDBRANCH   6   7
ENDBRANCH   5   6
ENDBRANCH   4   5
ENDBRANCH   3   4
ENDBRANCH   2   3
ENDBRANCH   1   2
BRANCH   1  10
ATOM     10  C   UNL     1      98.233  83.384  82.029  1.00  0.00     0.000 C 
BRANCH  10  11
ATOM     11  C   UNL     1      99.706  83.749  81.786  1.00  0.00    -0.000 C 
BRANCH  11  12
ATOM     12  C   UNL     1     100.524  83.804  83.089  1.00  0.00    -0.000 C 
BRANCH  12  13
ATOM     13  C   UNL     1     101.863  84.539  82.915  1.00  0.00    -0.000 C 
BRANCH  13  14
ATOM     14  C   UNL     1     101.884  85.910  83.615  1.00  0.00    -0.000 C 
BRANCH  14  15
ATOM     15  C   UNL     1     100.493  86.559  83.678  1.00  0.00    -0.003 C 
ATOM     16  C   UNL     1     100.275  87.594  82.576  1.00  0.00     0.004 C 
ENDBRANCH  14  15
ENDBRANCH  13  14
ENDBRANCH  12  13
ENDBRANCH  11  12
ENDBRANCH  10  11
ENDBRANCH   1  10
TORSDOF 12
ENDMDL
MODEL 2
REMARK VINA RESULT:    -4.439      3.273      7.364
REMARK INTER + INTRA:          -8.632
REMARK INTER:                  -7.655
REMARK INTRA:                  -0.977
REMARK UNBOUND:                -1.078
REMARK SMILES CCCCCCCCCCCCCC(=O)[O-]
REMARK SMILES IDX 8 1 9 2 10 3 11 4 12 5 13 6 14 7 15 8 16 9 7 10 6 11 5 12
REMARK SMILES IDX 4 13 3 14 2 15 1 16
REMARK H PARENT
REMARK Flexibility Score: inf
ROOT
ATOM      1  C   UNL     1      97.460  84.713  81.973  1.00  0.00     0.000 C 
ENDROOT
BRANCH   1   2
ATOM      2  C   UNL     1      98.442  83.536  81.997  1.00  0.00     0.000 C 
BRANCH   2   3
ATOM      3  C   UNL     1      99.848  83.983  81.569  1.00  0.00     0.000 C 
BRANCH   3   4
ATOM      4  C   UNL     1     100.898  83.778  82.672  1.00  0.00     0.000 C 
BRANCH   4   5
ATOM      5  C   UNL     1     100.853  84.879  83.745  1.00  0.00     0.006 C 
BRANCH   5   6
ATOM      6  C   UNL     1     100.682  84.304  85.158  1.00  0.00     0.053 C 
BRANCH   6   7
ATOM      7  C   UNL     1      99.477  84.870  85.846  1.00  0.00     0.041 C 
ATOM      8  O   UNL     1      98.618  85.518  85.191  1.00  0.00    -0.550 OA
ATOM      9  O   UNL     1      99.318  84.706  87.216  1.00  0.00    -0.550 OA
ENDBRANCH   6   7
ENDBRANCH   5   6
ENDBRANCH   4   5
ENDBRANCH   3   4
ENDBRANCH   2   3
ENDBRANCH   1   2
BRANCH   1  10
ATOM     10  C   UNL     1      97.722  85.623  80.763  1.00  0.00     0.000 C 
BRANCH  10  11
ATOM     11  C   UNL     1      96.460  85.874  79.924  1.00  0.00    -0.000 C 
BRANCH  11  12
ATOM     12  C   UNL     1      95.229  85.127  80.468  1.00  0.00    -0.000 C 
BRANCH  12  13
ATOM     13  C   UNL     1      94.698  84.071  79.485  1.00  0.00    -0.000 C 
BRANCH  13  14
ATOM     14  C   UNL     1      93.386  83.422  79.963  1.00  0.00    -0.000 C 
BRANCH  14  15
ATOM     15  C   UNL     1      92.246  84.441  80.111  1.00  0.00    -0.003 C 
ATOM     16  C   UNL     1      91.836  85.065  78.778  1.00  0.00     0.004 C 
ENDBRANCH  14  15
ENDBRANCH  13  14
ENDBRANCH  12  13
ENDBRANCH  11  12
ENDBRANCH  10  11
ENDBRANCH   1  10
TORSDOF 12
ENDMDL
MODEL 3
REMARK VINA RESULT:    -4.380      3.991      7.904
REMARK INTER + INTRA:          -8.530
REMARK INTER:                  -7.794
REMARK INTRA:                  -0.736
REMARK UNBOUND:                -1.078
REMARK SMILES CCCCCCCCCCCCCC(=O)[O-]
REMARK SMILES IDX 8 1 9 2 10 3 11 4 12 5 13 6 14 7 15 8 16 9 7 10 6 11 5 12
REMARK SMILES IDX 4 13 3 14 2 15 1 16
REMARK H PARENT
REMARK Flexibility Score: inf
ROOT
ATOM      1  C   UNL     1      96.783  86.685  80.501  1.00  0.00     0.000 C 
ENDROOT
BRANCH   1   2
ATOM      2  C   UNL     1      98.077  85.882  80.679  1.00  0.00     0.000 C 
BRANCH   2   3
ATOM      3  C   UNL     1      98.009  85.001  81.935  1.00  0.00     0.000 C 
BRANCH   3   4
ATOM      4  C   UNL     1      98.845  83.718  81.806  1.00  0.00     0.000 C 
BRANCH   4   5
ATOM      5  C   UNL     1      99.871  83.561  82.940  1.00  0.00     0.006 C 
BRANCH   5   6
ATOM      6  C   UNL     1     101.213  84.227  82.603  1.00  0.00     0.053 C 
BRANCH   6   7
ATOM      7  C   UNL     1     101.806  84.916  83.794  1.00  0.00     0.041 C 
ATOM      8  O   UNL     1     102.840  85.624  83.667  1.00  0.00    -0.550 OA
ATOM      9  O   UNL     1     101.234  84.752  85.049  1.00  0.00    -0.550 OA
ENDBRANCH   6   7
ENDBRANCH   5   6
ENDBRANCH   4   5
ENDBRANCH   3   4
ENDBRANCH   2   3
ENDBRANCH   1   2
BRANCH   1  10
ATOM     10  C   UNL     1      96.128  86.380  79.144  1.00  0.00     0.000 C 
BRANCH  10  11
ATOM     11  C   UNL     1      94.736  85.745  79.286  1.00  0.00    -0.000 C 
BRANCH  11  12
ATOM     12  C   UNL     1      94.765  84.428  80.081  1.00  0.00    -0.000 C 
BRANCH  12  13
ATOM     13  C   UNL     1      93.459  83.629  79.947  1.00  0.00    -0.000 C 
BRANCH  13  14
ATOM     14  C   UNL     1      92.384  84.377  79.138  1.00  0.00    -0.000 C 
BRANCH  14  15
ATOM     15  C   UNL     1      91.254  84.921  80.024  1.00  0.00    -0.003 C 
ATOM     16  C   UNL     1      90.825  83.931  81.106  1.00  0.00     0.004 C 
ENDBRANCH  14  15
ENDBRANCH  13  14
ENDBRANCH  12  13
ENDBRANCH  11  12
ENDBRANCH  10  11
ENDBRANCH   1  10
TORSDOF 12
ENDMDL
MODEL 4
REMARK VINA RESULT:    -4.354      1.699      3.659
REMARK INTER + INTRA:          -8.486
REMARK INTER:                  -7.600
REMARK INTRA:                  -0.886
REMARK UNBOUND:                -1.078
REMARK SMILES CCCCCCCCCCCCCC(=O)[O-]
REMARK SMILES IDX 8 1 9 2 10 3 11 4 12 5 13 6 14 7 15 8 16 9 7 10 6 11 5 12
REMARK SMILES IDX 4 13 3 14 2 15 1 16
REMARK H PARENT
REMARK Flexibility Score: inf
ROOT
ATOM      1  C   UNL     1      94.858  85.789  79.248  1.00  0.00     0.000 C 
ENDROOT
BRANCH   1   2
ATOM      2  C   UNL     1      94.681  84.265  79.239  1.00  0.00     0.000 C 
BRANCH   2   3
ATOM      3  C   UNL     1      93.268  83.873  79.696  1.00  0.00     0.000 C 
BRANCH   3   4
ATOM      4  C   UNL     1      92.176  84.754  79.070  1.00  0.00     0.000 C 
BRANCH   4   5
ATOM      5  C   UNL     1      90.909  84.834  79.938  1.00  0.00     0.006 C 
BRANCH   5   6
ATOM      6  C   UNL     1      91.062  84.069  81.260  1.00  0.00     0.053 C 
BRANCH   6   7
ATOM      7  C   UNL     1      91.242  84.996  82.423  1.00  0.00     0.041 C 
ATOM      8  O   UNL     1      90.937  84.622  83.586  1.00  0.00    -0.550 OA
ATOM      9  O   UNL     1      91.718  86.285  82.217  1.00  0.00    -0.550 OA
ENDBRANCH   6   7
ENDBRANCH   5   6
ENDBRANCH   4   5
ENDBRANCH   3   4
ENDBRANCH   2   3
ENDBRANCH   1   2
BRANCH   1  10
ATOM     10  C   UNL     1      96.320  86.171  79.528  1.00  0.00     0.000 C 
BRANCH  10  11
ATOM     11  C   UNL     1      96.593  86.424  81.019  1.00  0.00    -0.000 C 
BRANCH  11  12
ATOM     12  C   UNL     1      97.787  85.608  81.547  1.00  0.00    -0.000 C 
BRANCH  12  13
ATOM     13  C   UNL     1      97.399  84.168  81.920  1.00  0.00    -0.000 C 
BRANCH  13  14
ATOM     14  C   UNL     1      98.616  83.229  82.008  1.00  0.00    -0.000 C 
BRANCH  14  15
ATOM     15  C   UNL     1      99.948  83.994  82.024  1.00  0.00    -0.003 C 
ATOM     16  C   UNL     1     100.604  84.006  83.404  1.00  0.00     0.004 C 
ENDBRANCH  14  15
ENDBRANCH  13  14
ENDBRANCH  12  13
ENDBRANCH  11  12
ENDBRANCH  10  11
ENDBRANCH   1  10
TORSDOF 12
ENDMDL
MODEL 5
REMARK VINA RESULT:    -4.324      1.113      2.145
REMARK INTER + INTRA:          -8.436
REMARK INTER:                  -7.292
REMARK INTRA:                  -1.144
REMARK UNBOUND:                -1.078
REMARK SMILES CCCCCCCCCCCCCC(=O)[O-]
REMARK SMILES IDX 8 1 9 2 10 3 11 4 12 5 13 6 14 7 15 8 16 9 7 10 6 11 5 12
REMARK SMILES IDX 4 13 3 14 2 15 1 16
REMARK H PARENT
REMARK Flexibility Score: inf
ROOT
ATOM      1  C   UNL     1      96.531  86.514  80.679  1.00  0.00     0.000 C 
ENDROOT
BRANCH   1   2
ATOM      2  C   UNL     1      96.107  86.127  79.257  1.00  0.00     0.000 C 
BRANCH   2   3
ATOM      3  C   UNL     1      94.632  85.700  79.221  1.00  0.00     0.000 C 
BRANCH   3   4
ATOM      4  C   UNL     1      94.453  84.176  79.317  1.00  0.00     0.000 C 
BRANCH   4   5
ATOM      5  C   UNL     1      93.265  83.774  80.207  1.00  0.00     0.006 C 
BRANCH   5   6
ATOM      6  C   UNL     1      92.578  84.991  80.842  1.00  0.00     0.053 C 
BRANCH   6   7
ATOM      7  C   UNL     1      91.121  84.742  81.087  1.00  0.00     0.041 C 
ATOM      8  O   UNL     1      90.326  85.709  81.223  1.00  0.00    -0.550 OA
ATOM      9  O   UNL     1      90.647  83.441  81.195  1.00  0.00    -0.550 OA
ENDBRANCH   6   7
ENDBRANCH   5   6
ENDBRANCH   4   5
ENDBRANCH   3   4
ENDBRANCH   2   3
ENDBRANCH   1   2
BRANCH   1  10
ATOM     10  C   UNL     1      97.724  85.667  81.147  1.00  0.00     0.000 C 
BRANCH  10  11
ATOM     11  C   UNL     1      97.294  84.338  81.788  1.00  0.00    -0.000 C 
BRANCH  11  12
ATOM     12  C   UNL     1      98.456  83.335  81.905  1.00  0.00    -0.000 C 
BRANCH  12  13
ATOM     13  C   UNL     1      99.825  83.986  81.653  1.00  0.00    -0.000 C 
BRANCH  13  14
ATOM     14  C   UNL     1     100.796  83.804  82.834  1.00  0.00    -0.000 C 
BRANCH  14  15
ATOM     15  C   UNL     1     100.743  84.977  83.824  1.00  0.00    -0.003 C 
ATOM     16  C   UNL     1     100.728  86.337  83.127  1.00  0.00     0.004 C 
ENDBRANCH  14  15
ENDBRANCH  13  14
ENDBRANCH  12  13
ENDBRANCH  11  12
ENDBRANCH  10  11
ENDBRANCH   1  10
TORSDOF 12
ENDMDL
MODEL 6
REMARK VINA RESULT:    -4.323      4.459      6.570
REMARK INTER + INTRA:          -8.434
REMARK INTER:                  -6.469
REMARK INTRA:                  -1.965
REMARK UNBOUND:                -1.078
REMARK SMILES CCCCCCCCCCCCCC(=O)[O-]
REMARK SMILES IDX 8 1 9 2 10 3 11 4 12 5 13 6 14 7 15 8 16 9 7 10 6 11 5 12
REMARK SMILES IDX 4 13 3 14 2 15 1 16
REMARK H PARENT
REMARK Flexibility Score: inf
ROOT
ATOM      1  C   UNL     1     101.687  87.225  83.062  1.00  0.00     0.000 C 
ENDROOT
BRANCH   1   2
ATOM      2  C   UNL     1     100.205  87.552  83.286  1.00  0.00     0.000 C 
BRANCH   2   3
ATOM      3  C   UNL     1      99.763  87.155  84.703  1.00  0.00     0.000 C 
BRANCH   3   4
ATOM      4  C   UNL     1      98.346  86.561  84.737  1.00  0.00     0.000 C 
BRANCH   4   5
ATOM      5  C   UNL     1      98.300  85.178  85.410  1.00  0.00     0.006 C 
BRANCH   5   6
ATOM      6  C   UNL     1      98.465  85.269  86.933  1.00  0.00     0.053 C 
BRANCH   6   7
ATOM      7  C   UNL     1      99.796  84.745  87.380  1.00  0.00     0.041 C 
ATOM      8  O   UNL     1     100.366  85.240  88.388  1.00  0.00    -0.550 OA
ATOM      9  O   UNL     1     100.420  83.731  86.665  1.00  0.00    -0.550 OA
ENDBRANCH   6   7
ENDBRANCH   5   6
ENDBRANCH   4   5
ENDBRANCH   3   4
ENDBRANCH   2   3
ENDBRANCH   1   2
BRANCH   1  10
ATOM     10  C   UNL     1     102.104  85.985  83.868  1.00  0.00     0.000 C 
BRANCH  10  11
ATOM     11  C   UNL     1     102.136  84.705  83.017  1.00  0.00    -0.000 C 
BRANCH  11  12
ATOM     12  C   UNL     1     100.844  83.878  83.145  1.00  0.00    -0.000 C 
BRANCH  12  13
ATOM     13  C   UNL     1     100.006  83.889  81.857  1.00  0.00    -0.000 C 
BRANCH  13  14
ATOM     14  C   UNL     1      98.535  83.510  82.102  1.00  0.00    -0.000 C 
BRANCH  14  15
ATOM     15  C   UNL     1      97.559  84.578  81.585  1.00  0.00    -0.003 C 
ATOM     16  C   UNL     1      98.264  85.707  80.834  1.00  0.00     0.004 C 
ENDBRANCH  14  15
ENDBRANCH  13  14
ENDBRANCH  12  13
ENDBRANCH  11  12
ENDBRANCH  10  11
ENDBRANCH   1  10
TORSDOF 12
ENDMDL
MODEL 7
REMARK VINA RESULT:    -4.318      3.598      8.120
REMARK INTER + INTRA:          -8.426
REMARK INTER:                  -7.711
REMARK INTRA:                  -0.715
REMARK UNBOUND:                -1.078
REMARK SMILES CCCCCCCCCCCCCC(=O)[O-]
REMARK SMILES IDX 8 1 9 2 10 3 11 4 12 5 13 6 14 7 15 8 16 9 7 10 6 11 5 12
REMARK SMILES IDX 4 13 3 14 2 15 1 16
REMARK H PARENT
REMARK Flexibility Score: inf
ROOT
ATOM      1  C   UNL     1      94.793  85.661  79.990  1.00  0.00     0.000 C 
ENDROOT
BRANCH   1   2
ATOM      2  C   UNL     1      96.141  86.012  79.350  1.00  0.00     0.000 C 
BRANCH   2   3
ATOM      3  C   UNL     1      97.093  86.638  80.380  1.00  0.00     0.000 C 
BRANCH   3   4
ATOM      4  C   UNL     1      98.246  85.700  80.770  1.00  0.00     0.000 C 
BRANCH   4   5
ATOM      5  C   UNL     1      97.853  84.705  81.875  1.00  0.00     0.006 C 
BRANCH   5   6
ATOM      6  C   UNL     1      98.796  83.495  81.928  1.00  0.00     0.053 C 
BRANCH   6   7
ATOM      7  C   UNL     1     100.056  83.805  82.678  1.00  0.00     0.041 C 
ATOM      8  O   UNL     1     101.176  83.685  82.113  1.00  0.00    -0.550 OA
ATOM      9  O   UNL     1      99.995  84.197  84.009  1.00  0.00    -0.550 OA
ENDBRANCH   6   7
ENDBRANCH   5   6
ENDBRANCH   4   5
ENDBRANCH   3   4
ENDBRANCH   2   3
ENDBRANCH   1   2
BRANCH   1  10
ATOM     10  C   UNL     1      94.631  84.139  80.131  1.00  0.00     0.000 C 
BRANCH  10  11
ATOM     11  C   UNL     1      93.269  83.637  79.624  1.00  0.00    -0.000 C 
BRANCH  11  12
ATOM     12  C   UNL     1      92.330  84.787  79.216  1.00  0.00    -0.000 C 
BRANCH  12  13
ATOM     13  C   UNL     1      91.335  85.158  80.327  1.00  0.00    -0.000 C 
BRANCH  13  14
ATOM     14  C   UNL     1      90.423  83.984  80.724  1.00  0.00    -0.000 C 
BRANCH  14  15
ATOM     15  C   UNL     1      88.932  84.347  80.649  1.00  0.00    -0.003 C 
ATOM     16  C   UNL     1      88.150  83.437  79.703  1.00  0.00     0.004 C 
ENDBRANCH  14  15
ENDBRANCH  13  14
ENDBRANCH  12  13
ENDBRANCH  11  12
ENDBRANCH  10  11
ENDBRANCH   1  10
TORSDOF 12
ENDMDL
MODEL 8
REMARK VINA RESULT:    -4.314      1.601      2.428
REMARK INTER + INTRA:          -8.419
REMARK INTER:                  -6.839
REMARK INTRA:                  -1.580
REMARK UNBOUND:                -1.078
REMARK SMILES CCCCCCCCCCCCCC(=O)[O-]
REMARK SMILES IDX 8 1 9 2 10 3 11 4 12 5 13 6 14 7 15 8 16 9 7 10 6 11 5 12
REMARK SMILES IDX 4 13 3 14 2 15 1 16
REMARK H PARENT
REMARK Flexibility Score: inf
ROOT
ATOM      1  C   UNL     1      98.704  83.320  81.935  1.00  0.00     0.000 C 
ENDROOT
BRANCH   1   2
ATOM      2  C   UNL     1      97.498  84.225  81.655  1.00  0.00     0.000 C 
BRANCH   2   3
ATOM      3  C   UNL     1      97.927  85.503  80.919  1.00  0.00     0.000 C 
BRANCH   3   4
ATOM      4  C   UNL     1      96.732  86.347  80.450  1.00  0.00     0.000 C 
BRANCH   4   5
ATOM      5  C   UNL     1      95.683  85.519  79.690  1.00  0.00     0.006 C 
BRANCH   5   6
ATOM      6  C   UNL     1      94.353  85.429  80.451  1.00  0.00     0.053 C 
BRANCH   6   7
ATOM      7  C   UNL     1      93.494  84.313  79.939  1.00  0.00     0.041 C 
ATOM      8  O   UNL     1      92.405  84.039  80.508  1.00  0.00    -0.550 OA
ATOM      9  O   UNL     1      93.912  83.557  78.850  1.00  0.00    -0.550 OA
ENDBRANCH   6   7
ENDBRANCH   5   6
ENDBRANCH   4   5
ENDBRANCH   3   4
ENDBRANCH   2   3
ENDBRANCH   1   2
BRANCH   1  10
ATOM     10  C   UNL     1     100.021  84.096  81.776  1.00  0.00     0.000 C 
BRANCH  10  11
ATOM     11  C   UNL     1     100.976  83.893  82.963  1.00  0.00    -0.000 C 
BRANCH  11  12
ATOM     12  C   UNL     1     100.459  84.545  84.257  1.00  0.00    -0.000 C 
BRANCH  12  13
ATOM     13  C   UNL     1     100.099  86.027  84.068  1.00  0.00    -0.000 C 
BRANCH  13  14
ATOM     14  C   UNL     1      98.649  86.343  84.476  1.00  0.00    -0.000 C 
BRANCH  14  15
ATOM     15  C   UNL     1      97.988  85.187  85.241  1.00  0.00    -0.003 C 
ATOM     16  C   UNL     1      96.462  85.246  85.197  1.00  0.00     0.004 C 
ENDBRANCH  14  15
ENDBRANCH  13  14
ENDBRANCH  12  13
ENDBRANCH  11  12
ENDBRANCH  10  11
ENDBRANCH   1  10
TORSDOF 12
ENDMDL
MODEL 9
REMARK VINA RESULT:    -4.201      3.580      7.342
REMARK INTER + INTRA:          -8.225
REMARK INTER:                  -7.194
REMARK INTRA:                  -1.031
REMARK UNBOUND:                -1.078
REMARK SMILES CCCCCCCCCCCCCC(=O)[O-]
REMARK SMILES IDX 8 1 9 2 10 3 11 4 12 5 13 6 14 7 15 8 16 9 7 10 6 11 5 12
REMARK SMILES IDX 4 13 3 14 2 15 1 16
REMARK H PARENT
REMARK Flexibility Score: inf
ROOT
ATOM      1  C   UNL     1      94.882  84.804  79.159  1.00  0.00     0.000 C 
ENDROOT
BRANCH   1   2
ATOM      2  C   UNL     1      95.590  85.112  80.483  1.00  0.00     0.000 C 
BRANCH   2   3
ATOM      3  C   UNL     1      96.776  86.064  80.264  1.00  0.00     0.000 C 
BRANCH   3   4
ATOM      4  C   UNL     1      98.084  85.533  80.871  1.00  0.00     0.000 C 
BRANCH   4   5
ATOM      5  C   UNL     1      97.874  84.259  81.707  1.00  0.00     0.006 C 
BRANCH   5   6
ATOM      6  C   UNL     1      99.180  83.479  81.913  1.00  0.00     0.053 C 
BRANCH   6   7
ATOM      7  C   UNL     1     100.014  84.070  83.009  1.00  0.00     0.041 C 
ATOM      8  O   UNL     1      99.464  84.656  83.978  1.00  0.00    -0.550 OA
ATOM      9  O   UNL     1     101.399  83.997  82.945  1.00  0.00    -0.550 OA
ENDBRANCH   6   7
ENDBRANCH   5   6
ENDBRANCH   4   5
ENDBRANCH   3   4
ENDBRANCH   2   3
ENDBRANCH   1   2
BRANCH   1  10
ATOM     10  C   UNL     1      93.884  83.647  79.326  1.00  0.00     0.000 C 
BRANCH  10  11
ATOM     11  C   UNL     1      92.845  83.913  80.427  1.00  0.00    -0.000 C 
BRANCH  11  12
ATOM     12  C   UNL     1      91.733  84.875  79.971  1.00  0.00    -0.000 C 
BRANCH  12  13
ATOM     13  C   UNL     1      91.445  85.976  81.005  1.00  0.00    -0.000 C 
BRANCH  13  14
ATOM     14  C   UNL     1      92.494  86.023  82.130  1.00  0.00    -0.000 C 
BRANCH  14  15
ATOM     15  C   UNL     1      91.855  86.076  83.527  1.00  0.00    -0.003 C 
ATOM     16  C   UNL     1      91.033  84.828  83.846  1.00  0.00     0.004 C 
ENDBRANCH  14  15
ENDBRANCH  13  14
ENDBRANCH  12  13
ENDBRANCH  11  12
ENDBRANCH  10  11
ENDBRANCH   1  10
TORSDOF 12
ENDMDL
