MODEL 1
REMARK VINA RESULT:    -6.151      0.000      0.000
REMARK INTER + INTRA:         -13.605
REMARK INTER:                 -11.904
REMARK INTRA:                  -1.701
REMARK UNBOUND:                -1.701
REMARK SMILES CCCCCCCCCCCCCCCCCC(=O)[O-]
REMARK SMILES IDX 10 1 11 2 12 3 13 4 14 5 15 6 16 7 17 8 18 9 19 10 20 11
REMARK SMILES IDX 9 12 8 13 7 14 6 15 5 16 4 17 3 18 2 19 1 20
REMARK H PARENT
REMARK Flexibility Score: inf
ROOT
ATOM      1  C   UNL     1       1.868   4.331  18.974  1.00  0.00     0.000 C 
ENDROOT
BRANCH   1   2
ATOM      2  C   UNL     1       3.033   3.379  18.661  1.00  0.00     0.000 C 
BRANCH   2   3
ATOM      3  C   UNL     1       3.085   2.982  17.175  1.00  0.00     0.000 C 
BRANCH   3   4
ATOM      4  C   UNL     1       3.196   4.201  16.245  1.00  0.00     0.000 C 
BRANCH   4   5
ATOM      5  C   UNL     1       2.897   3.853  14.777  1.00  0.00     0.000 C 
BRANCH   5   6
ATOM      6  C   UNL     1       4.068   4.225  13.842  1.00  0.00     0.000 C 
BRANCH   6   7
ATOM      7  C   UNL     1       4.795   3.006  13.250  1.00  0.00     0.006 C 
BRANCH   7   8
ATOM      8  C   UNL     1       4.182   1.672  13.690  1.00  0.00     0.053 C 
BRANCH   8   9
ATOM      9  C   UNL     1       5.156   0.896  14.517  1.00  0.00     0.041 C 
ATOM     10  O   UNL     1       5.410  -0.306  14.236  1.00  0.00    -0.550 OA
ATOM     11  O   UNL     1       5.752   1.482  15.626  1.00  0.00    -0.550 OA
ENDBRANCH   8   9
ENDBRANCH   7   8
ENDBRANCH   6   7
ENDBRANCH   5   6
ENDBRANCH   4   5
ENDBRANCH   3   4
ENDBRANCH   2   3
ENDBRANCH   1   2
BRANCH   1  12
ATOM     12  C   UNL     1       2.337   5.636  19.643  1.00  0.00     0.000 C 
BRANCH  12  13
ATOM     13  C   UNL     1       2.076   6.872  18.767  1.00  0.00    -0.000 C 
BRANCH  13  14
ATOM     14  C   UNL     1       2.152   8.185  19.564  1.00  0.00    -0.000 C 
BRANCH  14  15
ATOM     15  C   UNL     1       2.782   9.336  18.757  1.00  0.00    -0.000 C 
BRANCH  15  16
ATOM     16  C   UNL     1       2.944   9.058  17.251  1.00  0.00    -0.000 C 
BRANCH  16  17
ATOM     17  C   UNL     1       4.413   8.966  16.812  1.00  0.00    -0.000 C 
BRANCH  17  18
ATOM     18  C   UNL     1       4.632   7.772  15.873  1.00  0.00    -0.000 C 
BRANCH  18  19
ATOM     19  C   UNL     1       5.209   8.189  14.512  1.00  0.00    -0.003 C 
ATOM     20  C   UNL     1       6.322   7.258  14.031  1.00  0.00     0.004 C 
ENDBRANCH  18  19
ENDBRANCH  17  18
ENDBRANCH  16  17
ENDBRANCH  15  16
ENDBRANCH  14  15
ENDBRANCH  13  14
ENDBRANCH  12  13
ENDBRANCH   1  12
TORSDOF 16
ENDMDL
MODEL 2
REMARK VINA RESULT:    -6.077      1.910      6.328
REMARK INTER + INTRA:         -13.462
REMARK INTER:                 -11.834
REMARK INTRA:                  -1.628
REMARK UNBOUND:                -1.701
REMARK SMILES CCCCCCCCCCCCCCCCCC(=O)[O-]
REMARK SMILES IDX 10 1 11 2 12 3 13 4 14 5 15 6 16 7 17 8 18 9 19 10 20 11
REMARK SMILES IDX 9 12 8 13 7 14 6 15 5 16 4 17 3 18 2 19 1 20
REMARK H PARENT
REMARK Flexibility Score: inf
ROOT
ATOM      1  C   UNL     1       4.491   7.625  15.914  1.00  0.00     0.000 C 
ENDROOT
BRANCH   1   2
ATOM      2  C   UNL     1       4.402   8.822  16.872  1.00  0.00     0.000 C 
BRANCH   2   3
ATOM      3  C   UNL     1       2.959   9.104  17.329  1.00  0.00     0.000 C 
BRANCH   3   4
ATOM      4  C   UNL     1       2.879   9.491  18.814  1.00  0.00     0.000 C 
BRANCH   4   5
ATOM      5  C   UNL     1       2.224   8.397  19.675  1.00  0.00     0.000 C 
BRANCH   5   6
ATOM      6  C   UNL     1       1.867   7.144  18.848  1.00  0.00     0.000 C 
BRANCH   6   7
ATOM      7  C   UNL     1       2.392   5.833  19.457  1.00  0.00     0.006 C 
BRANCH   7   8
ATOM      8  C   UNL     1       2.655   4.749  18.406  1.00  0.00     0.053 C 
BRANCH   8   9
ATOM      9  C   UNL     1       2.538   3.389  19.017  1.00  0.00     0.041 C 
ATOM     10  O   UNL     1       1.449   3.015  19.527  1.00  0.00    -0.550 OA
ATOM     11  O   UNL     1       3.644   2.549  19.065  1.00  0.00    -0.550 OA
ENDBRANCH   8   9
ENDBRANCH   7   8
ENDBRANCH   6   7
ENDBRANCH   5   6
ENDBRANCH   4   5
ENDBRANCH   3   4
ENDBRANCH   2   3
ENDBRANCH   1   2
BRANCH   1  12
ATOM     12  C   UNL     1       5.743   7.677  15.020  1.00  0.00     0.000 C 
BRANCH  12  13
ATOM     13  C   UNL     1       5.397   7.628  13.523  1.00  0.00    -0.000 C 
BRANCH  13  14
ATOM     14  C   UNL     1       5.534   6.215  12.932  1.00  0.00    -0.000 C 
BRANCH  14  15
ATOM     15  C   UNL     1       4.193   5.460  12.875  1.00  0.00    -0.000 C 
BRANCH  15  16
ATOM     16  C   UNL     1       4.218   4.048  13.490  1.00  0.00    -0.000 C 
BRANCH  16  17
ATOM     17  C   UNL     1       3.857   4.038  14.983  1.00  0.00    -0.000 C 
BRANCH  17  18
ATOM     18  C   UNL     1       3.700   2.601  15.500  1.00  0.00    -0.000 C 
BRANCH  18  19
ATOM     19  C   UNL     1       3.487   1.585  14.367  1.00  0.00    -0.003 C 
ATOM     20  C   UNL     1       2.609   0.407  14.785  1.00  0.00     0.004 C 
ENDBRANCH  18  19
ENDBRANCH  17  18
ENDBRANCH  16  17
ENDBRANCH  15  16
ENDBRANCH  14  15
ENDBRANCH  13  14
ENDBRANCH  12  13
ENDBRANCH   1  12
TORSDOF 16
ENDMDL
MODEL 3
REMARK VINA RESULT:    -6.023      0.915      4.187
REMARK INTER + INTRA:         -13.358
REMARK INTER:                 -11.696
REMARK INTRA:                  -1.662
REMARK UNBOUND:                -1.701
REMARK SMILES CCCCCCCCCCCCCCCCCC(=O)[O-]
REMARK SMILES IDX 10 1 11 2 12 3 13 4 14 5 15 6 16 7 17 8 18 9 19 10 20 11
REMARK SMILES IDX 9 12 8 13 7 14 6 15 5 16 4 17 3 18 2 19 1 20
REMARK H PARENT
REMARK Flexibility Score: inf
ROOT
ATOM      1  C   UNL     1       5.876   8.042  14.854  1.00  0.00     0.000 C 
ENDROOT
BRANCH   1   2
ATOM      2  C   UNL     1       6.185   6.947  13.821  1.00  0.00     0.000 C 
BRANCH   2   3
ATOM      3  C   UNL     1       4.938   6.513  13.032  1.00  0.00     0.000 C 
BRANCH   3   4
ATOM      4  C   UNL     1       4.775   4.985  12.986  1.00  0.00     0.000 C 
BRANCH   4   5
ATOM      5  C   UNL     1       3.453   4.513  13.616  1.00  0.00     0.000 C 
BRANCH   5   6
ATOM      6  C   UNL     1       3.605   4.207  15.122  1.00  0.00     0.000 C 
BRANCH   6   7
ATOM      7  C   UNL     1       3.345   2.734  15.480  1.00  0.00     0.006 C 
BRANCH   7   8
ATOM      8  C   UNL     1       3.940   1.757  14.461  1.00  0.00     0.053 C 
BRANCH   8   9
ATOM      9  C   UNL     1       5.289   1.292  14.908  1.00  0.00     0.041 C 
ATOM     10  O   UNL     1       5.627   1.397  16.118  1.00  0.00    -0.550 OA
ATOM     11  O   UNL     1       6.194   0.786  13.984  1.00  0.00    -0.550 OA
ENDBRANCH   8   9
ENDBRANCH   7   8
ENDBRANCH   6   7
ENDBRANCH   5   6
ENDBRANCH   4   5
ENDBRANCH   3   4
ENDBRANCH   2   3
ENDBRANCH   1   2
BRANCH   1  12
ATOM     12  C   UNL     1       4.769   7.627  15.840  1.00  0.00     0.000 C 
BRANCH  12  13
ATOM     13  C   UNL     1       3.849   8.799  16.217  1.00  0.00    -0.000 C 
BRANCH  13  14
ATOM     14  C   UNL     1       3.854   9.088  17.728  1.00  0.00    -0.000 C 
BRANCH  14  15
ATOM     15  C   UNL     1       2.441   9.079  18.341  1.00  0.00    -0.000 C 
BRANCH  15  16
ATOM     16  C   UNL     1       2.136   7.870  19.245  1.00  0.00    -0.000 C 
BRANCH  16  17
ATOM     17  C   UNL     1       2.208   6.529  18.500  1.00  0.00    -0.000 C 
BRANCH  17  18
ATOM     18  C   UNL     1       2.572   5.387  19.458  1.00  0.00    -0.000 C 
BRANCH  18  19
ATOM     19  C   UNL     1       2.159   4.009  18.920  1.00  0.00    -0.003 C 
ATOM     20  C   UNL     1       3.201   2.927  19.200  1.00  0.00     0.004 C 
ENDBRANCH  18  19
ENDBRANCH  17  18
ENDBRANCH  16  17
ENDBRANCH  15  16
ENDBRANCH  14  15
ENDBRANCH  13  14
ENDBRANCH  12  13
ENDBRANCH   1  12
TORSDOF 16
ENDMDL
MODEL 4
REMARK VINA RESULT:    -5.894      2.424      5.281
REMARK INTER + INTRA:         -13.107
REMARK INTER:                 -11.821
REMARK INTRA:                  -1.286
REMARK UNBOUND:                -1.701
REMARK SMILES CCCCCCCCCCCCCCCCCC(=O)[O-]
REMARK SMILES IDX 10 1 11 2 12 3 13 4 14 5 15 6 16 7 17 8 18 9 19 10 20 11
REMARK SMILES IDX 9 12 8 13 7 14 6 15 5 16 4 17 3 18 2 19 1 20
REMARK H PARENT
REMARK Flexibility Score: inf
ROOT
ATOM      1  C   UNL     1       3.741   4.071  13.686  1.00  0.00     0.000 C 
ENDROOT
BRANCH   1   2
ATOM      2  C   UNL     1       4.696   2.929  13.310  1.00  0.00     0.000 C 
BRANCH   2   3
ATOM      3  C   UNL     1       4.332   1.604  14.004  1.00  0.00     0.000 C 
BRANCH   3   4
ATOM      4  C   UNL     1       5.396   1.162  15.021  1.00  0.00     0.000 C 
BRANCH   4   5
ATOM      5  C   UNL     1       4.931   1.338  16.476  1.00  0.00     0.000 C 
BRANCH   5   6
ATOM      6  C   UNL     1       3.431   1.692  16.567  1.00  0.00     0.000 C 
BRANCH   6   7
ATOM      7  C   UNL     1       3.160   3.073  17.188  1.00  0.00     0.006 C 
BRANCH   7   8
ATOM      8  C   UNL     1       3.375   3.098  18.706  1.00  0.00     0.053 C 
BRANCH   8   9
ATOM      9  C   UNL     1       2.376   3.997  19.360  1.00  0.00     0.041 C 
ATOM     10  O   UNL     1       2.656   5.208  19.572  1.00  0.00    -0.550 OA
ATOM     11  O   UNL     1       1.152   3.491  19.781  1.00  0.00    -0.550 OA
ENDBRANCH   8   9
ENDBRANCH   7   8
ENDBRANCH   6   7
ENDBRANCH   5   6
ENDBRANCH   4   5
ENDBRANCH   3   4
ENDBRANCH   2   3
ENDBRANCH   1   2
BRANCH   1  12
ATOM     12  C   UNL     1       4.477   5.280  14.291  1.00  0.00     0.000 C 
BRANCH  12  13
ATOM     13  C   UNL     1       5.250   6.086  13.234  1.00  0.00    -0.000 C 
BRANCH  13  14
ATOM     14  C   UNL     1       6.093   7.214  13.853  1.00  0.00    -0.000 C 
BRANCH  14  15
ATOM     15  C   UNL     1       5.232   8.348  14.440  1.00  0.00    -0.000 C 
BRANCH  15  16
ATOM     16  C   UNL     1       4.962   8.239  15.952  1.00  0.00    -0.000 C 
BRANCH  16  17
ATOM     17  C   UNL     1       3.763   9.084  16.410  1.00  0.00    -0.000 C 
BRANCH  17  18
ATOM     18  C   UNL     1       3.005   8.388  17.549  1.00  0.00    -0.000 C 
BRANCH  18  19
ATOM     19  C   UNL     1       2.410   9.384  18.557  1.00  0.00    -0.003 C 
ATOM     20  C   UNL     1       2.159   8.759  19.928  1.00  0.00     0.004 C 
ENDBRANCH  18  19
ENDBRANCH  17  18
ENDBRANCH  16  17
ENDBRANCH  15  16
ENDBRANCH  14  15
ENDBRANCH  13  14
ENDBRANCH  12  13
ENDBRANCH   1  12
TORSDOF 16
ENDMDL
MODEL 5
REMARK VINA RESULT:    -5.877      2.301      6.248
REMARK INTER + INTRA:         -13.075
REMARK INTER:                 -11.261
REMARK INTRA:                  -1.814
REMARK UNBOUND:                -1.701
REMARK SMILES CCCCCCCCCCCCCCCCCC(=O)[O-]
REMARK SMILES IDX 10 1 11 2 12 3 13 4 14 5 15 6 16 7 17 8 18 9 19 10 20 11
REMARK SMILES IDX 9 12 8 13 7 14 6 15 5 16 4 17 3 18 2 19 1 20
REMARK H PARENT
REMARK Flexibility Score: inf
ROOT
ATOM      1  C   UNL     1       2.620   4.362  18.622  1.00  0.00     0.000 C 
ENDROOT
BRANCH   1   2
ATOM      2  C   UNL     1       2.562   5.615  19.510  1.00  0.00     0.000 C 
BRANCH   2   3
ATOM      3  C   UNL     1       1.872   6.800  18.811  1.00  0.00     0.000 C 
BRANCH   3   4
ATOM      4  C   UNL     1       2.189   8.144  19.486  1.00  0.00     0.000 C 
BRANCH   4   5
ATOM      5  C   UNL     1       2.451   9.268  18.469  1.00  0.00     0.000 C 
BRANCH   5   6
ATOM      6  C   UNL     1       3.841   9.142  17.811  1.00  0.00     0.000 C 
BRANCH   6   7
ATOM      7  C   UNL     1       3.786   8.795  16.313  1.00  0.00     0.006 C 
BRANCH   7   8
ATOM      8  C   UNL     1       4.698   7.622  15.937  1.00  0.00     0.053 C 
BRANCH   8   9
ATOM      9  C   UNL     1       5.414   7.906  14.656  1.00  0.00     0.041 C 
ATOM     10  O   UNL     1       6.327   7.135  14.256  1.00  0.00    -0.550 OA
ATOM     11  O   UNL     1       5.108   9.047  13.925  1.00  0.00    -0.550 OA
ENDBRANCH   8   9
ENDBRANCH   7   8
ENDBRANCH   6   7
ENDBRANCH   5   6
ENDBRANCH   4   5
ENDBRANCH   3   4
ENDBRANCH   2   3
ENDBRANCH   1   2
BRANCH   1  12
ATOM     12  C   UNL     1       2.509   4.696  17.124  1.00  0.00     0.000 C 
BRANCH  12  13
ATOM     13  C   UNL     1       3.488   3.878  16.266  1.00  0.00    -0.000 C 
BRANCH  13  14
ATOM     14  C   UNL     1       2.983   3.672  14.828  1.00  0.00    -0.000 C 
BRANCH  14  15
ATOM     15  C   UNL     1       3.899   4.321  13.775  1.00  0.00    -0.000 C 
BRANCH  15  16
ATOM     16  C   UNL     1       4.879   3.354  13.085  1.00  0.00    -0.000 C 
BRANCH  16  17
ATOM     17  C   UNL     1       4.454   1.883  13.203  1.00  0.00    -0.000 C 
BRANCH  17  18
ATOM     18  C   UNL     1       5.413   1.106  14.117  1.00  0.00    -0.000 C 
BRANCH  18  19
ATOM     19  C   UNL     1       4.697   0.459  15.311  1.00  0.00    -0.003 C 
ATOM     20  C   UNL     1       5.363   0.783  16.648  1.00  0.00     0.004 C 
ENDBRANCH  18  19
ENDBRANCH  17  18
ENDBRANCH  16  17
ENDBRANCH  15  16
ENDBRANCH  14  15
ENDBRANCH  13  14
ENDBRANCH  12  13
ENDBRANCH   1  12
TORSDOF 16
ENDMDL
MODEL 6
REMARK VINA RESULT:    -5.862      1.403      4.223
REMARK INTER + INTRA:         -13.047
REMARK INTER:                 -11.390
REMARK INTRA:                  -1.657
REMARK UNBOUND:                -1.701
REMARK SMILES CCCCCCCCCCCCCCCCCC(=O)[O-]
REMARK SMILES IDX 10 1 11 2 12 3 13 4 14 5 15 6 16 7 17 8 18 9 19 10 20 11
REMARK SMILES IDX 9 12 8 13 7 14 6 15 5 16 4 17 3 18 2 19 1 20
REMARK H PARENT
REMARK Flexibility Score: inf
ROOT
ATOM      1  C   UNL     1       5.272   6.473  14.756  1.00  0.00     0.000 C 
ENDROOT
BRANCH   1   2
ATOM      2  C   UNL     1       4.879   5.965  13.361  1.00  0.00     0.000 C 
BRANCH   2   3
ATOM      3  C   UNL     1       4.424   4.495  13.377  1.00  0.00     0.000 C 
BRANCH   3   4
ATOM      4  C   UNL     1       3.158   4.282  14.222  1.00  0.00     0.000 C 
BRANCH   4   5
ATOM      5  C   UNL     1       3.440   3.512  15.524  1.00  0.00     0.000 C 
BRANCH   5   6
ATOM      6  C   UNL     1       2.817   2.100  15.510  1.00  0.00     0.000 C 
BRANCH   6   7
ATOM      7  C   UNL     1       3.656   1.064  14.742  1.00  0.00     0.006 C 
BRANCH   7   8
ATOM      8  C   UNL     1       5.011   0.786  15.401  1.00  0.00     0.053 C 
BRANCH   8   9
ATOM      9  C   UNL     1       4.832  -0.028  16.642  1.00  0.00     0.041 C 
ATOM     10  O   UNL     1       4.101  -1.055  16.628  1.00  0.00    -0.550 OA
ATOM     11  O   UNL     1       5.434   0.370  17.829  1.00  0.00    -0.550 OA
ENDBRANCH   8   9
ENDBRANCH   7   8
ENDBRANCH   6   7
ENDBRANCH   5   6
ENDBRANCH   4   5
ENDBRANCH   3   4
ENDBRANCH   2   3
ENDBRANCH   1   2
BRANCH   1  12
ATOM     12  C   UNL     1       5.521   7.992  14.782  1.00  0.00     0.000 C 
BRANCH  12  13
ATOM     13  C   UNL     1       4.495   8.740  15.649  1.00  0.00    -0.000 C 
BRANCH  13  14
ATOM     14  C   UNL     1       3.772   7.812  16.640  1.00  0.00    -0.000 C 
BRANCH  14  15
ATOM     15  C   UNL     1       3.073   8.581  17.776  1.00  0.00    -0.000 C 
BRANCH  15  16
ATOM     16  C   UNL     1       2.255   7.705  18.743  1.00  0.00    -0.000 C 
BRANCH  16  17
ATOM     17  C   UNL     1       2.250   6.220  18.350  1.00  0.00    -0.000 C 
BRANCH  17  18
ATOM     18  C   UNL     1       2.492   5.327  19.575  1.00  0.00    -0.000 C 
BRANCH  18  19
ATOM     19  C   UNL     1       2.063   3.871  19.339  1.00  0.00    -0.003 C 
ATOM     20  C   UNL     1       3.250   2.929  19.139  1.00  0.00     0.004 C 
ENDBRANCH  18  19
ENDBRANCH  17  18
ENDBRANCH  16  17
ENDBRANCH  15  16
ENDBRANCH  14  15
ENDBRANCH  13  14
ENDBRANCH  12  13
ENDBRANCH   1  12
TORSDOF 16
ENDMDL
MODEL 7
REMARK VINA RESULT:    -5.858      1.697      3.096
REMARK INTER + INTRA:         -13.039
REMARK INTER:                 -11.187
REMARK INTRA:                  -1.852
REMARK UNBOUND:                -1.701
REMARK SMILES CCCCCCCCCCCCCCCCCC(=O)[O-]
REMARK SMILES IDX 10 1 11 2 12 3 13 4 14 5 15 6 16 7 17 8 18 9 19 10 20 11
REMARK SMILES IDX 9 12 8 13 7 14 6 15 5 16 4 17 3 18 2 19 1 20
REMARK H PARENT
REMARK Flexibility Score: inf
ROOT
ATOM      1  C   UNL     1       3.573   4.164  16.336  1.00  0.00     0.000 C 
ENDROOT
BRANCH   1   2
ATOM      2  C   UNL     1       3.083   3.921  14.901  1.00  0.00     0.000 C 
BRANCH   2   3
ATOM      3  C   UNL     1       4.201   4.101  13.858  1.00  0.00     0.000 C 
BRANCH   3   4
ATOM      4  C   UNL     1       4.558   2.786  13.147  1.00  0.00     0.000 C 
BRANCH   4   5
ATOM      5  C   UNL     1       4.994   1.684  14.127  1.00  0.00     0.000 C 
BRANCH   5   6
ATOM      6  C   UNL     1       3.957   0.545  14.218  1.00  0.00     0.000 C 
BRANCH   6   7
ATOM      7  C   UNL     1       3.805  -0.039  15.633  1.00  0.00     0.006 C 
BRANCH   7   8
ATOM      8  C   UNL     1       4.667   0.685  16.674  1.00  0.00     0.053 C 
BRANCH   8   9
ATOM      9  C   UNL     1       5.014  -0.237  17.798  1.00  0.00     0.041 C 
ATOM     10  O   UNL     1       5.486  -1.381  17.557  1.00  0.00    -0.550 OA
ATOM     11  O   UNL     1       4.774   0.144  19.112  1.00  0.00    -0.550 OA
ENDBRANCH   8   9
ENDBRANCH   7   8
ENDBRANCH   6   7
ENDBRANCH   5   6
ENDBRANCH   4   5
ENDBRANCH   3   4
ENDBRANCH   2   3
ENDBRANCH   1   2
BRANCH   1  12
ATOM     12  C   UNL     1       2.421   4.186  17.357  1.00  0.00     0.000 C 
BRANCH  12  13
ATOM     13  C   UNL     1       2.921   4.101  18.808  1.00  0.00    -0.000 C 
BRANCH  13  14
ATOM     14  C   UNL     1       2.558   5.348  19.631  1.00  0.00    -0.000 C 
BRANCH  14  15
ATOM     15  C   UNL     1       1.866   6.437  18.790  1.00  0.00    -0.000 C 
BRANCH  15  16
ATOM     16  C   UNL     1       2.187   7.883  19.212  1.00  0.00    -0.000 C 
BRANCH  16  17
ATOM     17  C   UNL     1       2.803   8.717  18.079  1.00  0.00    -0.000 C 
BRANCH  17  18
ATOM     18  C   UNL     1       3.437   7.811  17.013  1.00  0.00    -0.000 C 
BRANCH  18  19
ATOM     19  C   UNL     1       4.440   8.560  16.123  1.00  0.00    -0.003 C 
ATOM     20  C   UNL     1       5.170   7.637  15.148  1.00  0.00     0.004 C 
ENDBRANCH  18  19
ENDBRANCH  17  18
ENDBRANCH  16  17
ENDBRANCH  15  16
ENDBRANCH  14  15
ENDBRANCH  13  14
ENDBRANCH  12  13
ENDBRANCH   1  12
TORSDOF 16
ENDMDL
MODEL 8
REMARK VINA RESULT:    -5.820      3.359      7.866
REMARK INTER + INTRA:         -12.965
REMARK INTER:                 -11.207
REMARK INTRA:                  -1.758
REMARK UNBOUND:                -1.701
REMARK SMILES CCCCCCCCCCCCCCCCCC(=O)[O-]
REMARK SMILES IDX 10 1 11 2 12 3 13 4 14 5 15 6 16 7 17 8 18 9 19 10 20 11
REMARK SMILES IDX 9 12 8 13 7 14 6 15 5 16 4 17 3 18 2 19 1 20
REMARK H PARENT
REMARK Flexibility Score: inf
ROOT
ATOM      1  C   UNL     1       2.941   3.736  14.749  1.00  0.00     0.000 C 
ENDROOT
BRANCH   1   2
ATOM      2  C   UNL     1       3.395   3.970  16.198  1.00  0.00     0.000 C 
BRANCH   2   3
ATOM      3  C   UNL     1       2.810   2.933  17.172  1.00  0.00     0.000 C 
BRANCH   3   4
ATOM      4  C   UNL     1       3.164   3.239  18.637  1.00  0.00     0.000 C 
BRANCH   4   5
ATOM      5  C   UNL     1       2.069   4.050  19.351  1.00  0.00     0.000 C 
BRANCH   5   6
ATOM      6  C   UNL     1       2.543   5.475  19.708  1.00  0.00     0.000 C 
BRANCH   6   7
ATOM      7  C   UNL     1       2.256   6.513  18.610  1.00  0.00     0.006 C 
BRANCH   7   8
ATOM      8  C   UNL     1       1.919   7.899  19.172  1.00  0.00     0.053 C 
BRANCH   8   9
ATOM      9  C   UNL     1       2.783   8.943  18.542  1.00  0.00     0.041 C 
ATOM     10  O   UNL     1       3.122   9.965  19.196  1.00  0.00    -0.550 OA
ATOM     11  O   UNL     1       3.178   8.814  17.216  1.00  0.00    -0.550 OA
ENDBRANCH   8   9
ENDBRANCH   7   8
ENDBRANCH   6   7
ENDBRANCH   5   6
ENDBRANCH   4   5
ENDBRANCH   3   4
ENDBRANCH   2   3
ENDBRANCH   1   2
BRANCH   1  12
ATOM     12  C   UNL     1       4.124   3.628  13.770  1.00  0.00     0.000 C 
BRANCH  12  13
ATOM     13  C   UNL     1       4.895   2.307  13.925  1.00  0.00    -0.000 C 
BRANCH  13  14
ATOM     14  C   UNL     1       4.422   1.229  12.935  1.00  0.00    -0.000 C 
BRANCH  14  15
ATOM     15  C   UNL     1       4.163  -0.130  13.611  1.00  0.00    -0.000 C 
BRANCH  15  16
ATOM     16  C   UNL     1       3.256  -0.073  14.853  1.00  0.00    -0.000 C 
BRANCH  16  17
ATOM     17  C   UNL     1       3.425  -1.288  15.778  1.00  0.00    -0.000 C 
BRANCH  17  18
ATOM     18  C   UNL     1       4.751  -1.211  16.548  1.00  0.00    -0.000 C 
BRANCH  18  19
ATOM     19  C   UNL     1       4.917   0.114  17.308  1.00  0.00    -0.003 C 
ATOM     20  C   UNL     1       4.979  -0.077  18.823  1.00  0.00     0.004 C 
ENDBRANCH  18  19
ENDBRANCH  17  18
ENDBRANCH  16  17
ENDBRANCH  15  16
ENDBRANCH  14  15
ENDBRANCH  13  14
ENDBRANCH  12  13
ENDBRANCH   1  12
TORSDOF 16
ENDMDL
MODEL 9
REMARK VINA RESULT:    -5.796      3.407      7.380
REMARK INTER + INTRA:         -12.919
REMARK INTER:                 -11.525
REMARK INTRA:                  -1.394
REMARK UNBOUND:                -1.701
REMARK SMILES CCCCCCCCCCCCCCCCCC(=O)[O-]
REMARK SMILES IDX 10 1 11 2 12 3 13 4 14 5 15 6 16 7 17 8 18 9 19 10 20 11
REMARK SMILES IDX 9 12 8 13 7 14 6 15 5 16 4 17 3 18 2 19 1 20
REMARK H PARENT
REMARK Flexibility Score: inf
ROOT
ATOM      1  C   UNL     1       4.175   4.165  12.892  1.00  0.00     0.000 C 
ENDROOT
BRANCH   1   2
ATOM      2  C   UNL     1       4.577   5.332  13.806  1.00  0.00     0.000 C 
BRANCH   2   3
ATOM      3  C   UNL     1       5.129   6.533  13.017  1.00  0.00     0.000 C 
BRANCH   3   4
ATOM      4  C   UNL     1       5.942   7.493  13.902  1.00  0.00     0.000 C 
BRANCH   4   5
ATOM      5  C   UNL     1       5.056   8.518  14.629  1.00  0.00     0.000 C 
BRANCH   5   6
ATOM      6  C   UNL     1       4.589   8.007  16.008  1.00  0.00     0.000 C 
BRANCH   6   7
ATOM      7  C   UNL     1       3.843   9.066  16.838  1.00  0.00     0.006 C 
BRANCH   7   8
ATOM      8  C   UNL     1       2.787   8.461  17.770  1.00  0.00     0.053 C 
BRANCH   8   9
ATOM      9  C   UNL     1       2.762   9.189  19.076  1.00  0.00     0.041 C 
ATOM     10  O   UNL     1       2.011   8.795  20.007  1.00  0.00    -0.550 OA
ATOM     11  O   UNL     1       3.533  10.331  19.251  1.00  0.00    -0.550 OA
ENDBRANCH   8   9
ENDBRANCH   7   8
ENDBRANCH   6   7
ENDBRANCH   5   6
ENDBRANCH   4   5
ENDBRANCH   3   4
ENDBRANCH   2   3
ENDBRANCH   1   2
BRANCH   1  12
ATOM     12  C   UNL     1       5.224   3.038  12.879  1.00  0.00     0.000 C 
BRANCH  12  13
ATOM     13  C   UNL     1       4.694   1.735  13.500  1.00  0.00    -0.000 C 
BRANCH  13  14
ATOM     14  C   UNL     1       5.604   1.203  14.619  1.00  0.00    -0.000 C 
BRANCH  14  15
ATOM     15  C   UNL     1       4.937   1.256  16.006  1.00  0.00    -0.000 C 
BRANCH  15  16
ATOM     16  C   UNL     1       3.484   1.765  16.007  1.00  0.00    -0.000 C 
BRANCH  16  17
ATOM     17  C   UNL     1       3.156   2.646  17.222  1.00  0.00    -0.000 C 
BRANCH  17  18
ATOM     18  C   UNL     1       3.029   4.120  16.813  1.00  0.00    -0.000 C 
BRANCH  18  19
ATOM     19  C   UNL     1       2.731   5.041  18.006  1.00  0.00    -0.003 C 
ATOM     20  C   UNL     1       2.171   4.286  19.210  1.00  0.00     0.004 C 
ENDBRANCH  18  19
ENDBRANCH  17  18
ENDBRANCH  16  17
ENDBRANCH  15  16
ENDBRANCH  14  15
ENDBRANCH  13  14
ENDBRANCH  12  13
ENDBRANCH   1  12
TORSDOF 16
ENDMDL
