MODEL 1
REMARK VINA RESULT:    -5.627      0.000      0.000
REMARK INTER + INTRA:          -6.717
REMARK INTER:                  -6.778
REMARK INTRA:                   0.060
REMARK UNBOUND:                 0.060
REMARK SMILES O=c1c(O)c(-c2ccc(O)c(O)c2)oc2cc(O)cc(O)c12
REMARK SMILES IDX 5 1 3 2 2 3 1 4 22 5 20 6 19 7 17 8 16 9 15 10 14 11 6 12
REMARK SMILES IDX 7 13 8 14 9 15 13 16 11 17 10 18 12 20 4 22 21 24 18 26
REMARK H PARENT 10 19 12 21 4 23 21 25 18 27
REMARK Flexibility Score: inf
ROOT
ATOM      1  C   UNL     1     -11.421   7.081  -1.701  1.00  0.00     0.180 A 
ATOM      2  C   UNL     1     -11.863   5.780  -2.013  1.00  0.00     0.208 A 
ATOM      3  C   UNL     1     -11.891   5.378  -3.358  1.00  0.00     0.238 A 
ATOM      4  O   UNL     1     -12.275   4.212  -3.648  1.00  0.00    -0.285 OA
ATOM      5  C   UNL     1     -11.499   6.283  -4.365  1.00  0.00     0.111 A 
ATOM      6  C   UNL     1     -11.503   5.957  -5.742  1.00  0.00     0.134 A 
ATOM      7  C   UNL     1     -11.107   6.917  -6.685  1.00  0.00     0.093 A 
ATOM      8  C   UNL     1     -10.708   8.196  -6.277  1.00  0.00     0.123 A 
ATOM      9  C   UNL     1     -10.703   8.521  -4.920  1.00  0.00     0.094 A 
ATOM     10  C   UNL     1     -11.093   7.578  -3.964  1.00  0.00     0.146 A 
ATOM     11  O   UNL     1     -11.073   7.913  -2.680  1.00  0.00    -0.452 OA
ENDROOT
BRANCH   1  12
ATOM     12  C   UNL     1     -11.344   7.573  -0.307  1.00  0.00     0.025 A 
ATOM     13  C   UNL     1     -11.906   8.803   0.066  1.00  0.00     0.016 A 
ATOM     14  C   UNL     1     -11.840   9.234   1.393  1.00  0.00     0.051 A 
ATOM     15  C   UNL     1     -11.227   8.446   2.372  1.00  0.00     0.157 A 
ATOM     16  C   UNL     1     -10.747   6.770   0.676  1.00  0.00     0.062 A 
ATOM     17  C   UNL     1     -10.676   7.194   2.010  1.00  0.00     0.158 A 
BRANCH  15  18
ATOM     18  O   UNL     1     -11.191   8.938   3.678  1.00  0.00    -0.504 OA
ATOM     19  H   UNL     1     -11.957   9.428   4.117  1.00  0.00     0.293 HD
ENDBRANCH  15  18
BRANCH  17  20
ATOM     20  O   UNL     1     -10.056   6.348   2.932  1.00  0.00    -0.504 OA
ATOM     21  H   UNL     1      -9.775   6.632   3.859  1.00  0.00     0.293 HD
ENDBRANCH  17  20
ENDBRANCH   1  12
BRANCH   2  22
ATOM     22  O   UNL     1     -12.292   4.919  -1.000  1.00  0.00    -0.502 OA
ATOM     23  H   UNL     1     -12.696   5.258  -0.135  1.00  0.00     0.293 HD
ENDBRANCH   2  22
BRANCH   6  24
ATOM     24  O   UNL     1     -11.896   4.692  -6.180  1.00  0.00    -0.507 OA
ATOM     25  H   UNL     1     -12.545   4.572  -6.950  1.00  0.00     0.293 HD
ENDBRANCH   6  24
BRANCH   8  26
ATOM     26  O   UNL     1     -10.316   9.150  -7.213  1.00  0.00    -0.508 OA
ATOM     27  H   UNL     1     -10.986   9.592  -7.831  1.00  0.00     0.293 HD
ENDBRANCH   8  26
TORSDOF 6
ENDMDL
MODEL 2
REMARK VINA RESULT:    -5.272      1.471      2.312
REMARK INTER + INTRA:          -6.290
REMARK INTER:                  -6.520
REMARK INTRA:                   0.230
REMARK UNBOUND:                 0.060
REMARK SMILES O=c1c(O)c(-c2ccc(O)c(O)c2)oc2cc(O)cc(O)c12
REMARK SMILES IDX 5 1 3 2 2 3 1 4 22 5 20 6 19 7 17 8 16 9 15 10 14 11 6 12
REMARK SMILES IDX 7 13 8 14 9 15 13 16 11 17 10 18 12 20 4 22 21 24 18 26
REMARK H PARENT 10 19 12 21 4 23 21 25 18 27
REMARK Flexibility Score: inf
ROOT
ATOM      1  C   UNL     1     -11.756   7.370  -0.793  1.00  0.00     0.180 A 
ATOM      2  C   UNL     1     -12.285   6.074  -0.628  1.00  0.00     0.208 A 
ATOM      3  C   UNL     1     -12.326   5.213  -1.735  1.00  0.00     0.238 A 
ATOM      4  O   UNL     1     -12.788   4.047  -1.596  1.00  0.00    -0.285 OA
ATOM      5  C   UNL     1     -11.861   5.663  -2.987  1.00  0.00     0.111 A 
ATOM      6  C   UNL     1     -11.872   4.859  -4.152  1.00  0.00     0.134 A 
ATOM      7  C   UNL     1     -11.400   5.384  -5.364  1.00  0.00     0.093 A 
ATOM      8  C   UNL     1     -10.917   6.696  -5.433  1.00  0.00     0.123 A 
ATOM      9  C   UNL     1     -10.904   7.492  -4.287  1.00  0.00     0.094 A 
ATOM     10  C   UNL     1     -11.369   6.988  -3.069  1.00  0.00     0.146 A 
ATOM     11  O   UNL     1     -11.340   7.765  -1.993  1.00  0.00    -0.452 OA
ENDROOT
BRANCH   1  12
ATOM     12  C   UNL     1     -11.660   8.330   0.330  1.00  0.00     0.025 A 
ATOM     13  C   UNL     1     -11.465   7.894   1.649  1.00  0.00     0.016 A 
ATOM     14  C   UNL     1     -11.354   8.820   2.688  1.00  0.00     0.051 A 
ATOM     15  C   UNL     1     -11.422  10.194   2.433  1.00  0.00     0.157 A 
ATOM     16  C   UNL     1     -11.707   9.707   0.067  1.00  0.00     0.062 A 
ATOM     17  C   UNL     1     -11.596  10.644   1.103  1.00  0.00     0.158 A 
BRANCH  15  18
ATOM     18  O   UNL     1     -11.308  11.067   3.517  1.00  0.00    -0.504 OA
ATOM     19  H   UNL     1     -12.051  11.670   3.836  1.00  0.00     0.293 HD
ENDBRANCH  15  18
BRANCH  17  20
ATOM     20  O   UNL     1     -11.664  11.998   0.767  1.00  0.00    -0.504 OA
ATOM     21  H   UNL     1     -11.714  12.746   1.445  1.00  0.00     0.293 HD
ENDBRANCH  17  20
ENDBRANCH   1  12
BRANCH   2  22
ATOM     22  O   UNL     1     -12.785   5.669   0.612  1.00  0.00    -0.502 OA
ATOM     23  H   UNL     1     -12.987   6.326   1.356  1.00  0.00     0.293 HD
ENDBRANCH   2  22
BRANCH   6  24
ATOM     24  O   UNL     1     -12.348   3.548  -4.115  1.00  0.00    -0.507 OA
ATOM     25  H   UNL     1     -13.321   3.339  -3.922  1.00  0.00     0.293 HD
ENDBRANCH   6  24
BRANCH   8  26
ATOM     26  O   UNL     1     -10.448   7.218  -6.636  1.00  0.00    -0.508 OA
ATOM     27  H   UNL     1      -9.910   6.654  -7.284  1.00  0.00     0.293 HD
ENDBRANCH   8  26
TORSDOF 6
ENDMDL
MODEL 3
REMARK VINA RESULT:    -5.199      1.512      7.207
REMARK INTER + INTRA:          -6.202
REMARK INTER:                  -6.196
REMARK INTRA:                  -0.006
REMARK UNBOUND:                 0.060
REMARK SMILES O=c1c(O)c(-c2ccc(O)c(O)c2)oc2cc(O)cc(O)c12
REMARK SMILES IDX 5 1 3 2 2 3 1 4 22 5 20 6 19 7 17 8 16 9 15 10 14 11 6 12
REMARK SMILES IDX 7 13 8 14 9 15 13 16 11 17 10 18 12 20 4 22 21 24 18 26
REMARK H PARENT 10 19 12 21 4 23 21 25 18 27
REMARK Flexibility Score: inf
ROOT
ATOM      1  C   UNL     1     -11.812   7.126  -1.656  1.00  0.00     0.180 A 
ATOM      2  C   UNL     1     -12.440   8.386  -1.634  1.00  0.00     0.208 A 
ATOM      3  C   UNL     1     -12.444   9.122  -0.439  1.00  0.00     0.238 A 
ATOM      4  O   UNL     1     -12.995  10.257  -0.412  1.00  0.00    -0.285 OA
ATOM      5  C   UNL     1     -11.842   8.582   0.715  1.00  0.00     0.111 A 
ATOM      6  C   UNL     1     -11.806   9.256   1.958  1.00  0.00     0.134 A 
ATOM      7  C   UNL     1     -11.195   8.647   3.064  1.00  0.00     0.093 A 
ATOM      8  C   UNL     1     -10.619   7.376   2.949  1.00  0.00     0.123 A 
ATOM      9  C   UNL     1     -10.652   6.707   1.724  1.00  0.00     0.094 A 
ATOM     10  C   UNL     1     -11.255   7.298   0.611  1.00  0.00     0.146 A 
ATOM     11  O   UNL     1     -11.266   6.641  -0.543  1.00  0.00    -0.452 OA
ENDROOT
BRANCH   1  12
ATOM     12  C   UNL     1     -11.748   6.298  -2.882  1.00  0.00     0.025 A 
ATOM     13  C   UNL     1     -12.208   4.973  -2.894  1.00  0.00     0.016 A 
ATOM     14  C   UNL     1     -12.159   4.220  -4.069  1.00  0.00     0.051 A 
ATOM     15  C   UNL     1     -11.664   4.775  -5.253  1.00  0.00     0.157 A 
ATOM     16  C   UNL     1     -11.272   6.865  -4.073  1.00  0.00     0.062 A 
ATOM     17  C   UNL     1     -11.219   6.118  -5.257  1.00  0.00     0.158 A 
BRANCH  15  18
ATOM     18  O   UNL     1     -11.639   3.967  -6.392  1.00  0.00    -0.504 OA
ATOM     19  H   UNL     1     -12.450   3.501  -6.771  1.00  0.00     0.293 HD
ENDBRANCH  15  18
BRANCH  17  20
ATOM     20  O   UNL     1     -10.721   6.744  -6.403  1.00  0.00    -0.504 OA
ATOM     21  H   UNL     1     -10.278   6.254  -7.166  1.00  0.00     0.293 HD
ENDBRANCH  17  20
ENDBRANCH   1  12
BRANCH   2  22
ATOM     22  O   UNL     1     -13.073   8.878  -2.779  1.00  0.00    -0.502 OA
ATOM     23  H   UNL     1     -13.916   9.439  -2.734  1.00  0.00     0.293 HD
ENDBRANCH   2  22
BRANCH   6  24
ATOM     24  O   UNL     1     -12.372  10.524   2.104  1.00  0.00    -0.507 OA
ATOM     25  H   UNL     1     -12.459  10.967   3.012  1.00  0.00     0.293 HD
ENDBRANCH   6  24
BRANCH   8  26
ATOM     26  O   UNL     1     -10.013   6.769   4.047  1.00  0.00    -0.508 OA
ATOM     27  H   UNL     1      -9.182   6.199   3.945  1.00  0.00     0.293 HD
ENDBRANCH   8  26
TORSDOF 6
ENDMDL
MODEL 4
REMARK VINA RESULT:    -5.149      1.322      6.513
REMARK INTER + INTRA:          -6.142
REMARK INTER:                  -6.043
REMARK INTRA:                  -0.099
REMARK UNBOUND:                 0.060
REMARK SMILES O=c1c(O)c(-c2ccc(O)c(O)c2)oc2cc(O)cc(O)c12
REMARK SMILES IDX 5 1 3 2 2 3 1 4 22 5 20 6 19 7 17 8 16 9 15 10 14 11 6 12
REMARK SMILES IDX 7 13 8 14 9 15 13 16 11 17 10 18 12 20 4 22 21 24 18 26
REMARK H PARENT 10 19 12 21 4 23 21 25 18 27
REMARK Flexibility Score: inf
ROOT
ATOM      1  C   UNL     1     -11.206   7.543  -3.645  1.00  0.00     0.180 A 
ATOM      2  C   UNL     1     -11.791   6.268  -3.776  1.00  0.00     0.208 A 
ATOM      3  C   UNL     1     -12.129   5.555  -2.616  1.00  0.00     0.238 A 
ATOM      4  O   UNL     1     -12.663   4.416  -2.722  1.00  0.00    -0.285 OA
ATOM      5  C   UNL     1     -11.861   6.114  -1.350  1.00  0.00     0.111 A 
ATOM      6  C   UNL     1     -12.167   5.459  -0.133  1.00  0.00     0.134 A 
ATOM      7  C   UNL     1     -11.860   6.078   1.087  1.00  0.00     0.093 A 
ATOM      8  C   UNL     1     -11.253   7.340   1.113  1.00  0.00     0.123 A 
ATOM      9  C   UNL     1     -10.950   7.989  -0.084  1.00  0.00     0.094 A 
ATOM     10  C   UNL     1     -11.249   7.390  -1.311  1.00  0.00     0.146 A 
ATOM     11  O   UNL     1     -10.954   8.032  -2.434  1.00  0.00    -0.452 OA
ENDROOT
BRANCH   1  12
ATOM     12  C   UNL     1     -10.839   8.366  -4.821  1.00  0.00     0.025 A 
ATOM     13  C   UNL     1     -11.378   9.646  -5.013  1.00  0.00     0.016 A 
ATOM     14  C   UNL     1     -10.998  10.412  -6.117  1.00  0.00     0.051 A 
ATOM     15  C   UNL     1     -10.069   9.924  -7.041  1.00  0.00     0.157 A 
ATOM     16  C   UNL     1      -9.890   7.881  -5.733  1.00  0.00     0.062 A 
ATOM     17  C   UNL     1      -9.503   8.642  -6.844  1.00  0.00     0.158 A 
BRANCH  15  18
ATOM     18  O   UNL     1      -9.735  10.739  -8.125  1.00  0.00    -0.504 OA
ATOM     19  H   UNL     1      -8.981  11.410  -8.115  1.00  0.00     0.293 HD
ENDBRANCH  15  18
BRANCH  17  20
ATOM     20  O   UNL     1      -8.562   8.091  -7.717  1.00  0.00    -0.504 OA
ATOM     21  H   UNL     1      -8.311   7.113  -7.732  1.00  0.00     0.293 HD
ENDBRANCH  17  20
ENDBRANCH   1  12
BRANCH   2  22
ATOM     22  O   UNL     1     -12.001   5.715  -5.042  1.00  0.00    -0.502 OA
ATOM     23  H   UNL     1     -11.852   6.241  -5.895  1.00  0.00     0.293 HD
ENDBRANCH   2  22
BRANCH   6  24
ATOM     24  O   UNL     1     -12.771   4.201  -0.127  1.00  0.00    -0.507 OA
ATOM     25  H   UNL     1     -12.571   3.517   0.594  1.00  0.00     0.293 HD
ENDBRANCH   6  24
BRANCH   8  26
ATOM     26  O   UNL     1     -10.947   7.955   2.325  1.00  0.00    -0.508 OA
ATOM     27  H   UNL     1     -10.776   8.952   2.385  1.00  0.00     0.293 HD
ENDBRANCH   8  26
TORSDOF 6
ENDMDL
MODEL 5
REMARK VINA RESULT:    -4.985      4.344      6.661
REMARK INTER + INTRA:          -5.944
REMARK INTER:                  -6.205
REMARK INTRA:                   0.261
REMARK UNBOUND:                 0.060
REMARK SMILES O=c1c(O)c(-c2ccc(O)c(O)c2)oc2cc(O)cc(O)c12
REMARK SMILES IDX 5 1 3 2 2 3 1 4 22 5 20 6 19 7 17 8 16 9 15 10 14 11 6 12
REMARK SMILES IDX 7 13 8 14 9 15 13 16 11 17 10 18 12 20 4 22 21 24 18 26
REMARK H PARENT 10 19 12 21 4 23 21 25 18 27
REMARK Flexibility Score: inf
ROOT
ATOM      1  C   UNL     1     -12.572   2.227  -1.846  1.00  0.00     0.180 A 
ATOM      2  C   UNL     1     -12.828   3.102  -0.773  1.00  0.00     0.208 A 
ATOM      3  C   UNL     1     -12.750   4.486  -0.993  1.00  0.00     0.238 A 
ATOM      4  O   UNL     1     -12.987   5.279  -0.041  1.00  0.00    -0.285 OA
ATOM      5  C   UNL     1     -12.400   4.971  -2.269  1.00  0.00     0.111 A 
ATOM      6  C   UNL     1     -12.296   6.350  -2.572  1.00  0.00     0.134 A 
ATOM      7  C   UNL     1     -11.933   6.753  -3.865  1.00  0.00     0.093 A 
ATOM      8  C   UNL     1     -11.673   5.803  -4.861  1.00  0.00     0.123 A 
ATOM      9  C   UNL     1     -11.774   4.443  -4.567  1.00  0.00     0.094 A 
ATOM     10  C   UNL     1     -12.136   4.021  -3.284  1.00  0.00     0.146 A 
ATOM     11  O   UNL     1     -12.230   2.721  -3.034  1.00  0.00    -0.452 OA
ENDROOT
BRANCH   1  12
ATOM     12  C   UNL     1     -12.654   0.756  -1.700  1.00  0.00     0.025 A 
ATOM     13  C   UNL     1     -13.074  -0.062  -2.760  1.00  0.00     0.016 A 
ATOM     14  C   UNL     1     -13.120  -1.449  -2.604  1.00  0.00     0.051 A 
ATOM     15  C   UNL     1     -12.738  -2.046  -1.399  1.00  0.00     0.157 A 
ATOM     16  C   UNL     1     -12.249   0.159  -0.496  1.00  0.00     0.062 A 
ATOM     17  C   UNL     1     -12.292  -1.232  -0.331  1.00  0.00     0.158 A 
BRANCH  15  18
ATOM     18  O   UNL     1     -12.811  -3.438  -1.307  1.00  0.00    -0.504 OA
ATOM     19  H   UNL     1     -13.669  -3.949  -1.162  1.00  0.00     0.293 HD
ENDBRANCH  15  18
BRANCH  17  20
ATOM     20  O   UNL     1     -11.886  -1.755   0.899  1.00  0.00    -0.504 OA
ATOM     21  H   UNL     1     -11.201  -1.319   1.499  1.00  0.00     0.293 HD
ENDBRANCH  17  20
ENDBRANCH   1  12
BRANCH   2  22
ATOM     22  O   UNL     1     -13.125   2.595   0.495  1.00  0.00    -0.502 OA
ATOM     23  H   UNL     1     -13.460   1.650   0.637  1.00  0.00     0.293 HD
ENDBRANCH   2  22
BRANCH   6  24
ATOM     24  O   UNL     1     -12.548   7.320  -1.601  1.00  0.00    -0.507 OA
ATOM     25  H   UNL     1     -12.229   7.212  -0.645  1.00  0.00     0.293 HD
ENDBRANCH   6  24
BRANCH   8  26
ATOM     26  O   UNL     1     -11.311   6.203  -6.145  1.00  0.00    -0.508 OA
ATOM     27  H   UNL     1     -11.508   7.137  -6.485  1.00  0.00     0.293 HD
ENDBRANCH   8  26
TORSDOF 6
ENDMDL
MODEL 6
REMARK VINA RESULT:    -4.941      1.444      3.311
REMARK INTER + INTRA:          -5.892
REMARK INTER:                  -5.929
REMARK INTRA:                   0.037
REMARK UNBOUND:                 0.060
REMARK SMILES O=c1c(O)c(-c2ccc(O)c(O)c2)oc2cc(O)cc(O)c12
REMARK SMILES IDX 5 1 3 2 2 3 1 4 22 5 20 6 19 7 17 8 16 9 15 10 14 11 6 12
REMARK SMILES IDX 7 13 8 14 9 15 13 16 11 17 10 18 12 20 4 22 21 24 18 26
REMARK H PARENT 10 19 12 21 4 23 21 25 18 27
REMARK Flexibility Score: inf
ROOT
ATOM      1  C   UNL     1     -11.633   6.645  -1.563  1.00  0.00     0.180 A 
ATOM      2  C   UNL     1     -11.389   7.315  -2.777  1.00  0.00     0.208 A 
ATOM      3  C   UNL     1     -11.567   6.620  -3.983  1.00  0.00     0.238 A 
ATOM      4  O   UNL     1     -11.361   7.214  -5.077  1.00  0.00    -0.285 OA
ATOM      5  C   UNL     1     -11.964   5.268  -3.957  1.00  0.00     0.111 A 
ATOM      6  C   UNL     1     -12.161   4.496  -5.127  1.00  0.00     0.134 A 
ATOM      7  C   UNL     1     -12.548   3.152  -5.017  1.00  0.00     0.093 A 
ATOM      8  C   UNL     1     -12.742   2.567  -3.760  1.00  0.00     0.123 A 
ATOM      9  C   UNL     1     -12.548   3.325  -2.604  1.00  0.00     0.094 A 
ATOM     10  C   UNL     1     -12.164   4.665  -2.692  1.00  0.00     0.146 A 
ATOM     11  O   UNL     1     -11.993   5.364  -1.576  1.00  0.00    -0.452 OA
ENDROOT
BRANCH   1  12
ATOM     12  C   UNL     1     -11.487   7.315  -0.250  1.00  0.00     0.025 A 
ATOM     13  C   UNL     1     -12.005   8.598  -0.023  1.00  0.00     0.016 A 
ATOM     14  C   UNL     1     -11.875   9.199   1.231  1.00  0.00     0.051 A 
ATOM     15  C   UNL     1     -11.240   8.531   2.282  1.00  0.00     0.157 A 
ATOM     16  C   UNL     1     -10.868   6.632   0.808  1.00  0.00     0.062 A 
ATOM     17  C   UNL     1     -10.733   7.227   2.069  1.00  0.00     0.158 A 
BRANCH  15  18
ATOM     18  O   UNL     1     -11.139   9.189   3.509  1.00  0.00    -0.504 OA
ATOM     19  H   UNL     1     -11.342   8.758   4.399  1.00  0.00     0.293 HD
ENDBRANCH  15  18
BRANCH  17  20
ATOM     20  O   UNL     1     -10.095   6.493   3.072  1.00  0.00    -0.504 OA
ATOM     21  H   UNL     1      -9.559   6.907   3.821  1.00  0.00     0.293 HD
ENDBRANCH  17  20
ENDBRANCH   1  12
BRANCH   2  22
ATOM     22  O   UNL     1     -10.948   8.641  -2.774  1.00  0.00    -0.502 OA
ATOM     23  H   UNL     1      -9.995   8.896  -2.547  1.00  0.00     0.293 HD
ENDBRANCH   2  22
BRANCH   6  24
ATOM     24  O   UNL     1     -11.976   5.051  -6.394  1.00  0.00    -0.507 OA
ATOM     25  H   UNL     1     -11.914   6.054  -6.532  1.00  0.00     0.293 HD
ENDBRANCH   6  24
BRANCH   8  26
ATOM     26  O   UNL     1     -13.125   1.232  -3.650  1.00  0.00    -0.508 OA
ATOM     27  H   UNL     1     -13.406   0.693  -4.461  1.00  0.00     0.293 HD
ENDBRANCH   8  26
TORSDOF 6
ENDMDL
MODEL 7
REMARK VINA RESULT:    -4.894      2.091      3.543
REMARK INTER + INTRA:          -5.836
REMARK INTER:                  -5.577
REMARK INTRA:                  -0.258
REMARK UNBOUND:                 0.060
REMARK SMILES O=c1c(O)c(-c2ccc(O)c(O)c2)oc2cc(O)cc(O)c12
REMARK SMILES IDX 5 1 3 2 2 3 1 4 22 5 20 6 19 7 17 8 16 9 15 10 14 11 6 12
REMARK SMILES IDX 7 13 8 14 9 15 13 16 11 17 10 18 12 20 4 22 21 24 18 26
REMARK H PARENT 10 19 12 21 4 23 21 25 18 27
REMARK Flexibility Score: inf
ROOT
ATOM      1  C   UNL     1     -11.917   7.780  -1.751  1.00  0.00     0.180 A 
ATOM      2  C   UNL     1     -12.529   9.036  -1.575  1.00  0.00     0.208 A 
ATOM      3  C   UNL     1     -12.570   9.929  -2.657  1.00  0.00     0.238 A 
ATOM      4  O   UNL     1     -13.125  11.052  -2.513  1.00  0.00    -0.285 OA
ATOM      5  C   UNL     1     -11.984   9.563  -3.886  1.00  0.00     0.111 A 
ATOM      6  C   UNL     1     -11.979  10.405  -5.023  1.00  0.00     0.134 A 
ATOM      7  C   UNL     1     -11.367   9.972  -6.208  1.00  0.00     0.093 A 
ATOM      8  C   UNL     1     -10.760   8.712  -6.277  1.00  0.00     0.123 A 
ATOM      9  C   UNL     1     -10.762   7.878  -5.158  1.00  0.00     0.094 A 
ATOM     10  C   UNL     1     -11.369   8.291  -3.968  1.00  0.00     0.146 A 
ATOM     11  O   UNL     1     -11.361   7.475  -2.921  1.00  0.00    -0.452 OA
ENDROOT
BRANCH   1  12
ATOM     12  C   UNL     1     -11.851   6.776  -0.665  1.00  0.00     0.025 A 
ATOM     13  C   UNL     1     -12.650   5.623  -0.685  1.00  0.00     0.016 A 
ATOM     14  C   UNL     1     -12.553   4.680   0.340  1.00  0.00     0.051 A 
ATOM     15  C   UNL     1     -11.652   4.860   1.394  1.00  0.00     0.157 A 
ATOM     16  C   UNL     1     -10.930   6.949   0.380  1.00  0.00     0.062 A 
ATOM     17  C   UNL     1     -10.826   6.008   1.413  1.00  0.00     0.158 A 
BRANCH  15  18
ATOM     18  O   UNL     1     -11.607   3.881   2.389  1.00  0.00    -0.504 OA
ATOM     19  H   UNL     1     -12.165   3.905   3.230  1.00  0.00     0.293 HD
ENDBRANCH  15  18
BRANCH  17  20
ATOM     20  O   UNL     1      -9.895   6.252   2.426  1.00  0.00    -0.504 OA
ATOM     21  H   UNL     1      -8.895   6.244   2.288  1.00  0.00     0.293 HD
ENDBRANCH  17  20
ENDBRANCH   1  12
BRANCH   2  22
ATOM     22  O   UNL     1     -13.059   9.394  -0.332  1.00  0.00    -0.502 OA
ATOM     23  H   UNL     1     -12.648   9.087   0.541  1.00  0.00     0.293 HD
ENDBRANCH   2  22
BRANCH   6  24
ATOM     24  O   UNL     1     -12.575  11.667  -4.985  1.00  0.00    -0.507 OA
ATOM     25  H   UNL     1     -13.458  11.853  -5.447  1.00  0.00     0.293 HD
ENDBRANCH   6  24
BRANCH   8  26
ATOM     26  O   UNL     1     -10.150   8.281  -7.453  1.00  0.00    -0.508 OA
ATOM     27  H   UNL     1      -9.170   8.460  -7.638  1.00  0.00     0.293 HD
ENDBRANCH   8  26
TORSDOF 6
ENDMDL
MODEL 8
REMARK VINA RESULT:    -4.882      2.808      6.357
REMARK INTER + INTRA:          -5.820
REMARK INTER:                  -5.917
REMARK INTRA:                   0.096
REMARK UNBOUND:                 0.060
REMARK SMILES O=c1c(O)c(-c2ccc(O)c(O)c2)oc2cc(O)cc(O)c12
REMARK SMILES IDX 5 1 3 2 2 3 1 4 22 5 20 6 19 7 17 8 16 9 15 10 14 11 6 12
REMARK SMILES IDX 7 13 8 14 9 15 13 16 11 17 10 18 12 20 4 22 21 24 18 26
REMARK H PARENT 10 19 12 21 4 23 21 25 18 27
REMARK Flexibility Score: inf
ROOT
ATOM      1  C   UNL     1     -12.165   6.306  -0.378  1.00  0.00     0.180 A 
ATOM      2  C   UNL     1     -11.567   6.388   0.894  1.00  0.00     0.208 A 
ATOM      3  C   UNL     1     -11.400   7.649   1.486  1.00  0.00     0.238 A 
ATOM      4  O   UNL     1     -10.875   7.733   2.630  1.00  0.00    -0.285 OA
ATOM      5  C   UNL     1     -11.812   8.805   0.793  1.00  0.00     0.111 A 
ATOM      6  C   UNL     1     -11.676  10.113   1.316  1.00  0.00     0.134 A 
ATOM      7  C   UNL     1     -12.103  11.214   0.559  1.00  0.00     0.093 A 
ATOM      8  C   UNL     1     -12.663  11.032  -0.711  1.00  0.00     0.123 A 
ATOM      9  C   UNL     1     -12.799   9.744  -1.231  1.00  0.00     0.094 A 
ATOM     10  C   UNL     1     -12.382   8.634  -0.492  1.00  0.00     0.146 A 
ATOM     11  O   UNL     1     -12.528   7.420  -1.010  1.00  0.00    -0.452 OA
ENDROOT
BRANCH   1  12
ATOM     12  C   UNL     1     -12.393   5.012  -1.060  1.00  0.00     0.025 A 
ATOM     13  C   UNL     1     -12.852   3.887  -0.358  1.00  0.00     0.016 A 
ATOM     14  C   UNL     1     -13.083   2.684  -1.028  1.00  0.00     0.051 A 
ATOM     15  C   UNL     1     -12.872   2.581  -2.406  1.00  0.00     0.157 A 
ATOM     16  C   UNL     1     -12.202   4.919  -2.447  1.00  0.00     0.062 A 
ATOM     17  C   UNL     1     -12.430   3.715  -3.127  1.00  0.00     0.158 A 
BRANCH  15  18
ATOM     18  O   UNL     1     -13.117   1.348  -3.015  1.00  0.00    -0.504 OA
ATOM     19  H   UNL     1     -12.958   0.457  -2.568  1.00  0.00     0.293 HD
ENDBRANCH  15  18
BRANCH  17  20
ATOM     20  O   UNL     1     -12.207   3.693  -4.506  1.00  0.00    -0.504 OA
ATOM     21  H   UNL     1     -12.007   4.515  -5.059  1.00  0.00     0.293 HD
ENDBRANCH  17  20
ENDBRANCH   1  12
BRANCH   2  22
ATOM     22  O   UNL     1     -11.122   5.231   1.540  1.00  0.00    -0.502 OA
ATOM     23  H   UNL     1     -11.283   4.304   1.165  1.00  0.00     0.293 HD
ENDBRANCH   2  22
BRANCH   6  24
ATOM     24  O   UNL     1     -11.121  10.326   2.579  1.00  0.00    -0.507 OA
ATOM     25  H   UNL     1     -11.316   9.708   3.358  1.00  0.00     0.293 HD
ENDBRANCH   6  24
BRANCH   8  26
ATOM     26  O   UNL     1     -13.086  12.125  -1.463  1.00  0.00    -0.508 OA
ATOM     27  H   UNL     1     -12.577  13.001  -1.457  1.00  0.00     0.293 HD
ENDBRANCH   8  26
TORSDOF 6
ENDMDL
MODEL 9
REMARK VINA RESULT:    -4.179      2.795      6.148
REMARK INTER + INTRA:          -4.973
REMARK INTER:                  -4.664
REMARK INTRA:                  -0.309
REMARK UNBOUND:                 0.060
REMARK SMILES O=c1c(O)c(-c2ccc(O)c(O)c2)oc2cc(O)cc(O)c12
REMARK SMILES IDX 5 1 3 2 2 3 1 4 22 5 20 6 19 7 17 8 16 9 15 10 14 11 6 12
REMARK SMILES IDX 7 13 8 14 9 15 13 16 11 17 10 18 12 20 4 22 21 24 18 26
REMARK H PARENT 10 19 12 21 4 23 21 25 18 27
REMARK Flexibility Score: inf
ROOT
ATOM      1  C   UNL     1     -12.320   5.676  -2.886  1.00  0.00     0.180 A 
ATOM      2  C   UNL     1     -12.457   5.716  -1.485  1.00  0.00     0.208 A 
ATOM      3  C   UNL     1     -12.676   4.516  -0.791  1.00  0.00     0.238 A 
ATOM      4  O   UNL     1     -12.789   4.539   0.466  1.00  0.00    -0.285 OA
ATOM      5  C   UNL     1     -12.773   3.305  -1.504  1.00  0.00     0.111 A 
ATOM      6  C   UNL     1     -12.996   2.054  -0.881  1.00  0.00     0.134 A 
ATOM      7  C   UNL     1     -13.090   0.894  -1.663  1.00  0.00     0.093 A 
ATOM      8  C   UNL     1     -12.966   0.961  -3.056  1.00  0.00     0.123 A 
ATOM      9  C   UNL     1     -12.746   2.192  -3.675  1.00  0.00     0.094 A 
ATOM     10  C   UNL     1     -12.647   3.360  -2.914  1.00  0.00     0.146 A 
ATOM     11  O   UNL     1     -12.432   4.516  -3.528  1.00  0.00    -0.452 OA
ENDROOT
BRANCH   1  12
ATOM     12  C   UNL     1     -12.068   6.896  -3.688  1.00  0.00     0.025 A 
ATOM     13  C   UNL     1     -13.115   7.748  -4.069  1.00  0.00     0.016 A 
ATOM     14  C   UNL     1     -12.849   8.905  -4.805  1.00  0.00     0.051 A 
ATOM     15  C   UNL     1     -11.539   9.239  -5.164  1.00  0.00     0.157 A 
ATOM     16  C   UNL     1     -10.750   7.239  -4.026  1.00  0.00     0.062 A 
ATOM     17  C   UNL     1     -10.474   8.398  -4.765  1.00  0.00     0.158 A 
BRANCH  15  18
ATOM     18  O   UNL     1     -11.342  10.408  -5.903  1.00  0.00    -0.504 OA
ATOM     19  H   UNL     1     -12.032  11.139  -5.996  1.00  0.00     0.293 HD
ENDBRANCH  15  18
BRANCH  17  20
ATOM     20  O   UNL     1      -9.140   8.670  -5.076  1.00  0.00    -0.504 OA
ATOM     21  H   UNL     1      -8.369   8.066  -4.832  1.00  0.00     0.293 HD
ENDBRANCH  17  20
ENDBRANCH   1  12
BRANCH   2  22
ATOM     22  O   UNL     1     -12.405   6.936  -0.806  1.00  0.00    -0.502 OA
ATOM     23  H   UNL     1     -12.317   6.993   0.202  1.00  0.00     0.293 HD
ENDBRANCH   2  22
BRANCH   6  24
ATOM     24  O   UNL     1     -13.125   1.956   0.505  1.00  0.00    -0.507 OA
ATOM     25  H   UNL     1     -12.490   2.432   1.135  1.00  0.00     0.293 HD
ENDBRANCH   6  24
BRANCH   8  26
ATOM     26  O   UNL     1     -13.061  -0.192  -3.833  1.00  0.00    -0.508 OA
ATOM     27  H   UNL     1     -13.745  -0.276  -4.575  1.00  0.00     0.293 HD
ENDBRANCH   8  26
TORSDOF 6
ENDMDL
