MODEL 1
REMARK VINA RESULT:    -5.579      0.000      0.000
REMARK INTER + INTRA:          -8.520
REMARK INTER:                  -7.373
REMARK INTRA:                  -1.146
REMARK UNBOUND:                -1.146
REMARK SMILES CC[C@H](C=C[C@H](C)[C@@H]1CC[C@H]2[C@@H]3CC=C4C[C@@H](O)CC[C@@]4(C)[C@H]3CC[C@]21C)C(C)C
REMARK SMILES IDX 6 1 7 2 5 3 4 4 3 5 2 6 1 7 28 8 29 9 30 10 8 11 9 12 26 13
REMARK SMILES IDX 10 14 11 15 25 16 27 17 12 18 24 19 23 20 13 21 21 22 14 23
REMARK SMILES IDX 15 24 20 25 22 26 16 27 19 28 17 29 18 30
REMARK H PARENT 18 31
REMARK Flexibility Score: inf
ROOT
ATOM      1  C   UNL     1      26.245  26.828  12.472  1.00  0.00     0.012 C 
ATOM      2  C   UNL     1      26.052  26.235  13.877  1.00  0.00     0.012 C 
ENDROOT
BRANCH   1   3
ATOM      3  C   UNL     1      25.051  27.679  12.068  1.00  0.00    -0.028 C 
ATOM      4  C   UNL     1      24.217  27.384  11.054  1.00  0.00    -0.027 C 
BRANCH   4   5
ATOM      5  C   UNL     1      23.121  28.339  10.624  1.00  0.00     0.014 C 
BRANCH   5   6
ATOM      6  C   UNL     1      23.107  28.397   9.070  1.00  0.00     0.004 C 
ATOM      7  C   UNL     1      24.148  27.472   8.436  1.00  0.00     0.004 C 
ENDBRANCH   5   6
BRANCH   5   8
ATOM      8  C   UNL     1      21.755  27.888  11.232  1.00  0.00    -0.011 C 
ATOM      9  C   UNL     1      20.903  27.090  10.230  1.00  0.00     0.008 C 
ATOM     10  C   UNL     1      20.937  29.097  11.723  1.00  0.00     0.008 C 
ENDBRANCH   5   8
ENDBRANCH   4   5
ENDBRANCH   1   3
BRANCH   1  11
ATOM     11  C   UNL     1      27.654  27.495  12.325  1.00  0.00     0.002 C 
ATOM     12  C   UNL     1      27.710  29.015  12.532  1.00  0.00     0.005 C 
ATOM     13  C   UNL     1      28.467  27.230  11.023  1.00  0.00    -0.026 C 
ATOM     14  C   UNL     1      28.912  29.520  11.728  1.00  0.00     0.005 C 
ATOM     15  C   UNL     1      29.606  28.283  11.119  1.00  0.00    -0.001 C 
ATOM     16  C   UNL     1      29.007  25.780  10.895  1.00  0.00     0.007 C 
ATOM     17  C   UNL     1      27.627  27.517   9.748  1.00  0.00     0.012 C 
ATOM     18  C   UNL     1      30.832  27.864  12.003  1.00  0.00     0.000 C 
ATOM     19  C   UNL     1      30.106  25.438  11.895  1.00  0.00     0.005 C 
ATOM     20  C   UNL     1      31.298  26.409  11.761  1.00  0.00     0.003 C 
ATOM     21  C   UNL     1      32.023  28.793  11.694  1.00  0.00     0.031 C 
ATOM     22  C   UNL     1      32.542  26.006  12.666  1.00  0.00    -0.008 C 
ATOM     23  C   UNL     1      33.217  28.446  12.521  1.00  0.00    -0.027 C 
ATOM     24  C   UNL     1      33.494  27.189  12.918  1.00  0.00    -0.065 C 
ATOM     25  C   UNL     1      32.089  25.480  14.066  1.00  0.00     0.014 C 
ATOM     26  C   UNL     1      33.326  24.894  11.918  1.00  0.00     0.016 C 
ATOM     27  C   UNL     1      34.670  26.971  13.848  1.00  0.00     0.063 C 
ATOM     28  C   UNL     1      33.244  25.242  15.063  1.00  0.00     0.033 C 
ATOM     29  C   UNL     1      34.181  26.457  15.212  1.00  0.00     0.118 C 
BRANCH  29  30
ATOM     30  O   UNL     1      33.576  27.482  15.962  1.00  0.00    -0.393 OA
ATOM     31  H   UNL     1      33.545  28.301  15.403  1.00  0.00     0.210 HD
ENDBRANCH  29  30
ENDBRANCH   1  11
TORSDOF 6
ENDMDL
MODEL 2
REMARK VINA RESULT:    -5.426      2.915      7.802
REMARK INTER + INTRA:          -8.317
REMARK INTER:                  -7.153
REMARK INTRA:                  -1.164
REMARK UNBOUND:                -1.146
REMARK SMILES CC[C@H](C=C[C@H](C)[C@@H]1CC[C@H]2[C@@H]3CC=C4C[C@@H](O)CC[C@@]4(C)[C@H]3CC[C@]21C)C(C)C
REMARK SMILES IDX 6 1 7 2 5 3 4 4 3 5 2 6 1 7 28 8 29 9 30 10 8 11 9 12 26 13
REMARK SMILES IDX 10 14 11 15 25 16 27 17 12 18 24 19 23 20 13 21 21 22 14 23
REMARK SMILES IDX 15 24 20 25 22 26 16 27 19 28 17 29 18 30
REMARK H PARENT 18 31
REMARK Flexibility Score: inf
ROOT
ATOM      1  C   UNL     1      35.056  26.689  12.930  1.00  0.00     0.012 C 
ATOM      2  C   UNL     1      35.970  25.471  13.140  1.00  0.00     0.012 C 
ENDROOT
BRANCH   1   3
ATOM      3  C   UNL     1      35.122  27.183  11.494  1.00  0.00    -0.028 C 
ATOM      4  C   UNL     1      34.319  28.133  10.981  1.00  0.00    -0.027 C 
BRANCH   4   5
ATOM      5  C   UNL     1      34.355  28.491   9.508  1.00  0.00     0.014 C 
BRANCH   5   6
ATOM      6  C   UNL     1      34.113  27.194   8.685  1.00  0.00     0.004 C 
ATOM      7  C   UNL     1      32.732  27.162   8.028  1.00  0.00     0.004 C 
ENDBRANCH   5   6
BRANCH   5   8
ATOM      8  C   UNL     1      33.308  29.611   9.207  1.00  0.00    -0.011 C 
ATOM      9  C   UNL     1      33.971  30.957   8.872  1.00  0.00     0.008 C 
ATOM     10  C   UNL     1      32.351  29.814  10.396  1.00  0.00     0.008 C 
ENDBRANCH   5   8
ENDBRANCH   4   5
ENDBRANCH   1   3
BRANCH   1  11
ATOM     11  C   UNL     1      33.625  26.433  13.511  1.00  0.00     0.002 C 
ATOM     12  C   UNL     1      33.501  26.446  15.041  1.00  0.00     0.005 C 
ATOM     13  C   UNL     1      32.854  25.161  13.050  1.00  0.00    -0.026 C 
ATOM     14  C   UNL     1      32.299  25.563  15.388  1.00  0.00     0.005 C 
ATOM     15  C   UNL     1      31.671  25.102  14.056  1.00  0.00    -0.001 C 
ATOM     16  C   UNL     1      32.377  25.206  11.573  1.00  0.00     0.007 C 
ATOM     17  C   UNL     1      33.711  23.875  13.211  1.00  0.00     0.012 C 
ATOM     18  C   UNL     1      30.442  26.010  13.697  1.00  0.00     0.000 C 
ATOM     19  C   UNL     1      31.270  26.221  11.311  1.00  0.00     0.005 C 
ATOM     20  C   UNL     1      30.042  25.944  12.204  1.00  0.00     0.003 C 
ATOM     21  C   UNL     1      29.222  25.565  14.527  1.00  0.00     0.031 C 
ATOM     22  C   UNL     1      28.795  26.870  11.863  1.00  0.00    -0.008 C 
ATOM     23  C   UNL     1      28.024  26.407  14.235  1.00  0.00    -0.027 C 
ATOM     24  C   UNL     1      27.790  26.954  13.026  1.00  0.00    -0.065 C 
ATOM     25  C   UNL     1      29.237  28.334  11.537  1.00  0.00     0.014 C 
ATOM     26  C   UNL     1      28.075  26.254  10.633  1.00  0.00     0.016 C 
ATOM     27  C   UNL     1      26.602  27.883  12.875  1.00  0.00     0.063 C 
ATOM     28  C   UNL     1      28.070  29.332  11.376  1.00  0.00     0.033 C 
ATOM     29  C   UNL     1      27.080  29.309  12.557  1.00  0.00     0.118 C 
BRANCH  29  30
ATOM     30  O   UNL     1      27.624  29.935  13.693  1.00  0.00    -0.393 OA
ATOM     31  H   UNL     1      28.581  30.126  13.515  1.00  0.00     0.210 HD
ENDBRANCH  29  30
ENDBRANCH   1  11
TORSDOF 6
ENDMDL
MODEL 3
REMARK VINA RESULT:    -5.118      2.632      9.237
REMARK INTER + INTRA:          -7.909
REMARK INTER:                  -6.736
REMARK INTRA:                  -1.174
REMARK UNBOUND:                -1.146
REMARK SMILES CC[C@H](C=C[C@H](C)[C@@H]1CC[C@H]2[C@@H]3CC=C4C[C@@H](O)CC[C@@]4(C)[C@H]3CC[C@]21C)C(C)C
REMARK SMILES IDX 6 1 7 2 5 3 4 4 3 5 2 6 1 7 28 8 29 9 30 10 8 11 9 12 26 13
REMARK SMILES IDX 10 14 11 15 25 16 27 17 12 18 24 19 23 20 13 21 21 22 14 23
REMARK SMILES IDX 15 24 20 25 22 26 16 27 19 28 17 29 18 30
REMARK H PARENT 18 31
REMARK Flexibility Score: inf
ROOT
ATOM      1  C   UNL     1      29.861  28.024  10.858  1.00  0.00     0.012 C 
ATOM      2  C   UNL     1      30.005  29.484  10.401  1.00  0.00     0.012 C 
ENDROOT
BRANCH   1   3
ATOM      3  C   UNL     1      30.973  27.639  11.822  1.00  0.00    -0.028 C 
ATOM      4  C   UNL     1      32.121  28.325  11.969  1.00  0.00    -0.027 C 
BRANCH   4   5
ATOM      5  C   UNL     1      33.241  27.819  12.857  1.00  0.00     0.014 C 
BRANCH   5   6
ATOM      6  C   UNL     1      32.733  26.555  13.607  1.00  0.00     0.004 C 
ATOM      7  C   UNL     1      33.232  26.487  15.052  1.00  0.00     0.004 C 
ENDBRANCH   5   6
BRANCH   5   8
ATOM      8  C   UNL     1      34.519  27.550  12.001  1.00  0.00    -0.011 C 
ATOM      9  C   UNL     1      34.576  28.431  10.741  1.00  0.00     0.008 C 
ATOM     10  C   UNL     1      34.606  26.073  11.575  1.00  0.00     0.008 C 
ENDBRANCH   5   8
ENDBRANCH   4   5
ENDBRANCH   1   3
BRANCH   1  11
ATOM     11  C   UNL     1      28.399  27.715  11.327  1.00  0.00     0.002 C 
ATOM     12  C   UNL     1      28.181  27.609  12.842  1.00  0.00     0.005 C 
ATOM     13  C   UNL     1      27.673  26.478  10.722  1.00  0.00    -0.026 C 
ATOM     14  C   UNL     1      26.969  26.694  13.045  1.00  0.00     0.005 C 
ATOM     15  C   UNL     1      26.430  26.334  11.644  1.00  0.00    -0.001 C 
ATOM     16  C   UNL     1      27.288  26.634   9.226  1.00  0.00     0.007 C 
ATOM     17  C   UNL     1      28.532  25.189  10.837  1.00  0.00     0.012 C 
ATOM     18  C   UNL     1      25.216  27.259  11.280  1.00  0.00     0.000 C 
ATOM     19  C   UNL     1      26.188  27.659   8.974  1.00  0.00     0.005 C 
ATOM     20  C   UNL     1      24.911  27.307   9.765  1.00  0.00     0.003 C 
ATOM     21  C   UNL     1      23.952  26.744  11.995  1.00  0.00     0.031 C 
ATOM     22  C   UNL     1      23.677  28.249   9.419  1.00  0.00    -0.008 C 
ATOM     23  C   UNL     1      22.765  27.599  11.695  1.00  0.00    -0.027 C 
ATOM     24  C   UNL     1      22.601  28.236  10.519  1.00  0.00    -0.065 C 
ATOM     25  C   UNL     1      24.122  29.736   9.234  1.00  0.00     0.014 C 
ATOM     26  C   UNL     1      23.041  27.726   8.102  1.00  0.00     0.016 C 
ATOM     27  C   UNL     1      21.415  29.167  10.366  1.00  0.00     0.063 C 
ATOM     28  C   UNL     1      22.956  30.736   9.077  1.00  0.00     0.033 C 
ATOM     29  C   UNL     1      21.895  30.616  10.189  1.00  0.00     0.118 C 
BRANCH  29  30
ATOM     30  O   UNL     1      22.361  31.156  11.402  1.00  0.00    -0.393 OA
ATOM     31  H   UNL     1      21.688  31.805  11.734  1.00  0.00     0.210 HD
ENDBRANCH  29  30
ENDBRANCH   1  11
TORSDOF 6
ENDMDL
MODEL 4
REMARK VINA RESULT:    -4.881      3.413      8.375
REMARK INTER + INTRA:          -7.596
REMARK INTER:                  -6.742
REMARK INTRA:                  -0.854
REMARK UNBOUND:                -1.146
REMARK SMILES CC[C@H](C=C[C@H](C)[C@@H]1CC[C@H]2[C@@H]3CC=C4C[C@@H](O)CC[C@@]4(C)[C@H]3CC[C@]21C)C(C)C
REMARK SMILES IDX 6 1 7 2 5 3 4 4 3 5 2 6 1 7 28 8 29 9 30 10 8 11 9 12 26 13
REMARK SMILES IDX 10 14 11 15 25 16 27 17 12 18 24 19 23 20 13 21 21 22 14 23
REMARK SMILES IDX 15 24 20 25 22 26 16 27 19 28 17 29 18 30
REMARK H PARENT 18 31
REMARK Flexibility Score: inf
ROOT
ATOM      1  C   UNL     1      32.060  27.557   8.667  1.00  0.00     0.012 C 
ATOM      2  C   UNL     1      32.804  28.774   8.095  1.00  0.00     0.012 C 
ENDROOT
BRANCH   1   3
ATOM      3  C   UNL     1      33.030  26.564   9.288  1.00  0.00    -0.028 C 
ATOM      4  C   UNL     1      34.343  26.796   9.466  1.00  0.00    -0.027 C 
BRANCH   4   5
ATOM      5  C   UNL     1      35.278  25.716   9.977  1.00  0.00     0.014 C 
BRANCH   5   6
ATOM      6  C   UNL     1      36.145  25.218   8.786  1.00  0.00     0.004 C 
ATOM      7  C   UNL     1      36.703  26.367   7.943  1.00  0.00     0.004 C 
ENDBRANCH   5   6
BRANCH   5   8
ATOM      8  C   UNL     1      36.128  26.268  11.165  1.00  0.00    -0.011 C 
ATOM      9  C   UNL     1      37.214  25.277  11.618  1.00  0.00     0.008 C 
ATOM     10  C   UNL     1      35.240  26.613  12.375  1.00  0.00     0.008 C 
ENDBRANCH   5   8
ENDBRANCH   4   5
ENDBRANCH   1   3
BRANCH   1  11
ATOM     11  C   UNL     1      30.851  27.997   9.560  1.00  0.00     0.002 C 
ATOM     12  C   UNL     1      29.949  29.097   8.984  1.00  0.00     0.005 C 
ATOM     13  C   UNL     1      31.132  28.426  11.030  1.00  0.00    -0.026 C 
ATOM     14  C   UNL     1      29.316  29.812  10.182  1.00  0.00     0.005 C 
ATOM     15  C   UNL     1      29.784  29.073  11.454  1.00  0.00    -0.001 C 
ATOM     16  C   UNL     1      31.551  27.259  11.964  1.00  0.00     0.007 C 
ATOM     17  C   UNL     1      32.251  29.500  11.114  1.00  0.00     0.012 C 
ATOM     18  C   UNL     1      28.679  28.066  11.931  1.00  0.00     0.000 C 
ATOM     19  C   UNL     1      30.432  26.265  12.253  1.00  0.00     0.005 C 
ATOM     20  C   UNL     1      29.214  26.971  12.883  1.00  0.00     0.003 C 
ATOM     21  C   UNL     1      27.577  28.840  12.680  1.00  0.00     0.031 C 
ATOM     22  C   UNL     1      28.077  25.963  13.354  1.00  0.00    -0.008 C 
ATOM     23  C   UNL     1      26.488  27.929  13.145  1.00  0.00    -0.027 C 
ATOM     24  C   UNL     1      26.708  26.649  13.506  1.00  0.00    -0.065 C 
ATOM     25  C   UNL     1      27.889  24.791  12.337  1.00  0.00     0.014 C 
ATOM     26  C   UNL     1      28.498  25.393  14.736  1.00  0.00     0.016 C 
ATOM     27  C   UNL     1      25.512  25.785  13.852  1.00  0.00     0.063 C 
ATOM     28  C   UNL     1      26.682  23.875  12.634  1.00  0.00     0.033 C 
ATOM     29  C   UNL     1      25.363  24.649  12.828  1.00  0.00     0.118 C 
BRANCH  29  30
ATOM     30  O   UNL     1      24.862  25.123  11.602  1.00  0.00    -0.393 OA
ATOM     31  H   UNL     1      23.871  25.086  11.635  1.00  0.00     0.210 HD
ENDBRANCH  29  30
ENDBRANCH   1  11
TORSDOF 6
ENDMDL
MODEL 5
REMARK VINA RESULT:    -4.827      2.146      3.643
REMARK INTER + INTRA:          -7.525
REMARK INTER:                  -6.099
REMARK INTRA:                  -1.426
REMARK UNBOUND:                -1.146
REMARK SMILES CC[C@H](C=C[C@H](C)[C@@H]1CC[C@H]2[C@@H]3CC=C4C[C@@H](O)CC[C@@]4(C)[C@H]3CC[C@]21C)C(C)C
REMARK SMILES IDX 6 1 7 2 5 3 4 4 3 5 2 6 1 7 28 8 29 9 30 10 8 11 9 12 26 13
REMARK SMILES IDX 10 14 11 15 25 16 27 17 12 18 24 19 23 20 13 21 21 22 14 23
REMARK SMILES IDX 15 24 20 25 22 26 16 27 19 28 17 29 18 30
REMARK H PARENT 18 31
REMARK Flexibility Score: inf
ROOT
ATOM      1  C   UNL     1      26.543  29.122   9.685  1.00  0.00     0.012 C 
ATOM      2  C   UNL     1      27.166  29.658   8.386  1.00  0.00     0.012 C 
ENDROOT
BRANCH   1   3
ATOM      3  C   UNL     1      25.102  28.689   9.464  1.00  0.00    -0.028 C 
ATOM      4  C   UNL     1      24.117  28.842  10.368  1.00  0.00    -0.027 C 
BRANCH   4   5
ATOM      5  C   UNL     1      22.730  28.275  10.134  1.00  0.00     0.014 C 
BRANCH   5   6
ATOM      6  C   UNL     1      22.555  27.025  11.043  1.00  0.00     0.004 C 
ATOM      7  C   UNL     1      23.681  26.878  12.067  1.00  0.00     0.004 C 
ENDBRANCH   5   6
BRANCH   5   8
ATOM      8  C   UNL     1      21.655  29.377  10.393  1.00  0.00    -0.011 C 
ATOM      9  C   UNL     1      22.267  30.786  10.472  1.00  0.00     0.008 C 
ATOM     10  C   UNL     1      20.878  29.103  11.694  1.00  0.00     0.008 C 
ENDBRANCH   5   8
ENDBRANCH   4   5
ENDBRANCH   1   3
BRANCH   1  11
ATOM     11  C   UNL     1      27.483  28.079  10.379  1.00  0.00     0.002 C 
ATOM     12  C   UNL     1      26.938  26.649  10.497  1.00  0.00     0.005 C 
ATOM     13  C   UNL     1      28.054  28.417  11.787  1.00  0.00    -0.026 C 
ATOM     14  C   UNL     1      27.630  26.018  11.709  1.00  0.00     0.005 C 
ATOM     15  C   UNL     1      28.641  27.053  12.247  1.00  0.00    -0.001 C 
ATOM     16  C   UNL     1      29.114  29.551  11.788  1.00  0.00     0.007 C 
ATOM     17  C   UNL     1      26.935  28.839  12.779  1.00  0.00     0.012 C 
ATOM     18  C   UNL     1      30.080  26.730  11.712  1.00  0.00     0.000 C 
ATOM     19  C   UNL     1      30.431  29.169  11.121  1.00  0.00     0.005 C 
ATOM     20  C   UNL     1      31.053  27.929  11.796  1.00  0.00     0.003 C 
ATOM     21  C   UNL     1      30.684  25.579  12.541  1.00  0.00     0.031 C 
ATOM     22  C   UNL     1      32.505  27.578  11.249  1.00  0.00    -0.008 C 
ATOM     23  C   UNL     1      32.052  25.219  12.063  1.00  0.00    -0.027 C 
ATOM     24  C   UNL     1      32.903  26.119  11.532  1.00  0.00    -0.065 C 
ATOM     25  C   UNL     1      32.604  27.785   9.703  1.00  0.00     0.014 C 
ATOM     26  C   UNL     1      33.516  28.512  11.968  1.00  0.00     0.016 C 
ATOM     27  C   UNL     1      34.222  25.620  10.977  1.00  0.00     0.063 C 
ATOM     28  C   UNL     1      33.925  27.292   9.075  1.00  0.00     0.033 C 
ATOM     29  C   UNL     1      34.277  25.840   9.457  1.00  0.00     0.118 C 
BRANCH  29  30
ATOM     30  O   UNL     1      33.462  24.920   8.773  1.00  0.00    -0.393 OA
ATOM     31  H   UNL     1      32.657  24.744   9.326  1.00  0.00     0.210 HD
ENDBRANCH  29  30
ENDBRANCH   1  11
TORSDOF 6
ENDMDL
MODEL 6
REMARK VINA RESULT:    -4.801      3.119      8.590
REMARK INTER + INTRA:          -7.491
REMARK INTER:                  -6.512
REMARK INTRA:                  -0.979
REMARK UNBOUND:                -1.146
REMARK SMILES CC[C@H](C=C[C@H](C)[C@@H]1CC[C@H]2[C@@H]3CC=C4C[C@@H](O)CC[C@@]4(C)[C@H]3CC[C@]21C)C(C)C
REMARK SMILES IDX 6 1 7 2 5 3 4 4 3 5 2 6 1 7 28 8 29 9 30 10 8 11 9 12 26 13
REMARK SMILES IDX 10 14 11 15 25 16 27 17 12 18 24 19 23 20 13 21 21 22 14 23
REMARK SMILES IDX 15 24 20 25 22 26 16 27 19 28 17 29 18 30
REMARK H PARENT 18 31
REMARK Flexibility Score: inf
ROOT
ATOM      1  C   UNL     1      28.459  26.589  13.515  1.00  0.00     0.012 C 
ATOM      2  C   UNL     1      28.965  25.440  14.401  1.00  0.00     0.012 C 
ENDROOT
BRANCH   1   3
ATOM      3  C   UNL     1      29.439  26.887  12.391  1.00  0.00    -0.028 C 
ATOM      4  C   UNL     1      29.825  28.124  12.030  1.00  0.00    -0.027 C 
BRANCH   4   5
ATOM      5  C   UNL     1      30.709  28.358  10.820  1.00  0.00     0.014 C 
BRANCH   5   6
ATOM      6  C   UNL     1      29.842  29.000   9.700  1.00  0.00     0.004 C 
ATOM      7  C   UNL     1      28.739  29.904  10.254  1.00  0.00     0.004 C 
ENDBRANCH   5   6
BRANCH   5   8
ATOM      8  C   UNL     1      31.938  29.235  11.221  1.00  0.00    -0.011 C 
ATOM      9  C   UNL     1      32.828  29.581  10.015  1.00  0.00     0.008 C 
ATOM     10  C   UNL     1      32.800  28.533  12.286  1.00  0.00     0.008 C 
ENDBRANCH   5   8
ENDBRANCH   4   5
ENDBRANCH   1   3
BRANCH   1  11
ATOM     11  C   UNL     1      26.967  26.367  13.093  1.00  0.00     0.002 C 
ATOM     12  C   UNL     1      26.024  25.843  14.185  1.00  0.00     0.005 C 
ATOM     13  C   UNL     1      26.673  25.486  11.843  1.00  0.00    -0.026 C 
ATOM     14  C   UNL     1      24.898  25.094  13.467  1.00  0.00     0.005 C 
ATOM     15  C   UNL     1      25.140  25.253  11.950  1.00  0.00    -0.001 C 
ATOM     16  C   UNL     1      27.081  26.139  10.495  1.00  0.00     0.007 C 
ATOM     17  C   UNL     1      27.394  24.113  11.921  1.00  0.00     0.012 C 
ATOM     18  C   UNL     1      24.245  26.409  11.380  1.00  0.00     0.000 C 
ATOM     19  C   UNL     1      26.227  27.339  10.103  1.00  0.00     0.005 C 
ATOM     20  C   UNL     1      24.736  26.953  10.018  1.00  0.00     0.003 C 
ATOM     21  C   UNL     1      22.808  25.889  11.186  1.00  0.00     0.031 C 
ATOM     22  C   UNL     1      23.814  28.122   9.459  1.00  0.00    -0.008 C 
ATOM     23  C   UNL     1      21.906  26.957  10.657  1.00  0.00    -0.027 C 
ATOM     24  C   UNL     1      22.333  27.934   9.834  1.00  0.00    -0.065 C 
ATOM     25  C   UNL     1      24.251  29.516  10.015  1.00  0.00     0.014 C 
ATOM     26  C   UNL     1      23.935  28.115   7.911  1.00  0.00     0.016 C 
ATOM     27  C   UNL     1      21.357  29.028   9.451  1.00  0.00     0.063 C 
ATOM     28  C   UNL     1      23.293  30.674   9.662  1.00  0.00     0.033 C 
ATOM     29  C   UNL     1      21.823  30.378  10.018  1.00  0.00     0.118 C 
BRANCH  29  30
ATOM     30  O   UNL     1      21.607  30.456  11.406  1.00  0.00    -0.393 OA
ATOM     31  H   UNL     1      21.355  31.389  11.631  1.00  0.00     0.210 HD
ENDBRANCH  29  30
ENDBRANCH   1  11
TORSDOF 6
ENDMDL
MODEL 7
REMARK VINA RESULT:    -4.732      2.811      8.923
REMARK INTER + INTRA:          -7.400
REMARK INTER:                  -6.020
REMARK INTRA:                  -1.380
REMARK UNBOUND:                -1.146
REMARK SMILES CC[C@H](C=C[C@H](C)[C@@H]1CC[C@H]2[C@@H]3CC=C4C[C@@H](O)CC[C@@]4(C)[C@H]3CC[C@]21C)C(C)C
REMARK SMILES IDX 6 1 7 2 5 3 4 4 3 5 2 6 1 7 28 8 29 9 30 10 8 11 9 12 26 13
REMARK SMILES IDX 10 14 11 15 25 16 27 17 12 18 24 19 23 20 13 21 21 22 14 23
REMARK SMILES IDX 15 24 20 25 22 26 16 27 19 28 17 29 18 30
REMARK H PARENT 18 31
REMARK Flexibility Score: inf
ROOT
ATOM      1  C   UNL     1      29.678  26.784  12.467  1.00  0.00     0.012 C 
ATOM      2  C   UNL     1      29.197  25.517  13.194  1.00  0.00     0.012 C 
ENDROOT
BRANCH   1   3
ATOM      3  C   UNL     1      31.129  26.648  12.031  1.00  0.00    -0.028 C 
ATOM      4  C   UNL     1      32.085  27.560  12.282  1.00  0.00    -0.027 C 
BRANCH   4   5
ATOM      5  C   UNL     1      33.483  27.422  11.712  1.00  0.00     0.014 C 
BRANCH   5   6
ATOM      6  C   UNL     1      33.792  28.692  10.868  1.00  0.00     0.004 C 
ATOM      7  C   UNL     1      32.543  29.527  10.581  1.00  0.00     0.004 C 
ENDBRANCH   5   6
BRANCH   5   8
ATOM      8  C   UNL     1      34.509  27.190  12.866  1.00  0.00    -0.011 C 
ATOM      9  C   UNL     1      35.019  25.739  12.913  1.00  0.00     0.008 C 
ATOM     10  C   UNL     1      33.898  27.542  14.235  1.00  0.00     0.008 C 
ENDBRANCH   5   8
ENDBRANCH   4   5
ENDBRANCH   1   3
BRANCH   1  11
ATOM     11  C   UNL     1      28.660  27.227  11.363  1.00  0.00     0.002 C 
ATOM     12  C   UNL     1      29.217  27.351   9.938  1.00  0.00     0.005 C 
ATOM     13  C   UNL     1      27.836  28.528  11.594  1.00  0.00    -0.026 C 
ATOM     14  C   UNL     1      28.337  28.375   9.214  1.00  0.00     0.005 C 
ATOM     15  C   UNL     1      27.216  28.786  10.192  1.00  0.00    -0.001 C 
ATOM     16  C   UNL     1      26.760  28.410  12.707  1.00  0.00     0.007 C 
ATOM     17  C   UNL     1      28.746  29.731  11.967  1.00  0.00     0.012 C 
ATOM     18  C   UNL     1      25.907  27.979   9.881  1.00  0.00     0.000 C 
ATOM     19  C   UNL     1      25.596  27.493  12.349  1.00  0.00     0.005 C 
ATOM     20  C   UNL     1      24.900  27.963  11.055  1.00  0.00     0.003 C 
ATOM     21  C   UNL     1      25.198  28.610   8.667  1.00  0.00     0.031 C 
ATOM     22  C   UNL     1      23.580  27.141  10.717  1.00  0.00    -0.008 C 
ATOM     23  C   UNL     1      23.949  27.870   8.316  1.00  0.00    -0.027 C 
ATOM     24  C   UNL     1      23.181  27.253   9.235  1.00  0.00    -0.065 C 
ATOM     25  C   UNL     1      23.755  25.619  11.028  1.00  0.00     0.014 C 
ATOM     26  C   UNL     1      22.430  27.724  11.582  1.00  0.00     0.016 C 
ATOM     27  C   UNL     1      21.998  26.438   8.753  1.00  0.00     0.063 C 
ATOM     28  C   UNL     1      22.582  24.733  10.556  1.00  0.00     0.033 C 
ATOM     29  C   UNL     1      22.210  24.951   9.076  1.00  0.00     0.118 C 
BRANCH  29  30
ATOM     30  O   UNL     1      23.162  24.368   8.218  1.00  0.00    -0.393 OA
ATOM     31  H   UNL     1      23.513  25.074   7.617  1.00  0.00     0.210 HD
ENDBRANCH  29  30
ENDBRANCH   1  11
TORSDOF 6
ENDMDL
MODEL 8
REMARK VINA RESULT:    -4.657      2.968      8.986
REMARK INTER + INTRA:          -7.300
REMARK INTER:                  -6.111
REMARK INTRA:                  -1.189
REMARK UNBOUND:                -1.146
REMARK SMILES CC[C@H](C=C[C@H](C)[C@@H]1CC[C@H]2[C@@H]3CC=C4C[C@@H](O)CC[C@@]4(C)[C@H]3CC[C@]21C)C(C)C
REMARK SMILES IDX 6 1 7 2 5 3 4 4 3 5 2 6 1 7 28 8 29 9 30 10 8 11 9 12 26 13
REMARK SMILES IDX 10 14 11 15 25 16 27 17 12 18 24 19 23 20 13 21 21 22 14 23
REMARK SMILES IDX 15 24 20 25 22 26 16 27 19 28 17 29 18 30
REMARK H PARENT 18 31
REMARK Flexibility Score: inf
ROOT
ATOM      1  C   UNL     1      33.462  27.862  11.375  1.00  0.00     0.012 C 
ATOM      2  C   UNL     1      33.250  28.375  12.809  1.00  0.00     0.012 C 
ENDROOT
BRANCH   1   3
ATOM      3  C   UNL     1      34.647  26.912  11.302  1.00  0.00    -0.028 C 
ATOM      4  C   UNL     1      35.539  26.887  10.296  1.00  0.00    -0.027 C 
BRANCH   4   5
ATOM      5  C   UNL     1      36.625  25.832  10.223  1.00  0.00     0.014 C 
BRANCH   5   6
ATOM      6  C   UNL     1      36.696  25.110  11.599  1.00  0.00     0.004 C 
ATOM      7  C   UNL     1      38.125  25.000  12.134  1.00  0.00     0.004 C 
ENDBRANCH   5   6
BRANCH   5   8
ATOM      8  C   UNL     1      36.342  24.858   9.035  1.00  0.00    -0.011 C 
ATOM      9  C   UNL     1      37.625  24.203   8.496  1.00  0.00     0.008 C 
ATOM     10  C   UNL     1      35.633  25.583   7.876  1.00  0.00     0.008 C 
ENDBRANCH   5   8
ENDBRANCH   4   5
ENDBRANCH   1   3
BRANCH   1  11
ATOM     11  C   UNL     1      32.121  27.349  10.751  1.00  0.00     0.002 C 
ATOM     12  C   UNL     1      32.224  26.116   9.843  1.00  0.00     0.005 C 
ATOM     13  C   UNL     1      31.233  28.360   9.967  1.00  0.00    -0.026 C 
ATOM     14  C   UNL     1      31.047  26.194   8.867  1.00  0.00     0.005 C 
ATOM     15  C   UNL     1      30.209  27.429   9.260  1.00  0.00    -0.001 C 
ATOM     16  C   UNL     1      30.547  29.430  10.859  1.00  0.00     0.007 C 
ATOM     17  C   UNL     1      32.045  29.124   8.884  1.00  0.00     0.012 C 
ATOM     18  C   UNL     1      28.984  26.993  10.138  1.00  0.00     0.000 C 
ATOM     19  C   UNL     1      29.461  28.871  11.771  1.00  0.00     0.005 C 
ATOM     20  C   UNL     1      28.367  28.153  10.954  1.00  0.00     0.003 C 
ATOM     21  C   UNL     1      27.880  26.427   9.223  1.00  0.00     0.031 C 
ATOM     22  C   UNL     1      27.127  27.689  11.835  1.00  0.00    -0.008 C 
ATOM     23  C   UNL     1      26.692  25.981  10.011  1.00  0.00    -0.027 C 
ATOM     24  C   UNL     1      26.308  26.576  11.158  1.00  0.00    -0.065 C 
ATOM     25  C   UNL     1      27.583  27.137  13.225  1.00  0.00     0.014 C 
ATOM     26  C   UNL     1      26.207  28.923  12.038  1.00  0.00     0.016 C 
ATOM     27  C   UNL     1      25.155  25.968  11.931  1.00  0.00     0.063 C 
ATOM     28  C   UNL     1      26.451  26.500  14.061  1.00  0.00     0.033 C 
ATOM     29  C   UNL     1      25.646  25.438  13.287  1.00  0.00     0.118 C 
BRANCH  29  30
ATOM     30  O   UNL     1      26.379  24.246  13.140  1.00  0.00    -0.393 OA
ATOM     31  H   UNL     1      25.802  23.579  12.687  1.00  0.00     0.210 HD
ENDBRANCH  29  30
ENDBRANCH   1  11
TORSDOF 6
ENDMDL
MODEL 9
REMARK VINA RESULT:    -4.619      2.786      8.515
REMARK INTER + INTRA:          -7.250
REMARK INTER:                  -6.501
REMARK INTRA:                  -0.749
REMARK UNBOUND:                -1.146
REMARK SMILES CC[C@H](C=C[C@H](C)[C@@H]1CC[C@H]2[C@@H]3CC=C4C[C@@H](O)CC[C@@]4(C)[C@H]3CC[C@]21C)C(C)C
REMARK SMILES IDX 6 1 7 2 5 3 4 4 3 5 2 6 1 7 28 8 29 9 30 10 8 11 9 12 26 13
REMARK SMILES IDX 10 14 11 15 25 16 27 17 12 18 24 19 23 20 13 21 21 22 14 23
REMARK SMILES IDX 15 24 20 25 22 26 16 27 19 28 17 29 18 30
REMARK H PARENT 18 31
REMARK Flexibility Score: inf
ROOT
ATOM      1  C   UNL     1      33.961  26.212  10.108  1.00  0.00     0.012 C 
ATOM      2  C   UNL     1      35.302  26.948   9.963  1.00  0.00     0.012 C 
ENDROOT
BRANCH   1   3
ATOM      3  C   UNL     1      33.826  25.585  11.487  1.00  0.00    -0.028 C 
ATOM      4  C   UNL     1      34.599  25.898  12.542  1.00  0.00    -0.027 C 
BRANCH   4   5
ATOM      5  C   UNL     1      34.493  25.147  13.855  1.00  0.00     0.014 C 
BRANCH   5   6
ATOM      6  C   UNL     1      35.919  24.679  14.265  1.00  0.00     0.004 C 
ATOM      7  C   UNL     1      36.873  24.582  13.073  1.00  0.00     0.004 C 
ENDBRANCH   5   6
BRANCH   5   8
ATOM      8  C   UNL     1      33.812  26.050  14.932  1.00  0.00    -0.011 C 
ATOM      9  C   UNL     1      32.296  25.806  15.026  1.00  0.00     0.008 C 
ATOM     10  C   UNL     1      34.054  27.543  14.643  1.00  0.00     0.008 C 
ENDBRANCH   5   8
ENDBRANCH   4   5
ENDBRANCH   1   3
BRANCH   1  11
ATOM     11  C   UNL     1      32.767  27.106   9.632  1.00  0.00     0.002 C 
ATOM     12  C   UNL     1      32.587  27.246   8.115  1.00  0.00     0.005 C 
ATOM     13  C   UNL     1      32.656  28.554  10.192  1.00  0.00    -0.026 C 
ATOM     14  C   UNL     1      31.885  28.587   7.881  1.00  0.00     0.005 C 
ATOM     15  C   UNL     1      31.580  29.190   9.268  1.00  0.00    -0.001 C 
ATOM     16  C   UNL     1      32.269  28.628  11.694  1.00  0.00     0.007 C 
ATOM     17  C   UNL     1      33.985  29.341  10.027  1.00  0.00     0.012 C 
ATOM     18  C   UNL     1      30.093  28.892   9.670  1.00  0.00     0.000 C 
ATOM     19  C   UNL     1      30.839  28.187  11.987  1.00  0.00     0.005 C 
ATOM     20  C   UNL     1      29.825  29.030  11.187  1.00  0.00     0.003 C 
ATOM     21  C   UNL     1      29.162  29.879   8.939  1.00  0.00     0.031 C 
ATOM     22  C   UNL     1      28.312  28.725  11.571  1.00  0.00    -0.008 C 
ATOM     23  C   UNL     1      27.727  29.630   9.275  1.00  0.00    -0.027 C 
ATOM     24  C   UNL     1      27.326  29.165  10.474  1.00  0.00    -0.065 C 
ATOM     25  C   UNL     1      28.075  27.199  11.810  1.00  0.00     0.014 C 
ATOM     26  C   UNL     1      27.988  29.514  12.869  1.00  0.00     0.016 C 
ATOM     27  C   UNL     1      25.858  28.843  10.665  1.00  0.00     0.063 C 
ATOM     28  C   UNL     1      26.595  26.805  12.007  1.00  0.00     0.033 C 
ATOM     29  C   UNL     1      25.670  27.335  10.894  1.00  0.00     0.118 C 
BRANCH  29  30
ATOM     30  O   UNL     1      25.835  26.608   9.701  1.00  0.00    -0.393 OA
ATOM     31  H   UNL     1      26.678  26.089   9.767  1.00  0.00     0.210 HD
ENDBRANCH  29  30
ENDBRANCH   1  11
TORSDOF 6
ENDMDL
