MODEL 1
REMARK VINA RESULT:    -5.459      0.000      0.000
REMARK INTER + INTRA:          -6.390
REMARK INTER:                  -6.256
REMARK INTRA:                  -0.134
REMARK UNBOUND:                -0.134
REMARK SMILES O=C([O-])C=Cc1ccc(O)cc1
REMARK SMILES IDX 6 1 7 2 12 3 8 4 11 5 9 6 5 7 4 8 2 9 1 10 3 11 10 12
REMARK H PARENT 10 13
REMARK Flexibility Score: inf
ROOT
ATOM      1  C   UNL     1       6.955   5.414  10.779  1.00  0.00    -0.025 A 
ATOM      2  C   UNL     1       7.950   6.244  11.325  1.00  0.00     0.012 A 
ATOM      3  C   UNL     1       5.907   6.005  10.045  1.00  0.00     0.012 A 
ATOM      4  C   UNL     1       7.915   7.626  11.122  1.00  0.00     0.047 A 
ATOM      5  C   UNL     1       5.875   7.389   9.844  1.00  0.00     0.047 A 
ATOM      6  C   UNL     1       6.881   8.202  10.380  1.00  0.00     0.115 A 
ENDROOT
BRANCH   1   7
ATOM      7  C   UNL     1       7.030   3.954  11.031  1.00  0.00     0.010 C 
ATOM      8  C   UNL     1       7.232   3.041  10.071  1.00  0.00     0.025 C 
BRANCH   8   9
ATOM      9  C   UNL     1       7.311   1.603  10.371  1.00  0.00     0.064 C 
ATOM     10  O   UNL     1       6.622   0.791   9.699  1.00  0.00    -0.545 OA
ATOM     11  O   UNL     1       8.133   1.125  11.384  1.00  0.00    -0.545 OA
ENDBRANCH   8   9
ENDBRANCH   1   7
BRANCH   6  12
ATOM     12  O   UNL     1       6.858   9.581  10.185  1.00  0.00    -0.508 OA
ATOM     13  H   UNL     1       6.217  10.178  10.693  1.00  0.00     0.293 HD
ENDBRANCH   6  12
TORSDOF 3
ENDMDL
MODEL 2
REMARK VINA RESULT:    -5.080     12.995     14.662
REMARK INTER + INTRA:          -5.957
REMARK INTER:                  -5.819
REMARK INTRA:                  -0.138
REMARK UNBOUND:                -0.134
REMARK SMILES O=C([O-])C=Cc1ccc(O)cc1
REMARK SMILES IDX 6 1 7 2 12 3 8 4 11 5 9 6 5 7 4 8 2 9 1 10 3 11 10 12
REMARK H PARENT 10 13
REMARK Flexibility Score: inf
ROOT
ATOM      1  C   UNL     1      10.724  -4.939  19.716  1.00  0.00    -0.025 A 
ATOM      2  C   UNL     1      10.850  -6.278  20.125  1.00  0.00     0.012 A 
ATOM      3  C   UNL     1       9.464  -4.478  19.282  1.00  0.00     0.012 A 
ATOM      4  C   UNL     1       9.743  -7.130  20.125  1.00  0.00     0.047 A 
ATOM      5  C   UNL     1       8.358  -5.334  19.284  1.00  0.00     0.047 A 
ATOM      6  C   UNL     1       8.494  -6.661  19.708  1.00  0.00     0.115 A 
ENDROOT
BRANCH   1   7
ATOM      7  C   UNL     1      11.931  -4.076  19.723  1.00  0.00     0.010 C 
ATOM      8  C   UNL     1      12.218  -3.186  18.763  1.00  0.00     0.025 C 
BRANCH   8   9
ATOM      9  C   UNL     1      13.422  -2.344  18.819  1.00  0.00     0.064 C 
ATOM     10  O   UNL     1      13.307  -1.112  19.050  1.00  0.00    -0.545 OA
ATOM     11  O   UNL     1      14.687  -2.885  18.619  1.00  0.00    -0.545 OA
ENDBRANCH   8   9
ENDBRANCH   1   7
BRANCH   6  12
ATOM     12  O   UNL     1       7.398  -7.521  19.713  1.00  0.00    -0.508 OA
ATOM     13  H   UNL     1       7.379  -8.358  19.144  1.00  0.00     0.293 HD
ENDBRANCH   6  12
TORSDOF 3
ENDMDL
MODEL 3
REMARK VINA RESULT:    -5.046     12.865     14.650
REMARK INTER + INTRA:          -5.917
REMARK INTER:                  -5.783
REMARK INTRA:                  -0.134
REMARK UNBOUND:                -0.134
REMARK SMILES O=C([O-])C=Cc1ccc(O)cc1
REMARK SMILES IDX 6 1 7 2 12 3 8 4 11 5 9 6 5 7 4 8 2 9 1 10 3 11 10 12
REMARK H PARENT 10 13
REMARK Flexibility Score: inf
ROOT
ATOM      1  C   UNL     1      10.594  -4.817  19.745  1.00  0.00    -0.025 A 
ATOM      2  C   UNL     1       9.294  -4.440  19.364  1.00  0.00     0.012 A 
ATOM      3  C   UNL     1      10.829  -6.154  20.125  1.00  0.00     0.012 A 
ATOM      4  C   UNL     1       8.259  -5.379  19.339  1.00  0.00     0.047 A 
ATOM      5  C   UNL     1       9.790  -7.091  20.098  1.00  0.00     0.047 A 
ATOM      6  C   UNL     1       8.504  -6.706  19.702  1.00  0.00     0.115 A 
ENDROOT
BRANCH   1   7
ATOM      7  C   UNL     1      11.657  -3.781  19.766  1.00  0.00     0.010 C 
ATOM      8  C   UNL     1      12.297  -3.348  18.671  1.00  0.00     0.025 C 
BRANCH   8   9
ATOM      9  C   UNL     1      13.337  -2.310  18.739  1.00  0.00     0.064 C 
ATOM     10  O   UNL     1      13.007  -1.097  18.681  1.00  0.00    -0.545 OA
ATOM     11  O   UNL     1      14.680  -2.646  18.865  1.00  0.00    -0.545 OA
ENDBRANCH   8   9
ENDBRANCH   1   7
BRANCH   6  12
ATOM     12  O   UNL     1       7.463  -7.631  19.672  1.00  0.00    -0.508 OA
ATOM     13  H   UNL     1       7.500  -8.450  19.077  1.00  0.00     0.293 HD
ENDBRANCH   6  12
TORSDOF 3
ENDMDL
MODEL 4
REMARK VINA RESULT:    -4.954     11.211     14.012
REMARK INTER + INTRA:          -5.812
REMARK INTER:                  -5.662
REMARK INTRA:                  -0.150
REMARK UNBOUND:                -0.134
REMARK SMILES O=C([O-])C=Cc1ccc(O)cc1
REMARK SMILES IDX 6 1 7 2 12 3 8 4 11 5 9 6 5 7 4 8 2 9 1 10 3 11 10 12
REMARK H PARENT 10 13
REMARK Flexibility Score: inf
ROOT
ATOM      1  C   UNL     1      10.079  -4.437  19.393  1.00  0.00    -0.025 A 
ATOM      2  C   UNL     1       8.743  -4.252  18.995  1.00  0.00     0.012 A 
ATOM      3  C   UNL     1      10.450  -5.667  19.973  1.00  0.00     0.012 A 
ATOM      4  C   UNL     1       7.806  -5.276  19.149  1.00  0.00     0.047 A 
ATOM      5  C   UNL     1       9.508  -6.691  20.125  1.00  0.00     0.047 A 
ATOM      6  C   UNL     1       8.185  -6.498  19.711  1.00  0.00     0.115 A 
ENDROOT
BRANCH   1   7
ATOM      7  C   UNL     1      11.034  -3.315  19.219  1.00  0.00     0.010 C 
ATOM      8  C   UNL     1      10.904  -2.363  18.285  1.00  0.00     0.025 C 
BRANCH   8   9
ATOM      9  C   UNL     1      11.872  -1.262  18.157  1.00  0.00     0.064 C 
ATOM     10  O   UNL     1      13.101  -1.497  18.293  1.00  0.00    -0.545 OA
ATOM     11  O   UNL     1      11.451   0.035  17.890  1.00  0.00    -0.545 OA
ENDBRANCH   8   9
ENDBRANCH   1   7
BRANCH   6  12
ATOM     12  O   UNL     1       7.241  -7.512  19.858  1.00  0.00    -0.508 OA
ATOM     13  H   UNL     1       6.900  -7.791  20.770  1.00  0.00     0.293 HD
ENDBRANCH   6  12
TORSDOF 3
ENDMDL
MODEL 5
REMARK VINA RESULT:    -4.846     10.557     13.718
REMARK INTER + INTRA:          -5.688
REMARK INTER:                  -5.547
REMARK INTRA:                  -0.141
REMARK UNBOUND:                -0.134
REMARK SMILES O=C([O-])C=Cc1ccc(O)cc1
REMARK SMILES IDX 6 1 7 2 12 3 8 4 11 5 9 6 5 7 4 8 2 9 1 10 3 11 10 12
REMARK H PARENT 10 13
REMARK Flexibility Score: inf
ROOT
ATOM      1  C   UNL     1       9.459  -4.081  19.310  1.00  0.00    -0.025 A 
ATOM      2  C   UNL     1      10.602  -4.724  19.818  1.00  0.00     0.012 A 
ATOM      3  C   UNL     1       8.305  -4.849  19.056  1.00  0.00     0.012 A 
ATOM      4  C   UNL     1      10.586  -6.095  20.089  1.00  0.00     0.047 A 
ATOM      5  C   UNL     1       8.293  -6.221  19.330  1.00  0.00     0.047 A 
ATOM      6  C   UNL     1       9.433  -6.847  19.849  1.00  0.00     0.115 A 
ENDROOT
BRANCH   1   7
ATOM      7  C   UNL     1       9.529  -2.626  19.029  1.00  0.00     0.010 C 
ATOM      8  C   UNL     1       8.751  -2.001  18.134  1.00  0.00     0.025 C 
BRANCH   8   9
ATOM      9  C   UNL     1       8.848  -0.553  17.896  1.00  0.00     0.064 C 
ATOM     10  O   UNL     1       7.798   0.142  17.862  1.00  0.00    -0.545 OA
ATOM     11  O   UNL     1      10.079   0.062  17.707  1.00  0.00    -0.545 OA
ENDBRANCH   8   9
ENDBRANCH   1   7
BRANCH   6  12
ATOM     12  O   UNL     1       9.430  -8.212  20.124  1.00  0.00    -0.508 OA
ATOM     13  H   UNL     1       9.883  -8.877  19.509  1.00  0.00     0.293 HD
ENDBRANCH   6  12
TORSDOF 3
ENDMDL
MODEL 6
REMARK VINA RESULT:    -4.791     10.094     12.155
REMARK INTER + INTRA:          -5.625
REMARK INTER:                  -5.472
REMARK INTRA:                  -0.153
REMARK UNBOUND:                -0.134
REMARK SMILES O=C([O-])C=Cc1ccc(O)cc1
REMARK SMILES IDX 6 1 7 2 12 3 8 4 11 5 9 6 5 7 4 8 2 9 1 10 3 11 10 12
REMARK H PARENT 10 13
REMARK Flexibility Score: inf
ROOT
ATOM      1  C   UNL     1       8.993  -3.199  18.470  1.00  0.00    -0.025 A 
ATOM      2  C   UNL     1      10.369  -2.987  18.270  1.00  0.00     0.012 A 
ATOM      3  C   UNL     1       8.111  -2.109  18.326  1.00  0.00     0.012 A 
ATOM      4  C   UNL     1      10.850  -1.725  17.910  1.00  0.00     0.047 A 
ATOM      5  C   UNL     1       8.597  -0.847  17.965  1.00  0.00     0.047 A 
ATOM      6  C   UNL     1       9.967  -0.654  17.754  1.00  0.00     0.115 A 
ENDROOT
BRANCH   1   7
ATOM      7  C   UNL     1       8.532  -4.554  18.861  1.00  0.00     0.010 C 
ATOM      8  C   UNL     1       9.327  -5.482  19.410  1.00  0.00     0.025 C 
BRANCH   8   9
ATOM      9  C   UNL     1       8.823  -6.810  19.793  1.00  0.00     0.064 C 
ATOM     10  O   UNL     1       7.581  -7.017  19.822  1.00  0.00    -0.545 OA
ATOM     11  O   UNL     1       9.694  -7.840  20.125  1.00  0.00    -0.545 OA
ENDBRANCH   8   9
ENDBRANCH   1   7
BRANCH   6  12
ATOM     12  O   UNL     1      10.460   0.598  17.395  1.00  0.00    -0.508 OA
ATOM     13  H   UNL     1      11.223   1.033  17.900  1.00  0.00     0.293 HD
ENDBRANCH   6  12
TORSDOF 3
ENDMDL
MODEL 7
REMARK VINA RESULT:    -4.435      1.046      5.667
REMARK INTER + INTRA:          -5.217
REMARK INTER:                  -5.070
REMARK INTRA:                  -0.147
REMARK UNBOUND:                -0.134
REMARK SMILES O=C([O-])C=Cc1ccc(O)cc1
REMARK SMILES IDX 6 1 7 2 12 3 8 4 11 5 9 6 5 7 4 8 2 9 1 10 3 11 10 12
REMARK H PARENT 10 13
REMARK Flexibility Score: inf
ROOT
ATOM      1  C   UNL     1       6.755   4.847  10.476  1.00  0.00    -0.025 A 
ATOM      2  C   UNL     1       7.712   4.481  11.440  1.00  0.00     0.012 A 
ATOM      3  C   UNL     1       6.234   3.851   9.626  1.00  0.00     0.012 A 
ATOM      4  C   UNL     1       8.121   3.151  11.569  1.00  0.00     0.047 A 
ATOM      5  C   UNL     1       6.644   2.520   9.759  1.00  0.00     0.047 A 
ATOM      6  C   UNL     1       7.587   2.167  10.732  1.00  0.00     0.115 A 
ENDROOT
BRANCH   1   7
ATOM      7  C   UNL     1       6.362   6.274  10.371  1.00  0.00     0.010 C 
ATOM      8  C   UNL     1       7.223   7.294  10.485  1.00  0.00     0.025 C 
BRANCH   8   9
ATOM      9  C   UNL     1       6.789   8.695  10.362  1.00  0.00     0.064 C 
ATOM     10  O   UNL     1       5.875   8.991   9.548  1.00  0.00    -0.545 OA
ATOM     11  O   UNL     1       7.372   9.697  11.128  1.00  0.00    -0.545 OA
ENDBRANCH   8   9
ENDBRANCH   1   7
BRANCH   6  12
ATOM     12  O   UNL     1       8.002   0.845  10.873  1.00  0.00    -0.508 OA
ATOM     13  H   UNL     1       7.821   0.320  11.720  1.00  0.00     0.293 HD
ENDBRANCH   6  12
TORSDOF 3
ENDMDL
MODEL 8
REMARK VINA RESULT:    -4.288     12.313     13.522
REMARK INTER + INTRA:          -5.048
REMARK INTER:                  -4.907
REMARK INTRA:                  -0.142
REMARK UNBOUND:                -0.134
REMARK SMILES O=C([O-])C=Cc1ccc(O)cc1
REMARK SMILES IDX 6 1 7 2 12 3 8 4 11 5 9 6 5 7 4 8 2 9 1 10 3 11 10 12
REMARK H PARENT 10 13
REMARK Flexibility Score: inf
ROOT
ATOM      1  C   UNL     1      10.638  -3.786  19.066  1.00  0.00    -0.025 A 
ATOM      2  C   UNL     1      11.735  -4.406  19.689  1.00  0.00     0.012 A 
ATOM      3  C   UNL     1      10.879  -2.754  18.137  1.00  0.00     0.012 A 
ATOM      4  C   UNL     1      13.042  -4.024  19.375  1.00  0.00     0.047 A 
ATOM      5  C   UNL     1      12.189  -2.374  17.825  1.00  0.00     0.047 A 
ATOM      6  C   UNL     1      13.274  -3.010  18.441  1.00  0.00     0.115 A 
ENDROOT
BRANCH   1   7
ATOM      7  C   UNL     1       9.270  -4.220  19.441  1.00  0.00     0.010 C 
ATOM      8  C   UNL     1       8.850  -5.492  19.388  1.00  0.00     0.025 C 
BRANCH   8   9
ATOM      9  C   UNL     1       7.486  -5.877  19.782  1.00  0.00     0.064 C 
ATOM     10  O   UNL     1       7.204  -7.095  19.930  1.00  0.00    -0.545 OA
ATOM     11  O   UNL     1       6.502  -4.918  19.991  1.00  0.00    -0.545 OA
ENDBRANCH   8   9
ENDBRANCH   1   7
BRANCH   6  12
ATOM     12  O   UNL     1      14.581  -2.639  18.136  1.00  0.00    -0.508 OA
ATOM     13  H   UNL     1      14.856  -1.666  18.080  1.00  0.00     0.293 HD
ENDBRANCH   6  12
TORSDOF 3
ENDMDL
MODEL 9
REMARK VINA RESULT:    -4.206     10.160     12.275
REMARK INTER + INTRA:          -4.954
REMARK INTER:                  -4.814
REMARK INTRA:                  -0.140
REMARK UNBOUND:                -0.134
REMARK SMILES O=C([O-])C=Cc1ccc(O)cc1
REMARK SMILES IDX 6 1 7 2 12 3 8 4 11 5 9 6 5 7 4 8 2 9 1 10 3 11 10 12
REMARK H PARENT 10 13
REMARK Flexibility Score: inf
ROOT
ATOM      1  C   UNL     1      11.150  -2.535  18.212  1.00  0.00    -0.025 A 
ATOM      2  C   UNL     1      11.290  -1.205  17.779  1.00  0.00     0.012 A 
ATOM      3  C   UNL     1       9.853  -3.066  18.364  1.00  0.00     0.012 A 
ATOM      4  C   UNL     1      10.166  -0.431  17.479  1.00  0.00     0.047 A 
ATOM      5  C   UNL     1       8.730  -2.288  18.063  1.00  0.00     0.047 A 
ATOM      6  C   UNL     1       8.884  -0.970  17.617  1.00  0.00     0.115 A 
ENDROOT
BRANCH   1   7
ATOM      7  C   UNL     1      12.374  -3.312  18.528  1.00  0.00     0.010 C 
ATOM      8  C   UNL     1      12.440  -4.239  19.494  1.00  0.00     0.025 C 
BRANCH   8   9
ATOM      9  C   UNL     1      13.674  -4.993  19.764  1.00  0.00     0.064 C 
ATOM     10  O   UNL     1      13.605  -6.225  20.017  1.00  0.00    -0.545 OA
ATOM     11  O   UNL     1      14.915  -4.369  19.747  1.00  0.00    -0.545 OA
ENDBRANCH   8   9
ENDBRANCH   1   7
BRANCH   6  12
ATOM     12  O   UNL     1       7.772  -0.188  17.314  1.00  0.00    -0.508 OA
ATOM     13  H   UNL     1       7.685   0.288  16.425  1.00  0.00     0.293 HD
ENDBRANCH   6  12
TORSDOF 3
ENDMDL
