MODEL 1
REMARK VINA RESULT:    -4.720      0.000      0.000
REMARK INTER + INTRA:         -11.010
REMARK INTER:                  -8.583
REMARK INTRA:                  -2.426
REMARK UNBOUND:                -2.426
REMARK SMILES CCCCCCCCCCCCCCCC(=O)[O-]
REMARK SMILES IDX 9 1 10 2 11 3 12 4 13 5 14 6 15 7 16 8 17 9 18 10 8 11 7 12
REMARK SMILES IDX 6 13 5 14 4 15 3 16 2 17 1 18
REMARK H PARENT
REMARK Flexibility Score: inf
ROOT
ATOM      1  C   UNL     1      62.279  29.531  13.824  1.00  0.00     0.000 C 
ENDROOT
BRANCH   1   2
ATOM      2  C   UNL     1      63.628  29.313  13.117  1.00  0.00     0.000 C 
BRANCH   2   3
ATOM      3  C   UNL     1      64.517  30.566  13.141  1.00  0.00     0.000 C 
BRANCH   3   4
ATOM      4  C   UNL     1      63.990  31.681  12.224  1.00  0.00     0.000 C 
BRANCH   4   5
ATOM      5  C   UNL     1      64.328  33.066  12.796  1.00  0.00     0.000 C 
BRANCH   5   6
ATOM      6  C   UNL     1      63.477  33.427  14.027  1.00  0.00     0.006 C 
BRANCH   6   7
ATOM      7  C   UNL     1      61.961  33.417  13.774  1.00  0.00     0.053 C 
BRANCH   7   8
ATOM      8  C   UNL     1      61.196  32.924  14.963  1.00  0.00     0.041 C 
ATOM      9  O   UNL     1      61.631  33.131  16.126  1.00  0.00    -0.550 OA
ATOM     10  O   UNL     1      59.984  32.266  14.789  1.00  0.00    -0.550 OA
ENDBRANCH   7   8
ENDBRANCH   6   7
ENDBRANCH   5   6
ENDBRANCH   4   5
ENDBRANCH   3   4
ENDBRANCH   2   3
ENDBRANCH   1   2
BRANCH   1  11
ATOM     11  C   UNL     1      61.083  29.120  12.951  1.00  0.00     0.000 C 
BRANCH  11  12
ATOM     12  C   UNL     1      60.544  30.284  12.102  1.00  0.00    -0.000 C 
BRANCH  12  13
ATOM     13  C   UNL     1      60.943  30.167  10.622  1.00  0.00    -0.000 C 
BRANCH  13  14
ATOM     14  C   UNL     1      61.351  28.735  10.233  1.00  0.00    -0.000 C 
BRANCH  14  15
ATOM     15  C   UNL     1      62.302  28.701   9.026  1.00  0.00    -0.000 C 
BRANCH  15  16
ATOM     16  C   UNL     1      63.300  29.873   9.027  1.00  0.00    -0.000 C 
BRANCH  16  17
ATOM     17  C   UNL     1      64.711  29.444   9.460  1.00  0.00    -0.003 C 
ATOM     18  C   UNL     1      65.756  30.534   9.223  1.00  0.00     0.004 C 
ENDBRANCH  16  17
ENDBRANCH  15  16
ENDBRANCH  14  15
ENDBRANCH  13  14
ENDBRANCH  12  13
ENDBRANCH  11  12
ENDBRANCH   1  11
TORSDOF 14
ENDMDL
MODEL 2
REMARK VINA RESULT:    -4.580      1.978      2.960
REMARK INTER + INTRA:         -10.755
REMARK INTER:                  -9.008
REMARK INTRA:                  -1.747
REMARK UNBOUND:                -2.426
REMARK SMILES CCCCCCCCCCCCCCCC(=O)[O-]
REMARK SMILES IDX 9 1 10 2 11 3 12 4 13 5 14 6 15 7 16 8 17 9 18 10 8 11 7 12
REMARK SMILES IDX 6 13 5 14 4 15 3 16 2 17 1 18
REMARK H PARENT
REMARK Flexibility Score: inf
ROOT
ATOM      1  C   UNL     1      63.359  30.240  13.814  1.00  0.00     0.000 C 
ENDROOT
BRANCH   1   2
ATOM      2  C   UNL     1      63.368  31.656  13.210  1.00  0.00     0.000 C 
BRANCH   2   3
ATOM      3  C   UNL     1      61.953  32.198  12.957  1.00  0.00     0.000 C 
BRANCH   3   4
ATOM      4  C   UNL     1      61.730  33.582  13.588  1.00  0.00     0.000 C 
BRANCH   4   5
ATOM      5  C   UNL     1      61.214  33.449  15.029  1.00  0.00     0.000 C 
BRANCH   5   6
ATOM      6  C   UNL     1      61.801  34.514  15.974  1.00  0.00     0.006 C 
BRANCH   6   7
ATOM      7  C   UNL     1      62.908  33.994  16.905  1.00  0.00     0.053 C 
BRANCH   7   8
ATOM      8  C   UNL     1      63.143  34.911  18.065  1.00  0.00     0.041 C 
ATOM      9  O   UNL     1      62.315  34.959  19.012  1.00  0.00    -0.550 OA
ATOM     10  O   UNL     1      64.294  35.689  18.117  1.00  0.00    -0.550 OA
ENDBRANCH   7   8
ENDBRANCH   6   7
ENDBRANCH   5   6
ENDBRANCH   4   5
ENDBRANCH   3   4
ENDBRANCH   2   3
ENDBRANCH   1   2
BRANCH   1  11
ATOM     11  C   UNL     1      61.947  29.777  14.207  1.00  0.00     0.000 C 
BRANCH  11  12
ATOM     12  C   UNL     1      61.432  28.633  13.315  1.00  0.00    -0.000 C 
BRANCH  12  13
ATOM     13  C   UNL     1      60.230  29.054  12.455  1.00  0.00    -0.000 C 
BRANCH  13  14
ATOM     14  C   UNL     1      60.506  28.913  10.947  1.00  0.00    -0.000 C 
BRANCH  14  15
ATOM     15  C   UNL     1      60.958  30.233  10.305  1.00  0.00    -0.000 C 
BRANCH  15  16
ATOM     16  C   UNL     1      62.243  30.075   9.473  1.00  0.00    -0.000 C 
BRANCH  16  17
ATOM     17  C   UNL     1      63.346  29.320  10.230  1.00  0.00    -0.003 C 
ATOM     18  C   UNL     1      64.710  29.429   9.549  1.00  0.00     0.004 C 
ENDBRANCH  16  17
ENDBRANCH  15  16
ENDBRANCH  14  15
ENDBRANCH  13  14
ENDBRANCH  12  13
ENDBRANCH  11  12
ENDBRANCH   1  11
TORSDOF 14
ENDMDL
MODEL 3
REMARK VINA RESULT:    -4.575      2.833      5.595
REMARK INTER + INTRA:         -10.746
REMARK INTER:                  -8.372
REMARK INTRA:                  -2.375
REMARK UNBOUND:                -2.426
REMARK SMILES CCCCCCCCCCCCCCCC(=O)[O-]
REMARK SMILES IDX 9 1 10 2 11 3 12 4 13 5 14 6 15 7 16 8 17 9 18 10 8 11 7 12
REMARK SMILES IDX 6 13 5 14 4 15 3 16 2 17 1 18
REMARK H PARENT
REMARK Flexibility Score: inf
ROOT
ATOM      1  C   UNL     1      60.741  29.251  12.978  1.00  0.00     0.000 C 
ENDROOT
BRANCH   1   2
ATOM      2  C   UNL     1      60.667  30.312  11.866  1.00  0.00     0.000 C 
BRANCH   2   3
ATOM      3  C   UNL     1      60.714  29.696  10.459  1.00  0.00     0.000 C 
BRANCH   3   4
ATOM      4  C   UNL     1      61.962  30.123   9.669  1.00  0.00     0.000 C 
BRANCH   4   5
ATOM      5  C   UNL     1      63.035  29.025   9.706  1.00  0.00     0.000 C 
BRANCH   5   6
ATOM      6  C   UNL     1      64.465  29.583   9.577  1.00  0.00     0.006 C 
BRANCH   6   7
ATOM      7  C   UNL     1      64.540  31.115   9.481  1.00  0.00     0.053 C 
BRANCH   7   8
ATOM      8  C   UNL     1      65.920  31.628   9.758  1.00  0.00     0.041 C 
ATOM      9  O   UNL     1      66.081  32.690  10.416  1.00  0.00    -0.550 OA
ATOM     10  O   UNL     1      67.029  30.916   9.318  1.00  0.00    -0.550 OA
ENDBRANCH   7   8
ENDBRANCH   6   7
ENDBRANCH   5   6
ENDBRANCH   4   5
ENDBRANCH   3   4
ENDBRANCH   2   3
ENDBRANCH   1   2
BRANCH   1  11
ATOM     11  C   UNL     1      61.939  29.467  13.917  1.00  0.00     0.000 C 
BRANCH  11  12
ATOM     12  C   UNL     1      63.250  28.903  13.341  1.00  0.00    -0.000 C 
BRANCH  12  13
ATOM     13  C   UNL     1      64.357  29.965  13.249  1.00  0.00    -0.000 C 
BRANCH  13  14
ATOM     14  C   UNL     1      64.003  31.254  14.012  1.00  0.00    -0.000 C 
BRANCH  14  15
ATOM     15  C   UNL     1      63.663  32.420  13.071  1.00  0.00    -0.000 C 
BRANCH  15  16
ATOM     16  C   UNL     1      62.832  33.514  13.765  1.00  0.00    -0.000 C 
BRANCH  16  17
ATOM     17  C   UNL     1      61.326  33.206  13.752  1.00  0.00    -0.003 C 
ATOM     18  C   UNL     1      60.804  32.761  15.118  1.00  0.00     0.004 C 
ENDBRANCH  16  17
ENDBRANCH  15  16
ENDBRANCH  14  15
ENDBRANCH  13  14
ENDBRANCH  12  13
ENDBRANCH  11  12
ENDBRANCH   1  11
TORSDOF 14
ENDMDL
MODEL 4
REMARK VINA RESULT:    -4.536      1.047      3.314
REMARK INTER + INTRA:         -10.674
REMARK INTER:                  -8.686
REMARK INTRA:                  -1.988
REMARK UNBOUND:                -2.426
REMARK SMILES CCCCCCCCCCCCCCCC(=O)[O-]
REMARK SMILES IDX 9 1 10 2 11 3 12 4 13 5 14 6 15 7 16 8 17 9 18 10 8 11 7 12
REMARK SMILES IDX 6 13 5 14 4 15 3 16 2 17 1 18
REMARK H PARENT
REMARK Flexibility Score: inf
ROOT
ATOM      1  C   UNL     1      65.085  31.540   9.797  1.00  0.00     0.000 C 
ENDROOT
BRANCH   1   2
ATOM      2  C   UNL     1      64.913  31.404  11.320  1.00  0.00     0.000 C 
BRANCH   2   3
ATOM      3  C   UNL     1      64.764  32.762  12.022  1.00  0.00     0.000 C 
BRANCH   3   4
ATOM      4  C   UNL     1      63.762  32.718  13.187  1.00  0.00     0.000 C 
BRANCH   4   5
ATOM      5  C   UNL     1      64.183  33.681  14.307  1.00  0.00     0.000 C 
BRANCH   5   6
ATOM      6  C   UNL     1      63.057  33.942  15.324  1.00  0.00     0.006 C 
BRANCH   6   7
ATOM      7  C   UNL     1      61.640  33.874  14.732  1.00  0.00     0.053 C 
BRANCH   7   8
ATOM      8  C   UNL     1      60.948  32.592  15.078  1.00  0.00     0.041 C 
ATOM      9  O   UNL     1      59.892  32.260  14.477  1.00  0.00    -0.550 OA
ATOM     10  O   UNL     1      61.486  31.747  16.041  1.00  0.00    -0.550 OA
ENDBRANCH   7   8
ENDBRANCH   6   7
ENDBRANCH   5   6
ENDBRANCH   4   5
ENDBRANCH   3   4
ENDBRANCH   2   3
ENDBRANCH   1   2
BRANCH   1  11
ATOM     11  C   UNL     1      64.111  30.647   9.012  1.00  0.00     0.000 C 
BRANCH  11  12
ATOM     12  C   UNL     1      63.849  29.302   9.712  1.00  0.00    -0.000 C 
BRANCH  12  13
ATOM     13  C   UNL     1      62.351  28.983   9.833  1.00  0.00    -0.000 C 
BRANCH  13  14
ATOM     14  C   UNL     1      61.494  30.245  10.040  1.00  0.00    -0.000 C 
BRANCH  14  15
ATOM     15  C   UNL     1      61.241  30.548  11.524  1.00  0.00    -0.000 C 
BRANCH  15  16
ATOM     16  C   UNL     1      60.744  29.317  12.302  1.00  0.00    -0.000 C 
BRANCH  16  17
ATOM     17  C   UNL     1      61.469  29.137  13.645  1.00  0.00    -0.003 C 
ATOM     18  C   UNL     1      62.991  29.137  13.499  1.00  0.00     0.004 C 
ENDBRANCH  16  17
ENDBRANCH  15  16
ENDBRANCH  14  15
ENDBRANCH  13  14
ENDBRANCH  12  13
ENDBRANCH  11  12
ENDBRANCH   1  11
TORSDOF 14
ENDMDL
MODEL 5
REMARK VINA RESULT:    -4.518      1.994      3.869
REMARK INTER + INTRA:         -10.642
REMARK INTER:                  -8.592
REMARK INTRA:                  -2.050
REMARK UNBOUND:                -2.426
REMARK SMILES CCCCCCCCCCCCCCCC(=O)[O-]
REMARK SMILES IDX 9 1 10 2 11 3 12 4 13 5 14 6 15 7 16 8 17 9 18 10 8 11 7 12
REMARK SMILES IDX 6 13 5 14 4 15 3 16 2 17 1 18
REMARK H PARENT
REMARK Flexibility Score: inf
ROOT
ATOM      1  C   UNL     1      64.035  31.413  13.743  1.00  0.00     0.000 C 
ENDROOT
BRANCH   1   2
ATOM      2  C   UNL     1      63.538  32.600  12.897  1.00  0.00     0.000 C 
BRANCH   2   3
ATOM      3  C   UNL     1      62.005  32.671  12.822  1.00  0.00     0.000 C 
BRANCH   3   4
ATOM      4  C   UNL     1      61.342  32.596  14.207  1.00  0.00     0.000 C 
BRANCH   4   5
ATOM      5  C   UNL     1      61.496  33.927  14.959  1.00  0.00     0.000 C 
BRANCH   5   6
ATOM      6  C   UNL     1      62.053  33.747  16.383  1.00  0.00     0.006 C 
BRANCH   6   7
ATOM      7  C   UNL     1      63.495  34.246  16.567  1.00  0.00     0.053 C 
BRANCH   7   8
ATOM      8  C   UNL     1      63.662  35.027  17.834  1.00  0.00     0.041 C 
ATOM      9  O   UNL     1      64.625  35.827  17.963  1.00  0.00    -0.550 OA
ATOM     10  O   UNL     1      62.735  34.895  18.861  1.00  0.00    -0.550 OA
ENDBRANCH   7   8
ENDBRANCH   6   7
ENDBRANCH   5   6
ENDBRANCH   4   5
ENDBRANCH   3   4
ENDBRANCH   2   3
ENDBRANCH   1   2
BRANCH   1  11
ATOM     11  C   UNL     1      64.453  30.211  12.881  1.00  0.00     0.000 C 
BRANCH  11  12
ATOM     12  C   UNL     1      64.634  30.582  11.398  1.00  0.00    -0.000 C 
BRANCH  12  13
ATOM     13  C   UNL     1      64.150  29.473  10.451  1.00  0.00    -0.000 C 
BRANCH  13  14
ATOM     14  C   UNL     1      62.758  29.765   9.862  1.00  0.00    -0.000 C 
BRANCH  14  15
ATOM     15  C   UNL     1      61.660  28.888  10.480  1.00  0.00    -0.000 C 
BRANCH  15  16
ATOM     16  C   UNL     1      60.522  29.716  11.102  1.00  0.00    -0.000 C 
BRANCH  16  17
ATOM     17  C   UNL     1      60.172  29.260  12.527  1.00  0.00    -0.003 C 
ATOM     18  C   UNL     1      61.337  28.557  13.224  1.00  0.00     0.004 C 
ENDBRANCH  16  17
ENDBRANCH  15  16
ENDBRANCH  14  15
ENDBRANCH  13  14
ENDBRANCH  12  13
ENDBRANCH  11  12
ENDBRANCH   1  11
TORSDOF 14
ENDMDL
MODEL 6
REMARK VINA RESULT:    -4.487      2.669      6.128
REMARK INTER + INTRA:         -10.586
REMARK INTER:                  -8.580
REMARK INTRA:                  -2.006
REMARK UNBOUND:                -2.426
REMARK SMILES CCCCCCCCCCCCCCCC(=O)[O-]
REMARK SMILES IDX 9 1 10 2 11 3 12 4 13 5 14 6 15 7 16 8 17 9 18 10 8 11 7 12
REMARK SMILES IDX 6 13 5 14 4 15 3 16 2 17 1 18
REMARK H PARENT
REMARK Flexibility Score: inf
ROOT
ATOM      1  C   UNL     1      63.930  30.371  14.462  1.00  0.00     0.000 C 
ENDROOT
BRANCH   1   2
ATOM      2  C   UNL     1      63.203  29.401  13.514  1.00  0.00     0.000 C 
BRANCH   2   3
ATOM      3  C   UNL     1      61.687  29.362  13.756  1.00  0.00     0.000 C 
BRANCH   3   4
ATOM      4  C   UNL     1      60.914  28.769  12.568  1.00  0.00     0.000 C 
BRANCH   4   5
ATOM      5  C   UNL     1      60.670  29.834  11.488  1.00  0.00     0.000 C 
BRANCH   5   6
ATOM      6  C   UNL     1      60.614  29.242  10.067  1.00  0.00     0.006 C 
BRANCH   6   7
ATOM      7  C   UNL     1      61.915  28.562   9.613  1.00  0.00     0.053 C 
BRANCH   7   8
ATOM      8  C   UNL     1      63.061  29.525   9.555  1.00  0.00     0.041 C 
ATOM      9  O   UNL     1      62.966  30.582   8.877  1.00  0.00    -0.550 OA
ATOM     10  O   UNL     1      64.223  29.271  10.274  1.00  0.00    -0.550 OA
ENDBRANCH   7   8
ENDBRANCH   6   7
ENDBRANCH   5   6
ENDBRANCH   4   5
ENDBRANCH   3   4
ENDBRANCH   2   3
ENDBRANCH   1   2
BRANCH   1  11
ATOM     11  C   UNL     1      64.624  31.518  13.710  1.00  0.00     0.000 C 
BRANCH  11  12
ATOM     12  C   UNL     1      65.302  32.522  14.660  1.00  0.00    -0.000 C 
BRANCH  12  13
ATOM     13  C   UNL     1      64.461  33.789  14.874  1.00  0.00    -0.000 C 
BRANCH  13  14
ATOM     14  C   UNL     1      63.634  33.736  16.171  1.00  0.00    -0.000 C 
BRANCH  14  15
ATOM     15  C   UNL     1      62.134  33.959  15.923  1.00  0.00    -0.000 C 
BRANCH  15  16
ATOM     16  C   UNL     1      61.378  32.645  15.658  1.00  0.00    -0.000 C 
BRANCH  16  17
ATOM     17  C   UNL     1      60.617  32.661  14.323  1.00  0.00    -0.003 C 
ATOM     18  C   UNL     1      61.497  33.091  13.149  1.00  0.00     0.004 C 
ENDBRANCH  16  17
ENDBRANCH  15  16
ENDBRANCH  14  15
ENDBRANCH  13  14
ENDBRANCH  12  13
ENDBRANCH  11  12
ENDBRANCH   1  11
TORSDOF 14
ENDMDL
MODEL 7
REMARK VINA RESULT:    -4.435      2.571      5.133
REMARK INTER + INTRA:         -10.492
REMARK INTER:                  -8.523
REMARK INTRA:                  -1.969
REMARK UNBOUND:                -2.426
REMARK SMILES CCCCCCCCCCCCCCCC(=O)[O-]
REMARK SMILES IDX 9 1 10 2 11 3 12 4 13 5 14 6 15 7 16 8 17 9 18 10 8 11 7 12
REMARK SMILES IDX 6 13 5 14 4 15 3 16 2 17 1 18
REMARK H PARENT
REMARK Flexibility Score: inf
ROOT
ATOM      1  C   UNL     1      64.988  32.616  14.386  1.00  0.00     0.000 C 
ENDROOT
BRANCH   1   2
ATOM      2  C   UNL     1      65.063  33.166  12.950  1.00  0.00     0.000 C 
BRANCH   2   3
ATOM      3  C   UNL     1      64.686  32.115  11.895  1.00  0.00     0.000 C 
BRANCH   3   4
ATOM      4  C   UNL     1      65.450  32.303  10.575  1.00  0.00     0.000 C 
BRANCH   4   5
ATOM      5  C   UNL     1      65.513  30.986   9.787  1.00  0.00     0.000 C 
BRANCH   5   6
ATOM      6  C   UNL     1      64.556  29.913  10.339  1.00  0.00     0.006 C 
BRANCH   6   7
ATOM      7  C   UNL     1      63.988  28.963   9.273  1.00  0.00     0.053 C 
BRANCH   7   8
ATOM      8  C   UNL     1      62.512  29.142   9.090  1.00  0.00     0.041 C 
ATOM      9  O   UNL     1      61.753  28.138   9.046  1.00  0.00    -0.550 OA
ATOM     10  O   UNL     1      61.970  30.419   9.002  1.00  0.00    -0.550 OA
ENDBRANCH   7   8
ENDBRANCH   6   7
ENDBRANCH   5   6
ENDBRANCH   4   5
ENDBRANCH   3   4
ENDBRANCH   2   3
ENDBRANCH   1   2
BRANCH   1  11
ATOM     11  C   UNL     1      63.542  32.475  14.887  1.00  0.00     0.000 C 
BRANCH  11  12
ATOM     12  C   UNL     1      62.698  33.733  14.619  1.00  0.00    -0.000 C 
BRANCH  12  13
ATOM     13  C   UNL     1      61.507  33.455  13.689  1.00  0.00    -0.000 C 
BRANCH  13  14
ATOM     14  C   UNL     1      61.066  31.981  13.720  1.00  0.00    -0.000 C 
BRANCH  14  15
ATOM     15  C   UNL     1      61.224  31.289  12.357  1.00  0.00    -0.000 C 
BRANCH  15  16
ATOM     16  C   UNL     1      60.836  29.801  12.402  1.00  0.00    -0.000 C 
BRANCH  16  17
ATOM     17  C   UNL     1      61.517  29.049  13.557  1.00  0.00    -0.003 C 
ATOM     18  C   UNL     1      63.042  29.096  13.473  1.00  0.00     0.004 C 
ENDBRANCH  16  17
ENDBRANCH  15  16
ENDBRANCH  14  15
ENDBRANCH  13  14
ENDBRANCH  12  13
ENDBRANCH  11  12
ENDBRANCH   1  11
TORSDOF 14
ENDMDL
MODEL 8
REMARK VINA RESULT:    -4.415     12.395     15.028
REMARK INTER + INTRA:         -10.455
REMARK INTER:                  -7.988
REMARK INTRA:                  -2.467
REMARK UNBOUND:                -2.426
REMARK SMILES CCCCCCCCCCCCCCCC(=O)[O-]
REMARK SMILES IDX 9 1 10 2 11 3 12 4 13 5 14 6 15 7 16 8 17 9 18 10 8 11 7 12
REMARK SMILES IDX 6 13 5 14 4 15 3 16 2 17 1 18
REMARK H PARENT
REMARK Flexibility Score: inf
ROOT
ATOM      1  C   UNL     1      62.200  29.912  25.493  1.00  0.00     0.000 C 
ENDROOT
BRANCH   1   2
ATOM      2  C   UNL     1      63.673  30.332  25.344  1.00  0.00     0.000 C 
BRANCH   2   3
ATOM      3  C   UNL     1      64.545  29.222  24.735  1.00  0.00     0.000 C 
BRANCH   3   4
ATOM      4  C   UNL     1      65.506  28.598  25.759  1.00  0.00     0.000 C 
BRANCH   4   5
ATOM      5  C   UNL     1      65.370  27.068  25.774  1.00  0.00     0.000 C 
BRANCH   5   6
ATOM      6  C   UNL     1      66.365  26.370  24.829  1.00  0.00     0.006 C 
BRANCH   6   7
ATOM      7  C   UNL     1      65.910  26.310  23.362  1.00  0.00     0.053 C 
BRANCH   7   8
ATOM      8  C   UNL     1      66.942  26.866  22.430  1.00  0.00     0.041 C 
ATOM      9  O   UNL     1      67.458  27.993  22.655  1.00  0.00    -0.550 OA
ATOM     10  O   UNL     1      67.361  26.125  21.331  1.00  0.00    -0.550 OA
ENDBRANCH   7   8
ENDBRANCH   6   7
ENDBRANCH   5   6
ENDBRANCH   4   5
ENDBRANCH   3   4
ENDBRANCH   2   3
ENDBRANCH   1   2
BRANCH   1  11
ATOM     11  C   UNL     1      61.939  28.488  24.976  1.00  0.00     0.000 C 
BRANCH  11  12
ATOM     12  C   UNL     1      61.588  27.504  26.106  1.00  0.00    -0.000 C 
BRANCH  12  13
ATOM     13  C   UNL     1      61.664  28.154  27.496  1.00  0.00    -0.000 C 
BRANCH  13  14
ATOM     14  C   UNL     1      62.823  27.601  28.344  1.00  0.00    -0.000 C 
BRANCH  14  15
ATOM     15  C   UNL     1      63.591  28.706  29.085  1.00  0.00    -0.000 C 
BRANCH  15  16
ATOM     16  C   UNL     1      62.821  30.038  29.120  1.00  0.00    -0.000 C 
BRANCH  16  17
ATOM     17  C   UNL     1      63.748  31.257  28.987  1.00  0.00    -0.003 C 
ATOM     18  C   UNL     1      65.200  30.866  28.712  1.00  0.00     0.004 C 
ENDBRANCH  16  17
ENDBRANCH  15  16
ENDBRANCH  14  15
ENDBRANCH  13  14
ENDBRANCH  12  13
ENDBRANCH  11  12
ENDBRANCH   1  11
TORSDOF 14
ENDMDL
MODEL 9
REMARK VINA RESULT:    -4.380      1.963      5.853
REMARK INTER + INTRA:         -10.391
REMARK INTER:                  -8.971
REMARK INTRA:                  -1.420
REMARK UNBOUND:                -2.426
REMARK SMILES CCCCCCCCCCCCCCCC(=O)[O-]
REMARK SMILES IDX 9 1 10 2 11 3 12 4 13 5 14 6 15 7 16 8 17 9 18 10 8 11 7 12
REMARK SMILES IDX 6 13 5 14 4 15 3 16 2 17 1 18
REMARK H PARENT
REMARK Flexibility Score: inf
ROOT
ATOM      1  C   UNL     1      65.050  31.472  10.975  1.00  0.00     0.000 C 
ENDROOT
BRANCH   1   2
ATOM      2  C   UNL     1      64.291  30.138  11.083  1.00  0.00     0.000 C 
BRANCH   2   3
ATOM      3  C   UNL     1      64.293  29.349   9.764  1.00  0.00     0.000 C 
BRANCH   3   4
ATOM      4  C   UNL     1      62.894  29.247   9.136  1.00  0.00     0.000 C 
BRANCH   4   5
ATOM      5  C   UNL     1      61.915  28.546  10.090  1.00  0.00     0.000 C 
BRANCH   5   6
ATOM      6  C   UNL     1      60.618  29.346  10.308  1.00  0.00     0.006 C 
BRANCH   6   7
ATOM      7  C   UNL     1      60.561  30.109  11.641  1.00  0.00     0.053 C 
BRANCH   7   8
ATOM      8  C   UNL     1      60.494  29.183  12.816  1.00  0.00     0.041 C 
ATOM      9  O   UNL     1      59.485  28.449  12.988  1.00  0.00    -0.550 OA
ATOM     10  O   UNL     1      61.560  29.105  13.704  1.00  0.00    -0.550 OA
ENDBRANCH   7   8
ENDBRANCH   6   7
ENDBRANCH   5   6
ENDBRANCH   4   5
ENDBRANCH   3   4
ENDBRANCH   2   3
ENDBRANCH   1   2
BRANCH   1  11
ATOM     11  C   UNL     1      64.703  32.441  12.117  1.00  0.00     0.000 C 
BRANCH  11  12
ATOM     12  C   UNL     1      63.426  32.032  12.871  1.00  0.00    -0.000 C 
BRANCH  12  13
ATOM     13  C   UNL     1      62.600  33.243  13.330  1.00  0.00    -0.000 C 
BRANCH  13  14
ATOM     14  C   UNL     1      61.234  32.840  13.913  1.00  0.00    -0.000 C 
BRANCH  14  15
ATOM     15  C   UNL     1      61.292  32.576  15.425  1.00  0.00    -0.000 C 
BRANCH  15  16
ATOM     16  C   UNL     1      62.462  33.308  16.107  1.00  0.00    -0.000 C 
BRANCH  16  17
ATOM     17  C   UNL     1      62.033  34.639  16.744  1.00  0.00    -0.003 C 
ATOM     18  C   UNL     1      62.400  34.730  18.225  1.00  0.00     0.004 C 
ENDBRANCH  16  17
ENDBRANCH  15  16
ENDBRANCH  14  15
ENDBRANCH  13  14
ENDBRANCH  12  13
ENDBRANCH  11  12
ENDBRANCH   1  11
TORSDOF 14
ENDMDL
