MODEL 1
REMARK VINA RESULT:    -3.211      0.000      0.000
REMARK INTER + INTRA:         -14.327
REMARK INTER:                  -8.092
REMARK INTRA:                  -6.236
REMARK UNBOUND:                -6.236
REMARK SMILES CCCCCCCCCCCCCCCCCCCCCCCCCCCC(=O)[O-]
REMARK SMILES IDX 15 1 16 2 17 3 18 4 19 5 20 6 21 7 22 8 23 9 24 10 25 11
REMARK SMILES IDX 26 12 27 13 28 14 29 15 30 16 14 17 13 18 12 19 11 20 10 21
REMARK SMILES IDX 9 22 8 23 7 24 6 25 5 26 4 27 3 28 2 29 1 30
REMARK H PARENT
REMARK Flexibility Score: inf
ROOT
ATOM      1  C   UNL     1      -0.853   3.009  -8.107  1.00  0.00     0.000 C 
ENDROOT
BRANCH   1   2
ATOM      2  C   UNL     1      -0.581   4.377  -8.757  1.00  0.00     0.000 C 
BRANCH   2   3
ATOM      3  C   UNL     1      -1.795   5.315  -8.700  1.00  0.00     0.000 C 
BRANCH   3   4
ATOM      4  C   UNL     1      -3.101   4.510  -8.647  1.00  0.00     0.000 C 
BRANCH   4   5
ATOM      5  C   UNL     1      -4.222   5.122  -9.509  1.00  0.00     0.000 C 
BRANCH   5   6
ATOM      6  C   UNL     1      -3.993   6.582  -9.946  1.00  0.00     0.000 C 
BRANCH   6   7
ATOM      7  C   UNL     1      -4.941   7.027 -11.073  1.00  0.00     0.000 C 
BRANCH   7   8
ATOM      8  C   UNL     1      -5.950   5.939 -11.481  1.00  0.00     0.000 C 
BRANCH   8   9
ATOM      9  C   UNL     1      -5.800   5.401 -12.916  1.00  0.00     0.000 C 
BRANCH   9  10
ATOM     10  C   UNL     1      -6.346   3.973 -13.084  1.00  0.00     0.000 C 
BRANCH  10  11
ATOM     11  C   UNL     1      -5.289   2.898 -12.781  1.00  0.00     0.000 C 
BRANCH  11  12
ATOM     12  C   UNL     1      -5.801   1.781 -11.843  1.00  0.00     0.006 C 
BRANCH  12  13
ATOM     13  C   UNL     1      -5.063   1.773 -10.499  1.00  0.00     0.053 C 
BRANCH  13  14
ATOM     14  C   UNL     1      -6.004   2.107  -9.385  1.00  0.00     0.041 C 
ATOM     15  O   UNL     1      -5.777   1.691  -8.218  1.00  0.00    -0.550 OA
ATOM     16  O   UNL     1      -7.162   2.827  -9.647  1.00  0.00    -0.550 OA
ENDBRANCH  13  14
ENDBRANCH  12  13
ENDBRANCH  11  12
ENDBRANCH  10  11
ENDBRANCH   9  10
ENDBRANCH   8   9
ENDBRANCH   7   8
ENDBRANCH   6   7
ENDBRANCH   5   6
ENDBRANCH   4   5
ENDBRANCH   3   4
ENDBRANCH   2   3
ENDBRANCH   1   2
BRANCH   1  17
ATOM     17  C   UNL     1       0.084   1.872  -8.565  1.00  0.00     0.000 C 
BRANCH  17  18
ATOM     18  C   UNL     1       0.675   2.035  -9.978  1.00  0.00     0.000 C 
BRANCH  18  19
ATOM     19  C   UNL     1       0.185   1.009 -11.018  1.00  0.00     0.000 C 
BRANCH  19  20
ATOM     20  C   UNL     1      -1.302   1.159 -11.400  1.00  0.00     0.000 C 
BRANCH  20  21
ATOM     21  C   UNL     1      -1.667   2.594 -11.815  1.00  0.00     0.000 C 
BRANCH  21  22
ATOM     22  C   UNL     1      -1.579   2.816 -13.334  1.00  0.00    -0.000 C 
BRANCH  22  23
ATOM     23  C   UNL     1      -1.996   4.236 -13.773  1.00  0.00    -0.000 C 
BRANCH  23  24
ATOM     24  C   UNL     1      -2.156   5.191 -12.576  1.00  0.00    -0.000 C 
BRANCH  24  25
ATOM     25  C   UNL     1      -1.393   6.513 -12.761  1.00  0.00    -0.000 C 
BRANCH  25  26
ATOM     26  C   UNL     1      -0.552   6.890 -11.531  1.00  0.00    -0.000 C 
BRANCH  26  27
ATOM     27  C   UNL     1       0.947   6.591 -11.716  1.00  0.00    -0.000 C 
BRANCH  27  28
ATOM     28  C   UNL     1       1.309   5.096 -11.831  1.00  0.00    -0.000 C 
BRANCH  28  29
ATOM     29  C   UNL     1       1.757   4.640 -13.230  1.00  0.00    -0.003 C 
ATOM     30  C   UNL     1       2.162   3.167 -13.276  1.00  0.00     0.004 C 
ENDBRANCH  28  29
ENDBRANCH  27  28
ENDBRANCH  26  27
ENDBRANCH  25  26
ENDBRANCH  24  25
ENDBRANCH  23  24
ENDBRANCH  22  23
ENDBRANCH  21  22
ENDBRANCH  20  21
ENDBRANCH  19  20
ENDBRANCH  18  19
ENDBRANCH  17  18
ENDBRANCH   1  17
TORSDOF 26
ENDMDL
MODEL 2
REMARK VINA RESULT:    -3.149      3.261      5.239
REMARK INTER + INTRA:         -14.171
REMARK INTER:                  -9.983
REMARK INTRA:                  -4.188
REMARK UNBOUND:                -6.236
REMARK SMILES CCCCCCCCCCCCCCCCCCCCCCCCCCCC(=O)[O-]
REMARK SMILES IDX 15 1 16 2 17 3 18 4 19 5 20 6 21 7 22 8 23 9 24 10 25 11
REMARK SMILES IDX 26 12 27 13 28 14 29 15 30 16 14 17 13 18 12 19 11 20 10 21
REMARK SMILES IDX 9 22 8 23 7 24 6 25 5 26 4 27 3 28 2 29 1 30
REMARK H PARENT
REMARK Flexibility Score: inf
ROOT
ATOM      1  C   UNL     1      -0.713   4.126  -8.818  1.00  0.00     0.000 C 
ENDROOT
BRANCH   1   2
ATOM      2  C   UNL     1      -1.531   5.226  -8.119  1.00  0.00     0.000 C 
BRANCH   2   3
ATOM      3  C   UNL     1      -1.214   6.632  -8.648  1.00  0.00     0.000 C 
BRANCH   3   4
ATOM      4  C   UNL     1       0.237   6.711  -9.143  1.00  0.00     0.000 C 
BRANCH   4   5
ATOM      5  C   UNL     1       0.407   7.630 -10.368  1.00  0.00     0.000 C 
BRANCH   5   6
ATOM      6  C   UNL     1      -0.273   7.136 -11.660  1.00  0.00     0.000 C 
BRANCH   6   7
ATOM      7  C   UNL     1       0.147   5.709 -12.052  1.00  0.00     0.000 C 
BRANCH   7   8
ATOM      8  C   UNL     1      -1.049   4.762 -12.261  1.00  0.00     0.000 C 
BRANCH   8   9
ATOM      9  C   UNL     1      -2.426   5.344 -11.893  1.00  0.00     0.000 C 
BRANCH   9  10
ATOM     10  C   UNL     1      -3.482   4.262 -11.613  1.00  0.00     0.000 C 
BRANCH  10  11
ATOM     11  C   UNL     1      -2.863   2.868 -11.425  1.00  0.00     0.000 C 
BRANCH  11  12
ATOM     12  C   UNL     1      -3.733   1.920 -10.568  1.00  0.00     0.006 C 
BRANCH  12  13
ATOM     13  C   UNL     1      -4.299   2.622  -9.327  1.00  0.00     0.053 C 
BRANCH  13  14
ATOM     14  C   UNL     1      -5.754   2.311  -9.169  1.00  0.00     0.041 C 
ATOM     15  O   UNL     1      -6.394   2.759  -8.182  1.00  0.00    -0.550 OA
ATOM     16  O   UNL     1      -6.388   1.478 -10.081  1.00  0.00    -0.550 OA
ENDBRANCH  13  14
ENDBRANCH  12  13
ENDBRANCH  11  12
ENDBRANCH  10  11
ENDBRANCH   9  10
ENDBRANCH   8   9
ENDBRANCH   7   8
ENDBRANCH   6   7
ENDBRANCH   5   6
ENDBRANCH   4   5
ENDBRANCH   3   4
ENDBRANCH   2   3
ENDBRANCH   1   2
BRANCH   1  17
ATOM     17  C   UNL     1      -0.746   2.748  -8.125  1.00  0.00     0.000 C 
BRANCH  17  18
ATOM     18  C   UNL     1       0.045   1.634  -8.837  1.00  0.00     0.000 C 
BRANCH  18  19
ATOM     19  C   UNL     1       0.941   2.105  -9.999  1.00  0.00     0.000 C 
BRANCH  19  20
ATOM     20  C   UNL     1       0.558   1.511 -11.371  1.00  0.00     0.000 C 
BRANCH  20  21
ATOM     21  C   UNL     1       1.783   1.213 -12.252  1.00  0.00     0.000 C 
BRANCH  21  22
ATOM     22  C   UNL     1       2.966   2.151 -11.964  1.00  0.00    -0.000 C 
BRANCH  22  23
ATOM     23  C   UNL     1       4.274   1.725 -12.667  1.00  0.00    -0.000 C 
BRANCH  23  24
ATOM     24  C   UNL     1       4.409   0.194 -12.765  1.00  0.00    -0.000 C 
BRANCH  24  25
ATOM     25  C   UNL     1       5.871  -0.271 -12.859  1.00  0.00    -0.000 C 
BRANCH  25  26
ATOM     26  C   UNL     1       6.164  -1.490 -11.968  1.00  0.00    -0.000 C 
BRANCH  26  27
ATOM     27  C   UNL     1       6.940  -1.124 -10.691  1.00  0.00    -0.000 C 
BRANCH  27  28
ATOM     28  C   UNL     1       8.275  -0.385 -10.922  1.00  0.00    -0.000 C 
BRANCH  28  29
ATOM     29  C   UNL     1       8.446   0.916 -10.120  1.00  0.00    -0.003 C 
ATOM     30  C   UNL     1       7.523   2.037 -10.598  1.00  0.00     0.004 C 
ENDBRANCH  28  29
ENDBRANCH  27  28
ENDBRANCH  26  27
ENDBRANCH  25  26
ENDBRANCH  24  25
ENDBRANCH  23  24
ENDBRANCH  22  23
ENDBRANCH  21  22
ENDBRANCH  20  21
ENDBRANCH  19  20
ENDBRANCH  18  19
ENDBRANCH  17  18
ENDBRANCH   1  17
TORSDOF 26
ENDMDL
MODEL 3
REMARK VINA RESULT:    -3.133      3.937      5.824
REMARK INTER + INTRA:         -14.131
REMARK INTER:                 -10.806
REMARK INTRA:                  -3.324
REMARK UNBOUND:                -6.236
REMARK SMILES CCCCCCCCCCCCCCCCCCCCCCCCCCCC(=O)[O-]
REMARK SMILES IDX 15 1 16 2 17 3 18 4 19 5 20 6 21 7 22 8 23 9 24 10 25 11
REMARK SMILES IDX 26 12 27 13 28 14 29 15 30 16 14 17 13 18 12 19 11 20 10 21
REMARK SMILES IDX 9 22 8 23 7 24 6 25 5 26 4 27 3 28 2 29 1 30
REMARK H PARENT
REMARK Flexibility Score: inf
ROOT
ATOM      1  C   UNL     1      -0.420   1.693 -10.240  1.00  0.00     0.000 C 
ENDROOT
BRANCH   1   2
ATOM      2  C   UNL     1       0.261   1.636  -8.861  1.00  0.00     0.000 C 
BRANCH   2   3
ATOM      3  C   UNL     1      -0.493   2.437  -7.790  1.00  0.00     0.000 C 
BRANCH   3   4
ATOM      4  C   UNL     1      -1.508   3.389  -8.440  1.00  0.00     0.000 C 
BRANCH   4   5
ATOM      5  C   UNL     1      -1.023   4.851  -8.482  1.00  0.00     0.000 C 
BRANCH   5   6
ATOM      6  C   UNL     1      -2.118   5.899  -8.757  1.00  0.00     0.000 C 
BRANCH   6   7
ATOM      7  C   UNL     1      -3.524   5.285  -8.870  1.00  0.00     0.000 C 
BRANCH   7   8
ATOM      8  C   UNL     1      -4.164   5.487 -10.255  1.00  0.00     0.000 C 
BRANCH   8   9
ATOM      9  C   UNL     1      -3.412   4.840 -11.433  1.00  0.00     0.000 C 
BRANCH   9  10
ATOM     10  C   UNL     1      -3.447   3.303 -11.399  1.00  0.00     0.000 C 
BRANCH  10  11
ATOM     11  C   UNL     1      -4.759   2.730 -11.959  1.00  0.00     0.000 C 
BRANCH  11  12
ATOM     12  C   UNL     1      -5.413   1.678 -11.035  1.00  0.00     0.006 C 
BRANCH  12  13
ATOM     13  C   UNL     1      -5.278   2.048  -9.553  1.00  0.00     0.053 C 
BRANCH  13  14
ATOM     14  C   UNL     1      -6.480   2.810  -9.092  1.00  0.00     0.041 C 
ATOM     15  O   UNL     1      -7.486   2.919  -9.842  1.00  0.00    -0.550 OA
ATOM     16  O   UNL     1      -6.467   3.449  -7.860  1.00  0.00    -0.550 OA
ENDBRANCH  13  14
ENDBRANCH  12  13
ENDBRANCH  11  12
ENDBRANCH  10  11
ENDBRANCH   9  10
ENDBRANCH   8   9
ENDBRANCH   7   8
ENDBRANCH   6   7
ENDBRANCH   5   6
ENDBRANCH   4   5
ENDBRANCH   3   4
ENDBRANCH   2   3
ENDBRANCH   1   2
BRANCH   1  17
ATOM     17  C   UNL     1       0.504   2.102 -11.407  1.00  0.00     0.000 C 
BRANCH  17  18
ATOM     18  C   UNL     1       2.007   2.139 -11.075  1.00  0.00     0.000 C 
BRANCH  18  19
ATOM     19  C   UNL     1       2.935   1.568 -12.165  1.00  0.00     0.000 C 
BRANCH  19  20
ATOM     20  C   UNL     1       4.436   1.828 -11.916  1.00  0.00     0.000 C 
BRANCH  20  21
ATOM     21  C   UNL     1       5.345   0.948 -12.790  1.00  0.00     0.000 C 
BRANCH  21  22
ATOM     22  C   UNL     1       5.124  -0.555 -12.554  1.00  0.00    -0.000 C 
BRANCH  22  23
ATOM     23  C   UNL     1       6.369  -1.279 -11.996  1.00  0.00    -0.000 C 
BRANCH  23  24
ATOM     24  C   UNL     1       6.938  -0.579 -10.749  1.00  0.00    -0.000 C 
BRANCH  24  25
ATOM     25  C   UNL     1       8.474  -0.614 -10.694  1.00  0.00    -0.000 C 
BRANCH  25  26
ATOM     26  C   UNL     1       9.126   0.258 -11.780  1.00  0.00    -0.000 C 
BRANCH  26  27
ATOM     27  C   UNL     1       9.409   1.694 -11.304  1.00  0.00    -0.000 C 
BRANCH  27  28
ATOM     28  C   UNL     1       8.397   2.756 -11.782  1.00  0.00    -0.000 C 
BRANCH  28  29
ATOM     29  C   UNL     1       7.520   3.364 -10.675  1.00  0.00    -0.003 C 
ATOM     30  C   UNL     1       8.214   3.393  -9.313  1.00  0.00     0.004 C 
ENDBRANCH  28  29
ENDBRANCH  27  28
ENDBRANCH  26  27
ENDBRANCH  25  26
ENDBRANCH  24  25
ENDBRANCH  23  24
ENDBRANCH  22  23
ENDBRANCH  21  22
ENDBRANCH  20  21
ENDBRANCH  19  20
ENDBRANCH  18  19
ENDBRANCH  17  18
ENDBRANCH   1  17
TORSDOF 26
ENDMDL
MODEL 4
REMARK VINA RESULT:    -3.085      4.681      8.380
REMARK INTER + INTRA:         -14.011
REMARK INTER:                  -9.382
REMARK INTRA:                  -4.629
REMARK UNBOUND:                -6.236
REMARK SMILES CCCCCCCCCCCCCCCCCCCCCCCCCCCC(=O)[O-]
REMARK SMILES IDX 15 1 16 2 17 3 18 4 19 5 20 6 21 7 22 8 23 9 24 10 25 11
REMARK SMILES IDX 26 12 27 13 28 14 29 15 30 16 14 17 13 18 12 19 11 20 10 21
REMARK SMILES IDX 9 22 8 23 7 24 6 25 5 26 4 27 3 28 2 29 1 30
REMARK H PARENT
REMARK Flexibility Score: inf
ROOT
ATOM      1  C   UNL     1       0.309   1.538  -9.426  1.00  0.00     0.000 C 
ENDROOT
BRANCH   1   2
ATOM      2  C   UNL     1       1.430   2.029 -10.358  1.00  0.00     0.000 C 
BRANCH   2   3
ATOM      3  C   UNL     1       1.244   1.562 -11.810  1.00  0.00     0.000 C 
BRANCH   3   4
ATOM      4  C   UNL     1       1.308   2.754 -12.776  1.00  0.00     0.000 C 
BRANCH   4   5
ATOM      5  C   UNL     1       1.811   4.047 -12.106  1.00  0.00     0.000 C 
BRANCH   5   6
ATOM      6  C   UNL     1       2.928   4.789 -12.864  1.00  0.00     0.000 C 
BRANCH   6   7
ATOM      7  C   UNL     1       4.134   3.891 -13.188  1.00  0.00     0.000 C 
BRANCH   7   8
ATOM      8  C   UNL     1       4.929   3.471 -11.939  1.00  0.00     0.000 C 
BRANCH   8   9
ATOM      9  C   UNL     1       4.942   1.960 -11.639  1.00  0.00     0.000 C 
BRANCH   9  10
ATOM     10  C   UNL     1       4.870   1.093 -12.906  1.00  0.00     0.000 C 
BRANCH  10  11
ATOM     11  C   UNL     1       4.877  -0.413 -12.593  1.00  0.00     0.000 C 
BRANCH  11  12
ATOM     12  C   UNL     1       6.296  -1.025 -12.557  1.00  0.00     0.006 C 
BRANCH  12  13
ATOM     13  C   UNL     1       6.834  -1.150 -11.126  1.00  0.00     0.053 C 
BRANCH  13  14
ATOM     14  C   UNL     1       8.038  -0.281 -10.944  1.00  0.00     0.041 C 
ATOM     15  O   UNL     1       8.012   0.675 -10.124  1.00  0.00    -0.550 OA
ATOM     16  O   UNL     1       9.169  -0.490 -11.722  1.00  0.00    -0.550 OA
ENDBRANCH  13  14
ENDBRANCH  12  13
ENDBRANCH  11  12
ENDBRANCH  10  11
ENDBRANCH   9  10
ENDBRANCH   8   9
ENDBRANCH   7   8
ENDBRANCH   6   7
ENDBRANCH   5   6
ENDBRANCH   4   5
ENDBRANCH   3   4
ENDBRANCH   2   3
ENDBRANCH   1   2
BRANCH   1  17
ATOM     17  C   UNL     1      -0.888   2.502  -9.281  1.00  0.00     0.000 C 
BRANCH  17  18
ATOM     18  C   UNL     1      -0.857   3.407  -8.035  1.00  0.00     0.000 C 
BRANCH  18  19
ATOM     19  C   UNL     1      -0.910   4.921  -8.320  1.00  0.00     0.000 C 
BRANCH  19  20
ATOM     20  C   UNL     1      -0.761   5.287  -9.812  1.00  0.00     0.000 C 
BRANCH  20  21
ATOM     21  C   UNL     1      -1.841   6.272 -10.293  1.00  0.00     0.000 C 
BRANCH  21  22
ATOM     22  C   UNL     1      -3.078   6.292  -9.380  1.00  0.00    -0.000 C 
BRANCH  22  23
ATOM     23  C   UNL     1      -4.412   6.360 -10.154  1.00  0.00    -0.000 C 
BRANCH  23  24
ATOM     24  C   UNL     1      -5.278   5.107  -9.932  1.00  0.00    -0.000 C 
BRANCH  24  25
ATOM     25  C   UNL     1      -4.637   4.105  -8.958  1.00  0.00    -0.000 C 
BRANCH  25  26
ATOM     26  C   UNL     1      -4.217   2.795  -9.645  1.00  0.00    -0.000 C 
BRANCH  26  27
ATOM     27  C   UNL     1      -4.425   2.827 -11.170  1.00  0.00    -0.000 C 
BRANCH  27  28
ATOM     28  C   UNL     1      -3.200   3.284 -11.990  1.00  0.00    -0.000 C 
BRANCH  28  29
ATOM     29  C   UNL     1      -2.324   2.145 -12.540  1.00  0.00    -0.003 C 
ATOM     30  C   UNL     1      -2.930   0.761 -12.306  1.00  0.00     0.004 C 
ENDBRANCH  28  29
ENDBRANCH  27  28
ENDBRANCH  26  27
ENDBRANCH  25  26
ENDBRANCH  24  25
ENDBRANCH  23  24
ENDBRANCH  22  23
ENDBRANCH  21  22
ENDBRANCH  20  21
ENDBRANCH  19  20
ENDBRANCH  18  19
ENDBRANCH  17  18
ENDBRANCH   1  17
TORSDOF 26
ENDMDL
MODEL 5
REMARK VINA RESULT:    -3.070      3.641      6.957
REMARK INTER + INTRA:         -13.973
REMARK INTER:                  -8.867
REMARK INTRA:                  -5.107
REMARK UNBOUND:                -6.236
REMARK SMILES CCCCCCCCCCCCCCCCCCCCCCCCCCCC(=O)[O-]
REMARK SMILES IDX 15 1 16 2 17 3 18 4 19 5 20 6 21 7 22 8 23 9 24 10 25 11
REMARK SMILES IDX 26 12 27 13 28 14 29 15 30 16 14 17 13 18 12 19 11 20 10 21
REMARK SMILES IDX 9 22 8 23 7 24 6 25 5 26 4 27 3 28 2 29 1 30
REMARK H PARENT
REMARK Flexibility Score: inf
ROOT
ATOM      1  C   UNL     1      -0.143   7.315  -9.727  1.00  0.00     0.000 C 
ENDROOT
BRANCH   1   2
ATOM      2  C   UNL     1      -0.561   6.527  -8.473  1.00  0.00     0.000 C 
BRANCH   2   3
ATOM      3  C   UNL     1      -2.016   6.038  -8.535  1.00  0.00     0.000 C 
BRANCH   3   4
ATOM      4  C   UNL     1      -2.078   4.505  -8.464  1.00  0.00     0.000 C 
BRANCH   4   5
ATOM      5  C   UNL     1      -0.687   3.844  -8.498  1.00  0.00     0.000 C 
BRANCH   5   6
ATOM      6  C   UNL     1      -0.581   2.497  -7.757  1.00  0.00     0.000 C 
BRANCH   6   7
ATOM      7  C   UNL     1       0.284   1.467  -8.503  1.00  0.00     0.000 C 
BRANCH   7   8
ATOM      8  C   UNL     1       0.733   1.947  -9.895  1.00  0.00     0.000 C 
BRANCH   8   9
ATOM      9  C   UNL     1       0.304   1.055 -11.074  1.00  0.00     0.000 C 
BRANCH   9  10
ATOM     10  C   UNL     1       1.355   0.991 -12.195  1.00  0.00     0.000 C 
BRANCH  10  11
ATOM     11  C   UNL     1       2.400   2.113 -12.089  1.00  0.00     0.000 C 
BRANCH  11  12
ATOM     12  C   UNL     1       3.857   1.601 -12.135  1.00  0.00     0.006 C 
BRANCH  12  13
ATOM     13  C   UNL     1       4.002   0.350 -13.010  1.00  0.00     0.053 C 
BRANCH  13  14
ATOM     14  C   UNL     1       5.144  -0.491 -12.535  1.00  0.00     0.041 C 
ATOM     15  O   UNL     1       5.246  -1.690 -12.906  1.00  0.00    -0.550 OA
ATOM     16  O   UNL     1       6.064   0.032 -11.636  1.00  0.00    -0.550 OA
ENDBRANCH  13  14
ENDBRANCH  12  13
ENDBRANCH  11  12
ENDBRANCH  10  11
ENDBRANCH   9  10
ENDBRANCH   8   9
ENDBRANCH   7   8
ENDBRANCH   6   7
ENDBRANCH   5   6
ENDBRANCH   4   5
ENDBRANCH   3   4
ENDBRANCH   2   3
ENDBRANCH   1   2
BRANCH   1  17
ATOM     17  C   UNL     1       0.658   6.506 -10.769  1.00  0.00     0.000 C 
BRANCH  17  18
ATOM     18  C   UNL     1      -0.128   6.093 -12.027  1.00  0.00     0.000 C 
BRANCH  18  19
ATOM     19  C   UNL     1      -0.418   4.584 -12.154  1.00  0.00     0.000 C 
BRANCH  19  20
ATOM     20  C   UNL     1      -1.907   4.212 -11.990  1.00  0.00     0.000 C 
BRANCH  20  21
ATOM     21  C   UNL     1      -2.408   3.267 -13.095  1.00  0.00     0.000 C 
BRANCH  21  22
ATOM     22  C   UNL     1      -2.906   1.920 -12.546  1.00  0.00    -0.000 C 
BRANCH  22  23
ATOM     23  C   UNL     1      -3.150   1.930 -11.021  1.00  0.00    -0.000 C 
BRANCH  23  24
ATOM     24  C   UNL     1      -4.650   1.910 -10.672  1.00  0.00    -0.000 C 
BRANCH  24  25
ATOM     25  C   UNL     1      -4.953   2.555  -9.310  1.00  0.00    -0.000 C 
BRANCH  25  26
ATOM     26  C   UNL     1      -5.763   3.856  -9.437  1.00  0.00    -0.000 C 
BRANCH  26  27
ATOM     27  C   UNL     1      -5.277   4.752 -10.591  1.00  0.00    -0.000 C 
BRANCH  27  28
ATOM     28  C   UNL     1      -5.250   6.263 -10.282  1.00  0.00    -0.000 C 
BRANCH  28  29
ATOM     29  C   UNL     1      -4.945   7.168 -11.488  1.00  0.00    -0.003 C 
ATOM     30  C   UNL     1      -3.474   7.576 -11.570  1.00  0.00     0.004 C 
ENDBRANCH  28  29
ENDBRANCH  27  28
ENDBRANCH  26  27
ENDBRANCH  25  26
ENDBRANCH  24  25
ENDBRANCH  23  24
ENDBRANCH  22  23
ENDBRANCH  21  22
ENDBRANCH  20  21
ENDBRANCH  19  20
ENDBRANCH  18  19
ENDBRANCH  17  18
ENDBRANCH   1  17
TORSDOF 26
ENDMDL
MODEL 6
REMARK VINA RESULT:    -3.065      2.310      4.442
REMARK INTER + INTRA:         -13.958
REMARK INTER:                  -9.134
REMARK INTRA:                  -4.824
REMARK UNBOUND:                -6.236
REMARK SMILES CCCCCCCCCCCCCCCCCCCCCCCCCCCC(=O)[O-]
REMARK SMILES IDX 15 1 16 2 17 3 18 4 19 5 20 6 21 7 22 8 23 9 24 10 25 11
REMARK SMILES IDX 26 12 27 13 28 14 29 15 30 16 14 17 13 18 12 19 11 20 10 21
REMARK SMILES IDX 9 22 8 23 7 24 6 25 5 26 4 27 3 28 2 29 1 30
REMARK H PARENT
REMARK Flexibility Score: inf
ROOT
ATOM      1  C   UNL     1      -1.902   5.832  -8.485  1.00  0.00     0.000 C 
ENDROOT
BRANCH   1   2
ATOM      2  C   UNL     1      -1.996   7.073  -9.391  1.00  0.00     0.000 C 
BRANCH   2   3
ATOM      3  C   UNL     1      -0.691   7.355 -10.150  1.00  0.00     0.000 C 
BRANCH   3   4
ATOM      4  C   UNL     1       0.297   6.192  -9.984  1.00  0.00     0.000 C 
BRANCH   4   5
ATOM      5  C   UNL     1       0.558   5.430 -11.296  1.00  0.00     0.000 C 
BRANCH   5   6
ATOM      6  C   UNL     1      -0.539   5.572 -12.369  1.00  0.00     0.000 C 
BRANCH   6   7
ATOM      7  C   UNL     1      -1.638   4.502 -12.249  1.00  0.00     0.000 C 
BRANCH   7   8
ATOM      8  C   UNL     1      -2.949   4.900 -12.951  1.00  0.00     0.000 C 
BRANCH   8   9
ATOM      9  C   UNL     1      -3.402   6.356 -12.732  1.00  0.00     0.000 C 
BRANCH   9  10
ATOM     10  C   UNL     1      -4.905   6.481 -12.435  1.00  0.00     0.000 C 
BRANCH  10  11
ATOM     11  C   UNL     1      -5.269   6.009 -11.018  1.00  0.00     0.000 C 
BRANCH  11  12
ATOM     12  C   UNL     1      -6.272   4.834 -11.001  1.00  0.00     0.006 C 
BRANCH  12  13
ATOM     13  C   UNL     1      -5.568   3.475 -10.904  1.00  0.00     0.053 C 
BRANCH  13  14
ATOM     14  C   UNL     1      -6.218   2.622  -9.861  1.00  0.00     0.041 C 
ATOM     15  O   UNL     1      -6.518   1.426 -10.116  1.00  0.00    -0.550 OA
ATOM     16  O   UNL     1      -6.546   3.167  -8.626  1.00  0.00    -0.550 OA
ENDBRANCH  13  14
ENDBRANCH  12  13
ENDBRANCH  11  12
ENDBRANCH  10  11
ENDBRANCH   9  10
ENDBRANCH   8   9
ENDBRANCH   7   8
ENDBRANCH   6   7
ENDBRANCH   5   6
ENDBRANCH   4   5
ENDBRANCH   3   4
ENDBRANCH   2   3
ENDBRANCH   1   2
BRANCH   1  17
ATOM     17  C   UNL     1      -2.890   4.697  -8.829  1.00  0.00     0.000 C 
BRANCH  17  18
ATOM     18  C   UNL     1      -2.296   3.277  -8.795  1.00  0.00     0.000 C 
BRANCH  18  19
ATOM     19  C   UNL     1      -0.885   3.168  -8.184  1.00  0.00     0.000 C 
BRANCH  19  20
ATOM     20  C   UNL     1       0.035   2.156  -8.898  1.00  0.00     0.000 C 
BRANCH  20  21
ATOM     21  C   UNL     1      -0.591   1.587 -10.183  1.00  0.00     0.000 C 
BRANCH  21  22
ATOM     22  C   UNL     1       0.372   1.622 -11.381  1.00  0.00    -0.000 C 
BRANCH  22  23
ATOM     23  C   UNL     1       1.813   2.025 -11.000  1.00  0.00    -0.000 C 
BRANCH  23  24
ATOM     24  C   UNL     1       2.784   1.903 -12.188  1.00  0.00    -0.000 C 
BRANCH  24  25
ATOM     25  C   UNL     1       2.469   0.703 -13.095  1.00  0.00    -0.000 C 
BRANCH  25  26
ATOM     26  C   UNL     1       3.668  -0.244 -13.266  1.00  0.00    -0.000 C 
BRANCH  26  27
ATOM     27  C   UNL     1       5.015   0.438 -12.964  1.00  0.00    -0.000 C 
BRANCH  27  28
ATOM     28  C   UNL     1       5.935  -0.328 -11.991  1.00  0.00    -0.000 C 
BRANCH  28  29
ATOM     29  C   UNL     1       6.783   0.559 -11.063  1.00  0.00    -0.003 C 
ATOM     30  C   UNL     1       6.201   1.961 -10.884  1.00  0.00     0.004 C 
ENDBRANCH  28  29
ENDBRANCH  27  28
ENDBRANCH  26  27
ENDBRANCH  25  26
ENDBRANCH  24  25
ENDBRANCH  23  24
ENDBRANCH  22  23
ENDBRANCH  21  22
ENDBRANCH  20  21
ENDBRANCH  19  20
ENDBRANCH  18  19
ENDBRANCH  17  18
ENDBRANCH   1  17
TORSDOF 26
ENDMDL
MODEL 7
REMARK VINA RESULT:    -3.042      2.560      4.258
REMARK INTER + INTRA:         -13.902
REMARK INTER:                  -9.770
REMARK INTRA:                  -4.132
REMARK UNBOUND:                -6.236
REMARK SMILES CCCCCCCCCCCCCCCCCCCCCCCCCCCC(=O)[O-]
REMARK SMILES IDX 15 1 16 2 17 3 18 4 19 5 20 6 21 7 22 8 23 9 24 10 25 11
REMARK SMILES IDX 26 12 27 13 28 14 29 15 30 16 14 17 13 18 12 19 11 20 10 21
REMARK SMILES IDX 9 22 8 23 7 24 6 25 5 26 4 27 3 28 2 29 1 30
REMARK H PARENT
REMARK Flexibility Score: inf
ROOT
ATOM      1  C   UNL     1      -1.097   3.630  -8.730  1.00  0.00     0.000 C 
ENDROOT
BRANCH   1   2
ATOM      2  C   UNL     1      -1.079   5.063  -8.169  1.00  0.00     0.000 C 
BRANCH   2   3
ATOM      3  C   UNL     1      -0.165   6.004  -8.967  1.00  0.00     0.000 C 
BRANCH   3   4
ATOM      4  C   UNL     1       0.257   5.354 -10.293  1.00  0.00     0.000 C 
BRANCH   4   5
ATOM      5  C   UNL     1      -0.355   6.045 -11.526  1.00  0.00     0.000 C 
BRANCH   5   6
ATOM      6  C   UNL     1      -1.324   5.178 -12.353  1.00  0.00     0.000 C 
BRANCH   6   7
ATOM      7  C   UNL     1      -2.778   5.261 -11.856  1.00  0.00     0.000 C 
BRANCH   7   8
ATOM      8  C   UNL     1      -3.096   6.581 -11.133  1.00  0.00     0.000 C 
BRANCH   8   9
ATOM      9  C   UNL     1      -4.139   6.484 -10.004  1.00  0.00     0.000 C 
BRANCH   9  10
ATOM     10  C   UNL     1      -4.990   5.205 -10.078  1.00  0.00     0.000 C 
BRANCH  10  11
ATOM     11  C   UNL     1      -4.707   4.240  -8.914  1.00  0.00     0.000 C 
BRANCH  11  12
ATOM     12  C   UNL     1      -4.374   2.803  -9.376  1.00  0.00     0.006 C 
BRANCH  12  13
ATOM     13  C   UNL     1      -5.620   1.910  -9.426  1.00  0.00     0.053 C 
BRANCH  13  14
ATOM     14  C   UNL     1      -5.998   1.620 -10.844  1.00  0.00     0.041 C 
ATOM     15  O   UNL     1      -5.308   2.081 -11.791  1.00  0.00    -0.550 OA
ATOM     16  O   UNL     1      -7.147   0.890 -11.120  1.00  0.00    -0.550 OA
ENDBRANCH  13  14
ENDBRANCH  12  13
ENDBRANCH  11  12
ENDBRANCH  10  11
ENDBRANCH   9  10
ENDBRANCH   8   9
ENDBRANCH   7   8
ENDBRANCH   6   7
ENDBRANCH   5   6
ENDBRANCH   4   5
ENDBRANCH   3   4
ENDBRANCH   2   3
ENDBRANCH   1   2
BRANCH   1  17
ATOM     17  C   UNL     1      -0.514   2.554  -7.790  1.00  0.00     0.000 C 
BRANCH  17  18
ATOM     18  C   UNL     1       0.274   1.430  -8.486  1.00  0.00     0.000 C 
BRANCH  18  19
ATOM     19  C   UNL     1       0.795   1.768  -9.897  1.00  0.00     0.000 C 
BRANCH  19  20
ATOM     20  C   UNL     1       0.074   1.012 -11.033  1.00  0.00     0.000 C 
BRANCH  20  21
ATOM     21  C   UNL     1      -0.126   1.877 -12.289  1.00  0.00     0.000 C 
BRANCH  21  22
ATOM     22  C   UNL     1       1.149   1.995 -13.140  1.00  0.00    -0.000 C 
BRANCH  22  23
ATOM     23  C   UNL     1       1.916   3.316 -12.918  1.00  0.00    -0.000 C 
BRANCH  23  24
ATOM     24  C   UNL     1       3.429   3.156 -13.150  1.00  0.00    -0.000 C 
BRANCH  24  25
ATOM     25  C   UNL     1       4.184   2.723 -11.883  1.00  0.00    -0.000 C 
BRANCH  25  26
ATOM     26  C   UNL     1       5.301   1.708 -12.175  1.00  0.00    -0.000 C 
BRANCH  26  27
ATOM     27  C   UNL     1       4.766   0.370 -12.718  1.00  0.00    -0.000 C 
BRANCH  27  28
ATOM     28  C   UNL     1       5.609  -0.870 -12.353  1.00  0.00    -0.000 C 
BRANCH  28  29
ATOM     29  C   UNL     1       7.102  -0.592 -12.107  1.00  0.00    -0.003 C 
ATOM     30  C   UNL     1       7.540  -0.913 -10.678  1.00  0.00     0.004 C 
ENDBRANCH  28  29
ENDBRANCH  27  28
ENDBRANCH  26  27
ENDBRANCH  25  26
ENDBRANCH  24  25
ENDBRANCH  23  24
ENDBRANCH  22  23
ENDBRANCH  21  22
ENDBRANCH  20  21
ENDBRANCH  19  20
ENDBRANCH  18  19
ENDBRANCH  17  18
ENDBRANCH   1  17
TORSDOF 26
ENDMDL
MODEL 8
REMARK VINA RESULT:    -3.037      1.469      2.246
REMARK INTER + INTRA:         -13.888
REMARK INTER:                  -8.427
REMARK INTRA:                  -5.461
REMARK UNBOUND:                -6.236
REMARK SMILES CCCCCCCCCCCCCCCCCCCCCCCCCCCC(=O)[O-]
REMARK SMILES IDX 15 1 16 2 17 3 18 4 19 5 20 6 21 7 22 8 23 9 24 10 25 11
REMARK SMILES IDX 26 12 27 13 28 14 29 15 30 16 14 17 13 18 12 19 11 20 10 21
REMARK SMILES IDX 9 22 8 23 7 24 6 25 5 26 4 27 3 28 2 29 1 30
REMARK H PARENT
REMARK Flexibility Score: inf
ROOT
ATOM      1  C   UNL     1      -0.468   2.483  -7.899  1.00  0.00     0.000 C 
ENDROOT
BRANCH   1   2
ATOM      2  C   UNL     1      -1.439   3.456  -8.590  1.00  0.00     0.000 C 
BRANCH   2   3
ATOM      3  C   UNL     1      -1.119   4.928  -8.293  1.00  0.00     0.000 C 
BRANCH   3   4
ATOM      4  C   UNL     1      -2.364   5.805  -8.492  1.00  0.00     0.000 C 
BRANCH   4   5
ATOM      5  C   UNL     1      -2.088   7.057  -9.346  1.00  0.00     0.000 C 
BRANCH   5   6
ATOM      6  C   UNL     1      -3.103   7.319 -10.476  1.00  0.00     0.000 C 
BRANCH   6   7
ATOM      7  C   UNL     1      -4.421   6.547 -10.290  1.00  0.00     0.000 C 
BRANCH   7   8
ATOM      8  C   UNL     1      -5.551   7.049 -11.208  1.00  0.00     0.000 C 
BRANCH   8   9
ATOM      9  C   UNL     1      -6.060   6.034 -12.248  1.00  0.00     0.000 C 
BRANCH   9  10
ATOM     10  C   UNL     1      -7.594   5.973 -12.330  1.00  0.00     0.000 C 
BRANCH  10  11
ATOM     11  C   UNL     1      -8.168   4.689 -11.708  1.00  0.00     0.000 C 
BRANCH  11  12
ATOM     12  C   UNL     1      -7.082   3.697 -11.236  1.00  0.00     0.006 C 
BRANCH  12  13
ATOM     13  C   UNL     1      -7.477   2.983  -9.937  1.00  0.00     0.053 C 
BRANCH  13  14
ATOM     14  C   UNL     1      -6.300   2.874  -9.021  1.00  0.00     0.041 C 
ATOM     15  O   UNL     1      -5.782   3.911  -8.527  1.00  0.00    -0.550 OA
ATOM     16  O   UNL     1      -5.736   1.632  -8.761  1.00  0.00    -0.550 OA
ENDBRANCH  13  14
ENDBRANCH  12  13
ENDBRANCH  11  12
ENDBRANCH  10  11
ENDBRANCH   9  10
ENDBRANCH   8   9
ENDBRANCH   7   8
ENDBRANCH   6   7
ENDBRANCH   5   6
ENDBRANCH   4   5
ENDBRANCH   3   4
ENDBRANCH   2   3
ENDBRANCH   1   2
BRANCH   1  17
ATOM     17  C   UNL     1       0.243   1.490  -8.844  1.00  0.00     0.000 C 
BRANCH  17  18
ATOM     18  C   UNL     1       0.974   2.129 -10.040  1.00  0.00     0.000 C 
BRANCH  18  19
ATOM     19  C   UNL     1       0.753   1.429 -11.395  1.00  0.00     0.000 C 
BRANCH  19  20
ATOM     20  C   UNL     1      -0.554   0.613 -11.478  1.00  0.00     0.000 C 
BRANCH  20  21
ATOM     21  C   UNL     1      -1.241   0.730 -12.849  1.00  0.00     0.000 C 
BRANCH  21  22
ATOM     22  C   UNL     1      -2.725   1.120 -12.741  1.00  0.00    -0.000 C 
BRANCH  22  23
ATOM     23  C   UNL     1      -3.111   1.689 -11.358  1.00  0.00    -0.000 C 
BRANCH  23  24
ATOM     24  C   UNL     1      -3.439   3.192 -11.420  1.00  0.00    -0.000 C 
BRANCH  24  25
ATOM     25  C   UNL     1      -3.290   3.778 -12.833  1.00  0.00    -0.000 C 
BRANCH  25  26
ATOM     26  C   UNL     1      -2.263   4.921 -12.896  1.00  0.00    -0.000 C 
BRANCH  26  27
ATOM     27  C   UNL     1      -0.811   4.428 -12.762  1.00  0.00    -0.000 C 
BRANCH  27  28
ATOM     28  C   UNL     1       0.024   5.135 -11.674  1.00  0.00    -0.000 C 
BRANCH  28  29
ATOM     29  C   UNL     1       0.827   6.354 -12.160  1.00  0.00    -0.003 C 
ATOM     30  C   UNL     1       1.104   7.367 -11.050  1.00  0.00     0.004 C 
ENDBRANCH  28  29
ENDBRANCH  27  28
ENDBRANCH  26  27
ENDBRANCH  25  26
ENDBRANCH  24  25
ENDBRANCH  23  24
ENDBRANCH  22  23
ENDBRANCH  21  22
ENDBRANCH  20  21
ENDBRANCH  19  20
ENDBRANCH  18  19
ENDBRANCH  17  18
ENDBRANCH   1  17
TORSDOF 26
ENDMDL
MODEL 9
REMARK VINA RESULT:    -3.007      1.796      4.391
REMARK INTER + INTRA:         -13.814
REMARK INTER:                  -8.843
REMARK INTRA:                  -4.971
REMARK UNBOUND:                -6.236
REMARK SMILES CCCCCCCCCCCCCCCCCCCCCCCCCCCC(=O)[O-]
REMARK SMILES IDX 15 1 16 2 17 3 18 4 19 5 20 6 21 7 22 8 23 9 24 10 25 11
REMARK SMILES IDX 26 12 27 13 28 14 29 15 30 16 14 17 13 18 12 19 11 20 10 21
REMARK SMILES IDX 9 22 8 23 7 24 6 25 5 26 4 27 3 28 2 29 1 30
REMARK H PARENT
REMARK Flexibility Score: inf
ROOT
ATOM      1  C   UNL     1      -2.449   3.924  -8.632  1.00  0.00     0.000 C 
ENDROOT
BRANCH   1   2
ATOM      2  C   UNL     1      -0.921   3.831  -8.479  1.00  0.00     0.000 C 
BRANCH   2   3
ATOM      3  C   UNL     1      -0.472   2.564  -7.736  1.00  0.00     0.000 C 
BRANCH   3   4
ATOM      4  C   UNL     1       0.319   1.637  -8.671  1.00  0.00     0.000 C 
BRANCH   4   5
ATOM      5  C   UNL     1       0.732   2.320  -9.989  1.00  0.00     0.000 C 
BRANCH   5   6
ATOM      6  C   UNL     1       0.706   1.415 -11.235  1.00  0.00     0.000 C 
BRANCH   6   7
ATOM      7  C   UNL     1      -0.297   1.887 -12.301  1.00  0.00     0.000 C 
BRANCH   7   8
ATOM      8  C   UNL     1      -1.736   2.005 -11.769  1.00  0.00     0.000 C 
BRANCH   8   9
ATOM      9  C   UNL     1      -2.576   3.144 -12.375  1.00  0.00     0.000 C 
BRANCH   9  10
ATOM     10  C   UNL     1      -4.085   2.976 -12.132  1.00  0.00     0.000 C 
BRANCH  10  11
ATOM     11  C   UNL     1      -4.803   4.319 -11.920  1.00  0.00     0.000 C 
BRANCH  11  12
ATOM     12  C   UNL     1      -6.216   4.171 -11.313  1.00  0.00     0.006 C 
BRANCH  12  13
ATOM     13  C   UNL     1      -6.169   3.770  -9.833  1.00  0.00     0.053 C 
BRANCH  13  14
ATOM     14  C   UNL     1      -6.325   2.289  -9.688  1.00  0.00     0.041 C 
ATOM     15  O   UNL     1      -5.635   1.659  -8.844  1.00  0.00    -0.550 OA
ATOM     16  O   UNL     1      -7.189   1.597 -10.526  1.00  0.00    -0.550 OA
ENDBRANCH  13  14
ENDBRANCH  12  13
ENDBRANCH  11  12
ENDBRANCH  10  11
ENDBRANCH   9  10
ENDBRANCH   8   9
ENDBRANCH   7   8
ENDBRANCH   6   7
ENDBRANCH   5   6
ENDBRANCH   4   5
ENDBRANCH   3   4
ENDBRANCH   2   3
ENDBRANCH   1   2
BRANCH   1  17
ATOM     17  C   UNL     1      -2.992   5.341  -8.910  1.00  0.00     0.000 C 
BRANCH  17  18
ATOM     18  C   UNL     1      -2.015   6.492  -8.603  1.00  0.00     0.000 C 
BRANCH  18  19
ATOM     19  C   UNL     1      -1.680   7.406  -9.798  1.00  0.00     0.000 C 
BRANCH  19  20
ATOM     20  C   UNL     1      -2.170   6.870 -11.160  1.00  0.00     0.000 C 
BRANCH  20  21
ATOM     21  C   UNL     1      -1.017   6.590 -12.138  1.00  0.00     0.000 C 
BRANCH  21  22
ATOM     22  C   UNL     1      -0.028   5.539 -11.608  1.00  0.00    -0.000 C 
BRANCH  22  23
ATOM     23  C   UNL     1       1.339   6.131 -11.202  1.00  0.00    -0.000 C 
BRANCH  23  24
ATOM     24  C   UNL     1       2.463   5.714 -12.169  1.00  0.00    -0.000 C 
BRANCH  24  25
ATOM     25  C   UNL     1       2.038   4.590 -13.127  1.00  0.00    -0.000 C 
BRANCH  25  26
ATOM     26  C   UNL     1       3.143   3.542 -13.338  1.00  0.00    -0.000 C 
BRANCH  26  27
ATOM     27  C   UNL     1       4.228   3.589 -12.248  1.00  0.00    -0.000 C 
BRANCH  27  28
ATOM     28  C   UNL     1       4.336   2.323 -11.374  1.00  0.00    -0.000 C 
BRANCH  28  29
ATOM     29  C   UNL     1       5.762   1.966 -10.918  1.00  0.00    -0.003 C 
ATOM     30  C   UNL     1       6.318   0.726 -11.617  1.00  0.00     0.004 C 
ENDBRANCH  28  29
ENDBRANCH  27  28
ENDBRANCH  26  27
ENDBRANCH  25  26
ENDBRANCH  24  25
ENDBRANCH  23  24
ENDBRANCH  22  23
ENDBRANCH  21  22
ENDBRANCH  20  21
ENDBRANCH  19  20
ENDBRANCH  18  19
ENDBRANCH  17  18
ENDBRANCH   1  17
TORSDOF 26
ENDMDL
