MODEL 1
REMARK VINA RESULT:    -5.909      0.000      0.000
REMARK INTER + INTRA:         -14.068
REMARK INTER:                 -11.090
REMARK INTRA:                  -2.978
REMARK UNBOUND:                -2.978
REMARK SMILES CCCCCCCCC=CCCCCCCCC(=O)[O-]
REMARK SMILES IDX 10 1 9 2 11 3 12 4 13 5 14 6 15 7 16 8 17 9 18 10 19 11
REMARK SMILES IDX 20 12 8 13 7 14 6 15 5 16 4 17 3 18 2 19 1 20
REMARK H PARENT
REMARK Flexibility Score: inf
ROOT
ATOM      1  C   UNL     1     -64.808  -0.058  -3.062  1.00  0.00    -0.031 C 
ATOM      2  C   UNL     1     -63.804  -0.900  -2.756  1.00  0.00    -0.031 C 
ENDROOT
BRANCH   1   3
ATOM      3  C   UNL     1     -64.705   1.109  -4.017  1.00  0.00     0.027 C 
BRANCH   3   4
ATOM      4  C   UNL     1     -64.758   2.448  -3.270  1.00  0.00     0.004 C 
BRANCH   4   5
ATOM      5  C   UNL     1     -63.492   3.287  -3.498  1.00  0.00     0.000 C 
BRANCH   5   6
ATOM      6  C   UNL     1     -62.348   2.816  -2.592  1.00  0.00     0.000 C 
BRANCH   6   7
ATOM      7  C   UNL     1     -62.824   2.670  -1.140  1.00  0.00     0.000 C 
BRANCH   7   8
ATOM      8  C   UNL     1     -62.237   1.429  -0.442  1.00  0.00     0.006 C 
BRANCH   8   9
ATOM      9  C   UNL     1     -62.099   1.568   1.083  1.00  0.00     0.053 C 
BRANCH   9  10
ATOM     10  C   UNL     1     -61.320   2.787   1.466  1.00  0.00     0.041 C 
ATOM     11  O   UNL     1     -60.078   2.837   1.260  1.00  0.00    -0.550 OA
ATOM     12  O   UNL     1     -61.969   3.883   2.020  1.00  0.00    -0.550 OA
ENDBRANCH   9  10
ENDBRANCH   8   9
ENDBRANCH   7   8
ENDBRANCH   6   7
ENDBRANCH   5   6
ENDBRANCH   4   5
ENDBRANCH   3   4
ENDBRANCH   1   3
BRANCH   2  13
ATOM     13  C   UNL     1     -62.424  -0.856  -3.364  1.00  0.00     0.027 C 
BRANCH  13  14
ATOM     14  C   UNL     1     -61.397  -1.636  -2.527  1.00  0.00     0.004 C 
BRANCH  14  15
ATOM     15  C   UNL     1     -62.048  -2.776  -1.731  1.00  0.00     0.000 C 
BRANCH  15  16
ATOM     16  C   UNL     1     -61.676  -2.689  -0.243  1.00  0.00     0.000 C 
BRANCH  16  17
ATOM     17  C   UNL     1     -62.798  -2.080   0.614  1.00  0.00    -0.000 C 
BRANCH  17  18
ATOM     18  C   UNL     1     -64.014  -3.010   0.744  1.00  0.00    -0.000 C 
BRANCH  18  19
ATOM     19  C   UNL     1     -65.308  -2.274   0.376  1.00  0.00    -0.003 C 
ATOM     20  C   UNL     1     -65.170  -0.771   0.605  1.00  0.00     0.004 C 
ENDBRANCH  18  19
ENDBRANCH  17  18
ENDBRANCH  16  17
ENDBRANCH  15  16
ENDBRANCH  14  15
ENDBRANCH  13  14
ENDBRANCH   2  13
TORSDOF 15
ENDMDL
MODEL 2
REMARK VINA RESULT:    -5.798      2.030      5.449
REMARK INTER + INTRA:         -13.861
REMARK INTER:                 -10.925
REMARK INTRA:                  -2.936
REMARK UNBOUND:                -2.978
REMARK SMILES CCCCCCCCC=CCCCCCCCC(=O)[O-]
REMARK SMILES IDX 10 1 9 2 11 3 12 4 13 5 14 6 15 7 16 8 17 9 18 10 19 11
REMARK SMILES IDX 20 12 8 13 7 14 6 15 5 16 4 17 3 18 2 19 1 20
REMARK H PARENT
REMARK Flexibility Score: inf
ROOT
ATOM      1  C   UNL     1     -64.748   0.137   0.500  1.00  0.00    -0.031 C 
ATOM      2  C   UNL     1     -63.877   1.119   0.202  1.00  0.00    -0.031 C 
ENDROOT
BRANCH   1   3
ATOM      3  C   UNL     1     -64.384  -1.184   1.137  1.00  0.00     0.027 C 
BRANCH   3   4
ATOM      4  C   UNL     1     -65.259  -2.323   0.598  1.00  0.00     0.004 C 
BRANCH   4   5
ATOM      5  C   UNL     1     -64.437  -3.370  -0.168  1.00  0.00     0.000 C 
BRANCH   5   6
ATOM      6  C   UNL     1     -63.010  -2.871  -0.422  1.00  0.00     0.000 C 
BRANCH   6   7
ATOM      7  C   UNL     1     -62.780  -2.603  -1.916  1.00  0.00     0.000 C 
BRANCH   7   8
ATOM      8  C   UNL     1     -61.629  -1.614  -2.175  1.00  0.00     0.006 C 
BRANCH   8   9
ATOM      9  C   UNL     1     -60.476  -1.708  -1.163  1.00  0.00     0.053 C 
BRANCH   9  10
ATOM     10  C   UNL     1     -59.151  -1.413  -1.795  1.00  0.00     0.041 C 
ATOM     11  O   UNL     1     -58.658  -2.212  -2.635  1.00  0.00    -0.550 OA
ATOM     12  O   UNL     1     -58.475  -0.241  -1.483  1.00  0.00    -0.550 OA
ENDBRANCH   9  10
ENDBRANCH   8   9
ENDBRANCH   7   8
ENDBRANCH   6   7
ENDBRANCH   5   6
ENDBRANCH   4   5
ENDBRANCH   3   4
ENDBRANCH   1   3
BRANCH   2  13
ATOM     13  C   UNL     1     -62.401   1.089   0.512  1.00  0.00     0.027 C 
BRANCH  13  14
ATOM     14  C   UNL     1     -61.568   1.800  -0.566  1.00  0.00     0.004 C 
BRANCH  14  15
ATOM     15  C   UNL     1     -62.385   2.857  -1.323  1.00  0.00     0.000 C 
BRANCH  15  16
ATOM     16  C   UNL     1     -62.285   2.645  -2.841  1.00  0.00     0.000 C 
BRANCH  16  17
ATOM     17  C   UNL     1     -63.571   3.044  -3.581  1.00  0.00    -0.000 C 
BRANCH  17  18
ATOM     18  C   UNL     1     -64.764   2.144  -3.221  1.00  0.00    -0.000 C 
BRANCH  18  19
ATOM     19  C   UNL     1     -64.467   0.679  -3.560  1.00  0.00    -0.003 C 
ATOM     20  C   UNL     1     -65.559  -0.243  -3.025  1.00  0.00     0.004 C 
ENDBRANCH  18  19
ENDBRANCH  17  18
ENDBRANCH  16  17
ENDBRANCH  15  16
ENDBRANCH  14  15
ENDBRANCH  13  14
ENDBRANCH   2  13
TORSDOF 15
ENDMDL
MODEL 3
REMARK VINA RESULT:    -5.795      2.805      5.694
REMARK INTER + INTRA:         -13.855
REMARK INTER:                 -11.104
REMARK INTRA:                  -2.752
REMARK UNBOUND:                -2.978
REMARK SMILES CCCCCCCCC=CCCCCCCCC(=O)[O-]
REMARK SMILES IDX 10 1 9 2 11 3 12 4 13 5 14 6 15 7 16 8 17 9 18 10 19 11
REMARK SMILES IDX 20 12 8 13 7 14 6 15 5 16 4 17 3 18 2 19 1 20
REMARK H PARENT
REMARK Flexibility Score: inf
ROOT
ATOM      1  C   UNL     1     -65.544  -0.404  -1.263  1.00  0.00    -0.031 C 
ATOM      2  C   UNL     1     -65.204  -0.309  -2.561  1.00  0.00    -0.031 C 
ENDROOT
BRANCH   1   3
ATOM      3  C   UNL     1     -64.857   0.318  -0.128  1.00  0.00     0.027 C 
BRANCH   3   4
ATOM      4  C   UNL     1     -64.374  -0.664   0.948  1.00  0.00     0.004 C 
BRANCH   4   5
ATOM      5  C   UNL     1     -64.707  -2.121   0.592  1.00  0.00     0.000 C 
BRANCH   5   6
ATOM      6  C   UNL     1     -63.435  -2.912   0.267  1.00  0.00     0.000 C 
BRANCH   6   7
ATOM      7  C   UNL     1     -62.254  -1.968  -0.000  1.00  0.00     0.000 C 
BRANCH   7   8
ATOM      8  C   UNL     1     -61.877  -1.892  -1.491  1.00  0.00     0.006 C 
BRANCH   8   9
ATOM      9  C   UNL     1     -62.531  -2.974  -2.364  1.00  0.00     0.053 C 
BRANCH   9  10
ATOM     10  C   UNL     1     -62.067  -2.902  -3.786  1.00  0.00     0.041 C 
ATOM     11  O   UNL     1     -61.821  -1.786  -4.317  1.00  0.00    -0.550 OA
ATOM     12  O   UNL     1     -61.875  -4.068  -4.516  1.00  0.00    -0.550 OA
ENDBRANCH   9  10
ENDBRANCH   8   9
ENDBRANCH   7   8
ENDBRANCH   6   7
ENDBRANCH   5   6
ENDBRANCH   4   5
ENDBRANCH   3   4
ENDBRANCH   1   3
BRANCH   2  13
ATOM     13  C   UNL     1     -64.117   0.584  -3.106  1.00  0.00     0.027 C 
BRANCH  13  14
ATOM     14  C   UNL     1     -64.644   1.981  -3.473  1.00  0.00     0.004 C 
BRANCH  14  15
ATOM     15  C   UNL     1     -63.614   3.082  -3.183  1.00  0.00     0.000 C 
BRANCH  15  16
ATOM     16  C   UNL     1     -62.360   2.497  -2.516  1.00  0.00     0.000 C 
BRANCH  16  17
ATOM     17  C   UNL     1     -62.274   2.833  -1.018  1.00  0.00    -0.000 C 
BRANCH  17  18
ATOM     18  C   UNL     1     -61.625   1.709  -0.195  1.00  0.00    -0.000 C 
BRANCH  18  19
ATOM     19  C   UNL     1     -61.626   2.054   1.298  1.00  0.00    -0.003 C 
ATOM     20  C   UNL     1     -62.027   3.509   1.528  1.00  0.00     0.004 C 
ENDBRANCH  18  19
ENDBRANCH  17  18
ENDBRANCH  16  17
ENDBRANCH  15  16
ENDBRANCH  14  15
ENDBRANCH  13  14
ENDBRANCH   2  13
TORSDOF 15
ENDMDL
MODEL 4
REMARK VINA RESULT:    -5.786      1.509      4.198
REMARK INTER + INTRA:         -13.837
REMARK INTER:                 -10.900
REMARK INTRA:                  -2.937
REMARK UNBOUND:                -2.978
REMARK SMILES CCCCCCCCC=CCCCCCCCC(=O)[O-]
REMARK SMILES IDX 10 1 9 2 11 3 12 4 13 5 14 6 15 7 16 8 17 9 18 10 19 11
REMARK SMILES IDX 20 12 8 13 7 14 6 15 5 16 4 17 3 18 2 19 1 20
REMARK H PARENT
REMARK Flexibility Score: inf
ROOT
ATOM      1  C   UNL     1     -64.040  -3.095   0.544  1.00  0.00    -0.031 C 
ATOM      2  C   UNL     1     -62.757  -3.191   0.150  1.00  0.00    -0.031 C 
ENDROOT
BRANCH   1   3
ATOM      3  C   UNL     1     -64.976  -1.963   0.192  1.00  0.00     0.027 C 
BRANCH   3   4
ATOM      4  C   UNL     1     -64.588  -0.670   0.921  1.00  0.00     0.004 C 
BRANCH   4   5
ATOM      5  C   UNL     1     -65.227   0.570   0.279  1.00  0.00     0.000 C 
BRANCH   5   6
ATOM      6  C   UNL     1     -64.174   1.647  -0.007  1.00  0.00     0.000 C 
BRANCH   6   7
ATOM      7  C   UNL     1     -62.766   1.145   0.349  1.00  0.00     0.000 C 
BRANCH   7   8
ATOM      8  C   UNL     1     -61.654   2.075  -0.168  1.00  0.00     0.006 C 
BRANCH   8   9
ATOM      9  C   UNL     1     -60.844   1.501  -1.342  1.00  0.00     0.053 C 
BRANCH   9  10
ATOM     10  C   UNL     1     -59.481   1.052  -0.916  1.00  0.00     0.041 C 
ATOM     11  O   UNL     1     -59.046  -0.077  -1.269  1.00  0.00    -0.550 OA
ATOM     12  O   UNL     1     -58.677   1.892  -0.156  1.00  0.00    -0.550 OA
ENDBRANCH   9  10
ENDBRANCH   8   9
ENDBRANCH   7   8
ENDBRANCH   6   7
ENDBRANCH   5   6
ENDBRANCH   4   5
ENDBRANCH   3   4
ENDBRANCH   1   3
BRANCH   2  13
ATOM     13  C   UNL     1     -62.058  -2.213  -0.763  1.00  0.00     0.027 C 
BRANCH  13  14
ATOM     14  C   UNL     1     -61.958  -2.736  -2.205  1.00  0.00     0.004 C 
BRANCH  14  15
ATOM     15  C   UNL     1     -62.262  -1.642  -3.238  1.00  0.00     0.000 C 
BRANCH  15  16
ATOM     16  C   UNL     1     -63.441  -0.769  -2.782  1.00  0.00     0.000 C 
BRANCH  16  17
ATOM     17  C   UNL     1     -63.577   0.521  -3.605  1.00  0.00    -0.000 C 
BRANCH  17  18
ATOM     18  C   UNL     1     -64.944   1.199  -3.423  1.00  0.00    -0.000 C 
BRANCH  18  19
ATOM     19  C   UNL     1     -64.824   2.721  -3.568  1.00  0.00    -0.003 C 
ATOM     20  C   UNL     1     -63.379   3.179  -3.394  1.00  0.00     0.004 C 
ENDBRANCH  18  19
ENDBRANCH  17  18
ENDBRANCH  16  17
ENDBRANCH  15  16
ENDBRANCH  14  15
ENDBRANCH  13  14
ENDBRANCH   2  13
TORSDOF 15
ENDMDL
MODEL 5
REMARK VINA RESULT:    -5.719      1.974      5.007
REMARK INTER + INTRA:         -13.712
REMARK INTER:                 -11.238
REMARK INTRA:                  -2.474
REMARK UNBOUND:                -2.978
REMARK SMILES CCCCCCCCC=CCCCCCCCC(=O)[O-]
REMARK SMILES IDX 10 1 9 2 11 3 12 4 13 5 14 6 15 7 16 8 17 9 18 10 19 11
REMARK SMILES IDX 20 12 8 13 7 14 6 15 5 16 4 17 3 18 2 19 1 20
REMARK H PARENT
REMARK Flexibility Score: inf
ROOT
ATOM      1  C   UNL     1     -64.221  -0.346  -2.867  1.00  0.00    -0.031 C 
ATOM      2  C   UNL     1     -65.014   0.740  -2.920  1.00  0.00    -0.031 C 
ENDROOT
BRANCH   1   3
ATOM      3  C   UNL     1     -62.873  -0.472  -3.536  1.00  0.00     0.027 C 
BRANCH   3   4
ATOM      4  C   UNL     1     -62.063  -1.635  -2.947  1.00  0.00     0.004 C 
BRANCH   4   5
ATOM      5  C   UNL     1     -61.115  -1.171  -1.831  1.00  0.00     0.000 C 
BRANCH   5   6
ATOM      6  C   UNL     1     -61.591  -1.669  -0.461  1.00  0.00     0.000 C 
BRANCH   6   7
ATOM      7  C   UNL     1     -62.425  -2.951  -0.604  1.00  0.00     0.000 C 
BRANCH   7   8
ATOM      8  C   UNL     1     -63.476  -3.106   0.510  1.00  0.00     0.006 C 
BRANCH   8   9
ATOM      9  C   UNL     1     -64.874  -2.588   0.137  1.00  0.00     0.053 C 
BRANCH   9  10
ATOM     10  C   UNL     1     -65.109  -1.198   0.641  1.00  0.00     0.041 C 
ATOM     11  O   UNL     1     -64.370  -0.716   1.540  1.00  0.00    -0.550 OA
ATOM     12  O   UNL     1     -66.123  -0.421   0.094  1.00  0.00    -0.550 OA
ENDBRANCH   9  10
ENDBRANCH   8   9
ENDBRANCH   7   8
ENDBRANCH   6   7
ENDBRANCH   5   6
ENDBRANCH   4   5
ENDBRANCH   3   4
ENDBRANCH   1   3
BRANCH   2  13
ATOM     13  C   UNL     1     -64.660   2.036  -3.608  1.00  0.00     0.027 C 
BRANCH  13  14
ATOM     14  C   UNL     1     -63.962   3.023  -2.658  1.00  0.00     0.004 C 
BRANCH  14  15
ATOM     15  C   UNL     1     -62.435   3.000  -2.823  1.00  0.00     0.000 C 
BRANCH  15  16
ATOM     16  C   UNL     1     -61.759   2.379  -1.592  1.00  0.00     0.000 C 
BRANCH  16  17
ATOM     17  C   UNL     1     -62.567   2.592  -0.302  1.00  0.00    -0.000 C 
BRANCH  17  18
ATOM     18  C   UNL     1     -62.081   1.705   0.855  1.00  0.00    -0.000 C 
BRANCH  18  19
ATOM     19  C   UNL     1     -61.296   2.527   1.883  1.00  0.00    -0.003 C 
ATOM     20  C   UNL     1     -61.664   4.006   1.803  1.00  0.00     0.004 C 
ENDBRANCH  18  19
ENDBRANCH  17  18
ENDBRANCH  16  17
ENDBRANCH  15  16
ENDBRANCH  14  15
ENDBRANCH  13  14
ENDBRANCH   2  13
TORSDOF 15
ENDMDL
MODEL 6
REMARK VINA RESULT:    -5.718      2.042      5.291
REMARK INTER + INTRA:         -13.709
REMARK INTER:                 -10.989
REMARK INTRA:                  -2.721
REMARK UNBOUND:                -2.978
REMARK SMILES CCCCCCCCC=CCCCCCCCC(=O)[O-]
REMARK SMILES IDX 10 1 9 2 11 3 12 4 13 5 14 6 15 7 16 8 17 9 18 10 19 11
REMARK SMILES IDX 20 12 8 13 7 14 6 15 5 16 4 17 3 18 2 19 1 20
REMARK H PARENT
REMARK Flexibility Score: inf
ROOT
ATOM      1  C   UNL     1     -63.938  -3.281   0.063  1.00  0.00    -0.031 C 
ATOM      2  C   UNL     1     -64.913  -2.496   0.557  1.00  0.00    -0.031 C 
ENDROOT
BRANCH   1   3
ATOM      3  C   UNL     1     -62.464  -2.953   0.083  1.00  0.00     0.027 C 
BRANCH   3   4
ATOM      4  C   UNL     1     -61.913  -2.769  -1.337  1.00  0.00     0.004 C 
BRANCH   4   5
ATOM      5  C   UNL     1     -63.032  -2.702  -2.386  1.00  0.00     0.000 C 
BRANCH   5   6
ATOM      6  C   UNL     1     -63.249  -1.262  -2.867  1.00  0.00     0.000 C 
BRANCH   6   7
ATOM      7  C   UNL     1     -64.747  -0.927  -2.935  1.00  0.00     0.000 C 
BRANCH   7   8
ATOM      8  C   UNL     1     -65.013   0.553  -3.262  1.00  0.00     0.006 C 
BRANCH   8   9
ATOM      9  C   UNL     1     -63.868   1.250  -4.016  1.00  0.00     0.053 C 
BRANCH   9  10
ATOM     10  C   UNL     1     -63.717   2.682  -3.606  1.00  0.00     0.041 C 
ATOM     11  O   UNL     1     -64.676   3.486  -3.749  1.00  0.00    -0.550 OA
ATOM     12  O   UNL     1     -62.529   3.121  -3.037  1.00  0.00    -0.550 OA
ENDBRANCH   9  10
ENDBRANCH   8   9
ENDBRANCH   7   8
ENDBRANCH   6   7
ENDBRANCH   5   6
ENDBRANCH   4   5
ENDBRANCH   3   4
ENDBRANCH   1   3
BRANCH   2  13
ATOM     13  C   UNL     1     -64.690  -1.185   1.270  1.00  0.00     0.027 C 
BRANCH  13  14
ATOM     14  C   UNL     1     -65.269   0.005   0.489  1.00  0.00     0.004 C 
BRANCH  14  15
ATOM     15  C   UNL     1     -64.191   1.035   0.122  1.00  0.00     0.000 C 
BRANCH  15  16
ATOM     16  C   UNL     1     -62.807   0.575   0.604  1.00  0.00     0.000 C 
BRANCH  16  17
ATOM     17  C   UNL     1     -61.665   1.109  -0.277  1.00  0.00    -0.000 C 
BRANCH  17  18
ATOM     18  C   UNL     1     -61.256   2.544   0.089  1.00  0.00    -0.000 C 
BRANCH  18  19
ATOM     19  C   UNL     1     -61.137   2.708   1.609  1.00  0.00    -0.003 C 
ATOM     20  C   UNL     1     -61.616   4.088   2.053  1.00  0.00     0.004 C 
ENDBRANCH  18  19
ENDBRANCH  17  18
ENDBRANCH  16  17
ENDBRANCH  15  16
ENDBRANCH  14  15
ENDBRANCH  13  14
ENDBRANCH   2  13
TORSDOF 15
ENDMDL
MODEL 7
REMARK VINA RESULT:    -5.698      1.142      3.061
REMARK INTER + INTRA:         -13.673
REMARK INTER:                 -10.784
REMARK INTRA:                  -2.889
REMARK UNBOUND:                -2.978
REMARK SMILES CCCCCCCCC=CCCCCCCCC(=O)[O-]
REMARK SMILES IDX 10 1 9 2 11 3 12 4 13 5 14 6 15 7 16 8 17 9 18 10 19 11
REMARK SMILES IDX 20 12 8 13 7 14 6 15 5 16 4 17 3 18 2 19 1 20
REMARK H PARENT
REMARK Flexibility Score: inf
ROOT
ATOM      1  C   UNL     1     -64.928   0.297  -0.689  1.00  0.00    -0.031 C 
ATOM      2  C   UNL     1     -64.673  -0.448   0.403  1.00  0.00    -0.031 C 
ENDROOT
BRANCH   1   3
ATOM      3  C   UNL     1     -65.405  -0.242  -2.017  1.00  0.00     0.027 C 
BRANCH   3   4
ATOM      4  C   UNL     1     -65.153   0.762  -3.150  1.00  0.00     0.004 C 
BRANCH   4   5
ATOM      5  C   UNL     1     -64.619   2.103  -2.625  1.00  0.00     0.000 C 
BRANCH   5   6
ATOM      6  C   UNL     1     -63.382   2.550  -3.414  1.00  0.00     0.000 C 
BRANCH   6   7
ATOM      7  C   UNL     1     -62.140   2.586  -2.512  1.00  0.00     0.000 C 
BRANCH   7   8
ATOM      8  C   UNL     1     -62.481   2.875  -1.039  1.00  0.00     0.006 C 
BRANCH   8   9
ATOM      9  C   UNL     1     -61.605   2.120  -0.027  1.00  0.00     0.053 C 
BRANCH   9  10
ATOM     10  C   UNL     1     -61.464   2.870   1.261  1.00  0.00     0.041 C 
ATOM     11  O   UNL     1     -61.591   4.123   1.283  1.00  0.00    -0.550 OA
ATOM     12  O   UNL     1     -61.225   2.183   2.445  1.00  0.00    -0.550 OA
ENDBRANCH   9  10
ENDBRANCH   8   9
ENDBRANCH   7   8
ENDBRANCH   6   7
ENDBRANCH   5   6
ENDBRANCH   4   5
ENDBRANCH   3   4
ENDBRANCH   1   3
BRANCH   2  13
ATOM     13  C   UNL     1     -64.883  -1.939   0.500  1.00  0.00     0.027 C 
BRANCH  13  14
ATOM     14  C   UNL     1     -63.561  -2.717   0.405  1.00  0.00     0.004 C 
BRANCH  14  15
ATOM     15  C   UNL     1     -62.349  -1.783   0.273  1.00  0.00     0.000 C 
BRANCH  15  16
ATOM     16  C   UNL     1     -61.550  -2.097  -1.001  1.00  0.00     0.000 C 
BRANCH  16  17
ATOM     17  C   UNL     1     -61.667  -0.992  -2.062  1.00  0.00    -0.000 C 
BRANCH  17  18
ATOM     18  C   UNL     1     -62.279  -1.498  -3.379  1.00  0.00    -0.000 C 
BRANCH  18  19
ATOM     19  C   UNL     1     -62.544  -3.006  -3.315  1.00  0.00    -0.003 C 
ATOM     20  C   UNL     1     -61.771  -3.748  -4.401  1.00  0.00     0.004 C 
ENDBRANCH  18  19
ENDBRANCH  17  18
ENDBRANCH  16  17
ENDBRANCH  15  16
ENDBRANCH  14  15
ENDBRANCH  13  14
ENDBRANCH   2  13
TORSDOF 15
ENDMDL
MODEL 8
REMARK VINA RESULT:    -5.687      2.179      5.371
REMARK INTER + INTRA:         -13.651
REMARK INTER:                 -10.754
REMARK INTRA:                  -2.897
REMARK UNBOUND:                -2.978
REMARK SMILES CCCCCCCCC=CCCCCCCCC(=O)[O-]
REMARK SMILES IDX 10 1 9 2 11 3 12 4 13 5 14 6 15 7 16 8 17 9 18 10 19 11
REMARK SMILES IDX 20 12 8 13 7 14 6 15 5 16 4 17 3 18 2 19 1 20
REMARK H PARENT
REMARK Flexibility Score: inf
ROOT
ATOM      1  C   UNL     1     -65.106   0.287  -0.130  1.00  0.00    -0.031 C 
ATOM      2  C   UNL     1     -65.450   0.287  -1.431  1.00  0.00    -0.031 C 
ENDROOT
BRANCH   1   3
ATOM      3  C   UNL     1     -63.993  -0.535   0.475  1.00  0.00     0.027 C 
BRANCH   3   4
ATOM      4  C   UNL     1     -64.495  -1.914   0.923  1.00  0.00     0.004 C 
BRANCH   4   5
ATOM      5  C   UNL     1     -63.671  -3.056   0.311  1.00  0.00     0.000 C 
BRANCH   5   6
ATOM      6  C   UNL     1     -62.285  -2.564  -0.123  1.00  0.00     0.000 C 
BRANCH   6   7
ATOM      7  C   UNL     1     -62.074  -2.777  -1.629  1.00  0.00     0.000 C 
BRANCH   7   8
ATOM      8  C   UNL     1     -61.274  -1.638  -2.286  1.00  0.00     0.006 C 
BRANCH   8   9
ATOM      9  C   UNL     1     -60.208  -1.007  -1.375  1.00  0.00     0.053 C 
BRANCH   9  10
ATOM     10  C   UNL     1     -58.845  -1.566  -1.638  1.00  0.00     0.041 C 
ATOM     11  O   UNL     1     -57.950  -1.497  -0.754  1.00  0.00    -0.550 OA
ATOM     12  O   UNL     1     -58.570  -2.193  -2.847  1.00  0.00    -0.550 OA
ENDBRANCH   9  10
ENDBRANCH   8   9
ENDBRANCH   7   8
ENDBRANCH   6   7
ENDBRANCH   5   6
ENDBRANCH   4   5
ENDBRANCH   3   4
ENDBRANCH   1   3
BRANCH   2  13
ATOM     13  C   UNL     1     -64.739  -0.489  -2.513  1.00  0.00     0.027 C 
BRANCH  13  14
ATOM     14  C   UNL     1     -64.022   0.434  -3.511  1.00  0.00     0.004 C 
BRANCH  14  15
ATOM     15  C   UNL     1     -64.597   1.858  -3.497  1.00  0.00     0.000 C 
BRANCH  15  16
ATOM     16  C   UNL     1     -63.487   2.897  -3.282  1.00  0.00     0.000 C 
BRANCH  16  17
ATOM     17  C   UNL     1     -62.349   2.372  -2.392  1.00  0.00    -0.000 C 
BRANCH  17  18
ATOM     18  C   UNL     1     -62.552   2.717  -0.908  1.00  0.00    -0.000 C 
BRANCH  18  19
ATOM     19  C   UNL     1     -61.373   2.217  -0.064  1.00  0.00    -0.003 C 
ATOM     20  C   UNL     1     -61.698   2.275   1.426  1.00  0.00     0.004 C 
ENDBRANCH  18  19
ENDBRANCH  17  18
ENDBRANCH  16  17
ENDBRANCH  15  16
ENDBRANCH  14  15
ENDBRANCH  13  14
ENDBRANCH   2  13
TORSDOF 15
ENDMDL
MODEL 9
REMARK VINA RESULT:    -5.555      1.678      3.186
REMARK INTER + INTRA:         -13.403
REMARK INTER:                 -10.669
REMARK INTRA:                  -2.735
REMARK UNBOUND:                -2.978
REMARK SMILES CCCCCCCCC=CCCCCCCCC(=O)[O-]
REMARK SMILES IDX 10 1 9 2 11 3 12 4 13 5 14 6 15 7 16 8 17 9 18 10 19 11
REMARK SMILES IDX 20 12 8 13 7 14 6 15 5 16 4 17 3 18 2 19 1 20
REMARK H PARENT
REMARK Flexibility Score: inf
ROOT
ATOM      1  C   UNL     1     -65.436  -0.038  -2.710  1.00  0.00    -0.031 C 
ATOM      2  C   UNL     1     -65.772  -0.110  -1.409  1.00  0.00    -0.031 C 
ENDROOT
BRANCH   1   3
ATOM      3  C   UNL     1     -64.202   0.643  -3.254  1.00  0.00     0.027 C 
BRANCH   3   4
ATOM      4  C   UNL     1     -64.493   2.099  -3.642  1.00  0.00     0.004 C 
BRANCH   4   5
ATOM      5  C   UNL     1     -63.895   3.095  -2.638  1.00  0.00     0.000 C 
BRANCH   5   6
ATOM      6  C   UNL     1     -62.447   2.726  -2.292  1.00  0.00     0.000 C 
BRANCH   6   7
ATOM      7  C   UNL     1     -62.224   2.751  -0.773  1.00  0.00     0.000 C 
BRANCH   7   8
ATOM      8  C   UNL     1     -61.515   1.486  -0.254  1.00  0.00     0.006 C 
BRANCH   8   9
ATOM      9  C   UNL     1     -60.563   0.834  -1.270  1.00  0.00     0.053 C 
BRANCH   9  10
ATOM     10  C   UNL     1     -59.134   1.200  -1.014  1.00  0.00     0.041 C 
ATOM     11  O   UNL     1     -58.833   1.931  -0.033  1.00  0.00    -0.550 OA
ATOM     12  O   UNL     1     -58.130   0.707  -1.838  1.00  0.00    -0.550 OA
ENDBRANCH   9  10
ENDBRANCH   8   9
ENDBRANCH   7   8
ENDBRANCH   6   7
ENDBRANCH   5   6
ENDBRANCH   4   5
ENDBRANCH   3   4
ENDBRANCH   1   3
BRANCH   2  13
ATOM     13  C   UNL     1     -64.939   0.426  -0.271  1.00  0.00     0.027 C 
BRANCH  13  14
ATOM     14  C   UNL     1     -64.888  -0.546   0.918  1.00  0.00     0.004 C 
BRANCH  14  15
ATOM     15  C   UNL     1     -63.560  -1.316   0.977  1.00  0.00     0.000 C 
BRANCH  15  16
ATOM     16  C   UNL     1     -63.778  -2.810   0.694  1.00  0.00     0.000 C 
BRANCH  16  17
ATOM     17  C   UNL     1     -63.898  -3.118  -0.807  1.00  0.00    -0.000 C 
BRANCH  17  18
ATOM     18  C   UNL     1     -62.683  -2.627  -1.610  1.00  0.00    -0.000 C 
BRANCH  18  19
ATOM     19  C   UNL     1     -62.929  -2.770  -3.117  1.00  0.00    -0.003 C 
ATOM     20  C   UNL     1     -61.615  -2.920  -3.878  1.00  0.00     0.004 C 
ENDBRANCH  18  19
ENDBRANCH  17  18
ENDBRANCH  16  17
ENDBRANCH  15  16
ENDBRANCH  14  15
ENDBRANCH  13  14
ENDBRANCH   2  13
TORSDOF 15
ENDMDL
