MODEL 1
REMARK VINA RESULT:    -7.906      0.000      0.000
REMARK INTER + INTRA:          -9.951
REMARK INTER:                  -9.524
REMARK INTRA:                  -0.427
REMARK UNBOUND:                -0.427
REMARK SMILES O=c1c(O)c(-c2ccc(O)cc2O)oc2cc(O)cc(O)c12
REMARK SMILES IDX 5 1 3 2 2 3 1 4 22 5 20 6 19 7 17 8 16 9 15 10 14 11 6 12
REMARK SMILES IDX 8 13 7 14 9 15 11 16 12 17 10 18 13 20 4 22 21 24 18 26
REMARK H PARENT 10 19 13 21 4 23 21 25 18 27
REMARK Flexibility Score: inf
ROOT
ATOM      1  C   UNL     1      17.040   9.462  79.476  1.00  0.00     0.184 A 
ATOM      2  C   UNL     1      18.055   8.670  80.043  1.00  0.00     0.208 A 
ATOM      3  C   UNL     1      19.019   8.099  79.199  1.00  0.00     0.238 A 
ATOM      4  O   UNL     1      19.928   7.377  79.695  1.00  0.00    -0.285 OA
ATOM      5  C   UNL     1      18.963   8.344  77.812  1.00  0.00     0.111 A 
ATOM      6  C   UNL     1      19.898   7.809  76.892  1.00  0.00     0.134 A 
ATOM      7  C   UNL     1      19.780   8.108  75.527  1.00  0.00     0.093 A 
ATOM      8  C   UNL     1      18.747   8.931  75.065  1.00  0.00     0.123 A 
ATOM      9  C   UNL     1      17.823   9.460  75.967  1.00  0.00     0.094 A 
ATOM     10  C   UNL     1      17.922   9.173  77.331  1.00  0.00     0.146 A 
ATOM     11  O   UNL     1      17.026   9.687  78.167  1.00  0.00    -0.451 OA
ENDROOT
BRANCH   1  12
ATOM     12  C   UNL     1      15.988  10.084  80.307  1.00  0.00     0.063 A 
ATOM     13  C   UNL     1      15.339  11.823  81.879  1.00  0.00     0.047 A 
ATOM     14  C   UNL     1      16.312  11.206  81.087  1.00  0.00     0.020 A 
ATOM     15  C   UNL     1      14.027  11.333  81.889  1.00  0.00     0.119 A 
ATOM     16  C   UNL     1      13.691  10.232  81.098  1.00  0.00     0.093 A 
ATOM     17  C   UNL     1      14.659   9.611  80.295  1.00  0.00     0.130 A 
BRANCH  15  18
ATOM     18  O   UNL     1      13.051  11.938  82.678  1.00  0.00    -0.508 OA
ATOM     19  H   UNL     1      12.064  11.813  82.488  1.00  0.00     0.293 HD
ENDBRANCH  15  18
BRANCH  17  20
ATOM     20  O   UNL     1      14.299   8.543  79.473  1.00  0.00    -0.507 OA
ATOM     21  H   UNL     1      13.951   7.672  79.856  1.00  0.00     0.293 HD
ENDBRANCH  17  20
ENDBRANCH   1  12
BRANCH   2  22
ATOM     22  O   UNL     1      18.109   8.483  81.427  1.00  0.00    -0.502 OA
ATOM     23  H   UNL     1      18.982   8.342  81.922  1.00  0.00     0.293 HD
ENDBRANCH   2  22
BRANCH   6  24
ATOM     24  O   UNL     1      20.939   6.986  77.325  1.00  0.00    -0.507 OA
ATOM     25  H   UNL     1      20.813   6.319  78.077  1.00  0.00     0.293 HD
ENDBRANCH   6  24
BRANCH   8  26
ATOM     26  O   UNL     1      18.630   9.228  73.709  1.00  0.00    -0.508 OA
ATOM     27  H   UNL     1      19.446   9.370  73.125  1.00  0.00     0.293 HD
ENDBRANCH   8  26
TORSDOF 6
ENDMDL
MODEL 2
REMARK VINA RESULT:    -7.894      2.273      3.752
REMARK INTER + INTRA:          -9.935
REMARK INTER:                  -9.514
REMARK INTRA:                  -0.422
REMARK UNBOUND:                -0.427
REMARK SMILES O=c1c(O)c(-c2ccc(O)cc2O)oc2cc(O)cc(O)c12
REMARK SMILES IDX 5 1 3 2 2 3 1 4 22 5 20 6 19 7 17 8 16 9 15 10 14 11 6 12
REMARK SMILES IDX 8 13 7 14 9 15 11 16 12 17 10 18 13 20 4 22 21 24 18 26
REMARK H PARENT 10 19 13 21 4 23 21 25 18 27
REMARK Flexibility Score: inf
ROOT
ATOM      1  C   UNL     1      14.066  10.069  81.605  1.00  0.00     0.184 A 
ATOM      2  C   UNL     1      15.013   9.393  82.394  1.00  0.00     0.208 A 
ATOM      3  C   UNL     1      16.216   8.978  81.803  1.00  0.00     0.238 A 
ATOM      4  O   UNL     1      17.068   8.360  82.498  1.00  0.00    -0.285 OA
ATOM      5  C   UNL     1      16.457   9.262  80.444  1.00  0.00     0.111 A 
ATOM      6  C   UNL     1      17.644   8.883  79.772  1.00  0.00     0.134 A 
ATOM      7  C   UNL     1      17.814   9.212  78.419  1.00  0.00     0.093 A 
ATOM      8  C   UNL     1      16.820   9.912  77.726  1.00  0.00     0.123 A 
ATOM      9  C   UNL     1      15.648  10.289  78.384  1.00  0.00     0.094 A 
ATOM     10  C   UNL     1      15.459   9.969  79.731  1.00  0.00     0.146 A 
ATOM     11  O   UNL     1      14.332  10.335  80.331  1.00  0.00    -0.451 OA
ENDROOT
BRANCH   1  12
ATOM     12  C   UNL     1      12.775  10.523  82.163  1.00  0.00     0.063 A 
ATOM     13  C   UNL     1      11.554  12.094  83.561  1.00  0.00     0.047 A 
ATOM     14  C   UNL     1      12.759  11.634  83.021  1.00  0.00     0.020 A 
ATOM     15  C   UNL     1      10.350  11.457  83.238  1.00  0.00     0.119 A 
ATOM     16  C   UNL     1      10.355  10.365  82.366  1.00  0.00     0.093 A 
ATOM     17  C   UNL     1      11.558   9.901  81.814  1.00  0.00     0.130 A 
BRANCH  15  18
ATOM     18  O   UNL     1       9.145  11.905  83.774  1.00  0.00    -0.508 OA
ATOM     19  H   UNL     1       9.034  12.855  84.107  1.00  0.00     0.293 HD
ENDBRANCH  15  18
BRANCH  17  20
ATOM     20  O   UNL     1      11.543   8.841  80.907  1.00  0.00    -0.507 OA
ATOM     21  H   UNL     1      10.696   8.317  80.717  1.00  0.00     0.293 HD
ENDBRANCH  17  20
ENDBRANCH   1  12
BRANCH   2  22
ATOM     22  O   UNL     1      14.763   9.165  83.751  1.00  0.00    -0.502 OA
ATOM     23  H   UNL     1      13.865   8.841  84.090  1.00  0.00     0.293 HD
ENDBRANCH   2  22
BRANCH   6  24
ATOM     24  O   UNL     1      18.653   8.184  80.437  1.00  0.00    -0.507 OA
ATOM     25  H   UNL     1      18.617   8.021  81.437  1.00  0.00     0.293 HD
ENDBRANCH   6  24
BRANCH   8  26
ATOM     26  O   UNL     1      16.989  10.240  76.383  1.00  0.00    -0.508 OA
ATOM     27  H   UNL     1      16.632  11.108  76.000  1.00  0.00     0.293 HD
ENDBRANCH   8  26
TORSDOF 6
ENDMDL
MODEL 3
REMARK VINA RESULT:    -7.821      3.094      7.955
REMARK INTER + INTRA:          -9.848
REMARK INTER:                  -9.420
REMARK INTRA:                  -0.428
REMARK UNBOUND:                -0.427
REMARK SMILES O=c1c(O)c(-c2ccc(O)cc2O)oc2cc(O)cc(O)c12
REMARK SMILES IDX 5 1 3 2 2 3 1 4 22 5 20 6 19 7 17 8 16 9 15 10 14 11 6 12
REMARK SMILES IDX 8 13 7 14 9 15 11 16 12 17 10 18 13 20 4 22 21 24 18 26
REMARK H PARENT 10 19 13 21 4 23 21 25 18 27
REMARK Flexibility Score: inf
ROOT
ATOM      1  C   UNL     1      19.732   6.180  76.241  1.00  0.00     0.184 A 
ATOM      2  C   UNL     1      19.280   7.221  75.410  1.00  0.00     0.208 A 
ATOM      3  C   UNL     1      18.652   8.331  75.995  1.00  0.00     0.238 A 
ATOM      4  O   UNL     1      18.232   9.265  75.258  1.00  0.00    -0.285 OA
ATOM      5  C   UNL     1      18.505   8.390  77.395  1.00  0.00     0.111 A 
ATOM      6  C   UNL     1      17.888   9.474  78.065  1.00  0.00     0.134 A 
ATOM      7  C   UNL     1      17.788   9.463  79.464  1.00  0.00     0.093 A 
ATOM      8  C   UNL     1      18.295   8.389  80.205  1.00  0.00     0.123 A 
ATOM      9  C   UNL     1      18.904   7.318  79.551  1.00  0.00     0.094 A 
ATOM     10  C   UNL     1      19.012   7.309  78.157  1.00  0.00     0.146 A 
ATOM     11  O   UNL     1      19.592   6.275  77.559  1.00  0.00    -0.451 OA
ENDROOT
BRANCH   1  12
ATOM     12  C   UNL     1      20.391   4.979  75.689  1.00  0.00     0.063 A 
ATOM     13  C   UNL     1      22.380   3.954  74.736  1.00  0.00     0.047 A 
ATOM     14  C   UNL     1      21.723   5.072  75.257  1.00  0.00     0.020 A 
ATOM     15  C   UNL     1      21.714   2.724  74.654  1.00  0.00     0.119 A 
ATOM     16  C   UNL     1      20.396   2.617  75.103  1.00  0.00     0.093 A 
ATOM     17  C   UNL     1      19.732   3.732  75.634  1.00  0.00     0.130 A 
BRANCH  15  18
ATOM     18  O   UNL     1      22.358   1.604  74.132  1.00  0.00    -0.508 OA
ATOM     19  H   UNL     1      23.053   1.685  73.400  1.00  0.00     0.293 HD
ENDBRANCH  15  18
BRANCH  17  20
ATOM     20  O   UNL     1      18.432   3.600  76.124  1.00  0.00    -0.507 OA
ATOM     21  H   UNL     1      17.699   3.169  75.573  1.00  0.00     0.293 HD
ENDBRANCH  17  20
ENDBRANCH   1  12
BRANCH   2  22
ATOM     22  O   UNL     1      19.480   7.154  74.029  1.00  0.00    -0.502 OA
ATOM     23  H   UNL     1      19.350   7.955  73.422  1.00  0.00     0.293 HD
ENDBRANCH   2  22
BRANCH   6  24
ATOM     24  O   UNL     1      17.374  10.559  77.352  1.00  0.00    -0.507 OA
ATOM     25  H   UNL     1      17.979  11.264  76.946  1.00  0.00     0.293 HD
ENDBRANCH   6  24
BRANCH   8  26
ATOM     26  O   UNL     1      18.197   8.378  81.595  1.00  0.00    -0.508 OA
ATOM     27  H   UNL     1      17.348   8.084  82.065  1.00  0.00     0.293 HD
ENDBRANCH   8  26
TORSDOF 6
ENDMDL
MODEL 4
REMARK VINA RESULT:    -7.785      2.919      4.273
REMARK INTER + INTRA:          -9.805
REMARK INTER:                  -9.532
REMARK INTRA:                  -0.273
REMARK UNBOUND:                -0.427
REMARK SMILES O=c1c(O)c(-c2ccc(O)cc2O)oc2cc(O)cc(O)c12
REMARK SMILES IDX 5 1 3 2 2 3 1 4 22 5 20 6 19 7 17 8 16 9 15 10 14 11 6 12
REMARK SMILES IDX 8 13 7 14 9 15 11 16 12 17 10 18 13 20 4 22 21 24 18 26
REMARK H PARENT 10 19 13 21 4 23 21 25 18 27
REMARK Flexibility Score: inf
ROOT
ATOM      1  C   UNL     1      18.013   7.733  78.281  1.00  0.00     0.184 A 
ATOM      2  C   UNL     1      18.749   7.916  77.097  1.00  0.00     0.208 A 
ATOM      3  C   UNL     1      19.204   6.786  76.400  1.00  0.00     0.238 A 
ATOM      4  O   UNL     1      19.876   6.938  75.343  1.00  0.00    -0.285 OA
ATOM      5  C   UNL     1      18.899   5.499  76.887  1.00  0.00     0.111 A 
ATOM      6  C   UNL     1      19.316   4.308  76.244  1.00  0.00     0.134 A 
ATOM      7  C   UNL     1      18.964   3.064  76.787  1.00  0.00     0.093 A 
ATOM      8  C   UNL     1      18.204   2.988  77.960  1.00  0.00     0.123 A 
ATOM      9  C   UNL     1      17.791   4.158  78.597  1.00  0.00     0.094 A 
ATOM     10  C   UNL     1      18.132   5.408  78.074  1.00  0.00     0.146 A 
ATOM     11  O   UNL     1      17.730   6.505  78.704  1.00  0.00    -0.451 OA
ENDROOT
BRANCH   1  12
ATOM     12  C   UNL     1      17.514   8.880  79.068  1.00  0.00     0.063 A 
ATOM     13  C   UNL     1      16.197  10.922  79.157  1.00  0.00     0.047 A 
ATOM     14  C   UNL     1      16.692   9.828  78.441  1.00  0.00     0.020 A 
ATOM     15  C   UNL     1      16.508  11.072  80.514  1.00  0.00     0.119 A 
ATOM     16  C   UNL     1      17.308  10.119  81.152  1.00  0.00     0.093 A 
ATOM     17  C   UNL     1      17.803   9.016  80.443  1.00  0.00     0.130 A 
BRANCH  15  18
ATOM     18  O   UNL     1      16.024  12.160  81.237  1.00  0.00    -0.508 OA
ATOM     19  H   UNL     1      15.785  13.033  80.783  1.00  0.00     0.293 HD
ENDBRANCH  15  18
BRANCH  17  20
ATOM     20  O   UNL     1      18.559   8.047  81.103  1.00  0.00    -0.507 OA
ATOM     21  H   UNL     1      18.715   7.130  80.700  1.00  0.00     0.293 HD
ENDBRANCH  17  20
ENDBRANCH   1  12
BRANCH   2  22
ATOM     22  O   UNL     1      18.997   9.204  76.616  1.00  0.00    -0.502 OA
ATOM     23  H   UNL     1      18.556  10.026  77.013  1.00  0.00     0.293 HD
ENDBRANCH   2  22
BRANCH   6  24
ATOM     24  O   UNL     1      20.075   4.353  75.074  1.00  0.00    -0.507 OA
ATOM     25  H   UNL     1      21.043   4.051  75.054  1.00  0.00     0.293 HD
ENDBRANCH   6  24
BRANCH   8  26
ATOM     26  O   UNL     1      17.853   1.752  78.499  1.00  0.00    -0.508 OA
ATOM     27  H   UNL     1      16.930   1.356  78.362  1.00  0.00     0.293 HD
ENDBRANCH   8  26
TORSDOF 6
ENDMDL
MODEL 5
REMARK VINA RESULT:    -7.743      4.328      5.460
REMARK INTER + INTRA:          -9.755
REMARK INTER:                  -9.541
REMARK INTRA:                  -0.214
REMARK UNBOUND:                -0.427
REMARK SMILES O=c1c(O)c(-c2ccc(O)cc2O)oc2cc(O)cc(O)c12
REMARK SMILES IDX 5 1 3 2 2 3 1 4 22 5 20 6 19 7 17 8 16 9 15 10 14 11 6 12
REMARK SMILES IDX 8 13 7 14 9 15 11 16 12 17 10 18 13 20 4 22 21 24 18 26
REMARK H PARENT 10 19 13 21 4 23 21 25 18 27
REMARK Flexibility Score: inf
ROOT
ATOM      1  C   UNL     1      17.713   4.822  79.953  1.00  0.00     0.184 A 
ATOM      2  C   UNL     1      18.371   6.051  80.136  1.00  0.00     0.208 A 
ATOM      3  C   UNL     1      19.243   6.509  79.136  1.00  0.00     0.238 A 
ATOM      4  O   UNL     1      19.848   7.605  79.295  1.00  0.00    -0.285 OA
ATOM      5  C   UNL     1      19.426   5.742  77.968  1.00  0.00     0.111 A 
ATOM      6  C   UNL     1      20.284   6.132  76.911  1.00  0.00     0.134 A 
ATOM      7  C   UNL     1      20.405   5.318  75.776  1.00  0.00     0.093 A 
ATOM      8  C   UNL     1      19.685   4.122  75.677  1.00  0.00     0.123 A 
ATOM      9  C   UNL     1      18.838   3.732  76.715  1.00  0.00     0.094 A 
ATOM     10  C   UNL     1      18.705   4.529  77.856  1.00  0.00     0.146 A 
ATOM     11  O   UNL     1      17.896   4.132  78.832  1.00  0.00    -0.451 OA
ENDROOT
BRANCH   1  12
ATOM     12  C   UNL     1      16.790   4.278  80.970  1.00  0.00     0.063 A 
ATOM     13  C   UNL     1      14.849   4.601  82.399  1.00  0.00     0.047 A 
ATOM     14  C   UNL     1      15.744   5.087  81.441  1.00  0.00     0.020 A 
ATOM     15  C   UNL     1      14.982   3.296  82.887  1.00  0.00     0.119 A 
ATOM     16  C   UNL     1      16.007   2.476  82.407  1.00  0.00     0.093 A 
ATOM     17  C   UNL     1      16.906   2.953  81.441  1.00  0.00     0.130 A 
BRANCH  15  18
ATOM     18  O   UNL     1      14.098   2.803  83.844  1.00  0.00    -0.508 OA
ATOM     19  H   UNL     1      14.422   2.247  84.627  1.00  0.00     0.293 HD
ENDBRANCH  15  18
BRANCH  17  20
ATOM     20  O   UNL     1      17.894   2.109  80.935  1.00  0.00    -0.507 OA
ATOM     21  H   UNL     1      18.515   2.405  80.190  1.00  0.00     0.293 HD
ENDBRANCH  17  20
ENDBRANCH   1  12
BRANCH   2  22
ATOM     22  O   UNL     1      18.134   6.810  81.285  1.00  0.00    -0.502 OA
ATOM     23  H   UNL     1      18.690   6.708  82.127  1.00  0.00     0.293 HD
ENDBRANCH   2  22
BRANCH   6  24
ATOM     24  O   UNL     1      21.014   7.320  76.982  1.00  0.00    -0.507 OA
ATOM     25  H   UNL     1      20.599   8.215  76.750  1.00  0.00     0.293 HD
ENDBRANCH   6  24
BRANCH   8  26
ATOM     26  O   UNL     1      19.804   3.313  74.549  1.00  0.00    -0.508 OA
ATOM     27  H   UNL     1      20.641   3.321  73.977  1.00  0.00     0.293 HD
ENDBRANCH   8  26
TORSDOF 6
ENDMDL
MODEL 6
REMARK VINA RESULT:    -7.721      3.794      8.523
REMARK INTER + INTRA:          -9.727
REMARK INTER:                  -9.314
REMARK INTRA:                  -0.413
REMARK UNBOUND:                -0.427
REMARK SMILES O=c1c(O)c(-c2ccc(O)cc2O)oc2cc(O)cc(O)c12
REMARK SMILES IDX 5 1 3 2 2 3 1 4 22 5 20 6 19 7 17 8 16 9 15 10 14 11 6 12
REMARK SMILES IDX 8 13 7 14 9 15 11 16 12 17 10 18 13 20 4 22 21 24 18 26
REMARK H PARENT 10 19 13 21 4 23 21 25 18 27
REMARK Flexibility Score: inf
ROOT
ATOM      1  C   UNL     1      19.204   5.010  76.128  1.00  0.00     0.184 A 
ATOM      2  C   UNL     1      18.090   5.525  75.443  1.00  0.00     0.208 A 
ATOM      3  C   UNL     1      17.254   6.441  76.099  1.00  0.00     0.238 A 
ATOM      4  O   UNL     1      16.244   6.901  75.499  1.00  0.00    -0.285 OA
ATOM      5  C   UNL     1      17.558   6.840  77.417  1.00  0.00     0.111 A 
ATOM      6  C   UNL     1      16.771   7.761  78.150  1.00  0.00     0.134 A 
ATOM      7  C   UNL     1      17.145   8.114  79.454  1.00  0.00     0.093 A 
ATOM      8  C   UNL     1      18.292   7.564  80.039  1.00  0.00     0.123 A 
ATOM      9  C   UNL     1      19.071   6.656  79.322  1.00  0.00     0.094 A 
ATOM     10  C   UNL     1      18.714   6.289  78.022  1.00  0.00     0.146 A 
ATOM     11  O   UNL     1      19.471   5.419  77.364  1.00  0.00    -0.451 OA
ENDROOT
BRANCH   1  12
ATOM     12  C   UNL     1      20.118   4.034  75.498  1.00  0.00     0.063 A 
ATOM     13  C   UNL     1      20.556   1.743  74.811  1.00  0.00     0.047 A 
ATOM     14  C   UNL     1      19.720   2.691  75.407  1.00  0.00     0.020 A 
ATOM     15  C   UNL     1      21.796   2.130  74.288  1.00  0.00     0.119 A 
ATOM     16  C   UNL     1      22.190   3.469  74.354  1.00  0.00     0.093 A 
ATOM     17  C   UNL     1      21.354   4.428  74.944  1.00  0.00     0.130 A 
BRANCH  15  18
ATOM     18  O   UNL     1      22.640   1.192  73.696  1.00  0.00    -0.508 OA
ATOM     19  H   UNL     1      23.110   0.482  74.245  1.00  0.00     0.293 HD
ENDBRANCH  15  18
BRANCH  17  20
ATOM     20  O   UNL     1      21.738   5.769  74.959  1.00  0.00    -0.507 OA
ATOM     21  H   UNL     1      22.265   6.161  75.731  1.00  0.00     0.293 HD
ENDBRANCH  17  20
ENDBRANCH   1  12
BRANCH   2  22
ATOM     22  O   UNL     1      17.840   5.145  74.121  1.00  0.00    -0.502 OA
ATOM     23  H   UNL     1      17.055   5.506  73.592  1.00  0.00     0.293 HD
ENDBRANCH   2  22
BRANCH   6  24
ATOM     24  O   UNL     1      15.623   8.326  77.591  1.00  0.00    -0.507 OA
ATOM     25  H   UNL     1      15.192   9.155  77.984  1.00  0.00     0.293 HD
ENDBRANCH   6  24
BRANCH   8  26
ATOM     26  O   UNL     1      18.664   7.916  81.335  1.00  0.00    -0.508 OA
ATOM     27  H   UNL     1      18.362   8.787  81.756  1.00  0.00     0.293 HD
ENDBRANCH   8  26
TORSDOF 6
ENDMDL
MODEL 7
REMARK VINA RESULT:    -7.580      3.934      5.780
REMARK INTER + INTRA:          -9.557
REMARK INTER:                  -9.294
REMARK INTRA:                  -0.263
REMARK UNBOUND:                -0.427
REMARK SMILES O=c1c(O)c(-c2ccc(O)cc2O)oc2cc(O)cc(O)c12
REMARK SMILES IDX 5 1 3 2 2 3 1 4 22 5 20 6 19 7 17 8 16 9 15 10 14 11 6 12
REMARK SMILES IDX 8 13 7 14 9 15 11 16 12 17 10 18 13 20 4 22 21 24 18 26
REMARK H PARENT 10 19 13 21 4 23 21 25 18 27
REMARK Flexibility Score: inf
ROOT
ATOM      1  C   UNL     1      15.551   7.091  81.688  1.00  0.00     0.184 A 
ATOM      2  C   UNL     1      15.426   8.143  82.612  1.00  0.00     0.208 A 
ATOM      3  C   UNL     1      15.632   9.460  82.173  1.00  0.00     0.238 A 
ATOM      4  O   UNL     1      15.534  10.411  82.995  1.00  0.00    -0.285 OA
ATOM      5  C   UNL     1      15.938   9.701  80.818  1.00  0.00     0.111 A 
ATOM      6  C   UNL     1      16.157  10.998  80.292  1.00  0.00     0.134 A 
ATOM      7  C   UNL     1      16.448  11.156  78.929  1.00  0.00     0.093 A 
ATOM      8  C   UNL     1      16.524  10.044  78.083  1.00  0.00     0.123 A 
ATOM      9  C   UNL     1      16.310   8.764  78.596  1.00  0.00     0.094 A 
ATOM     10  C   UNL     1      16.020   8.584  79.952  1.00  0.00     0.146 A 
ATOM     11  O   UNL     1      15.826   7.355  80.415  1.00  0.00    -0.451 OA
ENDROOT
BRANCH   1  12
ATOM     12  C   UNL     1      15.359   5.682  82.087  1.00  0.00     0.063 A 
ATOM     13  C   UNL     1      13.936   3.982  83.088  1.00  0.00     0.047 A 
ATOM     14  C   UNL     1      14.154   5.308  82.703  1.00  0.00     0.020 A 
ATOM     15  C   UNL     1      14.916   3.011  82.849  1.00  0.00     0.119 A 
ATOM     16  C   UNL     1      16.109   3.370  82.215  1.00  0.00     0.093 A 
ATOM     17  C   UNL     1      16.333   4.697  81.820  1.00  0.00     0.130 A 
BRANCH  15  18
ATOM     18  O   UNL     1      14.711   1.687  83.232  1.00  0.00    -0.508 OA
ATOM     19  H   UNL     1      15.487   1.071  83.442  1.00  0.00     0.293 HD
ENDBRANCH  15  18
BRANCH  17  20
ATOM     20  O   UNL     1      17.507   5.032  81.145  1.00  0.00    -0.507 OA
ATOM     21  H   UNL     1      18.106   5.785  81.464  1.00  0.00     0.293 HD
ENDBRANCH  17  20
ENDBRANCH   1  12
BRANCH   2  22
ATOM     22  O   UNL     1      15.078   7.875  83.939  1.00  0.00    -0.502 OA
ATOM     23  H   UNL     1      15.686   8.104  84.717  1.00  0.00     0.293 HD
ENDBRANCH   2  22
BRANCH   6  24
ATOM     24  O   UNL     1      16.086  12.125  81.112  1.00  0.00    -0.507 OA
ATOM     25  H   UNL     1      15.243  12.361  81.622  1.00  0.00     0.293 HD
ENDBRANCH   6  24
BRANCH   8  26
ATOM     26  O   UNL     1      16.813  10.201  76.730  1.00  0.00    -0.508 OA
ATOM     27  H   UNL     1      17.124   9.423  76.160  1.00  0.00     0.293 HD
ENDBRANCH   8  26
TORSDOF 6
ENDMDL
MODEL 8
REMARK VINA RESULT:    -7.538      2.332      7.476
REMARK INTER + INTRA:          -9.507
REMARK INTER:                  -9.096
REMARK INTRA:                  -0.411
REMARK UNBOUND:                -0.427
REMARK SMILES O=c1c(O)c(-c2ccc(O)cc2O)oc2cc(O)cc(O)c12
REMARK SMILES IDX 5 1 3 2 2 3 1 4 22 5 20 6 19 7 17 8 16 9 15 10 14 11 6 12
REMARK SMILES IDX 8 13 7 14 9 15 11 16 12 17 10 18 13 20 4 22 21 24 18 26
REMARK H PARENT 10 19 13 21 4 23 21 25 18 27
REMARK Flexibility Score: inf
ROOT
ATOM      1  C   UNL     1      18.964   7.164  77.117  1.00  0.00     0.184 A 
ATOM      2  C   UNL     1      18.366   8.196  76.374  1.00  0.00     0.208 A 
ATOM      3  C   UNL     1      17.719   9.237  77.057  1.00  0.00     0.238 A 
ATOM      4  O   UNL     1      17.168  10.163  76.401  1.00  0.00    -0.285 OA
ATOM      5  C   UNL     1      17.699   9.236  78.467  1.00  0.00     0.111 A 
ATOM      6  C   UNL     1      17.071  10.249  79.234  1.00  0.00     0.134 A 
ATOM      7  C   UNL     1      17.103  10.182  80.634  1.00  0.00     0.093 A 
ATOM      8  C   UNL     1      17.749   9.123  81.282  1.00  0.00     0.123 A 
ATOM      9  C   UNL     1      18.368   8.123  80.532  1.00  0.00     0.094 A 
ATOM     10  C   UNL     1      18.347   8.170  79.135  1.00  0.00     0.146 A 
ATOM     11  O   UNL     1      18.940   7.202  78.446  1.00  0.00    -0.451 OA
ENDROOT
BRANCH   1  12
ATOM     12  C   UNL     1      19.651   6.033  76.460  1.00  0.00     0.063 A 
ATOM     13  C   UNL     1      19.524   3.813  75.474  1.00  0.00     0.047 A 
ATOM     14  C   UNL     1      18.906   4.898  76.104  1.00  0.00     0.020 A 
ATOM     15  C   UNL     1      20.892   3.857  75.181  1.00  0.00     0.119 A 
ATOM     16  C   UNL     1      21.637   4.993  75.511  1.00  0.00     0.093 A 
ATOM     17  C   UNL     1      21.024   6.088  76.137  1.00  0.00     0.130 A 
BRANCH  15  18
ATOM     18  O   UNL     1      21.519   2.780  74.558  1.00  0.00    -0.508 OA
ATOM     19  H   UNL     1      21.711   1.919  75.055  1.00  0.00     0.293 HD
ENDBRANCH  15  18
BRANCH  17  20
ATOM     20  O   UNL     1      21.768   7.235  76.416  1.00  0.00    -0.507 OA
ATOM     21  H   UNL     1      21.828   7.613  77.355  1.00  0.00     0.293 HD
ENDBRANCH  17  20
ENDBRANCH   1  12
BRANCH   2  22
ATOM     22  O   UNL     1      18.442   8.192  74.978  1.00  0.00    -0.502 OA
ATOM     23  H   UNL     1      17.896   8.823  74.403  1.00  0.00     0.293 HD
ENDBRANCH   2  22
BRANCH   6  24
ATOM     24  O   UNL     1      16.419  11.317  78.614  1.00  0.00    -0.507 OA
ATOM     25  H   UNL     1      15.612  11.174  78.018  1.00  0.00     0.293 HD
ENDBRANCH   6  24
BRANCH   8  26
ATOM     26  O   UNL     1      17.781   9.057  82.673  1.00  0.00    -0.508 OA
ATOM     27  H   UNL     1      17.424   9.811  83.248  1.00  0.00     0.293 HD
ENDBRANCH   8  26
TORSDOF 6
ENDMDL
MODEL 9
REMARK VINA RESULT:    -7.454      2.155      3.161
REMARK INTER + INTRA:          -9.406
REMARK INTER:                  -8.999
REMARK INTRA:                  -0.407
REMARK UNBOUND:                -0.427
REMARK SMILES O=c1c(O)c(-c2ccc(O)cc2O)oc2cc(O)cc(O)c12
REMARK SMILES IDX 5 1 3 2 2 3 1 4 22 5 20 6 19 7 17 8 16 9 15 10 14 11 6 12
REMARK SMILES IDX 8 13 7 14 9 15 11 16 12 17 10 18 13 20 4 22 21 24 18 26
REMARK H PARENT 10 19 13 21 4 23 21 25 18 27
REMARK Flexibility Score: inf
ROOT
ATOM      1  C   UNL     1      17.236   8.529  78.691  1.00  0.00     0.184 A 
ATOM      2  C   UNL     1      16.191   7.695  78.256  1.00  0.00     0.208 A 
ATOM      3  C   UNL     1      16.415   6.841  77.165  1.00  0.00     0.238 A 
ATOM      4  O   UNL     1      15.481   6.096  76.759  1.00  0.00    -0.285 OA
ATOM      5  C   UNL     1      17.680   6.823  76.544  1.00  0.00     0.111 A 
ATOM      6  C   UNL     1      17.990   5.991  75.441  1.00  0.00     0.134 A 
ATOM      7  C   UNL     1      19.276   6.024  74.884  1.00  0.00     0.093 A 
ATOM      8  C   UNL     1      20.258   6.873  75.408  1.00  0.00     0.123 A 
ATOM      9  C   UNL     1      19.958   7.695  76.494  1.00  0.00     0.094 A 
ATOM     10  C   UNL     1      18.681   7.679  77.063  1.00  0.00     0.146 A 
ATOM     11  O   UNL     1      18.422   8.476  78.093  1.00  0.00    -0.451 OA
ENDROOT
BRANCH   1  12
ATOM     12  C   UNL     1      17.064   9.459  79.827  1.00  0.00     0.063 A 
ATOM     13  C   UNL     1      16.043  11.476  80.724  1.00  0.00     0.047 A 
ATOM     14  C   UNL     1      16.234  10.580  79.668  1.00  0.00     0.020 A 
ATOM     15  C   UNL     1      16.670  11.254  81.956  1.00  0.00     0.119 A 
ATOM     16  C   UNL     1      17.479  10.128  82.130  1.00  0.00     0.093 A 
ATOM     17  C   UNL     1      17.671   9.220  81.078  1.00  0.00     0.130 A 
BRANCH  15  18
ATOM     18  O   UNL     1      16.491  12.143  83.013  1.00  0.00    -0.508 OA
ATOM     19  H   UNL     1      17.277  12.602  83.458  1.00  0.00     0.293 HD
ENDBRANCH  15  18
BRANCH  17  20
ATOM     20  O   UNL     1      18.442   8.075  81.280  1.00  0.00    -0.507 OA
ATOM     21  H   UNL     1      18.594   7.400  80.539  1.00  0.00     0.293 HD
ENDBRANCH  17  20
ENDBRANCH   1  12
BRANCH   2  22
ATOM     22  O   UNL     1      14.962   7.703  78.922  1.00  0.00    -0.502 OA
ATOM     23  H   UNL     1      14.186   7.117  78.636  1.00  0.00     0.293 HD
ENDBRANCH   2  22
BRANCH   6  24
ATOM     24  O   UNL     1      17.031   5.134  74.898  1.00  0.00    -0.507 OA
ATOM     25  H   UNL     1      16.067   5.148  75.210  1.00  0.00     0.293 HD
ENDBRANCH   6  24
BRANCH   8  26
ATOM     26  O   UNL     1      21.536   6.906  74.854  1.00  0.00    -0.508 OA
ATOM     27  H   UNL     1      21.853   6.191  74.209  1.00  0.00     0.293 HD
ENDBRANCH   8  26
TORSDOF 6
ENDMDL
