MODEL 1
REMARK VINA RESULT:   129.950      0.000      0.000
REMARK INTER + INTRA:         141.221
REMARK INTER:                 141.345
REMARK INTRA:                  -0.123
REMARK UNBOUND:                -0.123
REMARK SMILES CC1(C)CC[C@]2(C(=O)[O-])CC[C@@]3(C)C(=CC[C@H]4[C@]5(C)CC[C@@H](O)C(C)(C)[C@H]5CC[C@@]43C)[C@@H]2C1
REMARK SMILES IDX 6 1 5 2 10 3 32 4 4 5 11 6 14 7 33 8 2 9 12 10 15 11 1 12
REMARK SMILES IDX 3 13 13 14 30 15 16 16 17 17 29 18 31 19 18 20 28 21 27 22
REMARK SMILES IDX 20 23 19 24 24 25 21 26 22 27 25 28 26 29 7 30 8 31 9 32
REMARK SMILES IDX 23 33
REMARK H PARENT 23 34
REMARK Flexibility Score: inf
ROOT
ATOM      1  C   UNL     1      45.097 -23.290  -0.666  1.00  0.00     0.017 C 
ATOM      2  C   UNL     1      46.125 -23.878   0.376  1.00  0.00     0.014 C 
ATOM      3  C   UNL     1      44.758 -21.802  -0.254  1.00  0.00     0.014 C 
ATOM      4  C   UNL     1      43.820 -24.210  -0.703  1.00  0.00     0.028 C 
ATOM      5  C   UNL     1      46.044 -25.410   0.468  1.00  0.00     0.007 C 
ATOM      6  C   UNL     1      43.282 -21.527   0.107  1.00  0.00     0.013 C 
ATOM      7  C   UNL     1      42.574 -23.526  -1.222  1.00  0.00    -0.064 C 
ATOM      8  C   UNL     1      43.538 -24.884   0.670  1.00  0.00     0.015 C 
ATOM      9  C   UNL     1      44.658 -25.892   1.027  1.00  0.00    -0.035 C 
ATOM     10  C   UNL     1      42.289 -22.032  -0.998  1.00  0.00    -0.006 C 
ATOM     11  C   UNL     1      41.699 -24.294  -1.893  1.00  0.00    -0.027 C 
ATOM     12  C   UNL     1      44.323 -27.277   0.405  1.00  0.00     0.011 C 
ATOM     13  C   UNL     1      44.745 -26.025   2.561  1.00  0.00     0.011 C 
ATOM     14  C   UNL     1      42.657 -21.282  -2.314  1.00  0.00     0.017 C 
ATOM     15  C   UNL     1      40.744 -21.826  -0.600  1.00  0.00    -0.020 C 
ATOM     16  C   UNL     1      40.235 -24.132  -1.665  1.00  0.00     0.032 C 
ATOM     17  C   UNL     1      39.851 -22.631  -1.661  1.00  0.00     0.006 C 
ATOM     18  C   UNL     1      40.340 -20.326  -0.620  1.00  0.00     0.008 C 
ATOM     19  C   UNL     1      40.510 -22.332   0.871  1.00  0.00     0.012 C 
ATOM     20  C   UNL     1      38.289 -22.363  -1.712  1.00  0.00    -0.025 C 
ATOM     21  C   UNL     1      38.815 -20.107  -0.524  1.00  0.00     0.005 C 
ATOM     22  C   UNL     1      38.084 -20.802  -1.705  1.00  0.00     0.003 C 
ATOM     23  C   UNL     1      37.686 -22.952  -3.073  1.00  0.00     0.010 C 
ATOM     24  C   UNL     1      37.563 -23.058  -0.497  1.00  0.00     0.012 C 
ATOM     25  C   UNL     1      36.605 -20.309  -2.032  1.00  0.00    -0.006 C 
ATOM     26  C   UNL     1      37.073 -21.927  -4.030  1.00  0.00     0.033 C 
ATOM     27  C   UNL     1      36.054 -21.006  -3.337  1.00  0.00     0.120 C 
ATOM     28  C   UNL     1      36.653 -18.773  -2.327  1.00  0.00     0.014 C 
ATOM     29  C   UNL     1      35.627 -20.496  -0.851  1.00  0.00     0.014 C 
ENDROOT
BRANCH   1  30
ATOM     30  C   UNL     1      45.803 -23.286  -2.023  1.00  0.00     0.048 C 
ATOM     31  O   UNL     1      46.121 -22.234  -2.624  1.00  0.00    -0.550 OA
ATOM     32  O   UNL     1      46.125 -24.493  -2.613  1.00  0.00    -0.550 OA
ENDBRANCH   1  30
BRANCH  27  33
ATOM     33  O   UNL     1      34.880 -21.743  -3.097  1.00  0.00    -0.393 OA
ATOM     34  H   UNL     1      34.166 -21.094  -2.810  1.00  0.00     0.210 HD
ENDBRANCH  27  33
TORSDOF 2
ENDMDL
MODEL 2
REMARK VINA RESULT:   131.520      1.736      2.526
REMARK INTER + INTRA:         142.930
REMARK INTER:                 143.161
REMARK INTRA:                  -0.231
REMARK UNBOUND:                -0.123
REMARK SMILES CC1(C)CC[C@]2(C(=O)[O-])CC[C@@]3(C)C(=CC[C@H]4[C@]5(C)CC[C@@H](O)C(C)(C)[C@H]5CC[C@@]43C)[C@@H]2C1
REMARK SMILES IDX 6 1 5 2 10 3 32 4 4 5 11 6 14 7 33 8 2 9 12 10 15 11 1 12
REMARK SMILES IDX 3 13 13 14 30 15 16 16 17 17 29 18 31 19 18 20 28 21 27 22
REMARK SMILES IDX 20 23 19 24 24 25 21 26 22 27 25 28 26 29 7 30 8 31 9 32
REMARK SMILES IDX 23 33
REMARK H PARENT 23 34
REMARK Flexibility Score: inf
ROOT
ATOM      1  C   UNL     1      45.105 -24.448  -1.175  1.00  0.00     0.017 C 
ATOM      2  C   UNL     1      46.123 -25.408  -0.447  1.00  0.00     0.014 C 
ATOM      3  C   UNL     1      45.625 -22.962  -1.033  1.00  0.00     0.014 C 
ATOM      4  C   UNL     1      43.674 -24.647  -0.551  1.00  0.00     0.028 C 
ATOM      5  C   UNL     1      45.456 -26.709   0.025  1.00  0.00     0.007 C 
ATOM      6  C   UNL     1      44.698 -21.999  -0.258  1.00  0.00     0.013 C 
ATOM      7  C   UNL     1      42.738 -23.475  -0.750  1.00  0.00    -0.064 C 
ATOM      8  C   UNL     1      43.736 -25.042   0.953  1.00  0.00     0.015 C 
ATOM      9  C   UNL     1      44.368 -26.446   1.126  1.00  0.00    -0.035 C 
ATOM     10  C   UNL     1      43.225 -22.018  -0.799  1.00  0.00    -0.006 C 
ATOM     11  C   UNL     1      41.431 -23.762  -0.876  1.00  0.00    -0.027 C 
ATOM     12  C   UNL     1      43.260 -27.530   1.002  1.00  0.00     0.011 C 
ATOM     13  C   UNL     1      45.022 -26.535   2.520  1.00  0.00     0.011 C 
ATOM     14  C   UNL     1      43.288 -21.595  -2.298  1.00  0.00     0.017 C 
ATOM     15  C   UNL     1      42.230 -21.082   0.049  1.00  0.00    -0.020 C 
ATOM     16  C   UNL     1      40.411 -22.910  -0.200  1.00  0.00     0.032 C 
ATOM     17  C   UNL     1      40.730 -21.410  -0.416  1.00  0.00     0.006 C 
ATOM     18  C   UNL     1      42.522 -19.574  -0.181  1.00  0.00     0.008 C 
ATOM     19  C   UNL     1      42.441 -21.349   1.585  1.00  0.00     0.012 C 
ATOM     20  C   UNL     1      39.560 -20.431   0.016  1.00  0.00    -0.025 C 
ATOM     21  C   UNL     1      41.422 -18.649   0.382  1.00  0.00     0.005 C 
ATOM     22  C   UNL     1      40.050 -18.963  -0.273  1.00  0.00     0.003 C 
ATOM     23  C   UNL     1      38.260 -20.722  -0.872  1.00  0.00     0.010 C 
ATOM     24  C   UNL     1      39.189 -20.640   1.534  1.00  0.00     0.012 C 
ATOM     25  C   UNL     1      38.925 -17.839  -0.174  1.00  0.00    -0.006 C 
ATOM     26  C   UNL     1      37.795 -19.573  -1.770  1.00  0.00     0.033 C 
ATOM     27  C   UNL     1      37.646 -18.246  -1.004  1.00  0.00     0.120 C 
ATOM     28  C   UNL     1      39.483 -16.528  -0.819  1.00  0.00     0.014 C 
ATOM     29  C   UNL     1      38.549 -17.484   1.283  1.00  0.00     0.014 C 
ENDROOT
BRANCH   1  30
ATOM     30  C   UNL     1      45.113 -24.842  -2.653  1.00  0.00     0.048 C 
ATOM     31  O   UNL     1      44.316 -25.676  -3.141  1.00  0.00    -0.550 OA
ATOM     32  O   UNL     1      46.026 -24.243  -3.500  1.00  0.00    -0.550 OA
ENDBRANCH   1  30
BRANCH  27  33
ATOM     33  O   UNL     1      36.489 -18.322  -0.206  1.00  0.00    -0.393 OA
ATOM     34  H   UNL     1      36.651 -19.022   0.499  1.00  0.00     0.210 HD
ENDBRANCH  27  33
TORSDOF 2
ENDMDL
MODEL 3
REMARK VINA RESULT:   131.714      2.492      8.137
REMARK INTER + INTRA:         143.140
REMARK INTER:                 143.306
REMARK INTRA:                  -0.166
REMARK UNBOUND:                -0.123
REMARK SMILES CC1(C)CC[C@]2(C(=O)[O-])CC[C@@]3(C)C(=CC[C@H]4[C@]5(C)CC[C@@H](O)C(C)(C)[C@H]5CC[C@@]43C)[C@@H]2C1
REMARK SMILES IDX 6 1 5 2 10 3 32 4 4 5 11 6 14 7 33 8 2 9 12 10 15 11 1 12
REMARK SMILES IDX 3 13 13 14 30 15 16 16 17 17 29 18 31 19 18 20 28 21 27 22
REMARK SMILES IDX 20 23 19 24 24 25 21 26 22 27 25 28 26 29 7 30 8 31 9 32
REMARK SMILES IDX 23 33
REMARK H PARENT 23 34
REMARK Flexibility Score: inf
ROOT
ATOM      1  C   UNL     1      38.494 -18.468   1.077  1.00  0.00     0.017 C 
ATOM      2  C   UNL     1      38.219 -16.923   1.230  1.00  0.00     0.014 C 
ATOM      3  C   UNL     1      39.410 -18.937   2.277  1.00  0.00     0.014 C 
ATOM      4  C   UNL     1      39.157 -18.735  -0.325  1.00  0.00     0.028 C 
ATOM      5  C   UNL     1      37.911 -16.252  -0.118  1.00  0.00     0.007 C 
ATOM      6  C   UNL     1      40.796 -19.494   1.884  1.00  0.00     0.013 C 
ATOM      7  C   UNL     1      39.943 -20.025  -0.408  1.00  0.00    -0.064 C 
ATOM      8  C   UNL     1      40.027 -17.538  -0.805  1.00  0.00     0.015 C 
ATOM      9  C   UNL     1      39.144 -16.297  -1.091  1.00  0.00    -0.035 C 
ATOM     10  C   UNL     1      40.705 -20.615   0.790  1.00  0.00    -0.006 C 
ATOM     11  C   UNL     1      39.961 -20.646  -1.600  1.00  0.00    -0.027 C 
ATOM     12  C   UNL     1      38.623 -16.360  -2.554  1.00  0.00     0.011 C 
ATOM     13  C   UNL     1      39.990 -15.022  -0.900  1.00  0.00     0.011 C 
ATOM     14  C   UNL     1      39.828 -21.758   1.386  1.00  0.00     0.017 C 
ATOM     15  C   UNL     1      42.145 -21.148   0.312  1.00  0.00    -0.020 C 
ATOM     16  C   UNL     1      41.224 -21.252  -2.108  1.00  0.00     0.032 C 
ATOM     17  C   UNL     1      41.924 -22.062  -0.988  1.00  0.00     0.006 C 
ATOM     18  C   UNL     1      42.845 -21.986   1.417  1.00  0.00     0.008 C 
ATOM     19  C   UNL     1      43.086 -19.923   0.016  1.00  0.00     0.012 C 
ATOM     20  C   UNL     1      43.117 -22.974  -1.498  1.00  0.00    -0.025 C 
ATOM     21  C   UNL     1      44.087 -22.747   0.907  1.00  0.00     0.005 C 
ATOM     22  C   UNL     1      43.704 -23.719  -0.242  1.00  0.00     0.003 C 
ATOM     23  C   UNL     1      42.557 -24.066  -2.527  1.00  0.00     0.010 C 
ATOM     24  C   UNL     1      44.210 -22.105  -2.231  1.00  0.00     0.012 C 
ATOM     25  C   UNL     1      44.727 -24.897  -0.566  1.00  0.00    -0.006 C 
ATOM     26  C   UNL     1      42.700 -25.527  -2.092  1.00  0.00     0.033 C 
ATOM     27  C   UNL     1      44.134 -25.875  -1.653  1.00  0.00     0.120 C 
ATOM     28  C   UNL     1      44.934 -25.740   0.735  1.00  0.00     0.014 C 
ATOM     29  C   UNL     1      46.125 -24.388  -0.985  1.00  0.00     0.014 C 
ENDROOT
BRANCH   1  30
ATOM     30  C   UNL     1      37.138 -19.167   1.179  1.00  0.00     0.048 C 
ATOM     31  O   UNL     1      36.351 -18.993   2.138  1.00  0.00    -0.550 OA
ATOM     32  O   UNL     1      36.746 -20.018   0.164  1.00  0.00    -0.550 OA
ENDBRANCH   1  30
BRANCH  27  33
ATOM     33  O   UNL     1      44.942 -25.956  -2.802  1.00  0.00    -0.393 OA
ATOM     34  H   UNL     1      44.902 -25.064  -3.266  1.00  0.00     0.210 HD
ENDBRANCH  27  33
TORSDOF 2
ENDMDL
MODEL 4
REMARK VINA RESULT:   131.970      1.188      1.399
REMARK INTER + INTRA:         143.419
REMARK INTER:                 143.656
REMARK INTRA:                  -0.237
REMARK UNBOUND:                -0.123
REMARK SMILES CC1(C)CC[C@]2(C(=O)[O-])CC[C@@]3(C)C(=CC[C@H]4[C@]5(C)CC[C@@H](O)C(C)(C)[C@H]5CC[C@@]43C)[C@@H]2C1
REMARK SMILES IDX 6 1 5 2 10 3 32 4 4 5 11 6 14 7 33 8 2 9 12 10 15 11 1 12
REMARK SMILES IDX 3 13 13 14 30 15 16 16 17 17 29 18 31 19 18 20 28 21 27 22
REMARK SMILES IDX 20 23 19 24 24 25 21 26 22 27 25 28 26 29 7 30 8 31 9 32
REMARK SMILES IDX 23 33
REMARK H PARENT 23 34
REMARK Flexibility Score: inf
ROOT
ATOM      1  C   UNL     1      44.755 -22.551   0.128  1.00  0.00     0.017 C 
ATOM      2  C   UNL     1      45.671 -23.277   1.186  1.00  0.00     0.014 C 
ATOM      3  C   UNL     1      43.826 -21.522   0.889  1.00  0.00     0.014 C 
ATOM      4  C   UNL     1      43.931 -23.632  -0.665  1.00  0.00     0.028 C 
ATOM      5  C   UNL     1      46.125 -24.664   0.706  1.00  0.00     0.007 C 
ATOM      6  C   UNL     1      42.308 -21.790   0.790  1.00  0.00     0.013 C 
ATOM      7  C   UNL     1      42.667 -23.105  -1.309  1.00  0.00    -0.064 C 
ATOM      8  C   UNL     1      43.616 -24.887   0.200  1.00  0.00     0.015 C 
ATOM      9  C   UNL     1      44.916 -25.655   0.547  1.00  0.00    -0.035 C 
ATOM     10  C   UNL     1      41.826 -21.976  -0.693  1.00  0.00    -0.006 C 
ATOM     11  C   UNL     1      42.292 -23.682  -2.463  1.00  0.00    -0.027 C 
ATOM     12  C   UNL     1      45.242 -26.660  -0.594  1.00  0.00     0.011 C 
ATOM     13  C   UNL     1      44.709 -26.423   1.868  1.00  0.00     0.011 C 
ATOM     14  C   UNL     1      42.180 -20.660  -1.451  1.00  0.00     0.017 C 
ATOM     15  C   UNL     1      40.263 -22.335  -0.807  1.00  0.00    -0.020 C 
ATOM     16  C   UNL     1      40.854 -23.986  -2.714  1.00  0.00     0.032 C 
ATOM     17  C   UNL     1      39.970 -22.777  -2.321  1.00  0.00     0.006 C 
ATOM     18  C   UNL     1      39.365 -21.121  -0.442  1.00  0.00     0.008 C 
ATOM     19  C   UNL     1      39.911 -23.476   0.217  1.00  0.00     0.012 C 
ATOM     20  C   UNL     1      38.465 -22.890  -2.811  1.00  0.00    -0.025 C 
ATOM     21  C   UNL     1      37.880 -21.332  -0.809  1.00  0.00     0.005 C 
ATOM     22  C   UNL     1      37.721 -21.588  -2.332  1.00  0.00     0.003 C 
ATOM     23  C   UNL     1      38.424 -22.944  -4.410  1.00  0.00     0.010 C 
ATOM     24  C   UNL     1      37.790 -24.197  -2.244  1.00  0.00     0.012 C 
ATOM     25  C   UNL     1      36.272 -21.364  -2.956  1.00  0.00    -0.006 C 
ATOM     26  C   UNL     1      37.709 -21.779  -5.099  1.00  0.00     0.033 C 
ATOM     27  C   UNL     1      36.304 -21.525  -4.526  1.00  0.00     0.120 C 
ATOM     28  C   UNL     1      35.832 -19.892  -2.662  1.00  0.00     0.014 C 
ATOM     29  C   UNL     1      35.194 -22.277  -2.329  1.00  0.00     0.014 C 
ENDROOT
BRANCH   1  30
ATOM     30  C   UNL     1      45.689 -21.785  -0.809  1.00  0.00     0.048 C 
ATOM     31  O   UNL     1      46.125 -20.639  -0.551  1.00  0.00    -0.550 OA
ATOM     32  O   UNL     1      46.091 -22.382  -1.988  1.00  0.00    -0.550 OA
ENDBRANCH   1  30
BRANCH  27  33
ATOM     33  O   UNL     1      35.448 -22.546  -4.979  1.00  0.00    -0.393 OA
ATOM     34  H   UNL     1      35.768 -23.412  -4.579  1.00  0.00     0.210 HD
ENDBRANCH  27  33
TORSDOF 2
ENDMDL
