MODEL 1
REMARK VINA RESULT:    -4.669      0.000      0.000
REMARK INTER + INTRA:          -5.751
REMARK INTER:                  -5.488
REMARK INTRA:                  -0.263
REMARK UNBOUND:                -0.263
REMARK SMILES O=c1cc(-c2ccc(O)c(O)c2)oc2cc(O)cc(O)c12
REMARK SMILES IDX 4 1 3 2 2 3 1 4 21 5 19 6 18 7 16 8 15 9 14 10 13 11 5 12
REMARK SMILES IDX 6 13 7 14 8 15 12 16 10 17 9 18 11 20 20 22 17 24
REMARK H PARENT 9 19 11 21 20 23 17 25
REMARK Flexibility Score: inf
ROOT
ATOM      1  C   UNL     1      21.129  48.689  88.116  1.00  0.00     0.138 A 
ATOM      2  C   UNL     1      21.770  48.697  86.869  1.00  0.00     0.100 A 
ATOM      3  C   UNL     1      22.445  47.555  86.433  1.00  0.00     0.197 A 
ATOM      4  O   UNL     1      22.957  47.570  85.285  1.00  0.00    -0.289 OA
ATOM      5  C   UNL     1      22.504  46.412  87.267  1.00  0.00     0.107 A 
ATOM      6  C   UNL     1      23.197  45.208  86.945  1.00  0.00     0.134 A 
ATOM      7  C   UNL     1      23.089  44.101  87.796  1.00  0.00     0.093 A 
ATOM      8  C   UNL     1      22.362  44.175  88.987  1.00  0.00     0.123 A 
ATOM      9  C   UNL     1      21.726  45.364  89.336  1.00  0.00     0.094 A 
ATOM     10  C   UNL     1      21.786  46.475  88.492  1.00  0.00     0.146 A 
ATOM     11  O   UNL     1      21.154  47.586  88.855  1.00  0.00    -0.456 OA
ENDROOT
BRANCH   1  12
ATOM     12  C   UNL     1      20.398  49.877  88.628  1.00  0.00     0.021 A 
ATOM     13  C   UNL     1      18.991  49.930  88.642  1.00  0.00     0.016 A 
ATOM     14  C   UNL     1      18.330  51.064  89.120  1.00  0.00     0.051 A 
ATOM     15  C   UNL     1      19.059  52.166  89.585  1.00  0.00     0.157 A 
ATOM     16  C   UNL     1      21.123  50.993  89.084  1.00  0.00     0.062 A 
ATOM     17  C   UNL     1      20.463  52.129  89.564  1.00  0.00     0.158 A 
BRANCH  15  18
ATOM     18  O   UNL     1      18.395  53.295  90.062  1.00  0.00    -0.504 OA
ATOM     19  H   UNL     1      17.467  53.235  90.464  1.00  0.00     0.293 HD
ENDBRANCH  15  18
BRANCH  17  20
ATOM     20  O   UNL     1      21.218  53.211  90.016  1.00  0.00    -0.504 OA
ATOM     21  H   UNL     1      21.350  53.401  91.002  1.00  0.00     0.293 HD
ENDBRANCH  17  20
ENDBRANCH   1  12
BRANCH   6  22
ATOM     22  O   UNL     1      24.019  45.055  85.825  1.00  0.00    -0.507 OA
ATOM     23  H   UNL     1      24.966  45.395  85.753  1.00  0.00     0.293 HD
ENDBRANCH   6  22
BRANCH   8  24
ATOM     24  O   UNL     1      22.272  43.074  89.835  1.00  0.00    -0.508 OA
ATOM     25  H   UNL     1      21.540  42.998  90.531  1.00  0.00     0.293 HD
ENDBRANCH   8  24
TORSDOF 5
ENDMDL
MODEL 2
REMARK VINA RESULT:    -4.491      2.516      7.518
REMARK INTER + INTRA:          -5.542
REMARK INTER:                  -5.273
REMARK INTRA:                  -0.268
REMARK UNBOUND:                -0.263
REMARK SMILES O=c1cc(-c2ccc(O)c(O)c2)oc2cc(O)cc(O)c12
REMARK SMILES IDX 4 1 3 2 2 3 1 4 21 5 19 6 18 7 16 8 15 9 14 10 13 11 5 12
REMARK SMILES IDX 6 13 7 14 8 15 12 16 10 17 9 18 11 20 20 22 17 24
REMARK H PARENT 9 19 11 21 20 23 17 25
REMARK Flexibility Score: inf
ROOT
ATOM      1  C   UNL     1      23.487  46.351  87.017  1.00  0.00     0.138 A 
ATOM      2  C   UNL     1      22.869  45.469  87.913  1.00  0.00     0.100 A 
ATOM      3  C   UNL     1      21.723  45.873  88.600  1.00  0.00     0.197 A 
ATOM      4  O   UNL     1      21.156  45.039  89.351  1.00  0.00    -0.289 OA
ATOM      5  C   UNL     1      21.214  47.180  88.409  1.00  0.00     0.107 A 
ATOM      6  C   UNL     1      20.077  47.715  89.086  1.00  0.00     0.134 A 
ATOM      7  C   UNL     1      19.596  48.981  88.731  1.00  0.00     0.093 A 
ATOM      8  C   UNL     1      20.246  49.756  87.766  1.00  0.00     0.123 A 
ATOM      9  C   UNL     1      21.387  49.263  87.139  1.00  0.00     0.094 A 
ATOM     10  C   UNL     1      21.873  47.990  87.447  1.00  0.00     0.146 A 
ATOM     11  O   UNL     1      22.957  47.553  86.815  1.00  0.00    -0.456 OA
ENDROOT
BRANCH   1  12
ATOM     12  C   UNL     1      24.709  45.973  86.261  1.00  0.00     0.021 A 
ATOM     13  C   UNL     1      25.873  46.764  86.292  1.00  0.00     0.016 A 
ATOM     14  C   UNL     1      27.004  46.390  85.563  1.00  0.00     0.051 A 
ATOM     15  C   UNL     1      26.992  45.224  84.785  1.00  0.00     0.157 A 
ATOM     16  C   UNL     1      24.700  44.812  85.466  1.00  0.00     0.062 A 
ATOM     17  C   UNL     1      25.832  44.434  84.737  1.00  0.00     0.158 A 
BRANCH  15  18
ATOM     18  O   UNL     1      28.123  44.854  84.061  1.00  0.00    -0.504 OA
ATOM     19  H   UNL     1      28.986  45.381  84.117  1.00  0.00     0.293 HD
ENDBRANCH  15  18
BRANCH  17  20
ATOM     20  O   UNL     1      25.785  43.271  83.969  1.00  0.00    -0.504 OA
ATOM     21  H   UNL     1      24.916  42.787  83.777  1.00  0.00     0.293 HD
ENDBRANCH  17  20
ENDBRANCH   1  12
BRANCH   6  22
ATOM     22  O   UNL     1      19.406  47.061  90.123  1.00  0.00    -0.507 OA
ATOM     23  H   UNL     1      19.701  47.053  91.087  1.00  0.00     0.293 HD
ENDBRANCH   6  22
BRANCH   8  24
ATOM     24  O   UNL     1      19.768  51.020  87.430  1.00  0.00    -0.508 OA
ATOM     25  H   UNL     1      20.096  51.854  87.902  1.00  0.00     0.293 HD
ENDBRANCH   8  24
TORSDOF 5
ENDMDL
MODEL 3
REMARK VINA RESULT:    -4.444      2.798      7.575
REMARK INTER + INTRA:          -5.487
REMARK INTER:                  -5.171
REMARK INTRA:                  -0.316
REMARK UNBOUND:                -0.263
REMARK SMILES O=c1cc(-c2ccc(O)c(O)c2)oc2cc(O)cc(O)c12
REMARK SMILES IDX 4 1 3 2 2 3 1 4 21 5 19 6 18 7 16 8 15 9 14 10 13 11 5 12
REMARK SMILES IDX 6 13 7 14 8 15 12 16 10 17 9 18 11 20 20 22 17 24
REMARK H PARENT 9 19 11 21 20 23 17 25
REMARK Flexibility Score: inf
ROOT
ATOM      1  C   UNL     1      24.497  48.577  87.185  1.00  0.00     0.138 A 
ATOM      2  C   UNL     1      25.124  49.566  87.954  1.00  0.00     0.100 A 
ATOM      3  C   UNL     1      24.354  50.563  88.557  1.00  0.00     0.197 A 
ATOM      4  O   UNL     1      24.937  51.401  89.292  1.00  0.00    -0.289 OA
ATOM      5  C   UNL     1      22.953  50.585  88.359  1.00  0.00     0.107 A 
ATOM      6  C   UNL     1      22.073  51.575  88.890  1.00  0.00     0.134 A 
ATOM      7  C   UNL     1      20.691  51.429  88.725  1.00  0.00     0.093 A 
ATOM      8  C   UNL     1      20.159  50.361  87.998  1.00  0.00     0.123 A 
ATOM      9  C   UNL     1      21.013  49.419  87.431  1.00  0.00     0.094 A 
ATOM     10  C   UNL     1      22.395  49.517  87.606  1.00  0.00     0.146 A 
ATOM     11  O   UNL     1      23.174  48.589  87.060  1.00  0.00    -0.456 OA
ENDROOT
BRANCH   1  12
ATOM     12  C   UNL     1      25.268  47.495  86.521  1.00  0.00     0.021 A 
ATOM     13  C   UNL     1      26.667  47.564  86.377  1.00  0.00     0.016 A 
ATOM     14  C   UNL     1      27.365  46.536  85.739  1.00  0.00     0.051 A 
ATOM     15  C   UNL     1      26.680  45.425  85.228  1.00  0.00     0.157 A 
ATOM     16  C   UNL     1      24.587  46.383  85.993  1.00  0.00     0.062 A 
ATOM     17  C   UNL     1      25.284  45.351  85.355  1.00  0.00     0.158 A 
BRANCH  15  18
ATOM     18  O   UNL     1      27.381  44.401  84.593  1.00  0.00    -0.504 OA
ATOM     19  H   UNL     1      26.983  43.477  84.478  1.00  0.00     0.293 HD
ENDBRANCH  15  18
BRANCH  17  20
ATOM     20  O   UNL     1      24.572  44.262  84.854  1.00  0.00    -0.504 OA
ATOM     21  H   UNL     1      23.561  44.260  84.797  1.00  0.00     0.293 HD
ENDBRANCH  17  20
ENDBRANCH   1  12
BRANCH   6  22
ATOM     22  O   UNL     1      22.504  52.725  89.558  1.00  0.00    -0.507 OA
ATOM     23  H   UNL     1      21.925  53.525  89.761  1.00  0.00     0.293 HD
ENDBRANCH   6  22
BRANCH   8  24
ATOM     24  O   UNL     1      18.783  50.232  87.827  1.00  0.00    -0.508 OA
ATOM     25  H   UNL     1      18.129  50.829  88.319  1.00  0.00     0.293 HD
ENDBRANCH   8  24
TORSDOF 5
ENDMDL
MODEL 4
REMARK VINA RESULT:    -4.398      2.611      3.454
REMARK INTER + INTRA:          -5.433
REMARK INTER:                  -5.123
REMARK INTRA:                  -0.310
REMARK UNBOUND:                -0.263
REMARK SMILES O=c1cc(-c2ccc(O)c(O)c2)oc2cc(O)cc(O)c12
REMARK SMILES IDX 4 1 3 2 2 3 1 4 21 5 19 6 18 7 16 8 15 9 14 10 13 11 5 12
REMARK SMILES IDX 6 13 7 14 8 15 12 16 10 17 9 18 11 20 20 22 17 24
REMARK H PARENT 9 19 11 21 20 23 17 25
REMARK Flexibility Score: inf
ROOT
ATOM      1  C   UNL     1      23.123  49.651  87.865  1.00  0.00     0.138 A 
ATOM      2  C   UNL     1      24.420  50.153  88.042  1.00  0.00     0.100 A 
ATOM      3  C   UNL     1      25.514  49.415  87.584  1.00  0.00     0.197 A 
ATOM      4  O   UNL     1      26.660  49.919  87.701  1.00  0.00    -0.289 OA
ATOM      5  C   UNL     1      25.306  48.155  86.975  1.00  0.00     0.107 A 
ATOM      6  C   UNL     1      26.347  47.298  86.508  1.00  0.00     0.134 A 
ATOM      7  C   UNL     1      26.017  46.126  85.817  1.00  0.00     0.093 A 
ATOM      8  C   UNL     1      24.684  45.749  85.629  1.00  0.00     0.123 A 
ATOM      9  C   UNL     1      23.662  46.553  86.129  1.00  0.00     0.094 A 
ATOM     10  C   UNL     1      23.958  47.746  86.793  1.00  0.00     0.146 A 
ATOM     11  O   UNL     1      22.953  48.491  87.242  1.00  0.00    -0.456 OA
ENDROOT
BRANCH   1  12
ATOM     12  C   UNL     1      21.925  50.393  88.334  1.00  0.00     0.021 A 
ATOM     13  C   UNL     1      21.989  51.295  89.414  1.00  0.00     0.016 A 
ATOM     14  C   UNL     1      20.843  51.972  89.840  1.00  0.00     0.051 A 
ATOM     15  C   UNL     1      19.615  51.757  89.202  1.00  0.00     0.157 A 
ATOM     16  C   UNL     1      20.685  50.172  87.708  1.00  0.00     0.062 A 
ATOM     17  C   UNL     1      19.537  50.850  88.132  1.00  0.00     0.158 A 
BRANCH  15  18
ATOM     18  O   UNL     1      18.475  52.435  89.630  1.00  0.00    -0.504 OA
ATOM     19  H   UNL     1      18.264  53.373  89.310  1.00  0.00     0.293 HD
ENDBRANCH  15  18
BRANCH  17  20
ATOM     20  O   UNL     1      18.328  50.610  87.479  1.00  0.00    -0.504 OA
ATOM     21  H   UNL     1      17.469  51.074  87.748  1.00  0.00     0.293 HD
ENDBRANCH  17  20
ENDBRANCH   1  12
BRANCH   6  22
ATOM     22  O   UNL     1      27.708  47.536  86.717  1.00  0.00    -0.507 OA
ATOM     23  H   UNL     1      28.438  47.333  86.052  1.00  0.00     0.293 HD
ENDBRANCH   6  22
BRANCH   8  24
ATOM     24  O   UNL     1      24.366  44.574  84.953  1.00  0.00    -0.508 OA
ATOM     25  H   UNL     1      24.170  44.571  83.959  1.00  0.00     0.293 HD
ENDBRANCH   8  24
TORSDOF 5
ENDMDL
MODEL 5
REMARK VINA RESULT:    -4.260      2.363      6.566
REMARK INTER + INTRA:          -5.270
REMARK INTER:                  -4.992
REMARK INTRA:                  -0.278
REMARK UNBOUND:                -0.263
REMARK SMILES O=c1cc(-c2ccc(O)c(O)c2)oc2cc(O)cc(O)c12
REMARK SMILES IDX 4 1 3 2 2 3 1 4 21 5 19 6 18 7 16 8 15 9 14 10 13 11 5 12
REMARK SMILES IDX 6 13 7 14 8 15 12 16 10 17 9 18 11 20 20 22 17 24
REMARK H PARENT 9 19 11 21 20 23 17 25
REMARK Flexibility Score: inf
ROOT
ATOM      1  C   UNL     1      21.964  47.678  88.125  1.00  0.00     0.138 A 
ATOM      2  C   UNL     1      21.806  49.065  88.241  1.00  0.00     0.100 A 
ATOM      3  C   UNL     1      20.591  49.586  88.691  1.00  0.00     0.197 A 
ATOM      4  O   UNL     1      20.499  50.831  88.844  1.00  0.00    -0.289 OA
ATOM      5  C   UNL     1      19.521  48.711  88.995  1.00  0.00     0.107 A 
ATOM      6  C   UNL     1      18.226  49.131  89.422  1.00  0.00     0.134 A 
ATOM      7  C   UNL     1      17.282  48.170  89.806  1.00  0.00     0.093 A 
ATOM      8  C   UNL     1      17.566  46.805  89.721  1.00  0.00     0.123 A 
ATOM      9  C   UNL     1      18.809  46.385  89.254  1.00  0.00     0.094 A 
ATOM     10  C   UNL     1      19.784  47.319  88.896  1.00  0.00     0.146 A 
ATOM     11  O   UNL     1      20.962  46.876  88.469  1.00  0.00    -0.456 OA
ENDROOT
BRANCH   1  12
ATOM     12  C   UNL     1      23.235  47.071  87.651  1.00  0.00     0.021 A 
ATOM     13  C   UNL     1      24.457  47.303  88.311  1.00  0.00     0.016 A 
ATOM     14  C   UNL     1      25.638  46.728  87.836  1.00  0.00     0.051 A 
ATOM     15  C   UNL     1      25.622  45.917  86.693  1.00  0.00     0.157 A 
ATOM     16  C   UNL     1      23.230  46.268  86.496  1.00  0.00     0.062 A 
ATOM     17  C   UNL     1      24.411  45.689  86.021  1.00  0.00     0.158 A 
BRANCH  15  18
ATOM     18  O   UNL     1      26.803  45.344  86.224  1.00  0.00    -0.504 OA
ATOM     19  H   UNL     1      27.553  45.909  85.842  1.00  0.00     0.293 HD
ENDBRANCH  15  18
BRANCH  17  20
ATOM     20  O   UNL     1      24.362  44.891  84.878  1.00  0.00    -0.504 OA
ATOM     21  H   UNL     1      25.150  44.330  84.579  1.00  0.00     0.293 HD
ENDBRANCH  17  20
ENDBRANCH   1  12
BRANCH   6  22
ATOM     22  O   UNL     1      17.810  50.464  89.463  1.00  0.00    -0.507 OA
ATOM     23  H   UNL     1      17.649  51.043  88.653  1.00  0.00     0.293 HD
ENDBRANCH   6  22
BRANCH   8  24
ATOM     24  O   UNL     1      16.615  45.857  90.091  1.00  0.00    -0.508 OA
ATOM     25  H   UNL     1      16.560  45.503  91.039  1.00  0.00     0.293 HD
ENDBRANCH   8  24
TORSDOF 5
ENDMDL
MODEL 6
REMARK VINA RESULT:    -4.257      2.858      4.293
REMARK INTER + INTRA:          -5.267
REMARK INTER:                  -4.955
REMARK INTRA:                  -0.311
REMARK UNBOUND:                -0.263
REMARK SMILES O=c1cc(-c2ccc(O)c(O)c2)oc2cc(O)cc(O)c12
REMARK SMILES IDX 4 1 3 2 2 3 1 4 21 5 19 6 18 7 16 8 15 9 14 10 13 11 5 12
REMARK SMILES IDX 6 13 7 14 8 15 12 16 10 17 9 18 11 20 20 22 17 24
REMARK H PARENT 9 19 11 21 20 23 17 25
REMARK Flexibility Score: inf
ROOT
ATOM      1  C   UNL     1      22.587  47.573  87.897  1.00  0.00     0.138 A 
ATOM      2  C   UNL     1      23.542  48.570  88.137  1.00  0.00     0.100 A 
ATOM      3  C   UNL     1      24.831  48.431  87.618  1.00  0.00     0.197 A 
ATOM      4  O   UNL     1      25.647  49.370  87.797  1.00  0.00    -0.289 OA
ATOM      5  C   UNL     1      25.171  47.270  86.884  1.00  0.00     0.107 A 
ATOM      6  C   UNL     1      26.464  47.001  86.343  1.00  0.00     0.134 A 
ATOM      7  C   UNL     1      26.652  45.874  85.534  1.00  0.00     0.093 A 
ATOM      8  C   UNL     1      25.610  44.974  85.296  1.00  0.00     0.123 A 
ATOM      9  C   UNL     1      24.359  45.200  85.864  1.00  0.00     0.094 A 
ATOM     10  C   UNL     1      24.129  46.333  86.647  1.00  0.00     0.146 A 
ATOM     11  O   UNL     1      22.917  46.519  87.159  1.00  0.00    -0.456 OA
ENDROOT
BRANCH   1  12
ATOM     12  C   UNL     1      21.202  47.670  88.426  1.00  0.00     0.021 A 
ATOM     13  C   UNL     1      20.641  48.904  88.808  1.00  0.00     0.016 A 
ATOM     14  C   UNL     1      19.340  48.964  89.313  1.00  0.00     0.051 A 
ATOM     15  C   UNL     1      18.578  47.796  89.450  1.00  0.00     0.157 A 
ATOM     16  C   UNL     1      20.437  46.501  88.581  1.00  0.00     0.062 A 
ATOM     17  C   UNL     1      19.132  46.559  89.084  1.00  0.00     0.158 A 
BRANCH  15  18
ATOM     18  O   UNL     1      17.280  47.862  89.953  1.00  0.00    -0.504 OA
ATOM     19  H   UNL     1      17.059  48.394  90.786  1.00  0.00     0.293 HD
ENDBRANCH  15  18
BRANCH  17  20
ATOM     20  O   UNL     1      18.403  45.378  89.213  1.00  0.00    -0.504 OA
ATOM     21  H   UNL     1      18.695  44.630  89.831  1.00  0.00     0.293 HD
ENDBRANCH  17  20
ENDBRANCH   1  12
BRANCH   6  22
ATOM     22  O   UNL     1      27.592  47.788  86.589  1.00  0.00    -0.507 OA
ATOM     23  H   UNL     1      27.717  48.734  86.265  1.00  0.00     0.293 HD
ENDBRANCH   6  22
BRANCH   8  24
ATOM     24  O   UNL     1      25.811  43.848  84.502  1.00  0.00    -0.508 OA
ATOM     25  H   UNL     1      25.442  43.790  83.560  1.00  0.00     0.293 HD
ENDBRANCH   8  24
TORSDOF 5
ENDMDL
MODEL 7
REMARK VINA RESULT:    -4.183      2.688      7.023
REMARK INTER + INTRA:          -5.180
REMARK INTER:                  -4.870
REMARK INTRA:                  -0.310
REMARK UNBOUND:                -0.263
REMARK SMILES O=c1cc(-c2ccc(O)c(O)c2)oc2cc(O)cc(O)c12
REMARK SMILES IDX 4 1 3 2 2 3 1 4 21 5 19 6 18 7 16 8 15 9 14 10 13 11 5 12
REMARK SMILES IDX 6 13 7 14 8 15 12 16 10 17 9 18 11 20 20 22 17 24
REMARK H PARENT 9 19 11 21 20 23 17 25
REMARK Flexibility Score: inf
ROOT
ATOM      1  C   UNL     1      23.807  47.571  87.121  1.00  0.00     0.138 A 
ATOM      2  C   UNL     1      23.826  48.953  87.351  1.00  0.00     0.100 A 
ATOM      3  C   UNL     1      22.740  49.563  87.981  1.00  0.00     0.197 A 
ATOM      4  O   UNL     1      22.812  50.794  88.230  1.00  0.00    -0.289 OA
ATOM      5  C   UNL     1      21.616  48.787  88.351  1.00  0.00     0.107 A 
ATOM      6  C   UNL     1      20.435  49.307  88.961  1.00  0.00     0.134 A 
ATOM      7  C   UNL     1      19.435  48.426  89.389  1.00  0.00     0.093 A 
ATOM      8  C   UNL     1      19.545  47.050  89.175  1.00  0.00     0.123 A 
ATOM      9  C   UNL     1      20.670  46.538  88.533  1.00  0.00     0.094 A 
ATOM     10  C   UNL     1      21.701  47.387  88.124  1.00  0.00     0.146 A 
ATOM     11  O   UNL     1      22.763  46.857  87.527  1.00  0.00    -0.456 OA
ENDROOT
BRANCH   1  12
ATOM     12  C   UNL     1      24.936  46.872  86.454  1.00  0.00     0.021 A 
ATOM     13  C   UNL     1      26.236  47.412  86.442  1.00  0.00     0.016 A 
ATOM     14  C   UNL     1      27.277  46.737  85.798  1.00  0.00     0.051 A 
ATOM     15  C   UNL     1      27.037  45.518  85.151  1.00  0.00     0.157 A 
ATOM     16  C   UNL     1      24.700  45.655  85.790  1.00  0.00     0.062 A 
ATOM     17  C   UNL     1      25.741  44.977  85.146  1.00  0.00     0.158 A 
BRANCH  15  18
ATOM     18  O   UNL     1      28.078  44.848  84.511  1.00  0.00    -0.504 OA
ATOM     19  H   UNL     1      29.043  45.136  84.623  1.00  0.00     0.293 HD
ENDBRANCH  15  18
BRANCH  17  20
ATOM     20  O   UNL     1      25.468  43.768  84.507  1.00  0.00    -0.504 OA
ATOM     21  H   UNL     1      25.696  42.874  84.925  1.00  0.00     0.293 HD
ENDBRANCH  17  20
ENDBRANCH   1  12
BRANCH   6  22
ATOM     22  O   UNL     1      20.186  50.670  89.144  1.00  0.00    -0.507 OA
ATOM     23  H   UNL     1      20.047  51.336  88.401  1.00  0.00     0.293 HD
ENDBRANCH   6  22
BRANCH   8  24
ATOM     24  O   UNL     1      18.538  46.182  89.592  1.00  0.00    -0.508 OA
ATOM     25  H   UNL     1      18.118  45.514  88.958  1.00  0.00     0.293 HD
ENDBRANCH   8  24
TORSDOF 5
ENDMDL
MODEL 8
REMARK VINA RESULT:    -4.094      1.830      7.439
REMARK INTER + INTRA:          -5.076
REMARK INTER:                  -4.784
REMARK INTRA:                  -0.292
REMARK UNBOUND:                -0.263
REMARK SMILES O=c1cc(-c2ccc(O)c(O)c2)oc2cc(O)cc(O)c12
REMARK SMILES IDX 4 1 3 2 2 3 1 4 21 5 19 6 18 7 16 8 15 9 14 10 13 11 5 12
REMARK SMILES IDX 6 13 7 14 8 15 12 16 10 17 9 18 11 20 20 22 17 24
REMARK H PARENT 9 19 11 21 20 23 17 25
REMARK Flexibility Score: inf
ROOT
ATOM      1  C   UNL     1      21.919  49.278  88.034  1.00  0.00     0.138 A 
ATOM      2  C   UNL     1      20.536  49.112  88.186  1.00  0.00     0.100 A 
ATOM      3  C   UNL     1      19.772  50.149  88.727  1.00  0.00     0.197 A 
ATOM      4  O   UNL     1      18.526  49.995  88.793  1.00  0.00    -0.289 OA
ATOM      5  C   UNL     1      20.406  51.343  89.147  1.00  0.00     0.107 A 
ATOM      6  C   UNL     1      19.734  52.448  89.750  1.00  0.00     0.134 A 
ATOM      7  C   UNL     1      20.446  53.624  90.018  1.00  0.00     0.093 A 
ATOM      8  C   UNL     1      21.817  53.713  89.761  1.00  0.00     0.123 A 
ATOM      9  C   UNL     1      22.491  52.619  89.223  1.00  0.00     0.094 A 
ATOM     10  C   UNL     1      21.803  51.445  88.912  1.00  0.00     0.146 A 
ATOM     11  O   UNL     1      22.481  50.429  88.386  1.00  0.00    -0.456 OA
ENDROOT
BRANCH   1  12
ATOM     12  C   UNL     1      22.779  48.208  87.466  1.00  0.00     0.021 A 
ATOM     13  C   UNL     1      24.081  48.475  87.000  1.00  0.00     0.016 A 
ATOM     14  C   UNL     1      24.863  47.451  86.460  1.00  0.00     0.051 A 
ATOM     15  C   UNL     1      24.360  46.147  86.369  1.00  0.00     0.157 A 
ATOM     16  C   UNL     1      22.276  46.899  87.358  1.00  0.00     0.062 A 
ATOM     17  C   UNL     1      23.058  45.872  86.819  1.00  0.00     0.158 A 
BRANCH  15  18
ATOM     18  O   UNL     1      25.144  45.128  85.831  1.00  0.00    -0.504 OA
ATOM     19  H   UNL     1      26.134  45.056  86.035  1.00  0.00     0.293 HD
ENDBRANCH  15  18
BRANCH  17  20
ATOM     20  O   UNL     1      22.525  44.586  86.739  1.00  0.00    -0.504 OA
ATOM     21  H   UNL     1      22.025  44.261  85.920  1.00  0.00     0.293 HD
ENDBRANCH  17  20
ENDBRANCH   1  12
BRANCH   6  22
ATOM     22  O   UNL     1      18.388  52.435  90.125  1.00  0.00    -0.507 OA
ATOM     23  H   UNL     1      17.623  52.727  89.537  1.00  0.00     0.293 HD
ENDBRANCH   6  22
BRANCH   8  24
ATOM     24  O   UNL     1      22.519  54.881  90.045  1.00  0.00    -0.508 OA
ATOM     25  H   UNL     1      22.355  55.406  90.896  1.00  0.00     0.293 HD
ENDBRANCH   8  24
TORSDOF 5
ENDMDL
