MODEL 1
REMARK VINA RESULT:    13.023      0.000      0.000
REMARK INTER + INTRA:          21.975
REMARK INTER:                  18.733
REMARK INTRA:                   3.242
REMARK UNBOUND:                 3.242
REMARK SMILES O=c1c(O[C@@H]2O[C@@H](CO)[C@H](O)[C@H](O)[C@@H]2O)c(-c2ccc(O)cc2)oc2cc(O)cc(O)c12
REMARK SMILES IDX 4 1 3 2 16 3 24 4 2 5 25 6 1 7 32 8 26 9 30 10 27 11 29 12
REMARK SMILES IDX 17 13 18 14 19 15 20 16 23 17 22 18 21 19 31 21 28 23 5 25
REMARK SMILES IDX 14 26 6 27 12 28 7 29 10 30 15 31 13 33 8 35 9 36 11 38
REMARK H PARENT 21 20 31 22 28 24 15 32 13 34 9 37 11 39
REMARK Flexibility Score: inf
ROOT
ATOM      1  O   UNL     1       0.666  -2.548  -0.790  1.00  0.00    -0.454 OA
ENDROOT
BRANCH   1   2
ATOM      2  C   UNL     1       0.185  -3.683  -0.096  1.00  0.00     0.214 A 
ATOM      3  C   UNL     1      -1.119  -3.661   0.456  1.00  0.00     0.180 A 
ATOM      4  O   UNL     1      -1.591  -4.735   1.081  1.00  0.00    -0.452 OA
ATOM      5  C   UNL     1       0.947  -4.869   0.062  1.00  0.00     0.239 A 
ATOM      6  C   UNL     1      -0.917  -5.863   1.225  1.00  0.00     0.146 A 
ATOM      7  O   UNL     1       2.141  -4.906  -0.329  1.00  0.00    -0.285 OA
ATOM      8  C   UNL     1       0.380  -6.005   0.681  1.00  0.00     0.111 A 
ATOM      9  C   UNL     1      -1.505  -6.912   1.936  1.00  0.00     0.094 A 
ATOM     10  C   UNL     1       1.043  -7.261   0.822  1.00  0.00     0.134 A 
ATOM     11  C   UNL     1      -0.816  -8.111   2.132  1.00  0.00     0.123 A 
ATOM     12  C   UNL     1       0.453  -8.276   1.579  1.00  0.00     0.093 A 
BRANCH   3  13
ATOM     13  C   UNL     1      -2.007  -2.471   0.418  1.00  0.00     0.021 A 
ATOM     14  C   UNL     1      -3.359  -2.625   0.788  1.00  0.00     0.016 A 
ATOM     15  C   UNL     1      -4.194  -1.515   0.931  1.00  0.00     0.047 A 
ATOM     16  C   UNL     1      -3.691  -0.231   0.708  1.00  0.00     0.115 A 
ATOM     17  C   UNL     1      -1.508  -1.173   0.207  1.00  0.00     0.016 A 
ATOM     18  C   UNL     1      -2.352  -0.064   0.341  1.00  0.00     0.047 A 
BRANCH  16  19
ATOM     19  O   UNL     1      -4.509   0.884   0.851  1.00  0.00    -0.508 OA
ATOM     20  H   UNL     1      -5.196   0.951   1.600  1.00  0.00     0.293 HD
ENDBRANCH  16  19
ENDBRANCH   3  13
BRANCH  10  21
ATOM     21  O   UNL     1       2.267  -7.569   0.216  1.00  0.00    -0.507 OA
ATOM     22  H   UNL     1       2.469  -8.449  -0.232  1.00  0.00     0.293 HD
ENDBRANCH  10  21
BRANCH  11  23
ATOM     23  O   UNL     1      -1.394  -9.152   2.858  1.00  0.00    -0.508 OA
ATOM     24  H   UNL     1      -2.396  -9.199   3.009  1.00  0.00     0.293 HD
ENDBRANCH  11  23
ENDBRANCH   1   2
BRANCH   1  25
ATOM     25  C   UNL     1       1.793  -1.745  -0.399  1.00  0.00     0.339 C 
ATOM     26  C   UNL     1       1.906  -0.382  -1.154  1.00  0.00     0.214 C 
ATOM     27  O   UNL     1       1.833  -1.579   1.011  1.00  0.00    -0.332 OA
ATOM     28  C   UNL     1       0.996   0.730  -0.583  1.00  0.00     0.180 C 
ATOM     29  C   UNL     1       0.800  -0.737   1.499  1.00  0.00     0.179 C 
ATOM     30  C   UNL     1       0.985   0.699   0.956  1.00  0.00     0.177 C 
BRANCH  26  31
ATOM     31  O   UNL     1       1.739  -0.511  -2.548  1.00  0.00    -0.384 OA
ATOM     32  H   UNL     1       2.586  -0.238  -2.991  1.00  0.00     0.211 HD
ENDBRANCH  26  31
BRANCH  28  33
ATOM     33  O   UNL     1      -0.304   0.710  -1.123  1.00  0.00    -0.387 OA
ATOM     34  H   UNL     1      -0.919   0.260  -0.487  1.00  0.00     0.211 HD
ENDBRANCH  28  33
BRANCH  29  35
ATOM     35  C   UNL     1       0.878  -0.731   3.038  1.00  0.00     0.191 C 
BRANCH  35  36
ATOM     36  O   UNL     1       1.897  -1.589   3.485  1.00  0.00    -0.394 OA
ATOM     37  H   UNL     1       2.712  -1.326   2.983  1.00  0.00     0.210 HD
ENDBRANCH  35  36
ENDBRANCH  29  35
BRANCH  30  38
ATOM     38  O   UNL     1       0.034   1.606   1.471  1.00  0.00    -0.387 OA
ATOM     39  H   UNL     1       0.445   2.063   2.252  1.00  0.00     0.211 HD
ENDBRANCH  30  38
ENDBRANCH   1  25
TORSDOF 11
ENDMDL
MODEL 2
REMARK VINA RESULT:    13.881      1.266      2.139
REMARK INTER + INTRA:          23.209
REMARK INTER:                  23.653
REMARK INTRA:                  -0.444
REMARK UNBOUND:                 3.242
REMARK SMILES O=c1c(O[C@@H]2O[C@@H](CO)[C@H](O)[C@H](O)[C@@H]2O)c(-c2ccc(O)cc2)oc2cc(O)cc(O)c12
REMARK SMILES IDX 4 1 3 2 16 3 24 4 2 5 25 6 1 7 32 8 26 9 30 10 27 11 29 12
REMARK SMILES IDX 17 13 18 14 19 15 20 16 23 17 22 18 21 19 31 21 28 23 5 25
REMARK SMILES IDX 14 26 6 27 12 28 7 29 10 30 15 31 13 33 8 35 9 36 11 38
REMARK H PARENT 21 20 31 22 28 24 15 32 13 34 9 37 11 39
REMARK Flexibility Score: inf
ROOT
ATOM      1  O   UNL     1      -0.123  -2.828   0.112  1.00  0.00    -0.454 OA
ENDROOT
BRANCH   1   2
ATOM      2  C   UNL     1      -0.379  -4.112   0.645  1.00  0.00     0.214 A 
ATOM      3  C   UNL     1      -1.643  -4.387   1.224  1.00  0.00     0.180 A 
ATOM      4  O   UNL     1      -1.905  -5.601   1.697  1.00  0.00    -0.452 OA
ATOM      5  C   UNL     1       0.573  -5.163   0.615  1.00  0.00     0.239 A 
ATOM      6  C   UNL     1      -1.049  -6.609   1.662  1.00  0.00     0.146 A 
ATOM      7  O   UNL     1       1.738  -4.945   0.197  1.00  0.00    -0.285 OA
ATOM      8  C   UNL     1       0.227  -6.453   1.075  1.00  0.00     0.111 A 
ATOM      9  C   UNL     1      -1.425  -7.829   2.227  1.00  0.00     0.094 A 
ATOM     10  C   UNL     1       1.093  -7.587   1.019  1.00  0.00     0.134 A 
ATOM     11  C   UNL     1      -0.541  -8.911   2.233  1.00  0.00     0.123 A 
ATOM     12  C   UNL     1       0.711  -8.782   1.635  1.00  0.00     0.093 A 
BRANCH   3  13
ATOM     13  C   UNL     1      -2.714  -3.370   1.377  1.00  0.00     0.021 A 
ATOM     14  C   UNL     1      -2.848  -2.374   0.387  1.00  0.00     0.016 A 
ATOM     15  C   UNL     1      -3.936  -1.499   0.393  1.00  0.00     0.047 A 
ATOM     16  C   UNL     1      -4.910  -1.604   1.389  1.00  0.00     0.115 A 
ATOM     17  C   UNL     1      -3.707  -3.473   2.369  1.00  0.00     0.016 A 
ATOM     18  C   UNL     1      -4.789  -2.586   2.377  1.00  0.00     0.047 A 
BRANCH  16  19
ATOM     19  O   UNL     1      -6.001  -0.742   1.405  1.00  0.00    -0.508 OA
ATOM     20  H   UNL     1      -6.844  -0.937   0.867  1.00  0.00     0.293 HD
ENDBRANCH  16  19
ENDBRANCH   3  13
BRANCH  10  21
ATOM     21  O   UNL     1       2.322  -7.597   0.349  1.00  0.00    -0.507 OA
ATOM     22  H   UNL     1       2.850  -8.433   0.153  1.00  0.00     0.293 HD
ENDBRANCH  10  21
BRANCH  11  23
ATOM     23  O   UNL     1      -0.908 -10.125   2.814  1.00  0.00    -0.508 OA
ATOM     24  H   UNL     1      -0.817 -11.001   2.311  1.00  0.00     0.293 HD
ENDBRANCH  11  23
ENDBRANCH   1   2
BRANCH   1  25
ATOM     25  C   UNL     1       0.586  -1.771   0.782  1.00  0.00     0.339 C 
ATOM     26  C   UNL     1       1.855  -1.265   0.024  1.00  0.00     0.214 C 
ATOM     27  O   UNL     1      -0.292  -0.707   1.123  1.00  0.00    -0.332 OA
ATOM     28  C   UNL     1       1.550  -0.257  -1.107  1.00  0.00     0.180 C 
ATOM     29  C   UNL     1      -0.737   0.027  -0.007  1.00  0.00     0.179 C 
ATOM     30  C   UNL     1       0.458   0.740  -0.681  1.00  0.00     0.177 C 
BRANCH  26  31
ATOM     31  O   UNL     1       2.675  -2.315  -0.436  1.00  0.00    -0.384 OA
ATOM     32  H   UNL     1       3.471  -1.920  -0.882  1.00  0.00     0.211 HD
ENDBRANCH  26  31
BRANCH  28  33
ATOM     33  O   UNL     1       1.251  -0.879  -2.335  1.00  0.00    -0.387 OA
ATOM     34  H   UNL     1       0.267  -0.892  -2.466  1.00  0.00     0.211 HD
ENDBRANCH  28  33
BRANCH  29  35
ATOM     35  C   UNL     1      -1.765   1.067   0.477  1.00  0.00     0.191 C 
BRANCH  35  36
ATOM     36  O   UNL     1      -1.118   2.226   0.936  1.00  0.00    -0.394 OA
ATOM     37  H   UNL     1      -1.729   2.629   1.607  1.00  0.00     0.210 HD
ENDBRANCH  35  36
ENDBRANCH  29  35
BRANCH  30  38
ATOM     38  O   UNL     1       0.069   1.555  -1.765  1.00  0.00    -0.387 OA
ATOM     39  H   UNL     1      -0.797   1.209  -2.108  1.00  0.00     0.211 HD
ENDBRANCH  30  38
ENDBRANCH   1  25
TORSDOF 11
ENDMDL
MODEL 3
REMARK VINA RESULT:    14.778      1.726      4.509
REMARK INTER + INTRA:          24.499
REMARK INTER:                  24.685
REMARK INTRA:                  -0.186
REMARK UNBOUND:                 3.242
REMARK SMILES O=c1c(O[C@@H]2O[C@@H](CO)[C@H](O)[C@H](O)[C@@H]2O)c(-c2ccc(O)cc2)oc2cc(O)cc(O)c12
REMARK SMILES IDX 4 1 3 2 16 3 24 4 2 5 25 6 1 7 32 8 26 9 30 10 27 11 29 12
REMARK SMILES IDX 17 13 18 14 19 15 20 16 23 17 22 18 21 19 31 21 28 23 5 25
REMARK SMILES IDX 14 26 6 27 12 28 7 29 10 30 15 31 13 33 8 35 9 36 11 38
REMARK H PARENT 21 20 31 22 28 24 15 32 13 34 9 37 11 39
REMARK Flexibility Score: inf
ROOT
ATOM      1  O   UNL     1      -0.718  -1.742   0.129  1.00  0.00    -0.454 OA
ENDROOT
BRANCH   1   2
ATOM      2  C   UNL     1      -0.297  -3.079   0.320  1.00  0.00     0.214 A 
ATOM      3  C   UNL     1       1.051  -3.429   0.062  1.00  0.00     0.180 A 
ATOM      4  O   UNL     1       1.463  -4.675   0.271  1.00  0.00    -0.452 OA
ATOM      5  C   UNL     1      -1.166  -4.101   0.783  1.00  0.00     0.239 A 
ATOM      6  C   UNL     1       0.686  -5.645   0.723  1.00  0.00     0.146 A 
ATOM      7  O   UNL     1      -2.390  -3.863   0.939  1.00  0.00    -0.285 OA
ATOM      8  C   UNL     1      -0.667  -5.396   1.048  1.00  0.00     0.111 A 
ATOM      9  C   UNL     1       1.224  -6.926   0.866  1.00  0.00     0.094 A 
ATOM     10  C   UNL     1      -1.448  -6.466   1.580  1.00  0.00     0.134 A 
ATOM     11  C   UNL     1       0.431  -7.983   1.318  1.00  0.00     0.123 A 
ATOM     12  C   UNL     1      -0.899  -7.748   1.666  1.00  0.00     0.093 A 
BRANCH   3  13
ATOM     13  C   UNL     1       2.056  -2.480  -0.480  1.00  0.00     0.021 A 
ATOM     14  C   UNL     1       1.609  -1.392  -1.258  1.00  0.00     0.016 A 
ATOM     15  C   UNL     1       2.489  -0.381  -1.650  1.00  0.00     0.047 A 
ATOM     16  C   UNL     1       3.832  -0.440  -1.271  1.00  0.00     0.115 A 
ATOM     17  C   UNL     1       3.409  -2.524  -0.096  1.00  0.00     0.016 A 
ATOM     18  C   UNL     1       4.289  -1.514  -0.501  1.00  0.00     0.047 A 
BRANCH  16  19
ATOM     19  O   UNL     1       4.718   0.562  -1.650  1.00  0.00    -0.508 OA
ATOM     20  H   UNL     1       4.573   1.113  -2.495  1.00  0.00     0.293 HD
ENDBRANCH  16  19
ENDBRANCH   3  13
BRANCH  10  21
ATOM     21  O   UNL     1      -2.753  -6.314   2.062  1.00  0.00    -0.507 OA
ATOM     22  H   UNL     1      -3.113  -5.458   2.454  1.00  0.00     0.293 HD
ENDBRANCH  10  21
BRANCH  11  23
ATOM     23  O   UNL     1       0.961  -9.267   1.442  1.00  0.00    -0.508 OA
ATOM     24  H   UNL     1       1.362  -9.591   2.315  1.00  0.00     0.293 HD
ENDBRANCH  11  23
ENDBRANCH   1   2
BRANCH   1  25
ATOM     25  C   UNL     1      -1.176  -0.854   1.164  1.00  0.00     0.339 C 
ATOM     26  C   UNL     1      -0.722   0.630   0.987  1.00  0.00     0.214 C 
ATOM     27  O   UNL     1      -2.582  -0.964   1.340  1.00  0.00    -0.332 OA
ATOM     28  C   UNL     1      -1.589   1.439  -0.004  1.00  0.00     0.180 C 
ATOM     29  C   UNL     1      -3.320  -0.420   0.258  1.00  0.00     0.179 C 
ATOM     30  C   UNL     1      -3.082   1.105   0.167  1.00  0.00     0.177 C 
BRANCH  26  31
ATOM     31  O   UNL     1       0.649   0.752   0.683  1.00  0.00    -0.384 OA
ATOM     32  H   UNL     1       0.797   1.632   0.246  1.00  0.00     0.211 HD
ENDBRANCH  26  31
BRANCH  28  33
ATOM     33  O   UNL     1      -1.165   1.309  -1.341  1.00  0.00    -0.387 OA
ATOM     34  H   UNL     1      -0.211   1.032  -1.358  1.00  0.00     0.211 HD
ENDBRANCH  28  33
BRANCH  29  35
ATOM     35  C   UNL     1      -4.813  -0.703   0.510  1.00  0.00     0.191 C 
BRANCH  35  36
ATOM     36  O   UNL     1      -4.984  -1.959   1.116  1.00  0.00    -0.394 OA
ATOM     37  H   UNL     1      -4.284  -2.017   1.818  1.00  0.00     0.210 HD
ENDBRANCH  35  36
ENDBRANCH  29  35
BRANCH  30  38
ATOM     38  O   UNL     1      -3.854   1.722  -0.842  1.00  0.00    -0.387 OA
ATOM     39  H   UNL     1      -3.419   1.529  -1.714  1.00  0.00     0.211 HD
ENDBRANCH  30  38
ENDBRANCH   1  25
TORSDOF 11
ENDMDL
MODEL 4
REMARK VINA RESULT:    15.038      2.568      5.678
REMARK INTER + INTRA:          24.874
REMARK INTER:                  24.698
REMARK INTRA:                   0.176
REMARK UNBOUND:                 3.242
REMARK SMILES O=c1c(O[C@@H]2O[C@@H](CO)[C@H](O)[C@H](O)[C@@H]2O)c(-c2ccc(O)cc2)oc2cc(O)cc(O)c12
REMARK SMILES IDX 4 1 3 2 16 3 24 4 2 5 25 6 1 7 32 8 26 9 30 10 27 11 29 12
REMARK SMILES IDX 17 13 18 14 19 15 20 16 23 17 22 18 21 19 31 21 28 23 5 25
REMARK SMILES IDX 14 26 6 27 12 28 7 29 10 30 15 31 13 33 8 35 9 36 11 38
REMARK H PARENT 21 20 31 22 28 24 15 32 13 34 9 37 11 39
REMARK Flexibility Score: inf
ROOT
ATOM      1  O   UNL     1      -0.054   0.114  -1.712  1.00  0.00    -0.454 OA
ENDROOT
BRANCH   1   2
ATOM      2  C   UNL     1       1.195  -0.380  -1.273  1.00  0.00     0.214 A 
ATOM      3  C   UNL     1       1.237  -1.501  -0.407  1.00  0.00     0.180 A 
ATOM      4  O   UNL     1       2.407  -1.993  -0.016  1.00  0.00    -0.452 OA
ATOM      5  C   UNL     1       2.433   0.185  -1.676  1.00  0.00     0.239 A 
ATOM      6  C   UNL     1       3.578  -1.505  -0.392  1.00  0.00     0.146 A 
ATOM      7  O   UNL     1       2.449   1.233  -2.369  1.00  0.00    -0.285 OA
ATOM      8  C   UNL     1       3.652  -0.411  -1.284  1.00  0.00     0.111 A 
ATOM      9  C   UNL     1       4.742  -2.085   0.117  1.00  0.00     0.094 A 
ATOM     10  C   UNL     1       4.941   0.044  -1.697  1.00  0.00     0.134 A 
ATOM     11  C   UNL     1       5.997  -1.583  -0.237  1.00  0.00     0.123 A 
ATOM     12  C   UNL     1       6.088  -0.521  -1.135  1.00  0.00     0.093 A 
BRANCH   3  13
ATOM     13  C   UNL     1       0.024  -2.159   0.142  1.00  0.00     0.021 A 
ATOM     14  C   UNL     1       0.070  -3.541   0.417  1.00  0.00     0.016 A 
ATOM     15  C   UNL     1      -0.979  -4.175   1.086  1.00  0.00     0.047 A 
ATOM     16  C   UNL     1      -2.093  -3.437   1.494  1.00  0.00     0.115 A 
ATOM     17  C   UNL     1      -1.099  -1.423   0.567  1.00  0.00     0.016 A 
ATOM     18  C   UNL     1      -2.152  -2.065   1.227  1.00  0.00     0.047 A 
BRANCH  16  19
ATOM     19  O   UNL     1      -3.142  -4.053   2.165  1.00  0.00    -0.508 OA
ATOM     20  H   UNL     1      -3.658  -4.830   1.754  1.00  0.00     0.293 HD
ENDBRANCH  16  19
ENDBRANCH   3  13
BRANCH  10  21
ATOM     21  O   UNL     1       5.144   1.026  -2.673  1.00  0.00    -0.507 OA
ATOM     22  H   UNL     1       4.619   1.885  -2.727  1.00  0.00     0.293 HD
ENDBRANCH  10  21
BRANCH  11  23
ATOM     23  O   UNL     1       7.161  -2.148   0.286  1.00  0.00    -0.508 OA
ATOM     24  H   UNL     1       7.879  -2.532  -0.318  1.00  0.00     0.293 HD
ENDBRANCH  11  23
ENDBRANCH   1   2
BRANCH   1  25
ATOM     25  C   UNL     1      -0.476   1.488  -1.654  1.00  0.00     0.339 C 
ATOM     26  C   UNL     1      -1.976   1.717  -2.027  1.00  0.00     0.214 C 
ATOM     27  O   UNL     1      -0.143   2.068  -0.401  1.00  0.00    -0.332 OA
ATOM     28  C   UNL     1      -2.962   1.431  -0.871  1.00  0.00     0.180 C 
ATOM     29  C   UNL     1      -0.928   1.565   0.669  1.00  0.00     0.179 C 
ATOM     30  C   UNL     1      -2.411   1.955   0.468  1.00  0.00     0.177 C 
BRANCH  26  31
ATOM     31  O   UNL     1      -2.360   1.041  -3.203  1.00  0.00    -0.384 OA
ATOM     32  H   UNL     1      -2.786   1.696  -3.817  1.00  0.00     0.211 HD
ENDBRANCH  26  31
BRANCH  28  33
ATOM     33  O   UNL     1      -3.345   0.078  -0.795  1.00  0.00    -0.387 OA
ATOM     34  H   UNL     1      -4.086  -0.018  -0.141  1.00  0.00     0.211 HD
ENDBRANCH  28  33
BRANCH  29  35
ATOM     35  C   UNL     1      -0.397   2.178   1.978  1.00  0.00     0.191 C 
BRANCH  35  36
ATOM     36  O   UNL     1       0.005   3.509   1.775  1.00  0.00    -0.394 OA
ATOM     37  H   UNL     1      -0.137   3.969   2.643  1.00  0.00     0.210 HD
ENDBRANCH  35  36
ENDBRANCH  29  35
BRANCH  30  38
ATOM     38  O   UNL     1      -3.234   1.553   1.542  1.00  0.00    -0.387 OA
ATOM     39  H   UNL     1      -2.673   1.028   2.172  1.00  0.00     0.211 HD
ENDBRANCH  30  38
ENDBRANCH   1  25
TORSDOF 11
ENDMDL
MODEL 5
REMARK VINA RESULT:    15.746      2.140      6.736
REMARK INTER + INTRA:          25.893
REMARK INTER:                  26.128
REMARK INTRA:                  -0.236
REMARK UNBOUND:                 3.242
REMARK SMILES O=c1c(O[C@@H]2O[C@@H](CO)[C@H](O)[C@H](O)[C@@H]2O)c(-c2ccc(O)cc2)oc2cc(O)cc(O)c12
REMARK SMILES IDX 4 1 3 2 16 3 24 4 2 5 25 6 1 7 32 8 26 9 30 10 27 11 29 12
REMARK SMILES IDX 17 13 18 14 19 15 20 16 23 17 22 18 21 19 31 21 28 23 5 25
REMARK SMILES IDX 14 26 6 27 12 28 7 29 10 30 15 31 13 33 8 35 9 36 11 38
REMARK H PARENT 21 20 31 22 28 24 15 32 13 34 9 37 11 39
REMARK Flexibility Score: inf
ROOT
ATOM      1  O   UNL     1      -2.288  -2.765   0.777  1.00  0.00    -0.454 OA
ENDROOT
BRANCH   1   2
ATOM      2  C   UNL     1      -0.945  -2.493   0.428  1.00  0.00     0.214 A 
ATOM      3  C   UNL     1      -0.009  -3.555   0.380  1.00  0.00     0.180 A 
ATOM      4  O   UNL     1       1.248  -3.314   0.020  1.00  0.00    -0.452 OA
ATOM      5  C   UNL     1      -0.482  -1.193   0.100  1.00  0.00     0.239 A 
ATOM      6  C   UNL     1       1.705  -2.119  -0.315  1.00  0.00     0.146 A 
ATOM      7  O   UNL     1      -1.250  -0.204   0.216  1.00  0.00    -0.285 OA
ATOM      8  C   UNL     1       0.847  -0.997  -0.335  1.00  0.00     0.111 A 
ATOM      9  C   UNL     1       3.057  -1.984  -0.638  1.00  0.00     0.094 A 
ATOM     10  C   UNL     1       1.381   0.260  -0.753  1.00  0.00     0.134 A 
ATOM     11  C   UNL     1       3.585  -0.735  -0.974  1.00  0.00     0.123 A 
ATOM     12  C   UNL     1       2.746   0.378  -1.023  1.00  0.00     0.093 A 
BRANCH   3  13
ATOM     13  C   UNL     1      -0.336  -4.955   0.752  1.00  0.00     0.021 A 
ATOM     14  C   UNL     1       0.723  -5.859   0.979  1.00  0.00     0.016 A 
ATOM     15  C   UNL     1       0.479  -7.135   1.492  1.00  0.00     0.047 A 
ATOM     16  C   UNL     1      -0.828  -7.529   1.788  1.00  0.00     0.115 A 
ATOM     17  C   UNL     1      -1.647  -5.359   1.065  1.00  0.00     0.016 A 
ATOM     18  C   UNL     1      -1.887  -6.643   1.568  1.00  0.00     0.047 A 
BRANCH  16  19
ATOM     19  O   UNL     1      -1.085  -8.794   2.304  1.00  0.00    -0.508 OA
ATOM     20  H   UNL     1      -0.338  -9.466   2.471  1.00  0.00     0.293 HD
ENDBRANCH  16  19
ENDBRANCH   3  13
BRANCH  10  21
ATOM     21  O   UNL     1       0.607   1.411  -0.942  1.00  0.00    -0.507 OA
ATOM     22  H   UNL     1       0.984   2.304  -1.219  1.00  0.00     0.293 HD
ENDBRANCH  10  21
BRANCH  11  23
ATOM     23  O   UNL     1       4.939  -0.594  -1.278  1.00  0.00    -0.508 OA
ATOM     24  H   UNL     1       5.350   0.317  -1.447  1.00  0.00     0.293 HD
ENDBRANCH  11  23
ENDBRANCH   1   2
BRANCH   1  25
ATOM     25  C   UNL     1      -3.077  -2.010   1.714  1.00  0.00     0.339 C 
ATOM     26  C   UNL     1      -4.253  -1.210   1.068  1.00  0.00     0.214 C 
ATOM     27  O   UNL     1      -3.517  -2.834   2.785  1.00  0.00    -0.332 OA
ATOM     28  C   UNL     1      -5.513  -2.060   0.788  1.00  0.00     0.180 C 
ATOM     29  C   UNL     1      -4.505  -3.773   2.392  1.00  0.00     0.179 C 
ATOM     30  C   UNL     1      -5.790  -3.037   1.945  1.00  0.00     0.177 C 
BRANCH  26  31
ATOM     31  O   UNL     1      -3.861  -0.487  -0.077  1.00  0.00    -0.384 OA
ATOM     32  H   UNL     1      -4.679  -0.220  -0.575  1.00  0.00     0.211 HD
ENDBRANCH  26  31
BRANCH  28  33
ATOM     33  O   UNL     1      -5.472  -2.713  -0.459  1.00  0.00    -0.387 OA
ATOM     34  H   UNL     1      -5.402  -3.693  -0.316  1.00  0.00     0.211 HD
ENDBRANCH  28  33
BRANCH  29  35
ATOM     35  C   UNL     1      -4.811  -4.675   3.603  1.00  0.00     0.191 C 
BRANCH  35  36
ATOM     36  O   UNL     1      -4.434  -4.044   4.800  1.00  0.00    -0.394 OA
ATOM     37  H   UNL     1      -3.467  -3.838   4.703  1.00  0.00     0.210 HD
ENDBRANCH  35  36
ENDBRANCH  29  35
BRANCH  30  38
ATOM     38  O   UNL     1      -6.842  -3.920   1.619  1.00  0.00    -0.387 OA
ATOM     39  H   UNL     1      -6.529  -4.844   1.806  1.00  0.00     0.211 HD
ENDBRANCH  30  38
ENDBRANCH   1  25
TORSDOF 11
ENDMDL
