MODEL 1
REMARK VINA RESULT:    -5.606      0.000      0.000
REMARK INTER + INTRA:         -11.793
REMARK INTER:                 -10.522
REMARK INTRA:                  -1.271
REMARK UNBOUND:                -1.271
REMARK SMILES CCCCCCCCC=CCCCCCCCC(=O)[O-]
REMARK SMILES IDX 10 1 9 2 11 3 12 4 13 5 14 6 15 7 16 8 17 9 18 10 19 11
REMARK SMILES IDX 20 12 8 13 7 14 6 15 5 16 4 17 3 18 2 19 1 20
REMARK H PARENT
REMARK Flexibility Score: inf
ROOT
ATOM      1  C   UNL     1      45.427  43.213  32.444  1.00  0.00    -0.031 C 
ATOM      2  C   UNL     1      45.480  43.097  31.103  1.00  0.00    -0.031 C 
ENDROOT
BRANCH   1   3
ATOM      3  C   UNL     1      45.014  44.459  33.193  1.00  0.00     0.027 C 
BRANCH   3   4
ATOM      4  C   UNL     1      46.225  45.345  33.511  1.00  0.00     0.004 C 
BRANCH   4   5
ATOM      5  C   UNL     1      46.222  45.827  34.968  1.00  0.00     0.000 C 
BRANCH   5   6
ATOM      6  C   UNL     1      44.976  46.670  35.266  1.00  0.00     0.000 C 
BRANCH   6   7
ATOM      7  C   UNL     1      45.363  48.067  35.764  1.00  0.00     0.000 C 
BRANCH   7   8
ATOM      8  C   UNL     1      46.872  48.306  35.614  1.00  0.00     0.006 C 
BRANCH   8   9
ATOM      9  C   UNL     1      47.185  49.674  34.995  1.00  0.00     0.053 C 
BRANCH   9  10
ATOM     10  C   UNL     1      48.657  49.884  34.822  1.00  0.00     0.041 C 
ATOM     11  O   UNL     1      49.333  50.412  35.744  1.00  0.00    -0.550 OA
ATOM     12  O   UNL     1      49.288  49.469  33.656  1.00  0.00    -0.550 OA
ENDBRANCH   9  10
ENDBRANCH   8   9
ENDBRANCH   7   8
ENDBRANCH   6   7
ENDBRANCH   5   6
ENDBRANCH   4   5
ENDBRANCH   3   4
ENDBRANCH   1   3
BRANCH   2  13
ATOM     13  C   UNL     1      45.084  44.179  30.129  1.00  0.00     0.027 C 
BRANCH  13  14
ATOM     14  C   UNL     1      45.932  44.157  28.842  1.00  0.00     0.004 C 
BRANCH  14  15
ATOM     15  C   UNL     1      45.554  45.254  27.830  1.00  0.00     0.000 C 
BRANCH  15  16
ATOM     16  C   UNL     1      45.334  44.710  26.412  1.00  0.00     0.000 C 
BRANCH  16  17
ATOM     17  C   UNL     1      43.857  44.814  26.005  1.00  0.00    -0.000 C 
BRANCH  17  18
ATOM     18  C   UNL     1      43.038  43.571  26.401  1.00  0.00    -0.000 C 
BRANCH  18  19
ATOM     19  C   UNL     1      43.753  42.227  26.178  1.00  0.00    -0.003 C 
ATOM     20  C   UNL     1      43.770  41.345  27.425  1.00  0.00     0.004 C 
ENDBRANCH  18  19
ENDBRANCH  17  18
ENDBRANCH  16  17
ENDBRANCH  15  16
ENDBRANCH  14  15
ENDBRANCH  13  14
ENDBRANCH   2  13
TORSDOF 15
ENDMDL
MODEL 2
REMARK VINA RESULT:    -5.501      7.549      9.751
REMARK INTER + INTRA:         -11.596
REMARK INTER:                  -9.157
REMARK INTRA:                  -2.440
REMARK UNBOUND:                -1.271
REMARK SMILES CCCCCCCCC=CCCCCCCCC(=O)[O-]
REMARK SMILES IDX 10 1 9 2 11 3 12 4 13 5 14 6 15 7 16 8 17 9 18 10 19 11
REMARK SMILES IDX 20 12 8 13 7 14 6 15 5 16 4 17 3 18 2 19 1 20
REMARK H PARENT
REMARK Flexibility Score: inf
ROOT
ATOM      1  C   UNL     1      43.962  52.956  34.914  1.00  0.00    -0.031 C 
ATOM      2  C   UNL     1      43.256  52.018  35.573  1.00  0.00    -0.031 C 
ENDROOT
BRANCH   1   3
ATOM      3  C   UNL     1      43.598  53.528  33.563  1.00  0.00     0.027 C 
BRANCH   3   4
ATOM      4  C   UNL     1      43.466  55.055  33.623  1.00  0.00     0.004 C 
BRANCH   4   5
ATOM      5  C   UNL     1      42.224  55.498  34.410  1.00  0.00     0.000 C 
BRANCH   5   6
ATOM      6  C   UNL     1      42.619  56.309  35.649  1.00  0.00     0.000 C 
BRANCH   6   7
ATOM      7  C   UNL     1      42.291  55.542  36.936  1.00  0.00     0.000 C 
BRANCH   7   8
ATOM      8  C   UNL     1      43.484  55.555  37.903  1.00  0.00     0.006 C 
BRANCH   8   9
ATOM      9  C   UNL     1      44.819  55.760  37.176  1.00  0.00     0.053 C 
BRANCH   9  10
ATOM     10  C   UNL     1      45.599  56.899  37.755  1.00  0.00     0.041 C 
ATOM     11  O   UNL     1      46.631  57.321  37.169  1.00  0.00    -0.550 OA
ATOM     12  O   UNL     1      45.169  57.516  38.923  1.00  0.00    -0.550 OA
ENDBRANCH   9  10
ENDBRANCH   8   9
ENDBRANCH   7   8
ENDBRANCH   6   7
ENDBRANCH   5   6
ENDBRANCH   4   5
ENDBRANCH   3   4
ENDBRANCH   1   3
BRANCH   2  13
ATOM     13  C   UNL     1      41.955  51.423  35.093  1.00  0.00     0.027 C 
BRANCH  13  14
ATOM     14  C   UNL     1      40.724  52.095  35.733  1.00  0.00     0.004 C 
BRANCH  14  15
ATOM     15  C   UNL     1      39.824  52.831  34.725  1.00  0.00     0.000 C 
BRANCH  15  16
ATOM     16  C   UNL     1      40.081  52.409  33.272  1.00  0.00     0.000 C 
BRANCH  16  17
ATOM     17  C   UNL     1      39.099  51.312  32.835  1.00  0.00    -0.000 C 
BRANCH  17  18
ATOM     18  C   UNL     1      39.702  50.345  31.799  1.00  0.00    -0.000 C 
BRANCH  18  19
ATOM     19  C   UNL     1      40.009  48.935  32.333  1.00  0.00    -0.003 C 
ATOM     20  C   UNL     1      38.828  47.976  32.200  1.00  0.00     0.004 C 
ENDBRANCH  18  19
ENDBRANCH  17  18
ENDBRANCH  16  17
ENDBRANCH  15  16
ENDBRANCH  14  15
ENDBRANCH  13  14
ENDBRANCH   2  13
TORSDOF 15
ENDMDL
MODEL 3
REMARK VINA RESULT:    -5.430      5.490      9.314
REMARK INTER + INTRA:         -11.464
REMARK INTER:                 -10.513
REMARK INTRA:                  -0.950
REMARK UNBOUND:                -1.271
REMARK SMILES CCCCCCCCC=CCCCCCCCC(=O)[O-]
REMARK SMILES IDX 10 1 9 2 11 3 12 4 13 5 14 6 15 7 16 8 17 9 18 10 19 11
REMARK SMILES IDX 20 12 8 13 7 14 6 15 5 16 4 17 3 18 2 19 1 20
REMARK H PARENT
REMARK Flexibility Score: inf
ROOT
ATOM      1  C   UNL     1      50.749  49.860  36.986  1.00  0.00    -0.031 C 
ATOM      2  C   UNL     1      49.781  49.753  36.056  1.00  0.00    -0.031 C 
ENDROOT
BRANCH   1   3
ATOM      3  C   UNL     1      51.346  51.160  37.472  1.00  0.00     0.027 C 
BRANCH   3   4
ATOM      4  C   UNL     1      52.637  50.919  38.265  1.00  0.00     0.004 C 
BRANCH   4   5
ATOM      5  C   UNL     1      52.468  51.240  39.757  1.00  0.00     0.000 C 
BRANCH   5   6
ATOM      6  C   UNL     1      51.745  50.102  40.486  1.00  0.00     0.000 C 
BRANCH   6   7
ATOM      7  C   UNL     1      50.694  50.651  41.458  1.00  0.00     0.000 C 
BRANCH   7   8
ATOM      8  C   UNL     1      51.250  50.721  42.888  1.00  0.00     0.006 C 
BRANCH   8   9
ATOM      9  C   UNL     1      50.637  51.873  43.693  1.00  0.00     0.053 C 
BRANCH   9  10
ATOM     10  C   UNL     1      51.428  53.136  43.549  1.00  0.00     0.041 C 
ATOM     11  O   UNL     1      50.943  54.234  43.932  1.00  0.00    -0.550 OA
ATOM     12  O   UNL     1      52.713  53.097  43.023  1.00  0.00    -0.550 OA
ENDBRANCH   9  10
ENDBRANCH   8   9
ENDBRANCH   7   8
ENDBRANCH   6   7
ENDBRANCH   5   6
ENDBRANCH   4   5
ENDBRANCH   3   4
ENDBRANCH   1   3
BRANCH   2  13
ATOM     13  C   UNL     1      49.097  50.919  35.385  1.00  0.00     0.027 C 
BRANCH  13  14
ATOM     14  C   UNL     1      47.803  50.508  34.656  1.00  0.00     0.004 C 
BRANCH  14  15
ATOM     15  C   UNL     1      47.494  49.003  34.741  1.00  0.00     0.000 C 
BRANCH  15  16
ATOM     16  C   UNL     1      46.193  48.700  35.497  1.00  0.00     0.000 C 
BRANCH  16  17
ATOM     17  C   UNL     1      46.132  47.225  35.920  1.00  0.00    -0.000 C 
BRANCH  17  18
ATOM     18  C   UNL     1      45.208  46.382  35.022  1.00  0.00    -0.000 C 
BRANCH  18  19
ATOM     19  C   UNL     1      45.937  45.470  34.018  1.00  0.00    -0.003 C 
ATOM     20  C   UNL     1      45.032  44.392  33.424  1.00  0.00     0.004 C 
ENDBRANCH  18  19
ENDBRANCH  17  18
ENDBRANCH  16  17
ENDBRANCH  15  16
ENDBRANCH  14  15
ENDBRANCH  13  14
ENDBRANCH   2  13
TORSDOF 15
ENDMDL
MODEL 4
REMARK VINA RESULT:    -5.401      6.393      9.403
REMARK INTER + INTRA:         -11.408
REMARK INTER:                  -9.911
REMARK INTRA:                  -1.497
REMARK UNBOUND:                -1.271
REMARK SMILES CCCCCCCCC=CCCCCCCCC(=O)[O-]
REMARK SMILES IDX 10 1 9 2 11 3 12 4 13 5 14 6 15 7 16 8 17 9 18 10 19 11
REMARK SMILES IDX 20 12 8 13 7 14 6 15 5 16 4 17 3 18 2 19 1 20
REMARK H PARENT
REMARK Flexibility Score: inf
ROOT
ATOM      1  C   UNL     1      50.944  49.848  37.404  1.00  0.00    -0.031 C 
ATOM      2  C   UNL     1      50.095  49.776  36.361  1.00  0.00    -0.031 C 
ENDROOT
BRANCH   1   3
ATOM      3  C   UNL     1      51.459  51.129  38.019  1.00  0.00     0.027 C 
BRANCH   3   4
ATOM      4  C   UNL     1      52.820  50.915  38.694  1.00  0.00     0.004 C 
BRANCH   4   5
ATOM      5  C   UNL     1      52.732  51.029  40.222  1.00  0.00     0.000 C 
BRANCH   5   6
ATOM      6  C   UNL     1      51.438  51.733  40.648  1.00  0.00     0.000 C 
BRANCH   6   7
ATOM      7  C   UNL     1      50.802  51.032  41.854  1.00  0.00     0.000 C 
BRANCH   7   8
ATOM      8  C   UNL     1      50.493  49.561  41.536  1.00  0.00     0.006 C 
BRANCH   8   9
ATOM      9  C   UNL     1      49.424  48.978  42.468  1.00  0.00     0.053 C 
BRANCH   9  10
ATOM     10  C   UNL     1      48.717  47.814  41.845  1.00  0.00     0.041 C 
ATOM     11  O   UNL     1      47.782  47.238  42.462  1.00  0.00    -0.550 OA
ATOM     12  O   UNL     1      49.069  47.385  40.572  1.00  0.00    -0.550 OA
ENDBRANCH   9  10
ENDBRANCH   8   9
ENDBRANCH   7   8
ENDBRANCH   6   7
ENDBRANCH   5   6
ENDBRANCH   4   5
ENDBRANCH   3   4
ENDBRANCH   1   3
BRANCH   2  13
ATOM     13  C   UNL     1      49.478  50.967  35.669  1.00  0.00     0.027 C 
BRANCH  13  14
ATOM     14  C   UNL     1      48.301  50.576  34.755  1.00  0.00     0.004 C 
BRANCH  14  15
ATOM     15  C   UNL     1      48.555  49.307  33.923  1.00  0.00     0.000 C 
BRANCH  15  16
ATOM     16  C   UNL     1      47.505  48.213  34.162  1.00  0.00     0.000 C 
BRANCH  16  17
ATOM     17  C   UNL     1      46.520  48.628  35.265  1.00  0.00    -0.000 C 
BRANCH  17  18
ATOM     18  C   UNL     1      45.800  47.428  35.907  1.00  0.00    -0.000 C 
BRANCH  18  19
ATOM     19  C   UNL     1      46.726  46.416  36.605  1.00  0.00    -0.003 C 
ATOM     20  C   UNL     1      47.857  47.081  37.387  1.00  0.00     0.004 C 
ENDBRANCH  18  19
ENDBRANCH  17  18
ENDBRANCH  16  17
ENDBRANCH  15  16
ENDBRANCH  14  15
ENDBRANCH  13  14
ENDBRANCH   2  13
TORSDOF 15
ENDMDL
MODEL 5
REMARK VINA RESULT:    -5.391      6.530     13.114
REMARK INTER + INTRA:         -11.389
REMARK INTER:                 -10.059
REMARK INTRA:                  -1.330
REMARK UNBOUND:                -1.271
REMARK SMILES CCCCCCCCC=CCCCCCCCC(=O)[O-]
REMARK SMILES IDX 10 1 9 2 11 3 12 4 13 5 14 6 15 7 16 8 17 9 18 10 19 11
REMARK SMILES IDX 20 12 8 13 7 14 6 15 5 16 4 17 3 18 2 19 1 20
REMARK H PARENT
REMARK Flexibility Score: inf
ROOT
ATOM      1  C   UNL     1      51.409  51.304  39.296  1.00  0.00    -0.031 C 
ATOM      2  C   UNL     1      51.486  51.800  40.546  1.00  0.00    -0.031 C 
ENDROOT
BRANCH   1   3
ATOM      3  C   UNL     1      52.588  50.847  38.469  1.00  0.00     0.027 C 
BRANCH   3   4
ATOM      4  C   UNL     1      52.176  50.567  37.018  1.00  0.00     0.004 C 
BRANCH   4   5
ATOM      5  C   UNL     1      50.755  51.062  36.715  1.00  0.00     0.000 C 
BRANCH   5   6
ATOM      6  C   UNL     1      49.934  49.977  36.007  1.00  0.00     0.000 C 
BRANCH   6   7
ATOM      7  C   UNL     1      48.953  50.596  35.005  1.00  0.00     0.000 C 
BRANCH   7   8
ATOM      8  C   UNL     1      47.586  49.899  35.071  1.00  0.00     0.006 C 
BRANCH   8   9
ATOM      9  C   UNL     1      47.598  48.686  36.010  1.00  0.00     0.053 C 
BRANCH   9  10
ATOM     10  C   UNL     1      46.740  47.573  35.492  1.00  0.00     0.041 C 
ATOM     11  O   UNL     1      46.553  47.442  34.254  1.00  0.00    -0.550 OA
ATOM     12  O   UNL     1      46.173  46.662  36.375  1.00  0.00    -0.550 OA
ENDBRANCH   9  10
ENDBRANCH   8   9
ENDBRANCH   7   8
ENDBRANCH   6   7
ENDBRANCH   5   6
ENDBRANCH   4   5
ENDBRANCH   3   4
ENDBRANCH   1   3
BRANCH   2  13
ATOM     13  C   UNL     1      52.759  51.932  41.344  1.00  0.00     0.027 C 
BRANCH  13  14
ATOM     14  C   UNL     1      52.614  52.896  42.537  1.00  0.00     0.004 C 
BRANCH  14  15
ATOM     15  C   UNL     1      52.236  52.201  43.856  1.00  0.00     0.000 C 
BRANCH  15  16
ATOM     16  C   UNL     1      50.722  52.012  44.021  1.00  0.00     0.000 C 
BRANCH  16  17
ATOM     17  C   UNL     1      50.389  50.579  44.461  1.00  0.00    -0.000 C 
BRANCH  17  18
ATOM     18  C   UNL     1      50.506  49.558  43.314  1.00  0.00    -0.000 C 
BRANCH  18  19
ATOM     19  C   UNL     1      49.266  49.458  42.408  1.00  0.00    -0.003 C 
ATOM     20  C   UNL     1      48.803  48.020  42.185  1.00  0.00     0.004 C 
ENDBRANCH  18  19
ENDBRANCH  17  18
ENDBRANCH  16  17
ENDBRANCH  15  16
ENDBRANCH  14  15
ENDBRANCH  13  14
ENDBRANCH   2  13
TORSDOF 15
ENDMDL
MODEL 6
REMARK VINA RESULT:    -5.356      5.196      8.786
REMARK INTER + INTRA:         -11.324
REMARK INTER:                 -10.362
REMARK INTRA:                  -0.962
REMARK UNBOUND:                -1.271
REMARK SMILES CCCCCCCCC=CCCCCCCCC(=O)[O-]
REMARK SMILES IDX 10 1 9 2 11 3 12 4 13 5 14 6 15 7 16 8 17 9 18 10 19 11
REMARK SMILES IDX 20 12 8 13 7 14 6 15 5 16 4 17 3 18 2 19 1 20
REMARK H PARENT
REMARK Flexibility Score: inf
ROOT
ATOM      1  C   UNL     1      45.951  42.257  32.958  1.00  0.00    -0.031 C 
ATOM      2  C   UNL     1      45.955  43.565  32.639  1.00  0.00    -0.031 C 
ENDROOT
BRANCH   1   3
ATOM      3  C   UNL     1      45.096  41.627  34.033  1.00  0.00     0.027 C 
BRANCH   3   4
ATOM      4  C   UNL     1      45.835  41.578  35.376  1.00  0.00     0.004 C 
BRANCH   4   5
ATOM      5  C   UNL     1      46.603  40.263  35.566  1.00  0.00     0.000 C 
BRANCH   5   6
ATOM      6  C   UNL     1      46.457  39.743  37.001  1.00  0.00     0.000 C 
BRANCH   6   7
ATOM      7  C   UNL     1      45.642  40.718  37.859  1.00  0.00     0.000 C 
BRANCH   7   8
ATOM      8  C   UNL     1      45.281  40.091  39.213  1.00  0.00     0.006 C 
BRANCH   8   9
ATOM      9  C   UNL     1      43.917  40.566  39.729  1.00  0.00     0.053 C 
BRANCH   9  10
ATOM     10  C   UNL     1      44.057  41.547  40.852  1.00  0.00     0.041 C 
ATOM     11  O   UNL     1      45.190  42.007  41.152  1.00  0.00    -0.550 OA
ATOM     12  O   UNL     1      42.933  41.976  41.546  1.00  0.00    -0.550 OA
ENDBRANCH   9  10
ENDBRANCH   8   9
ENDBRANCH   7   8
ENDBRANCH   6   7
ENDBRANCH   5   6
ENDBRANCH   4   5
ENDBRANCH   3   4
ENDBRANCH   1   3
BRANCH   2  13
ATOM     13  C   UNL     1      45.065  44.608  33.269  1.00  0.00     0.027 C 
BRANCH  13  14
ATOM     14  C   UNL     1      45.813  45.482  34.295  1.00  0.00     0.004 C 
BRANCH  14  15
ATOM     15  C   UNL     1      44.905  46.471  35.048  1.00  0.00     0.000 C 
BRANCH  15  16
ATOM     16  C   UNL     1      45.673  47.350  36.044  1.00  0.00     0.000 C 
BRANCH  16  17
ATOM     17  C   UNL     1      46.512  48.408  35.313  1.00  0.00    -0.000 C 
BRANCH  17  18
ATOM     18  C   UNL     1      47.928  48.559  35.899  1.00  0.00    -0.000 C 
BRANCH  18  19
ATOM     19  C   UNL     1      48.625  49.892  35.572  1.00  0.00    -0.003 C 
ATOM     20  C   UNL     1      47.833  50.755  34.591  1.00  0.00     0.004 C 
ENDBRANCH  18  19
ENDBRANCH  17  18
ENDBRANCH  16  17
ENDBRANCH  15  16
ENDBRANCH  14  15
ENDBRANCH  13  14
ENDBRANCH   2  13
TORSDOF 15
ENDMDL
MODEL 7
REMARK VINA RESULT:    -5.338      5.570     12.505
REMARK INTER + INTRA:         -11.290
REMARK INTER:                 -10.621
REMARK INTRA:                  -0.669
REMARK UNBOUND:                -1.271
REMARK SMILES CCCCCCCCC=CCCCCCCCC(=O)[O-]
REMARK SMILES IDX 10 1 9 2 11 3 12 4 13 5 14 6 15 7 16 8 17 9 18 10 19 11
REMARK SMILES IDX 20 12 8 13 7 14 6 15 5 16 4 17 3 18 2 19 1 20
REMARK H PARENT
REMARK Flexibility Score: inf
ROOT
ATOM      1  C   UNL     1      49.876  49.599  35.909  1.00  0.00    -0.031 C 
ATOM      2  C   UNL     1      50.725  49.842  36.926  1.00  0.00    -0.031 C 
ENDROOT
BRANCH   1   3
ATOM      3  C   UNL     1      49.168  50.658  35.096  1.00  0.00     0.027 C 
BRANCH   3   4
ATOM      4  C   UNL     1      47.725  50.244  34.778  1.00  0.00     0.004 C 
BRANCH   4   5
ATOM      5  C   UNL     1      47.261  49.059  35.637  1.00  0.00     0.000 C 
BRANCH   5   6
ATOM      6  C   UNL     1      46.646  47.957  34.766  1.00  0.00     0.000 C 
BRANCH   6   7
ATOM      7  C   UNL     1      45.730  47.049  35.595  1.00  0.00     0.000 C 
BRANCH   7   8
ATOM      8  C   UNL     1      45.008  46.031  34.700  1.00  0.00     0.006 C 
BRANCH   8   9
ATOM      9  C   UNL     1      45.986  45.199  33.861  1.00  0.00     0.053 C 
BRANCH   9  10
ATOM     10  C   UNL     1      45.289  44.100  33.120  1.00  0.00     0.041 C 
ATOM     11  O   UNL     1      44.894  44.285  31.938  1.00  0.00    -0.550 OA
ATOM     12  O   UNL     1      45.105  42.862  33.721  1.00  0.00    -0.550 OA
ENDBRANCH   9  10
ENDBRANCH   8   9
ENDBRANCH   7   8
ENDBRANCH   6   7
ENDBRANCH   5   6
ENDBRANCH   4   5
ENDBRANCH   3   4
ENDBRANCH   1   3
BRANCH   2  13
ATOM     13  C   UNL     1      51.147  51.216  37.385  1.00  0.00     0.027 C 
BRANCH  13  14
ATOM     14  C   UNL     1      52.054  51.172  38.631  1.00  0.00     0.004 C 
BRANCH  14  15
ATOM     15  C   UNL     1      51.312  50.803  39.927  1.00  0.00     0.000 C 
BRANCH  15  16
ATOM     16  C   UNL     1      51.468  51.860  41.029  1.00  0.00     0.000 C 
BRANCH  16  17
ATOM     17  C   UNL     1      51.697  51.200  42.397  1.00  0.00    -0.000 C 
BRANCH  17  18
ATOM     18  C   UNL     1      51.077  52.000  43.558  1.00  0.00    -0.000 C 
BRANCH  18  19
ATOM     19  C   UNL     1      51.586  53.446  43.692  1.00  0.00    -0.003 C 
ATOM     20  C   UNL     1      53.111  53.544  43.709  1.00  0.00     0.004 C 
ENDBRANCH  18  19
ENDBRANCH  17  18
ENDBRANCH  16  17
ENDBRANCH  15  16
ENDBRANCH  14  15
ENDBRANCH  13  14
ENDBRANCH   2  13
TORSDOF 15
ENDMDL
MODEL 8
REMARK VINA RESULT:    -5.224      8.183     12.818
REMARK INTER + INTRA:         -11.077
REMARK INTER:                  -9.122
REMARK INTRA:                  -1.955
REMARK UNBOUND:                -1.271
REMARK SMILES CCCCCCCCC=CCCCCCCCC(=O)[O-]
REMARK SMILES IDX 10 1 9 2 11 3 12 4 13 5 14 6 15 7 16 8 17 9 18 10 19 11
REMARK SMILES IDX 20 12 8 13 7 14 6 15 5 16 4 17 3 18 2 19 1 20
REMARK H PARENT
REMARK Flexibility Score: inf
ROOT
ATOM      1  C   UNL     1      43.579  54.267  34.095  1.00  0.00    -0.031 C 
ATOM      2  C   UNL     1      42.805  55.359  33.950  1.00  0.00    -0.031 C 
ENDROOT
BRANCH   1   3
ATOM      3  C   UNL     1      43.635  53.399  35.331  1.00  0.00     0.027 C 
BRANCH   3   4
ATOM      4  C   UNL     1      43.204  51.960  35.021  1.00  0.00     0.004 C 
BRANCH   4   5
ATOM      5  C   UNL     1      41.833  51.623  35.625  1.00  0.00     0.000 C 
BRANCH   5   6
ATOM      6  C   UNL     1      40.703  51.954  34.643  1.00  0.00     0.000 C 
BRANCH   6   7
ATOM      7  C   UNL     1      40.949  51.296  33.280  1.00  0.00     0.000 C 
BRANCH   7   8
ATOM      8  C   UNL     1      39.636  51.140  32.500  1.00  0.00     0.006 C 
BRANCH   8   9
ATOM      9  C   UNL     1      38.715  50.082  33.120  1.00  0.00     0.053 C 
BRANCH   9  10
ATOM     10  C   UNL     1      38.798  48.775  32.392  1.00  0.00     0.041 C 
ATOM     11  O   UNL     1      37.782  48.309  31.811  1.00  0.00    -0.550 OA
ATOM     12  O   UNL     1      40.004  48.089  32.328  1.00  0.00    -0.550 OA
ENDBRANCH   9  10
ENDBRANCH   8   9
ENDBRANCH   7   8
ENDBRANCH   6   7
ENDBRANCH   5   6
ENDBRANCH   4   5
ENDBRANCH   3   4
ENDBRANCH   1   3
BRANCH   2  13
ATOM     13  C   UNL     1      41.825  55.864  34.981  1.00  0.00     0.027 C 
BRANCH  13  14
ATOM     14  C   UNL     1      42.100  57.322  35.395  1.00  0.00     0.004 C 
BRANCH  14  15
ATOM     15  C   UNL     1      42.590  57.474  36.846  1.00  0.00     0.000 C 
BRANCH  15  16
ATOM     16  C   UNL     1      42.792  56.127  37.554  1.00  0.00     0.000 C 
BRANCH  16  17
ATOM     17  C   UNL     1      44.122  56.102  38.322  1.00  0.00    -0.000 C 
BRANCH  17  18
ATOM     18  C   UNL     1      45.342  55.925  37.400  1.00  0.00    -0.000 C 
BRANCH  18  19
ATOM     19  C   UNL     1      46.252  57.161  37.285  1.00  0.00    -0.003 C 
ATOM     20  C   UNL     1      45.972  58.211  38.359  1.00  0.00     0.004 C 
ENDBRANCH  18  19
ENDBRANCH  17  18
ENDBRANCH  16  17
ENDBRANCH  15  16
ENDBRANCH  14  15
ENDBRANCH  13  14
ENDBRANCH   2  13
TORSDOF 15
ENDMDL
