MODEL 1
REMARK VINA RESULT:    -5.607      0.000      0.000
REMARK INTER + INTRA:          -6.901
REMARK INTER:                  -6.591
REMARK INTRA:                  -0.310
REMARK UNBOUND:                -0.310
REMARK SMILES O=c1cc(-c2ccc(O)c(O)c2)oc2cc(O)cc(O)c12
REMARK SMILES IDX 4 1 3 2 2 3 1 4 21 5 19 6 18 7 16 8 15 9 14 10 13 11 5 12
REMARK SMILES IDX 6 13 7 14 8 15 12 16 10 17 9 18 11 20 20 22 17 24
REMARK H PARENT 9 19 11 21 20 23 17 25
REMARK Flexibility Score: inf
ROOT
ATOM      1  C   UNL     1     -12.042 -45.732  15.517  1.00  0.00     0.138 A 
ATOM      2  C   UNL     1     -12.427 -45.029  16.667  1.00  0.00     0.100 A 
ATOM      3  C   UNL     1     -13.426 -44.058  16.581  1.00  0.00     0.197 A 
ATOM      4  O   UNL     1     -13.794 -43.490  17.640  1.00  0.00    -0.289 OA
ATOM      5  C   UNL     1     -14.019 -43.769  15.328  1.00  0.00     0.107 A 
ATOM      6  C   UNL     1     -15.017 -42.772  15.113  1.00  0.00     0.134 A 
ATOM      7  C   UNL     1     -15.614 -42.655  13.851  1.00  0.00     0.093 A 
ATOM      8  C   UNL     1     -15.205 -43.458  12.783  1.00  0.00     0.123 A 
ATOM      9  C   UNL     1     -14.195 -44.397  12.970  1.00  0.00     0.094 A 
ATOM     10  C   UNL     1     -13.604 -44.562  14.225  1.00  0.00     0.146 A 
ATOM     11  O   UNL     1     -12.653 -45.480  14.364  1.00  0.00    -0.456 OA
ENDROOT
BRANCH   1  12
ATOM     12  C   UNL     1     -10.984 -46.774  15.553  1.00  0.00     0.021 A 
ATOM     13  C   UNL     1     -10.636 -47.434  16.747  1.00  0.00     0.016 A 
ATOM     14  C   UNL     1      -9.629 -48.403  16.753  1.00  0.00     0.051 A 
ATOM     15  C   UNL     1      -8.948 -48.724  15.576  1.00  0.00     0.157 A 
ATOM     16  C   UNL     1     -10.285 -47.092  14.375  1.00  0.00     0.062 A 
ATOM     17  C   UNL     1      -9.275 -48.064  14.380  1.00  0.00     0.158 A 
BRANCH  15  18
ATOM     18  O   UNL     1      -7.949 -49.696  15.614  1.00  0.00    -0.504 OA
ATOM     19  H   UNL     1      -7.856 -50.343  16.388  1.00  0.00     0.293 HD
ENDBRANCH  15  18
BRANCH  17  20
ATOM     20  O   UNL     1      -8.596 -48.377  13.203  1.00  0.00    -0.504 OA
ATOM     21  H   UNL     1      -7.604 -48.195  13.099  1.00  0.00     0.293 HD
ENDBRANCH  17  20
ENDBRANCH   1  12
BRANCH   6  22
ATOM     22  O   UNL     1     -15.436 -41.863  16.089  1.00  0.00    -0.507 OA
ATOM     23  H   UNL     1     -16.028 -41.065  15.918  1.00  0.00     0.293 HD
ENDBRANCH   6  22
BRANCH   8  24
ATOM     24  O   UNL     1     -15.796 -43.323  11.528  1.00  0.00    -0.508 OA
ATOM     25  H   UNL     1     -15.256 -43.056  10.714  1.00  0.00     0.293 HD
ENDBRANCH   8  24
TORSDOF 5
ENDMDL
MODEL 2
REMARK VINA RESULT:    -5.572      9.998     11.644
REMARK INTER + INTRA:          -6.860
REMARK INTER:                  -6.576
REMARK INTRA:                  -0.284
REMARK UNBOUND:                -0.310
REMARK SMILES O=c1cc(-c2ccc(O)c(O)c2)oc2cc(O)cc(O)c12
REMARK SMILES IDX 4 1 3 2 2 3 1 4 21 5 19 6 18 7 16 8 15 9 14 10 13 11 5 12
REMARK SMILES IDX 6 13 7 14 8 15 12 16 10 17 9 18 11 20 20 22 17 24
REMARK H PARENT 9 19 11 21 20 23 17 25
REMARK Flexibility Score: inf
ROOT
ATOM      1  C   UNL     1      -6.542 -37.872  13.893  1.00  0.00     0.138 A 
ATOM      2  C   UNL     1      -7.591 -38.508  14.573  1.00  0.00     0.100 A 
ATOM      3  C   UNL     1      -7.325 -39.213  15.747  1.00  0.00     0.197 A 
ATOM      4  O   UNL     1      -8.294 -39.719  16.368  1.00  0.00    -0.289 OA
ATOM      5  C   UNL     1      -5.996 -39.308  16.225  1.00  0.00     0.107 A 
ATOM      6  C   UNL     1      -5.600 -40.034  17.388  1.00  0.00     0.134 A 
ATOM      7  C   UNL     1      -4.273 -39.960  17.829  1.00  0.00     0.093 A 
ATOM      8  C   UNL     1      -3.315 -39.236  17.114  1.00  0.00     0.123 A 
ATOM      9  C   UNL     1      -3.680 -38.568  15.948  1.00  0.00     0.094 A 
ATOM     10  C   UNL     1      -5.003 -38.594  15.501  1.00  0.00     0.146 A 
ATOM     11  O   UNL     1      -5.312 -37.931  14.392  1.00  0.00    -0.456 OA
ENDROOT
BRANCH   1  12
ATOM     12  C   UNL     1      -6.770 -37.110  12.638  1.00  0.00     0.021 A 
ATOM     13  C   UNL     1      -6.015 -35.965  12.322  1.00  0.00     0.016 A 
ATOM     14  C   UNL     1      -6.258 -35.260  11.139  1.00  0.00     0.051 A 
ATOM     15  C   UNL     1      -7.260 -35.678  10.259  1.00  0.00     0.157 A 
ATOM     16  C   UNL     1      -7.786 -37.516  11.756  1.00  0.00     0.062 A 
ATOM     17  C   UNL     1      -8.030 -36.811  10.569  1.00  0.00     0.158 A 
BRANCH  15  18
ATOM     18  O   UNL     1      -7.478 -34.956   9.087  1.00  0.00    -0.504 OA
ATOM     19  H   UNL     1      -8.173 -35.234   8.404  1.00  0.00     0.293 HD
ENDBRANCH  15  18
BRANCH  17  20
ATOM     20  O   UNL     1      -9.035 -37.231   9.697  1.00  0.00    -0.504 OA
ATOM     21  H   UNL     1      -9.356 -36.643   8.936  1.00  0.00     0.293 HD
ENDBRANCH  17  20
ENDBRANCH   1  12
BRANCH   6  22
ATOM     22  O   UNL     1      -6.458 -40.856  18.125  1.00  0.00    -0.507 OA
ATOM     23  H   UNL     1      -7.168 -41.452  17.728  1.00  0.00     0.293 HD
ENDBRANCH   6  22
BRANCH   8  24
ATOM     24  O   UNL     1      -1.994 -39.181  17.553  1.00  0.00    -0.508 OA
ATOM     25  H   UNL     1      -1.756 -38.840  18.476  1.00  0.00     0.293 HD
ENDBRANCH   8  24
TORSDOF 5
ENDMDL
MODEL 3
REMARK VINA RESULT:    -5.374      9.808     11.652
REMARK INTER + INTRA:          -6.627
REMARK INTER:                  -6.313
REMARK INTRA:                  -0.314
REMARK UNBOUND:                -0.310
REMARK SMILES O=c1cc(-c2ccc(O)c(O)c2)oc2cc(O)cc(O)c12
REMARK SMILES IDX 4 1 3 2 2 3 1 4 21 5 19 6 18 7 16 8 15 9 14 10 13 11 5 12
REMARK SMILES IDX 6 13 7 14 8 15 12 16 10 17 9 18 11 20 20 22 17 24
REMARK H PARENT 9 19 11 21 20 23 17 25
REMARK Flexibility Score: inf
ROOT
ATOM      1  C   UNL     1      -6.505 -37.568  13.005  1.00  0.00     0.138 A 
ATOM      2  C   UNL     1      -5.128 -37.305  12.995  1.00  0.00     0.100 A 
ATOM      3  C   UNL     1      -4.334 -37.739  14.057  1.00  0.00     0.197 A 
ATOM      4  O   UNL     1      -3.094 -37.544  13.989  1.00  0.00    -0.289 OA
ATOM      5  C   UNL     1      -4.930 -38.414  15.150  1.00  0.00     0.107 A 
ATOM      6  C   UNL     1      -4.226 -38.866  16.306  1.00  0.00     0.134 A 
ATOM      7  C   UNL     1      -4.901 -39.624  17.271  1.00  0.00     0.093 A 
ATOM      8  C   UNL     1      -6.267 -39.893  17.151  1.00  0.00     0.123 A 
ATOM      9  C   UNL     1      -6.974 -39.411  16.053  1.00  0.00     0.094 A 
ATOM     10  C   UNL     1      -6.322 -38.681  15.056  1.00  0.00     0.146 A 
ATOM     11  O   UNL     1      -7.030 -38.251  14.017  1.00  0.00    -0.456 OA
ENDROOT
BRANCH   1  12
ATOM     12  C   UNL     1      -7.396 -37.128  11.900  1.00  0.00     0.021 A 
ATOM     13  C   UNL     1      -7.006 -36.126  10.991  1.00  0.00     0.016 A 
ATOM     14  C   UNL     1      -7.869 -35.724   9.968  1.00  0.00     0.051 A 
ATOM     15  C   UNL     1      -9.133 -36.305   9.838  1.00  0.00     0.157 A 
ATOM     16  C   UNL     1      -8.675 -37.698  11.773  1.00  0.00     0.062 A 
ATOM     17  C   UNL     1      -9.540 -37.295  10.746  1.00  0.00     0.158 A 
BRANCH  15  18
ATOM     18  O   UNL     1      -9.971 -35.883   8.807  1.00  0.00    -0.504 OA
ATOM     19  H   UNL     1     -10.954 -35.691   8.955  1.00  0.00     0.293 HD
ENDBRANCH  15  18
BRANCH  17  20
ATOM     20  O   UNL     1     -10.803 -37.876  10.625  1.00  0.00    -0.504 OA
ATOM     21  H   UNL     1     -10.919 -38.879  10.543  1.00  0.00     0.293 HD
ENDBRANCH  17  20
ENDBRANCH   1  12
BRANCH   6  22
ATOM     22  O   UNL     1      -2.883 -38.578  16.565  1.00  0.00    -0.507 OA
ATOM     23  H   UNL     1      -2.100 -39.028  16.117  1.00  0.00     0.293 HD
ENDBRANCH   6  22
BRANCH   8  24
ATOM     24  O   UNL     1      -6.932 -40.636  18.124  1.00  0.00    -0.508 OA
ATOM     25  H   UNL     1      -7.855 -41.019  17.961  1.00  0.00     0.293 HD
ENDBRANCH   8  24
TORSDOF 5
ENDMDL
MODEL 4
REMARK VINA RESULT:    -5.258     10.193     12.092
REMARK INTER + INTRA:          -6.490
REMARK INTER:                  -6.189
REMARK INTRA:                  -0.302
REMARK UNBOUND:                -0.310
REMARK SMILES O=c1cc(-c2ccc(O)c(O)c2)oc2cc(O)cc(O)c12
REMARK SMILES IDX 4 1 3 2 2 3 1 4 21 5 19 6 18 7 16 8 15 9 14 10 13 11 5 12
REMARK SMILES IDX 6 13 7 14 8 15 12 16 10 17 9 18 11 20 20 22 17 24
REMARK H PARENT 9 19 11 21 20 23 17 25
REMARK Flexibility Score: inf
ROOT
ATOM      1  C   UNL     1      -8.078 -36.921  11.404  1.00  0.00     0.138 A 
ATOM      2  C   UNL     1      -8.884 -37.247  12.503  1.00  0.00     0.100 A 
ATOM      3  C   UNL     1      -8.291 -37.678  13.691  1.00  0.00     0.197 A 
ATOM      4  O   UNL     1      -9.036 -37.902  14.679  1.00  0.00    -0.289 OA
ATOM      5  C   UNL     1      -6.884 -37.812  13.766  1.00  0.00     0.107 A 
ATOM      6  C   UNL     1      -6.172 -38.280  14.910  1.00  0.00     0.134 A 
ATOM      7  C   UNL     1      -4.771 -38.261  14.908  1.00  0.00     0.093 A 
ATOM      8  C   UNL     1      -4.058 -37.847  13.779  1.00  0.00     0.123 A 
ATOM      9  C   UNL     1      -4.745 -37.438  12.638  1.00  0.00     0.094 A 
ATOM     10  C   UNL     1      -6.141 -37.414  12.622  1.00  0.00     0.146 A 
ATOM     11  O   UNL     1      -6.757 -37.003  11.518  1.00  0.00    -0.456 OA
ENDROOT
BRANCH   1  12
ATOM     12  C   UNL     1      -8.658 -36.459  10.117  1.00  0.00     0.021 A 
ATOM     13  C   UNL     1      -9.830 -35.680  10.071  1.00  0.00     0.016 A 
ATOM     14  C   UNL     1     -10.359 -35.268   8.845  1.00  0.00     0.051 A 
ATOM     15  C   UNL     1      -9.737 -35.630   7.647  1.00  0.00     0.157 A 
ATOM     16  C   UNL     1      -8.045 -36.832   8.908  1.00  0.00     0.062 A 
ATOM     17  C   UNL     1      -8.575 -36.418   7.678  1.00  0.00     0.158 A 
BRANCH  15  18
ATOM     18  O   UNL     1     -10.287 -35.203   6.440  1.00  0.00    -0.504 OA
ATOM     19  H   UNL     1     -10.588 -34.246   6.293  1.00  0.00     0.293 HD
ENDBRANCH  15  18
BRANCH  17  20
ATOM     20  O   UNL     1      -7.951 -36.786   6.486  1.00  0.00    -0.504 OA
ATOM     21  H   UNL     1      -8.452 -36.792   5.605  1.00  0.00     0.293 HD
ENDBRANCH  17  20
ENDBRANCH   1  12
BRANCH   6  22
ATOM     22  O   UNL     1      -6.787 -38.795  16.055  1.00  0.00    -0.507 OA
ATOM     23  H   UNL     1      -6.333 -39.379  16.741  1.00  0.00     0.293 HD
ENDBRANCH   6  22
BRANCH   8  24
ATOM     24  O   UNL     1      -2.665 -37.845  13.781  1.00  0.00    -0.508 OA
ATOM     25  H   UNL     1      -2.133 -38.353  13.086  1.00  0.00     0.293 HD
ENDBRANCH   8  24
TORSDOF 5
ENDMDL
MODEL 5
REMARK VINA RESULT:    -5.197     10.113     11.952
REMARK INTER + INTRA:          -6.419
REMARK INTER:                  -6.155
REMARK INTRA:                  -0.264
REMARK UNBOUND:                -0.310
REMARK SMILES O=c1cc(-c2ccc(O)c(O)c2)oc2cc(O)cc(O)c12
REMARK SMILES IDX 4 1 3 2 2 3 1 4 21 5 19 6 18 7 16 8 15 9 14 10 13 11 5 12
REMARK SMILES IDX 6 13 7 14 8 15 12 16 10 17 9 18 11 20 20 22 17 24
REMARK H PARENT 9 19 11 21 20 23 17 25
REMARK Flexibility Score: inf
ROOT
ATOM      1  C   UNL     1      -6.694 -37.111  12.551  1.00  0.00     0.138 A 
ATOM      2  C   UNL     1      -5.298 -37.001  12.500  1.00  0.00     0.100 A 
ATOM      3  C   UNL     1      -4.523 -37.574  13.509  1.00  0.00     0.197 A 
ATOM      4  O   UNL     1      -3.271 -37.514  13.402  1.00  0.00    -0.289 OA
ATOM      5  C   UNL     1      -5.153 -38.234  14.591  1.00  0.00     0.107 A 
ATOM      6  C   UNL     1      -4.466 -38.820  15.696  1.00  0.00     0.134 A 
ATOM      7  C   UNL     1      -5.189 -39.548  16.650  1.00  0.00     0.093 A 
ATOM      8  C   UNL     1      -6.580 -39.658  16.571  1.00  0.00     0.123 A 
ATOM      9  C   UNL     1      -7.264 -39.045  15.524  1.00  0.00     0.094 A 
ATOM     10  C   UNL     1      -6.569 -38.341  14.538  1.00  0.00     0.146 A 
ATOM     11  O   UNL     1      -7.259 -37.783  13.549  1.00  0.00    -0.456 OA
ENDROOT
BRANCH   1  12
ATOM     12  C   UNL     1      -7.566 -36.519  11.504  1.00  0.00     0.021 A 
ATOM     13  C   UNL     1      -8.441 -35.453  11.787  1.00  0.00     0.016 A 
ATOM     14  C   UNL     1      -9.259 -34.923  10.785  1.00  0.00     0.051 A 
ATOM     15  C   UNL     1      -9.224 -35.448   9.490  1.00  0.00     0.157 A 
ATOM     16  C   UNL     1      -7.547 -37.053  10.204  1.00  0.00     0.062 A 
ATOM     17  C   UNL     1      -8.365 -36.520   9.198  1.00  0.00     0.158 A 
BRANCH  15  18
ATOM     18  O   UNL     1     -10.049 -34.897   8.512  1.00  0.00    -0.504 OA
ATOM     19  H   UNL     1     -11.014 -35.183   8.397  1.00  0.00     0.293 HD
ENDBRANCH  15  18
BRANCH  17  20
ATOM     20  O   UNL     1      -8.329 -37.052   7.909  1.00  0.00    -0.504 OA
ATOM     21  H   UNL     1      -9.178 -37.285   7.407  1.00  0.00     0.293 HD
ENDBRANCH  17  20
ENDBRANCH   1  12
BRANCH   6  22
ATOM     22  O   UNL     1      -3.091 -38.696  15.916  1.00  0.00    -0.507 OA
ATOM     23  H   UNL     1      -2.383 -39.266  15.480  1.00  0.00     0.293 HD
ENDBRANCH   6  22
BRANCH   8  24
ATOM     24  O   UNL     1      -7.291 -40.372  17.533  1.00  0.00    -0.508 OA
ATOM     25  H   UNL     1      -7.134 -40.229  18.522  1.00  0.00     0.293 HD
ENDBRANCH   8  24
TORSDOF 5
ENDMDL
MODEL 6
REMARK VINA RESULT:    -5.083     10.438     10.785
REMARK INTER + INTRA:          -6.285
REMARK INTER:                  -6.006
REMARK INTRA:                  -0.279
REMARK UNBOUND:                -0.310
REMARK SMILES O=c1cc(-c2ccc(O)c(O)c2)oc2cc(O)cc(O)c12
REMARK SMILES IDX 4 1 3 2 2 3 1 4 21 5 19 6 18 7 16 8 15 9 14 10 13 11 5 12
REMARK SMILES IDX 6 13 7 14 8 15 12 16 10 17 9 18 11 20 20 22 17 24
REMARK H PARENT 9 19 11 21 20 23 17 25
REMARK Flexibility Score: inf
ROOT
ATOM      1  C   UNL     1      -6.405 -37.389  14.108  1.00  0.00     0.138 A 
ATOM      2  C   UNL     1      -7.524 -38.227  14.210  1.00  0.00     0.100 A 
ATOM      3  C   UNL     1      -8.480 -38.228  13.194  1.00  0.00     0.197 A 
ATOM      4  O   UNL     1      -9.440 -39.036  13.282  1.00  0.00    -0.289 OA
ATOM      5  C   UNL     1      -8.330 -37.360  12.086  1.00  0.00     0.107 A 
ATOM      6  C   UNL     1      -9.262 -37.245  11.012  1.00  0.00     0.134 A 
ATOM      7  C   UNL     1      -8.950 -36.437   9.911  1.00  0.00     0.093 A 
ATOM      8  C   UNL     1      -7.767 -35.692   9.875  1.00  0.00     0.123 A 
ATOM      9  C   UNL     1      -6.876 -35.757  10.943  1.00  0.00     0.094 A 
ATOM     10  C   UNL     1      -7.143 -36.581  12.040  1.00  0.00     0.146 A 
ATOM     11  O   UNL     1      -6.259 -36.624  13.032  1.00  0.00    -0.456 OA
ENDROOT
BRANCH   1  12
ATOM     12  C   UNL     1      -5.357 -37.349  15.161  1.00  0.00     0.021 A 
ATOM     13  C   UNL     1      -4.738 -36.143  15.542  1.00  0.00     0.016 A 
ATOM     14  C   UNL     1      -3.747 -36.137  16.528  1.00  0.00     0.051 A 
ATOM     15  C   UNL     1      -3.353 -37.328  17.144  1.00  0.00     0.157 A 
ATOM     16  C   UNL     1      -4.946 -38.545  15.774  1.00  0.00     0.062 A 
ATOM     17  C   UNL     1      -3.953 -38.539  16.764  1.00  0.00     0.158 A 
BRANCH  15  18
ATOM     18  O   UNL     1      -2.364 -37.289  18.125  1.00  0.00    -0.504 OA
ATOM     19  H   UNL     1      -2.539 -37.580  19.079  1.00  0.00     0.293 HD
ENDBRANCH  15  18
BRANCH  17  20
ATOM     20  O   UNL     1      -3.561 -39.732  17.372  1.00  0.00    -0.504 OA
ATOM     21  H   UNL     1      -4.162 -40.548  17.375  1.00  0.00     0.293 HD
ENDBRANCH  17  20
ENDBRANCH   1  12
BRANCH   6  22
ATOM     22  O   UNL     1     -10.509 -37.878  10.988  1.00  0.00    -0.507 OA
ATOM     23  H   UNL     1     -10.735 -38.686  10.430  1.00  0.00     0.293 HD
ENDBRANCH   6  22
BRANCH   8  24
ATOM     24  O   UNL     1      -7.474 -34.880   8.782  1.00  0.00    -0.508 OA
ATOM     25  H   UNL     1      -7.275 -33.894   8.893  1.00  0.00     0.293 HD
ENDBRANCH   8  24
TORSDOF 5
ENDMDL
MODEL 7
REMARK VINA RESULT:    -4.976      1.163      2.694
REMARK INTER + INTRA:          -6.159
REMARK INTER:                  -5.871
REMARK INTRA:                  -0.288
REMARK UNBOUND:                -0.310
REMARK SMILES O=c1cc(-c2ccc(O)c(O)c2)oc2cc(O)cc(O)c12
REMARK SMILES IDX 4 1 3 2 2 3 1 4 21 5 19 6 18 7 16 8 15 9 14 10 13 11 5 12
REMARK SMILES IDX 6 13 7 14 8 15 12 16 10 17 9 18 11 20 20 22 17 24
REMARK H PARENT 9 19 11 21 20 23 17 25
REMARK Flexibility Score: inf
ROOT
ATOM      1  C   UNL     1     -12.285 -45.560  15.057  1.00  0.00     0.138 A 
ATOM      2  C   UNL     1     -12.863 -45.382  13.792  1.00  0.00     0.100 A 
ATOM      3  C   UNL     1     -13.854 -44.416  13.615  1.00  0.00     0.197 A 
ATOM      4  O   UNL     1     -14.308 -44.235  12.456  1.00  0.00    -0.289 OA
ATOM      5  C   UNL     1     -14.290 -43.646  14.720  1.00  0.00     0.107 A 
ATOM      6  C   UNL     1     -15.322 -42.661  14.667  1.00  0.00     0.134 A 
ATOM      7  C   UNL     1     -15.589 -41.880  15.799  1.00  0.00     0.093 A 
ATOM      8  C   UNL     1     -14.903 -42.091  16.999  1.00  0.00     0.123 A 
ATOM      9  C   UNL     1     -13.931 -43.086  17.075  1.00  0.00     0.094 A 
ATOM     10  C   UNL     1     -13.618 -43.858  15.954  1.00  0.00     0.146 A 
ATOM     11  O   UNL     1     -12.674 -44.787  16.065  1.00  0.00    -0.456 OA
ENDROOT
BRANCH   1  12
ATOM     12  C   UNL     1     -11.227 -46.574  15.300  1.00  0.00     0.021 A 
ATOM     13  C   UNL     1     -10.993 -47.106  16.582  1.00  0.00     0.016 A 
ATOM     14  C   UNL     1      -9.984 -48.051  16.783  1.00  0.00     0.051 A 
ATOM     15  C   UNL     1      -9.188 -48.476  15.716  1.00  0.00     0.157 A 
ATOM     16  C   UNL     1     -10.414 -46.995  14.233  1.00  0.00     0.062 A 
ATOM     17  C   UNL     1      -9.402 -47.944  14.434  1.00  0.00     0.158 A 
BRANCH  15  18
ATOM     18  O   UNL     1      -8.190 -49.421  15.948  1.00  0.00    -0.504 OA
ATOM     19  H   UNL     1      -7.938 -49.720  16.883  1.00  0.00     0.293 HD
ENDBRANCH  15  18
BRANCH  17  20
ATOM     20  O   UNL     1      -8.608 -48.360  13.365  1.00  0.00    -0.504 OA
ATOM     21  H   UNL     1      -7.722 -48.829  13.514  1.00  0.00     0.293 HD
ENDBRANCH  17  20
ENDBRANCH   1  12
BRANCH   6  22
ATOM     22  O   UNL     1     -16.125 -42.430  13.546  1.00  0.00    -0.507 OA
ATOM     23  H   UNL     1     -15.862 -41.863  12.756  1.00  0.00     0.293 HD
ENDBRANCH   6  22
BRANCH   8  24
ATOM     24  O   UNL     1     -15.186 -41.319  18.123  1.00  0.00    -0.508 OA
ATOM     25  H   UNL     1     -15.838 -41.632  18.831  1.00  0.00     0.293 HD
ENDBRANCH   8  24
TORSDOF 5
ENDMDL
MODEL 8
REMARK VINA RESULT:    -4.963      9.453     11.247
REMARK INTER + INTRA:          -6.143
REMARK INTER:                  -5.874
REMARK INTRA:                  -0.269
REMARK UNBOUND:                -0.310
REMARK SMILES O=c1cc(-c2ccc(O)c(O)c2)oc2cc(O)cc(O)c12
REMARK SMILES IDX 4 1 3 2 2 3 1 4 21 5 19 6 18 7 16 8 15 9 14 10 13 11 5 12
REMARK SMILES IDX 6 13 7 14 8 15 12 16 10 17 9 18 11 20 20 22 17 24
REMARK H PARENT 9 19 11 21 20 23 17 25
REMARK Flexibility Score: inf
ROOT
ATOM      1  C   UNL     1      -7.851 -37.644  12.905  1.00  0.00     0.138 A 
ATOM      2  C   UNL     1      -8.851 -38.151  13.747  1.00  0.00     0.100 A 
ATOM      3  C   UNL     1      -8.499 -38.726  14.969  1.00  0.00     0.197 A 
ATOM      4  O   UNL     1      -9.422 -39.114  15.730  1.00  0.00    -0.289 OA
ATOM      5  C   UNL     1      -7.135 -38.821  15.334  1.00  0.00     0.107 A 
ATOM      6  C   UNL     1      -6.656 -39.424  16.536  1.00  0.00     0.134 A 
ATOM      7  C   UNL     1      -5.291 -39.357  16.845  1.00  0.00     0.093 A 
ATOM      8  C   UNL     1      -4.381 -38.762  15.965  1.00  0.00     0.123 A 
ATOM      9  C   UNL     1      -4.832 -38.219  14.765  1.00  0.00     0.094 A 
ATOM     10  C   UNL     1      -6.192 -38.239  14.445  1.00  0.00     0.146 A 
ATOM     11  O   UNL     1      -6.582 -37.697  13.296  1.00  0.00    -0.456 OA
ENDROOT
BRANCH   1  12
ATOM     12  C   UNL     1      -8.170 -37.023  11.594  1.00  0.00     0.021 A 
ATOM     13  C   UNL     1      -8.775 -35.755  11.504  1.00  0.00     0.016 A 
ATOM     14  C   UNL     1      -9.074 -35.199  10.257  1.00  0.00     0.051 A 
ATOM     15  C   UNL     1      -8.785 -35.899   9.082  1.00  0.00     0.157 A 
ATOM     16  C   UNL     1      -7.895 -37.728  10.409  1.00  0.00     0.062 A 
ATOM     17  C   UNL     1      -8.194 -37.171   9.158  1.00  0.00     0.158 A 
BRANCH  15  18
ATOM     18  O   UNL     1      -9.094 -35.318   7.854  1.00  0.00    -0.504 OA
ATOM     19  H   UNL     1     -10.032 -35.329   7.473  1.00  0.00     0.293 HD
ENDBRANCH  15  18
BRANCH  17  20
ATOM     20  O   UNL     1      -7.907 -37.876   7.989  1.00  0.00    -0.504 OA
ATOM     21  H   UNL     1      -8.390 -37.681   7.120  1.00  0.00     0.293 HD
ENDBRANCH  17  20
ENDBRANCH   1  12
BRANCH   6  22
ATOM     22  O   UNL     1      -7.467 -40.117  17.439  1.00  0.00    -0.507 OA
ATOM     23  H   UNL     1      -7.241 -41.010  17.849  1.00  0.00     0.293 HD
ENDBRANCH   6  22
BRANCH   8  24
ATOM     24  O   UNL     1      -3.024 -38.714  16.275  1.00  0.00    -0.508 OA
ATOM     25  H   UNL     1      -2.366 -39.374  15.881  1.00  0.00     0.293 HD
ENDBRANCH   8  24
TORSDOF 5
ENDMDL
MODEL 9
REMARK VINA RESULT:    -2.959     10.453     10.699
REMARK INTER + INTRA:          -3.788
REMARK INTER:                  -3.472
REMARK INTRA:                  -0.316
REMARK UNBOUND:                -0.310
REMARK SMILES O=c1cc(-c2ccc(O)c(O)c2)oc2cc(O)cc(O)c12
REMARK SMILES IDX 4 1 3 2 2 3 1 4 21 5 19 6 18 7 16 8 15 9 14 10 13 11 5 12
REMARK SMILES IDX 6 13 7 14 8 15 12 16 10 17 9 18 11 20 20 22 17 24
REMARK H PARENT 9 19 11 21 20 23 17 25
REMARK Flexibility Score: inf
ROOT
ATOM      1  C   UNL     1      -5.587 -37.473  13.637  1.00  0.00     0.138 A 
ATOM      2  C   UNL     1      -4.971 -36.426  12.937  1.00  0.00     0.100 A 
ATOM      3  C   UNL     1      -5.618 -35.854  11.840  1.00  0.00     0.197 A 
ATOM      4  O   UNL     1      -5.070 -34.875  11.272  1.00  0.00    -0.289 OA
ATOM      5  C   UNL     1      -6.874 -36.356  11.424  1.00  0.00     0.107 A 
ATOM      6  C   UNL     1      -7.607 -35.880  10.297  1.00  0.00     0.134 A 
ATOM      7  C   UNL     1      -8.894 -36.375  10.050  1.00  0.00     0.093 A 
ATOM      8  C   UNL     1      -9.448 -37.374  10.855  1.00  0.00     0.123 A 
ATOM      9  C   UNL     1      -8.719 -37.884  11.927  1.00  0.00     0.094 A 
ATOM     10  C   UNL     1      -7.447 -37.386  12.219  1.00  0.00     0.146 A 
ATOM     11  O   UNL     1      -6.791 -37.889  13.259  1.00  0.00    -0.456 OA
ENDROOT
BRANCH   1  12
ATOM     12  C   UNL     1      -4.942 -38.117  14.810  1.00  0.00     0.021 A 
ATOM     13  C   UNL     1      -3.591 -37.888  15.129  1.00  0.00     0.016 A 
ATOM     14  C   UNL     1      -3.007 -38.516  16.233  1.00  0.00     0.051 A 
ATOM     15  C   UNL     1      -3.756 -39.386  17.030  1.00  0.00     0.157 A 
ATOM     16  C   UNL     1      -5.686 -39.005  15.607  1.00  0.00     0.062 A 
ATOM     17  C   UNL     1      -5.101 -39.635  16.715  1.00  0.00     0.158 A 
BRANCH  15  18
ATOM     18  O   UNL     1      -3.146 -39.997  18.125  1.00  0.00    -0.504 OA
ATOM     19  H   UNL     1      -2.205 -40.368  18.080  1.00  0.00     0.293 HD
ENDBRANCH  15  18
BRANCH  17  20
ATOM     20  O   UNL     1      -5.853 -40.505  17.504  1.00  0.00    -0.504 OA
ATOM     21  H   UNL     1      -6.596 -41.070  17.110  1.00  0.00     0.293 HD
ENDBRANCH  17  20
ENDBRANCH   1  12
BRANCH   6  22
ATOM     22  O   UNL     1      -7.111 -34.947   9.380  1.00  0.00    -0.507 OA
ATOM     23  H   UNL     1      -6.444 -34.223   9.598  1.00  0.00     0.293 HD
ENDBRANCH   6  22
BRANCH   8  24
ATOM     24  O   UNL     1     -10.723 -37.870  10.593  1.00  0.00    -0.508 OA
ATOM     25  H   UNL     1     -11.541 -37.275  10.627  1.00  0.00     0.293 HD
ENDBRANCH   8  24
TORSDOF 5
ENDMDL
