MODEL 1
REMARK VINA RESULT:    -4.563      0.000      0.000
REMARK INTER + INTRA:          -8.298
REMARK INTER:                  -7.230
REMARK INTRA:                  -1.068
REMARK UNBOUND:                -1.068
REMARK SMILES CCCCCCCCCCCC(=O)[O-]
REMARK SMILES IDX 7 1 8 2 9 3 10 4 11 5 12 6 13 7 14 8 6 9 5 10 4 11 3 12 2 13
REMARK SMILES IDX 1 14
REMARK H PARENT
REMARK Flexibility Score: inf
ROOT
ATOM      1  C   UNL     1      63.887  13.615  38.690  1.00  0.00     0.000 C 
ENDROOT
BRANCH   1   2
ATOM      2  C   UNL     1      64.761  14.348  37.658  1.00  0.00     0.000 C 
BRANCH   2   3
ATOM      3  C   UNL     1      63.933  14.984  36.528  1.00  0.00     0.000 C 
BRANCH   3   4
ATOM      4  C   UNL     1      63.920  16.519  36.598  1.00  0.00     0.006 C 
BRANCH   4   5
ATOM      5  C   UNL     1      64.816  17.169  35.536  1.00  0.00     0.053 C 
BRANCH   5   6
ATOM      6  C   UNL     1      66.029  17.768  36.173  1.00  0.00     0.041 C 
ATOM      7  O   UNL     1      66.753  18.572  35.527  1.00  0.00    -0.550 OA
ATOM      8  O   UNL     1      66.390  17.403  37.464  1.00  0.00    -0.550 OA
ENDBRANCH   5   6
ENDBRANCH   4   5
ENDBRANCH   3   4
ENDBRANCH   2   3
ENDBRANCH   1   2
BRANCH   1   9
ATOM      9  C   UNL     1      63.432  14.533  39.839  1.00  0.00     0.000 C 
BRANCH   9  10
ATOM     10  C   UNL     1      62.006  15.071  39.637  1.00  0.00    -0.000 C 
BRANCH  10  11
ATOM     11  C   UNL     1      61.851  16.527  40.109  1.00  0.00    -0.000 C 
BRANCH  11  12
ATOM     12  C   UNL     1      63.198  17.182  40.454  1.00  0.00    -0.000 C 
BRANCH  12  13
ATOM     13  C   UNL     1      63.298  18.631  39.956  1.00  0.00    -0.003 C 
ATOM     14  C   UNL     1      61.925  19.180  39.583  1.00  0.00     0.004 C 
ENDBRANCH  12  13
ENDBRANCH  11  12
ENDBRANCH  10  11
ENDBRANCH   9  10
ENDBRANCH   1   9
TORSDOF 10
ENDMDL
MODEL 2
REMARK VINA RESULT:    -4.546      1.465      2.475
REMARK INTER + INTRA:          -8.271
REMARK INTER:                  -6.872
REMARK INTRA:                  -1.399
REMARK UNBOUND:                -1.068
REMARK SMILES CCCCCCCCCCCC(=O)[O-]
REMARK SMILES IDX 7 1 8 2 9 3 10 4 11 5 12 6 13 7 14 8 6 9 5 10 4 11 3 12 2 13
REMARK SMILES IDX 1 14
REMARK H PARENT
REMARK Flexibility Score: inf
ROOT
ATOM      1  C   UNL     1      63.260  15.754  39.777  1.00  0.00     0.000 C 
ENDROOT
BRANCH   1   2
ATOM      2  C   UNL     1      62.255  15.184  38.761  1.00  0.00     0.000 C 
BRANCH   2   3
ATOM      3  C   UNL     1      62.468  15.743  37.343  1.00  0.00     0.000 C 
BRANCH   3   4
ATOM      4  C   UNL     1      63.811  15.310  36.734  1.00  0.00     0.006 C 
BRANCH   4   5
ATOM      5  C   UNL     1      64.490  16.432  35.936  1.00  0.00     0.053 C 
BRANCH   5   6
ATOM      6  C   UNL     1      65.045  17.467  36.862  1.00  0.00     0.041 C 
ATOM      7  O   UNL     1      64.550  18.626  36.888  1.00  0.00    -0.550 OA
ATOM      8  O   UNL     1      66.140  17.169  37.664  1.00  0.00    -0.550 OA
ENDBRANCH   5   6
ENDBRANCH   4   5
ENDBRANCH   3   4
ENDBRANCH   2   3
ENDBRANCH   1   2
BRANCH   1   9
ATOM      9  C   UNL     1      62.674  16.915  40.600  1.00  0.00     0.000 C 
BRANCH   9  10
ATOM     10  C   UNL     1      63.437  18.232  40.390  1.00  0.00    -0.000 C 
BRANCH  10  11
ATOM     11  C   UNL     1      62.618  19.273  39.606  1.00  0.00    -0.000 C 
BRANCH  11  12
ATOM     12  C   UNL     1      61.131  18.894  39.501  1.00  0.00    -0.000 C 
BRANCH  12  13
ATOM     13  C   UNL     1      60.622  18.884  38.053  1.00  0.00    -0.003 C 
ATOM     14  C   UNL     1      59.509  17.856  37.869  1.00  0.00     0.004 C 
ENDBRANCH  12  13
ENDBRANCH  11  12
ENDBRANCH  10  11
ENDBRANCH   9  10
ENDBRANCH   1   9
TORSDOF 10
ENDMDL
MODEL 3
REMARK VINA RESULT:    -4.475      2.667      4.590
REMARK INTER + INTRA:          -8.159
REMARK INTER:                  -6.759
REMARK INTRA:                  -1.400
REMARK UNBOUND:                -1.068
REMARK SMILES CCCCCCCCCCCC(=O)[O-]
REMARK SMILES IDX 7 1 8 2 9 3 10 4 11 5 12 6 13 7 14 8 6 9 5 10 4 11 3 12 2 13
REMARK SMILES IDX 1 14
REMARK H PARENT
REMARK Flexibility Score: inf
ROOT
ATOM      1  C   UNL     1      63.419  14.887  39.581  1.00  0.00     0.000 C 
ENDROOT
BRANCH   1   2
ATOM      2  C   UNL     1      62.579  16.110  39.986  1.00  0.00     0.000 C 
BRANCH   2   3
ATOM      3  C   UNL     1      63.445  17.313  40.397  1.00  0.00     0.000 C 
BRANCH   3   4
ATOM      4  C   UNL     1      62.870  18.650  39.903  1.00  0.00     0.006 C 
BRANCH   4   5
ATOM      5  C   UNL     1      62.288  18.559  38.486  1.00  0.00     0.053 C 
BRANCH   5   6
ATOM      6  C   UNL     1      60.837  18.921  38.495  1.00  0.00     0.041 C 
ATOM      7  O   UNL     1      60.118  18.685  37.488  1.00  0.00    -0.550 OA
ATOM      8  O   UNL     1      60.286  19.563  39.597  1.00  0.00    -0.550 OA
ENDBRANCH   5   6
ENDBRANCH   4   5
ENDBRANCH   3   4
ENDBRANCH   2   3
ENDBRANCH   1   2
BRANCH   1   9
ATOM      9  C   UNL     1      62.901  14.212  38.298  1.00  0.00     0.000 C 
BRANCH   9  10
ATOM     10  C   UNL     1      62.885  15.167  37.094  1.00  0.00    -0.000 C 
BRANCH  10  11
ATOM     11  C   UNL     1      64.277  15.345  36.461  1.00  0.00    -0.000 C 
BRANCH  11  12
ATOM     12  C   UNL     1      64.400  16.655  35.665  1.00  0.00    -0.000 C 
BRANCH  12  13
ATOM     13  C   UNL     1      65.193  17.734  36.416  1.00  0.00    -0.003 C 
ATOM     14  C   UNL     1      65.977  17.131  37.578  1.00  0.00     0.004 C 
ENDBRANCH  12  13
ENDBRANCH  11  12
ENDBRANCH  10  11
ENDBRANCH   9  10
ENDBRANCH   1   9
TORSDOF 10
ENDMDL
MODEL 4
REMARK VINA RESULT:    -4.405      1.465      2.014
REMARK INTER + INTRA:          -8.048
REMARK INTER:                  -6.678
REMARK INTRA:                  -1.370
REMARK UNBOUND:                -1.068
REMARK SMILES CCCCCCCCCCCC(=O)[O-]
REMARK SMILES IDX 7 1 8 2 9 3 10 4 11 5 12 6 13 7 14 8 6 9 5 10 4 11 3 12 2 13
REMARK SMILES IDX 1 14
REMARK H PARENT
REMARK Flexibility Score: inf
ROOT
ATOM      1  C   UNL     1      61.968  14.491  37.369  1.00  0.00     0.000 C 
ENDROOT
BRANCH   1   2
ATOM      2  C   UNL     1      62.823  13.647  38.330  1.00  0.00     0.000 C 
BRANCH   2   3
ATOM      3  C   UNL     1      64.302  14.071  38.333  1.00  0.00     0.000 C 
BRANCH   3   4
ATOM      4  C   UNL     1      64.698  14.837  37.060  1.00  0.00     0.006 C 
BRANCH   4   5
ATOM      5  C   UNL     1      65.079  16.297  37.341  1.00  0.00     0.053 C 
BRANCH   5   6
ATOM      6  C   UNL     1      64.493  17.198  36.301  1.00  0.00     0.041 C 
ATOM      7  O   UNL     1      63.578  18.008  36.607  1.00  0.00    -0.550 OA
ATOM      8  O   UNL     1      64.921  17.110  34.982  1.00  0.00    -0.550 OA
ENDBRANCH   5   6
ENDBRANCH   4   5
ENDBRANCH   3   4
ENDBRANCH   2   3
ENDBRANCH   1   2
BRANCH   1   9
ATOM      9  C   UNL     1      61.214  15.624  38.089  1.00  0.00     0.000 C 
BRANCH   9  10
ATOM     10  C   UNL     1      61.186  15.438  39.615  1.00  0.00    -0.000 C 
BRANCH  10  11
ATOM     11  C   UNL     1      61.622  16.704  40.373  1.00  0.00    -0.000 C 
BRANCH  11  12
ATOM     12  C   UNL     1      63.150  16.832  40.478  1.00  0.00    -0.000 C 
BRANCH  12  13
ATOM     13  C   UNL     1      63.626  18.292  40.468  1.00  0.00    -0.003 C 
ATOM     14  C   UNL     1      62.620  19.193  39.759  1.00  0.00     0.004 C 
ENDBRANCH  12  13
ENDBRANCH  11  12
ENDBRANCH  10  11
ENDBRANCH   9  10
ENDBRANCH   1   9
TORSDOF 10
ENDMDL
MODEL 5
REMARK VINA RESULT:    -4.403      2.121      5.257
REMARK INTER + INTRA:          -8.046
REMARK INTER:                  -7.101
REMARK INTRA:                  -0.944
REMARK UNBOUND:                -1.068
REMARK SMILES CCCCCCCCCCCC(=O)[O-]
REMARK SMILES IDX 7 1 8 2 9 3 10 4 11 5 12 6 13 7 14 8 6 9 5 10 4 11 3 12 2 13
REMARK SMILES IDX 1 14
REMARK H PARENT
REMARK Flexibility Score: inf
ROOT
ATOM      1  C   UNL     1      62.991  18.836  38.976  1.00  0.00     0.000 C 
ENDROOT
BRANCH   1   2
ATOM      2  C   UNL     1      63.891  18.055  39.948  1.00  0.00     0.000 C 
BRANCH   2   3
ATOM      3  C   UNL     1      63.117  16.990  40.745  1.00  0.00     0.000 C 
BRANCH   3   4
ATOM      4  C   UNL     1      62.211  16.128  39.851  1.00  0.00     0.006 C 
BRANCH   4   5
ATOM      5  C   UNL     1      62.605  14.645  39.863  1.00  0.00     0.053 C 
BRANCH   5   6
ATOM      6  C   UNL     1      63.238  14.264  38.563  1.00  0.00     0.041 C 
ATOM      7  O   UNL     1      64.487  14.114  38.486  1.00  0.00    -0.550 OA
ATOM      8  O   UNL     1      62.456  14.120  37.423  1.00  0.00    -0.550 OA
ENDBRANCH   5   6
ENDBRANCH   4   5
ENDBRANCH   3   4
ENDBRANCH   2   3
ENDBRANCH   1   2
BRANCH   1   9
ATOM      9  C   UNL     1      63.359  18.588  37.501  1.00  0.00     0.000 C 
BRANCH   9  10
ATOM     10  C   UNL     1      64.547  17.625  37.343  1.00  0.00    -0.000 C 
BRANCH  10  11
ATOM     11  C   UNL     1      64.435  16.751  36.082  1.00  0.00    -0.000 C 
BRANCH  11  12
ATOM     12  C   UNL     1      65.368  17.221  34.954  1.00  0.00    -0.000 C 
BRANCH  12  13
ATOM     13  C   UNL     1      66.503  18.123  35.459  1.00  0.00    -0.003 C 
ATOM     14  C   UNL     1      67.414  18.554  34.313  1.00  0.00     0.004 C 
ENDBRANCH  12  13
ENDBRANCH  11  12
ENDBRANCH  10  11
ENDBRANCH   9  10
ENDBRANCH   1   9
TORSDOF 10
ENDMDL
MODEL 6
REMARK VINA RESULT:    -4.375      3.280      5.259
REMARK INTER + INTRA:          -8.001
REMARK INTER:                  -6.745
REMARK INTRA:                  -1.256
REMARK UNBOUND:                -1.068
REMARK SMILES CCCCCCCCCCCC(=O)[O-]
REMARK SMILES IDX 7 1 8 2 9 3 10 4 11 5 12 6 13 7 14 8 6 9 5 10 4 11 3 12 2 13
REMARK SMILES IDX 1 14
REMARK H PARENT
REMARK Flexibility Score: inf
ROOT
ATOM      1  C   UNL     1      63.124  17.035  40.750  1.00  0.00     0.000 C 
ENDROOT
BRANCH   1   2
ATOM      2  C   UNL     1      61.888  16.543  39.977  1.00  0.00     0.000 C 
BRANCH   2   3
ATOM      3  C   UNL     1      62.136  15.210  39.251  1.00  0.00     0.000 C 
BRANCH   3   4
ATOM      4  C   UNL     1      63.335  14.439  39.826  1.00  0.00     0.006 C 
BRANCH   4   5
ATOM      5  C   UNL     1      63.703  13.205  38.991  1.00  0.00     0.053 C 
BRANCH   5   6
ATOM      6  C   UNL     1      63.083  11.976  39.577  1.00  0.00     0.041 C 
ATOM      7  O   UNL     1      63.152  10.878  38.963  1.00  0.00    -0.550 OA
ATOM      8  O   UNL     1      62.388  12.051  40.777  1.00  0.00    -0.550 OA
ENDBRANCH   5   6
ENDBRANCH   4   5
ENDBRANCH   3   4
ENDBRANCH   2   3
ENDBRANCH   1   2
BRANCH   1   9
ATOM      9  C   UNL     1      63.899  18.127  39.991  1.00  0.00     0.000 C 
BRANCH   9  10
ATOM     10  C   UNL     1      63.048  18.813  38.910  1.00  0.00    -0.000 C 
BRANCH  10  11
ATOM     11  C   UNL     1      63.643  18.657  37.500  1.00  0.00    -0.000 C 
BRANCH  11  12
ATOM     12  C   UNL     1      64.806  17.651  37.460  1.00  0.00    -0.000 C 
BRANCH  12  13
ATOM     13  C   UNL     1      64.932  16.944  36.103  1.00  0.00    -0.003 C 
ATOM     14  C   UNL     1      63.964  15.769  36.004  1.00  0.00     0.004 C 
ENDBRANCH  12  13
ENDBRANCH  11  12
ENDBRANCH  10  11
ENDBRANCH   9  10
ENDBRANCH   1   9
TORSDOF 10
ENDMDL
MODEL 7
REMARK VINA RESULT:    -4.364      1.469      3.558
REMARK INTER + INTRA:          -7.983
REMARK INTER:                  -6.436
REMARK INTRA:                  -1.547
REMARK UNBOUND:                -1.068
REMARK SMILES CCCCCCCCCCCC(=O)[O-]
REMARK SMILES IDX 7 1 8 2 9 3 10 4 11 5 12 6 13 7 14 8 6 9 5 10 4 11 3 12 2 13
REMARK SMILES IDX 1 14
REMARK H PARENT
REMARK Flexibility Score: inf
ROOT
ATOM      1  C   UNL     1      63.113  18.972  39.794  1.00  0.00     0.000 C 
ENDROOT
BRANCH   1   2
ATOM      2  C   UNL     1      61.782  18.784  39.048  1.00  0.00     0.000 C 
BRANCH   2   3
ATOM      3  C   UNL     1      61.978  18.548  37.540  1.00  0.00     0.000 C 
BRANCH   3   4
ATOM      4  C   UNL     1      63.459  18.549  37.130  1.00  0.00     0.006 C 
BRANCH   4   5
ATOM      5  C   UNL     1      63.847  17.315  36.304  1.00  0.00     0.053 C 
BRANCH   5   6
ATOM      6  C   UNL     1      64.906  16.528  37.008  1.00  0.00     0.041 C 
ATOM      7  O   UNL     1      65.794  17.119  37.679  1.00  0.00    -0.550 OA
ATOM      8  O   UNL     1      64.943  15.145  36.886  1.00  0.00    -0.550 OA
ENDBRANCH   5   6
ENDBRANCH   4   5
ENDBRANCH   3   4
ENDBRANCH   2   3
ENDBRANCH   1   2
BRANCH   1   9
ATOM      9  C   UNL     1      63.497  17.741  40.636  1.00  0.00     0.000 C 
BRANCH   9  10
ATOM     10  C   UNL     1      62.552  16.551  40.407  1.00  0.00    -0.000 C 
BRANCH  10  11
ATOM     11  C   UNL     1      63.302  15.271  39.998  1.00  0.00    -0.000 C 
BRANCH  11  12
ATOM     12  C   UNL     1      62.365  14.200  39.415  1.00  0.00    -0.000 C 
BRANCH  12  13
ATOM     13  C   UNL     1      61.115  14.800  38.756  1.00  0.00    -0.003 C 
ATOM     14  C   UNL     1      61.269  14.858  37.239  1.00  0.00     0.004 C 
ENDBRANCH  12  13
ENDBRANCH  11  12
ENDBRANCH  10  11
ENDBRANCH   9  10
ENDBRANCH   1   9
TORSDOF 10
ENDMDL
MODEL 8
REMARK VINA RESULT:    -4.324      1.411      3.753
REMARK INTER + INTRA:          -7.919
REMARK INTER:                  -6.486
REMARK INTRA:                  -1.433
REMARK UNBOUND:                -1.068
REMARK SMILES CCCCCCCCCCCC(=O)[O-]
REMARK SMILES IDX 7 1 8 2 9 3 10 4 11 5 12 6 13 7 14 8 6 9 5 10 4 11 3 12 2 13
REMARK SMILES IDX 1 14
REMARK H PARENT
REMARK Flexibility Score: inf
ROOT
ATOM      1  C   UNL     1      61.177  18.764  39.584  1.00  0.00     0.000 C 
ENDROOT
BRANCH   1   2
ATOM      2  C   UNL     1      62.637  19.240  39.667  1.00  0.00     0.000 C 
BRANCH   2   3
ATOM      3  C   UNL     1      63.610  18.105  40.030  1.00  0.00     0.000 C 
BRANCH   3   4
ATOM      4  C   UNL     1      64.556  17.746  38.873  1.00  0.00     0.006 C 
BRANCH   4   5
ATOM      5  C   UNL     1      64.025  18.206  37.509  1.00  0.00     0.053 C 
BRANCH   5   6
ATOM      6  C   UNL     1      64.855  17.629  36.406  1.00  0.00     0.041 C 
ATOM      7  O   UNL     1      66.044  18.010  36.242  1.00  0.00    -0.550 OA
ATOM      8  O   UNL     1      64.301  16.705  35.528  1.00  0.00    -0.550 OA
ENDBRANCH   5   6
ENDBRANCH   4   5
ENDBRANCH   3   4
ENDBRANCH   2   3
ENDBRANCH   1   2
BRANCH   1   9
ATOM      9  C   UNL     1      61.035  17.249  39.819  1.00  0.00     0.000 C 
BRANCH   9  10
ATOM     10  C   UNL     1      60.729  16.477  38.525  1.00  0.00    -0.000 C 
BRANCH  10  11
ATOM     11  C   UNL     1      61.654  15.263  38.327  1.00  0.00    -0.000 C 
BRANCH  11  12
ATOM     12  C   UNL     1      62.269  14.770  39.646  1.00  0.00    -0.000 C 
BRANCH  12  13
ATOM     13  C   UNL     1      63.536  13.929  39.433  1.00  0.00    -0.003 C 
ATOM     14  C   UNL     1      64.217  14.286  38.115  1.00  0.00     0.004 C 
ENDBRANCH  12  13
ENDBRANCH  11  12
ENDBRANCH  10  11
ENDBRANCH   9  10
ENDBRANCH   1   9
TORSDOF 10
ENDMDL
MODEL 9
REMARK VINA RESULT:    -4.312     10.586     12.405
REMARK INTER + INTRA:          -7.901
REMARK INTER:                  -6.980
REMARK INTRA:                  -0.921
REMARK UNBOUND:                -1.068
REMARK SMILES CCCCCCCCCCCC(=O)[O-]
REMARK SMILES IDX 7 1 8 2 9 3 10 4 11 5 12 6 13 7 14 8 6 9 5 10 4 11 3 12 2 13
REMARK SMILES IDX 1 14
REMARK H PARENT
REMARK Flexibility Score: inf
ROOT
ATOM      1  C   UNL     1      70.053   6.797  33.017  1.00  0.00     0.000 C 
ENDROOT
BRANCH   1   2
ATOM      2  C   UNL     1      70.961   6.075  34.027  1.00  0.00     0.000 C 
BRANCH   2   3
ATOM      3  C   UNL     1      72.447   6.428  33.842  1.00  0.00     0.000 C 
BRANCH   3   4
ATOM      4  C   UNL     1      72.653   7.851  33.299  1.00  0.00     0.006 C 
BRANCH   4   5
ATOM      5  C   UNL     1      74.030   8.046  32.652  1.00  0.00     0.053 C 
BRANCH   5   6
ATOM      6  C   UNL     1      73.885   8.326  31.190  1.00  0.00     0.041 C 
ATOM      7  O   UNL     1      74.883   8.688  30.511  1.00  0.00    -0.550 OA
ATOM      8  O   UNL     1      72.637   8.235  30.584  1.00  0.00    -0.550 OA
ENDBRANCH   5   6
ENDBRANCH   4   5
ENDBRANCH   3   4
ENDBRANCH   2   3
ENDBRANCH   1   2
BRANCH   1   9
ATOM      9  C   UNL     1      68.588   6.870  33.487  1.00  0.00     0.000 C 
BRANCH   9  10
ATOM     10  C   UNL     1      67.934   8.226  33.175  1.00  0.00    -0.000 C 
BRANCH  10  11
ATOM     11  C   UNL     1      68.935   9.393  33.239  1.00  0.00    -0.000 C 
BRANCH  11  12
ATOM     12  C   UNL     1      68.408  10.660  32.545  1.00  0.00    -0.000 C 
BRANCH  12  13
ATOM     13  C   UNL     1      69.491  11.388  31.736  1.00  0.00    -0.003 C 
ATOM     14  C   UNL     1      70.888  10.967  32.184  1.00  0.00     0.004 C 
ENDBRANCH  12  13
ENDBRANCH  11  12
ENDBRANCH  10  11
ENDBRANCH   9  10
ENDBRANCH   1   9
TORSDOF 10
ENDMDL
