MODEL 1
REMARK VINA RESULT:    -5.730      0.000      0.000
REMARK INTER + INTRA:          -6.862
REMARK INTER:                  -6.735
REMARK INTRA:                  -0.127
REMARK UNBOUND:                -0.127
REMARK SMILES O=C([O-])C=Cc1ccc(O)c(O)c1
REMARK SMILES IDX 6 1 13 2 7 3 11 4 8 5 9 6 5 7 4 8 2 9 1 10 3 11 12 12 10 14
REMARK H PARENT 12 13 10 15
REMARK Flexibility Score: inf
ROOT
ATOM      1  C   UNL     1       6.715   5.401  20.533  1.00  0.00    -0.022 A 
ATOM      2  C   UNL     1       7.713   4.652  21.176  1.00  0.00     0.058 A 
ATOM      3  C   UNL     1       5.745   4.724  19.766  1.00  0.00     0.012 A 
ATOM      4  C   UNL     1       7.735   3.254  21.081  1.00  0.00     0.157 A 
ATOM      5  C   UNL     1       5.767   3.330  19.670  1.00  0.00     0.051 A 
ATOM      6  C   UNL     1       6.755   2.590  20.326  1.00  0.00     0.157 A 
ENDROOT
BRANCH   1   7
ATOM      7  C   UNL     1       6.742   6.880  20.657  1.00  0.00     0.010 C 
ATOM      8  C   UNL     1       7.819   7.631  20.386  1.00  0.00     0.025 C 
BRANCH   8   9
ATOM      9  C   UNL     1       7.805   9.098  20.509  1.00  0.00     0.064 C 
ATOM     10  O   UNL     1       7.556   9.834  19.517  1.00  0.00    -0.545 OA
ATOM     11  O   UNL     1       8.068   9.681  21.742  1.00  0.00    -0.545 OA
ENDBRANCH   8   9
ENDBRANCH   1   7
BRANCH   4  12
ATOM     12  O   UNL     1       8.728   2.523  21.733  1.00  0.00    -0.504 OA
ATOM     13  H   UNL     1       8.722   2.398  22.738  1.00  0.00     0.293 HD
ENDBRANCH   4  12
BRANCH   6  14
ATOM     14  O   UNL     1       6.749   1.200  20.213  1.00  0.00    -0.504 OA
ATOM     15  H   UNL     1       6.860   0.732  19.321  1.00  0.00     0.293 HD
ENDBRANCH   6  14
TORSDOF 4
ENDMDL
MODEL 2
REMARK VINA RESULT:    -5.478      0.856      2.112
REMARK INTER + INTRA:          -6.565
REMARK INTER:                  -6.436
REMARK INTRA:                  -0.130
REMARK UNBOUND:                -0.127
REMARK SMILES O=C([O-])C=Cc1ccc(O)c(O)c1
REMARK SMILES IDX 6 1 13 2 7 3 11 4 8 5 9 6 5 7 4 8 2 9 1 10 3 11 12 12 10 14
REMARK H PARENT 12 13 10 15
REMARK Flexibility Score: inf
ROOT
ATOM      1  C   UNL     1       6.809   5.307  20.795  1.00  0.00    -0.022 A 
ATOM      2  C   UNL     1       5.664   4.731  20.220  1.00  0.00     0.058 A 
ATOM      3  C   UNL     1       7.850   4.462  21.230  1.00  0.00     0.012 A 
ATOM      4  C   UNL     1       5.564   3.342  20.057  1.00  0.00     0.157 A 
ATOM      5  C   UNL     1       7.750   3.077  21.069  1.00  0.00     0.051 A 
ATOM      6  C   UNL     1       6.614   2.511  20.482  1.00  0.00     0.157 A 
ENDROOT
BRANCH   1   7
ATOM      7  C   UNL     1       6.861   6.781  20.954  1.00  0.00     0.010 C 
ATOM      8  C   UNL     1       7.771   7.564  20.357  1.00  0.00     0.025 C 
BRANCH   8   9
ATOM      9  C   UNL     1       7.783   9.027  20.530  1.00  0.00     0.064 C 
ATOM     10  O   UNL     1       8.033   9.549  21.648  1.00  0.00    -0.545 OA
ATOM     11  O   UNL     1       7.517   9.844  19.439  1.00  0.00    -0.545 OA
ENDBRANCH   8   9
ENDBRANCH   1   7
BRANCH   4  12
ATOM     12  O   UNL     1       4.424   2.785  19.478  1.00  0.00    -0.504 OA
ATOM     13  H   UNL     1       3.721   3.361  19.031  1.00  0.00     0.293 HD
ENDBRANCH   4  12
BRANCH   6  14
ATOM     14  O   UNL     1       6.544   1.127  20.333  1.00  0.00    -0.504 OA
ATOM     15  H   UNL     1       5.737   0.669  19.926  1.00  0.00     0.293 HD
ENDBRANCH   6  14
TORSDOF 4
ENDMDL
MODEL 3
REMARK VINA RESULT:    -5.404      1.508      2.019
REMARK INTER + INTRA:          -6.478
REMARK INTER:                  -6.352
REMARK INTRA:                  -0.126
REMARK UNBOUND:                -0.127
REMARK SMILES O=C([O-])C=Cc1ccc(O)c(O)c1
REMARK SMILES IDX 6 1 13 2 7 3 11 4 8 5 9 6 5 7 4 8 2 9 1 10 3 11 12 12 10 14
REMARK H PARENT 12 13 10 15
REMARK Flexibility Score: inf
ROOT
ATOM      1  C   UNL     1       6.259   4.197  19.852  1.00  0.00    -0.022 A 
ATOM      2  C   UNL     1       6.988   2.996  19.869  1.00  0.00     0.058 A 
ATOM      3  C   UNL     1       4.902   4.174  20.232  1.00  0.00     0.012 A 
ATOM      4  C   UNL     1       6.388   1.798  20.281  1.00  0.00     0.157 A 
ATOM      5  C   UNL     1       4.303   2.979  20.641  1.00  0.00     0.051 A 
ATOM      6  C   UNL     1       5.038   1.791  20.671  1.00  0.00     0.157 A 
ENDROOT
BRANCH   1   7
ATOM      7  C   UNL     1       6.938   5.436  19.398  1.00  0.00     0.010 C 
ATOM      8  C   UNL     1       7.498   6.326  20.229  1.00  0.00     0.025 C 
BRANCH   8   9
ATOM      9  C   UNL     1       8.174   7.540  19.740  1.00  0.00     0.064 C 
ATOM     10  O   UNL     1       8.688   7.582  18.590  1.00  0.00    -0.545 OA
ATOM     11  O   UNL     1       8.244   8.658  20.560  1.00  0.00    -0.545 OA
ENDBRANCH   8   9
ENDBRANCH   1   7
BRANCH   4  12
ATOM     12  O   UNL     1       7.127   0.616  20.301  1.00  0.00    -0.504 OA
ATOM     13  H   UNL     1       8.102   0.604  20.576  1.00  0.00     0.293 HD
ENDBRANCH   4  12
BRANCH   6  14
ATOM     14  O   UNL     1       4.414   0.615  21.086  1.00  0.00    -0.504 OA
ATOM     15  H   UNL     1       3.754   0.599  21.854  1.00  0.00     0.293 HD
ENDBRANCH   6  14
TORSDOF 4
ENDMDL
MODEL 4
REMARK VINA RESULT:    -5.016      1.882      2.566
REMARK INTER + INTRA:          -6.023
REMARK INTER:                  -5.895
REMARK INTRA:                  -0.128
REMARK UNBOUND:                -0.127
REMARK SMILES O=C([O-])C=Cc1ccc(O)c(O)c1
REMARK SMILES IDX 6 1 13 2 7 3 11 4 8 5 9 6 5 7 4 8 2 9 1 10 3 11 12 12 10 14
REMARK H PARENT 12 13 10 15
REMARK Flexibility Score: inf
ROOT
ATOM      1  C   UNL     1       6.460   4.270  19.818  1.00  0.00    -0.022 A 
ATOM      2  C   UNL     1       5.126   4.324  20.253  1.00  0.00     0.058 A 
ATOM      3  C   UNL     1       7.129   3.029  19.827  1.00  0.00     0.012 A 
ATOM      4  C   UNL     1       4.458   3.162  20.666  1.00  0.00     0.157 A 
ATOM      5  C   UNL     1       6.464   1.871  20.240  1.00  0.00     0.051 A 
ATOM      6  C   UNL     1       5.131   1.929  20.657  1.00  0.00     0.157 A 
ENDROOT
BRANCH   1   7
ATOM      7  C   UNL     1       7.125   5.529  19.401  1.00  0.00     0.010 C 
ATOM      8  C   UNL     1       7.544   6.471  20.258  1.00  0.00     0.025 C 
BRANCH   8   9
ATOM      9  C   UNL     1       8.210   7.704  19.806  1.00  0.00     0.064 C 
ATOM     10  O   UNL     1       8.756   7.773  18.673  1.00  0.00    -0.545 OA
ATOM     11  O   UNL     1       8.234   8.812  20.644  1.00  0.00    -0.545 OA
ENDBRANCH   8   9
ENDBRANCH   1   7
BRANCH   4  12
ATOM     12  O   UNL     1       3.131   3.230  21.087  1.00  0.00    -0.504 OA
ATOM     13  H   UNL     1       2.390   2.752  20.588  1.00  0.00     0.293 HD
ENDBRANCH   4  12
BRANCH   6  14
ATOM     14  O   UNL     1       4.494   0.757  21.062  1.00  0.00    -0.504 OA
ATOM     15  H   UNL     1       4.283   0.007  20.413  1.00  0.00     0.293 HD
ENDBRANCH   6  14
TORSDOF 4
ENDMDL
MODEL 5
REMARK VINA RESULT:    -5.012      1.719      5.718
REMARK INTER + INTRA:          -6.018
REMARK INTER:                  -5.883
REMARK INTRA:                  -0.135
REMARK UNBOUND:                -0.127
REMARK SMILES O=C([O-])C=Cc1ccc(O)c(O)c1
REMARK SMILES IDX 6 1 13 2 7 3 11 4 8 5 9 6 5 7 4 8 2 9 1 10 3 11 12 12 10 14
REMARK H PARENT 12 13 10 15
REMARK Flexibility Score: inf
ROOT
ATOM      1  C   UNL     1       6.937   6.017  19.769  1.00  0.00    -0.022 A 
ATOM      2  C   UNL     1       7.291   7.065  20.634  1.00  0.00     0.058 A 
ATOM      3  C   UNL     1       7.433   6.028  18.449  1.00  0.00     0.012 A 
ATOM      4  C   UNL     1       8.142   8.093  20.206  1.00  0.00     0.157 A 
ATOM      5  C   UNL     1       8.281   7.053  18.022  1.00  0.00     0.051 A 
ATOM      6  C   UNL     1       8.642   8.085  18.893  1.00  0.00     0.157 A 
ENDROOT
BRANCH   1   7
ATOM      7  C   UNL     1       6.024   4.958  20.268  1.00  0.00     0.010 C 
ATOM      8  C   UNL     1       6.028   3.697  19.816  1.00  0.00     0.025 C 
BRANCH   8   9
ATOM      9  C   UNL     1       5.114   2.670  20.345  1.00  0.00     0.064 C 
ATOM     10  O   UNL     1       5.531   1.522  20.652  1.00  0.00    -0.545 OA
ATOM     11  O   UNL     1       3.769   2.975  20.510  1.00  0.00    -0.545 OA
ENDBRANCH   8   9
ENDBRANCH   1   7
BRANCH   4  12
ATOM     12  O   UNL     1       8.492   9.122  21.080  1.00  0.00    -0.504 OA
ATOM     13  H   UNL     1       7.978   9.289  21.936  1.00  0.00     0.293 HD
ENDBRANCH   4  12
BRANCH   6  14
ATOM     14  O   UNL     1       9.491   9.093  18.438  1.00  0.00    -0.504 OA
ATOM     15  H   UNL     1      10.434   9.202  18.792  1.00  0.00     0.293 HD
ENDBRANCH   6  14
TORSDOF 4
ENDMDL
MODEL 6
REMARK VINA RESULT:    -4.985      2.341      3.399
REMARK INTER + INTRA:          -5.987
REMARK INTER:                  -5.860
REMARK INTRA:                  -0.126
REMARK UNBOUND:                -0.127
REMARK SMILES O=C([O-])C=Cc1ccc(O)c(O)c1
REMARK SMILES IDX 6 1 13 2 7 3 11 4 8 5 9 6 5 7 4 8 2 9 1 10 3 11 12 12 10 14
REMARK H PARENT 12 13 10 15
REMARK Flexibility Score: inf
ROOT
ATOM      1  C   UNL     1       6.441   4.950  19.831  1.00  0.00    -0.022 A 
ATOM      2  C   UNL     1       6.410   3.548  19.742  1.00  0.00     0.058 A 
ATOM      3  C   UNL     1       7.366   5.555  20.705  1.00  0.00     0.012 A 
ATOM      4  C   UNL     1       7.298   2.762  20.489  1.00  0.00     0.157 A 
ATOM      5  C   UNL     1       8.250   4.772  21.451  1.00  0.00     0.051 A 
ATOM      6  C   UNL     1       8.225   3.378  21.347  1.00  0.00     0.157 A 
ENDROOT
BRANCH   1   7
ATOM      7  C   UNL     1       5.473   5.736  19.026  1.00  0.00     0.010 C 
ATOM      8  C   UNL     1       5.829   6.594  18.061  1.00  0.00     0.025 C 
BRANCH   8   9
ATOM      9  C   UNL     1       4.837   7.348  17.275  1.00  0.00     0.064 C 
ATOM     10  O   UNL     1       4.242   8.345  17.761  1.00  0.00    -0.545 OA
ATOM     11  O   UNL     1       4.557   6.954  15.973  1.00  0.00    -0.545 OA
ENDBRANCH   8   9
ENDBRANCH   1   7
BRANCH   4  12
ATOM     12  O   UNL     1       7.261   1.372  20.385  1.00  0.00    -0.504 OA
ATOM     13  H   UNL     1       8.096   0.809  20.494  1.00  0.00     0.293 HD
ENDBRANCH   4  12
BRANCH   6  14
ATOM     14  O   UNL     1       9.121   2.623  22.102  1.00  0.00    -0.504 OA
ATOM     15  H   UNL     1       9.134   2.657  23.115  1.00  0.00     0.293 HD
ENDBRANCH   6  14
TORSDOF 4
ENDMDL
MODEL 7
REMARK VINA RESULT:    -4.920      1.970      5.660
REMARK INTER + INTRA:          -5.910
REMARK INTER:                  -5.784
REMARK INTRA:                  -0.125
REMARK UNBOUND:                -0.127
REMARK SMILES O=C([O-])C=Cc1ccc(O)c(O)c1
REMARK SMILES IDX 6 1 13 2 7 3 11 4 8 5 9 6 5 7 4 8 2 9 1 10 3 11 12 12 10 14
REMARK H PARENT 12 13 10 15
REMARK Flexibility Score: inf
ROOT
ATOM      1  C   UNL     1       6.539   5.690  20.240  1.00  0.00    -0.022 A 
ATOM      2  C   UNL     1       7.184   5.688  18.992  1.00  0.00     0.058 A 
ATOM      3  C   UNL     1       6.718   6.796  21.096  1.00  0.00     0.012 A 
ATOM      4  C   UNL     1       7.973   6.774  18.590  1.00  0.00     0.157 A 
ATOM      5  C   UNL     1       7.505   7.879  20.695  1.00  0.00     0.051 A 
ATOM      6  C   UNL     1       8.132   7.877  19.446  1.00  0.00     0.157 A 
ENDROOT
BRANCH   1   7
ATOM      7  C   UNL     1       5.724   4.511  20.623  1.00  0.00     0.010 C 
ATOM      8  C   UNL     1       6.164   3.527  21.420  1.00  0.00     0.025 C 
BRANCH   8   9
ATOM      9  C   UNL     1       5.321   2.377  21.788  1.00  0.00     0.064 C 
ATOM     10  O   UNL     1       5.011   1.499  20.940  1.00  0.00    -0.545 OA
ATOM     11  O   UNL     1       4.862   2.258  23.093  1.00  0.00    -0.545 OA
ENDBRANCH   8   9
ENDBRANCH   1   7
BRANCH   4  12
ATOM     12  O   UNL     1       8.600   6.762  17.344  1.00  0.00    -0.504 OA
ATOM     13  H   UNL     1       8.451   6.009  16.683  1.00  0.00     0.293 HD
ENDBRANCH   4  12
BRANCH   6  14
ATOM     14  O   UNL     1       8.909   8.973  19.073  1.00  0.00    -0.504 OA
ATOM     15  H   UNL     1       8.816   9.416  18.167  1.00  0.00     0.293 HD
ENDBRANCH   6  14
TORSDOF 4
ENDMDL
MODEL 8
REMARK VINA RESULT:    -4.913     13.500     13.941
REMARK INTER + INTRA:          -5.901
REMARK INTER:                  -5.773
REMARK INTRA:                  -0.128
REMARK UNBOUND:                -0.127
REMARK SMILES O=C([O-])C=Cc1ccc(O)c(O)c1
REMARK SMILES IDX 6 1 13 2 7 3 11 4 8 5 9 6 5 7 4 8 2 9 1 10 3 11 12 12 10 14
REMARK H PARENT 12 13 10 15
REMARK Flexibility Score: inf
ROOT
ATOM      1  C   UNL     1      15.395  -5.655  17.691  1.00  0.00    -0.022 A 
ATOM      2  C   UNL     1      15.151  -5.667  19.074  1.00  0.00     0.058 A 
ATOM      3  C   UNL     1      14.546  -6.396  16.844  1.00  0.00     0.012 A 
ATOM      4  C   UNL     1      14.069  -6.382  19.606  1.00  0.00     0.157 A 
ATOM      5  C   UNL     1      13.467  -7.109  17.374  1.00  0.00     0.051 A 
ATOM      6  C   UNL     1      13.221  -7.105  18.750  1.00  0.00     0.157 A 
ENDROOT
BRANCH   1   7
ATOM      7  C   UNL     1      16.560  -4.891  17.180  1.00  0.00     0.010 C 
ATOM      8  C   UNL     1      16.525  -3.583  16.891  1.00  0.00     0.025 C 
BRANCH   8   9
ATOM      9  C   UNL     1      17.706  -2.855  16.396  1.00  0.00     0.064 C 
ATOM     10  O   UNL     1      18.844  -3.396  16.376  1.00  0.00    -0.545 OA
ATOM     11  O   UNL     1      17.563  -1.551  15.943  1.00  0.00    -0.545 OA
ENDBRANCH   8   9
ENDBRANCH   1   7
BRANCH   4  12
ATOM     12  O   UNL     1      13.834  -6.378  20.980  1.00  0.00    -0.504 OA
ATOM     13  H   UNL     1      14.484  -5.950  21.629  1.00  0.00     0.293 HD
ENDBRANCH   4  12
BRANCH   6  14
ATOM     14  O   UNL     1      12.136  -7.825  19.248  1.00  0.00    -0.504 OA
ATOM     15  H   UNL     1      11.659  -7.558  20.102  1.00  0.00     0.293 HD
ENDBRANCH   6  14
TORSDOF 4
ENDMDL
MODEL 9
REMARK VINA RESULT:    -4.790      5.153      8.544
REMARK INTER + INTRA:          -5.757
REMARK INTER:                  -5.630
REMARK INTRA:                  -0.128
REMARK UNBOUND:                -0.127
REMARK SMILES O=C([O-])C=Cc1ccc(O)c(O)c1
REMARK SMILES IDX 6 1 13 2 7 3 11 4 8 5 9 6 5 7 4 8 2 9 1 10 3 11 12 12 10 14
REMARK H PARENT 12 13 10 15
REMARK Flexibility Score: inf
ROOT
ATOM      1  C   UNL     1       4.251   0.444  23.335  1.00  0.00    -0.022 A 
ATOM      2  C   UNL     1       3.639   0.099  22.119  1.00  0.00     0.058 A 
ATOM      3  C   UNL     1       4.868   1.706  23.452  1.00  0.00     0.012 A 
ATOM      4  C   UNL     1       3.616   1.001  21.046  1.00  0.00     0.157 A 
ATOM      5  C   UNL     1       4.847   2.605  22.382  1.00  0.00     0.051 A 
ATOM      6  C   UNL     1       4.222   2.262  21.180  1.00  0.00     0.157 A 
ENDROOT
BRANCH   1   7
ATOM      7  C   UNL     1       4.256  -0.550  24.437  1.00  0.00     0.010 C 
ATOM      8  C   UNL     1       5.081  -1.605  24.485  1.00  0.00     0.025 C 
BRANCH   8   9
ATOM      9  C   UNL     1       5.064  -2.565  25.602  1.00  0.00     0.064 C 
ATOM     10  O   UNL     1       6.046  -3.322  25.827  1.00  0.00    -0.545 OA
ATOM     11  O   UNL     1       3.947  -2.636  26.423  1.00  0.00    -0.545 OA
ENDBRANCH   8   9
ENDBRANCH   1   7
BRANCH   4  12
ATOM     12  O   UNL     1       2.997   0.648  19.847  1.00  0.00    -0.504 OA
ATOM     13  H   UNL     1       3.041  -0.297  19.485  1.00  0.00     0.293 HD
ENDBRANCH   4  12
BRANCH   6  14
ATOM     14  O   UNL     1       4.215   3.180  20.131  1.00  0.00    -0.504 OA
ATOM     15  H   UNL     1       4.506   4.142  20.256  1.00  0.00     0.293 HD
ENDBRANCH   6  14
TORSDOF 4
ENDMDL
