MODEL 1
REMARK VINA RESULT:    -3.582      0.000      0.000
REMARK INTER + INTRA:          -3.686
REMARK INTER:                  -3.686
REMARK INTRA:                   0.000
REMARK UNBOUND:                 0.000
REMARK SMILES CC1(C)[C@@H]2CC[C@@](C)(C2)[C@H]1O
REMARK SMILES IDX 1 1 2 2 4 3 5 4 6 5 7 6 9 7 10 8 8 9 3 10 11 11
REMARK H PARENT 11 12
REMARK Flexibility Score: inf
ROOT
ATOM      1  C   UNL     1     117.611 118.949 119.296  1.00  0.00     0.014 C 
ATOM      2  C   UNL     1     116.969 117.589 118.915  1.00  0.00    -0.006 C 
ATOM      3  C   UNL     1     115.473 117.805 118.497  1.00  0.00    -0.002 C 
ATOM      4  C   UNL     1     114.721 116.462 118.382  1.00  0.00     0.005 C 
ATOM      5  C   UNL     1     115.365 115.812 117.147  1.00  0.00     0.010 C 
ATOM      6  C   UNL     1     116.342 116.907 116.655  1.00  0.00    -0.006 C 
ATOM      7  C   UNL     1     115.587 118.167 117.026  1.00  0.00     0.013 C 
ATOM      8  C   UNL     1     117.568 116.944 117.617  1.00  0.00     0.126 C 
ATOM      9  C   UNL     1     116.682 116.783 115.164  1.00  0.00     0.014 C 
ATOM     10  C   UNL     1     117.138 116.648 120.134  1.00  0.00     0.014 C 
ENDROOT
BRANCH   8  11
ATOM     11  O   UNL     1     118.671 117.654 117.095  1.00  0.00    -0.392 OA
ATOM     12  H   UNL     1     118.835 117.357 116.164  1.00  0.00     0.211 HD
ENDBRANCH   8  11
TORSDOF 1
ENDMDL
MODEL 2
REMARK VINA RESULT:    -3.576      1.500      2.172
REMARK INTER + INTRA:          -3.681
REMARK INTER:                  -3.681
REMARK INTRA:                   0.000
REMARK UNBOUND:                 0.000
REMARK SMILES CC1(C)[C@@H]2CC[C@@](C)(C2)[C@H]1O
REMARK SMILES IDX 1 1 2 2 4 3 5 4 6 5 7 6 9 7 10 8 8 9 3 10 11 11
REMARK H PARENT 11 12
REMARK Flexibility Score: inf
ROOT
ATOM      1  C   UNL     1     114.326 117.622 119.322  1.00  0.00     0.014 C 
ATOM      2  C   UNL     1     115.669 116.953 118.928  1.00  0.00    -0.006 C 
ATOM      3  C   UNL     1     115.419 115.461 118.512  1.00  0.00    -0.002 C 
ATOM      4  C   UNL     1     116.745 114.682 118.383  1.00  0.00     0.005 C 
ATOM      5  C   UNL     1     117.396 115.315 117.142  1.00  0.00     0.010 C 
ATOM      6  C   UNL     1     116.317 116.314 116.661  1.00  0.00    -0.006 C 
ATOM      7  C   UNL     1     115.045 115.584 117.044  1.00  0.00     0.013 C 
ATOM      8  C   UNL     1     116.314 117.540 117.624  1.00  0.00     0.126 C 
ATOM      9  C   UNL     1     116.434 116.652 115.169  1.00  0.00     0.014 C 
ATOM     10  C   UNL     1     116.625 117.102 120.138  1.00  0.00     0.014 C 
ENDROOT
BRANCH   8  11
ATOM     11  O   UNL     1     115.621 118.657 117.110  1.00  0.00    -0.392 OA
ATOM     12  H   UNL     1     114.704 118.669 117.486  1.00  0.00     0.211 HD
ENDBRANCH   8  11
TORSDOF 1
ENDMDL
MODEL 3
REMARK VINA RESULT:    -3.565      1.981      3.095
REMARK INTER + INTRA:          -3.669
REMARK INTER:                  -3.669
REMARK INTRA:                   0.000
REMARK UNBOUND:                 0.000
REMARK SMILES CC1(C)[C@@H]2CC[C@@](C)(C2)[C@H]1O
REMARK SMILES IDX 1 1 2 2 4 3 5 4 6 5 7 6 9 7 10 8 8 9 3 10 11 11
REMARK H PARENT 11 12
REMARK Flexibility Score: inf
ROOT
ATOM      1  C   UNL     1     115.679 114.284 119.450  1.00  0.00     0.014 C 
ATOM      2  C   UNL     1     116.302 115.636 119.013  1.00  0.00    -0.006 C 
ATOM      3  C   UNL     1     117.771 115.409 118.514  1.00  0.00    -0.002 C 
ATOM      4  C   UNL     1     118.518 116.747 118.335  1.00  0.00     0.005 C 
ATOM      5  C   UNL     1     117.805 117.381 117.129  1.00  0.00     0.010 C 
ATOM      6  C   UNL     1     116.800 116.282 116.711  1.00  0.00    -0.006 C 
ATOM      7  C   UNL     1     117.572 115.025 117.057  1.00  0.00     0.013 C 
ATOM      8  C   UNL     1     115.630 116.263 117.741  1.00  0.00     0.126 C 
ATOM      9  C   UNL     1     116.375 116.384 115.239  1.00  0.00     0.014 C 
ATOM     10  C   UNL     1     116.204 116.596 120.225  1.00  0.00     0.014 C 
ENDROOT
BRANCH   8  11
ATOM     11  O   UNL     1     114.498 115.548 117.295  1.00  0.00    -0.392 OA
ATOM     12  H   UNL     1     114.725 115.080 116.451  1.00  0.00     0.211 HD
ENDBRANCH   8  11
TORSDOF 1
ENDMDL
MODEL 4
REMARK VINA RESULT:    -3.557      1.534      2.235
REMARK INTER + INTRA:          -3.661
REMARK INTER:                  -3.661
REMARK INTRA:                   0.000
REMARK UNBOUND:                 0.000
REMARK SMILES CC1(C)[C@@H]2CC[C@@](C)(C2)[C@H]1O
REMARK SMILES IDX 1 1 2 2 4 3 5 4 6 5 7 6 9 7 10 8 8 9 3 10 11 11
REMARK H PARENT 11 12
REMARK Flexibility Score: inf
ROOT
ATOM      1  C   UNL     1     119.210 115.658 119.274  1.00  0.00     0.014 C 
ATOM      2  C   UNL     1     117.812 116.259 118.973  1.00  0.00    -0.006 C 
ATOM      3  C   UNL     1     117.966 117.734 118.461  1.00  0.00    -0.002 C 
ATOM      4  C   UNL     1     116.605 118.459 118.417  1.00  0.00     0.005 C 
ATOM      5  C   UNL     1     115.869 117.740 117.274  1.00  0.00     0.010 C 
ATOM      6  C   UNL     1     116.938 116.754 116.746  1.00  0.00    -0.006 C 
ATOM      7  C   UNL     1     118.211 117.546 116.973  1.00  0.00     0.013 C 
ATOM      8  C   UNL     1     117.076 115.582 117.765  1.00  0.00     0.126 C 
ATOM      9  C   UNL     1     116.701 116.333 115.290  1.00  0.00     0.014 C 
ATOM     10  C   UNL     1     116.976 116.142 120.272  1.00  0.00     0.014 C 
ENDROOT
BRANCH   8  11
ATOM     11  O   UNL     1     117.762 114.463 117.246  1.00  0.00    -0.392 OA
ATOM     12  H   UNL     1     118.031 113.873 117.995  1.00  0.00     0.211 HD
ENDBRANCH   8  11
TORSDOF 1
ENDMDL
MODEL 5
REMARK VINA RESULT:    -3.494      1.631      2.737
REMARK INTER + INTRA:          -3.596
REMARK INTER:                  -3.596
REMARK INTRA:                   0.000
REMARK UNBOUND:                 0.000
REMARK SMILES CC1(C)[C@@H]2CC[C@@](C)(C2)[C@H]1O
REMARK SMILES IDX 1 1 2 2 4 3 5 4 6 5 7 6 9 7 10 8 8 9 3 10 11 11
REMARK H PARENT 11 12
REMARK Flexibility Score: inf
ROOT
ATOM      1  C   UNL     1     117.640 118.834 119.081  1.00  0.00     0.014 C 
ATOM      2  C   UNL     1     116.597 118.129 118.174  1.00  0.00    -0.006 C 
ATOM      3  C   UNL     1     117.322 117.432 116.971  1.00  0.00    -0.002 C 
ATOM      4  C   UNL     1     116.315 116.962 115.901  1.00  0.00     0.005 C 
ATOM      5  C   UNL     1     115.572 115.816 116.608  1.00  0.00     0.010 C 
ATOM      6  C   UNL     1     116.314 115.713 117.963  1.00  0.00    -0.006 C 
ATOM      7  C   UNL     1     117.725 116.089 117.558  1.00  0.00     0.013 C 
ATOM      8  C   UNL     1     115.879 116.913 118.857  1.00  0.00     0.126 C 
ATOM      9  C   UNL     1     116.185 114.329 118.614  1.00  0.00     0.014 C 
ATOM     10  C   UNL     1     115.574 119.206 117.735  1.00  0.00     0.014 C 
ENDROOT
BRANCH   8  11
ATOM     11  O   UNL     1     116.219 116.753 120.218  1.00  0.00    -0.392 OA
ATOM     12  H   UNL     1     116.962 117.371 120.439  1.00  0.00     0.211 HD
ENDBRANCH   8  11
TORSDOF 1
ENDMDL
MODEL 6
REMARK VINA RESULT:    -3.488      1.094      3.156
REMARK INTER + INTRA:          -3.590
REMARK INTER:                  -3.590
REMARK INTRA:                   0.000
REMARK UNBOUND:                 0.000
REMARK SMILES CC1(C)[C@@H]2CC[C@@](C)(C2)[C@H]1O
REMARK SMILES IDX 1 1 2 2 4 3 5 4 6 5 7 6 9 7 10 8 8 9 3 10 11 11
REMARK H PARENT 11 12
REMARK Flexibility Score: inf
ROOT
ATOM      1  C   UNL     1     117.374 115.197 117.364  1.00  0.00     0.014 C 
ATOM      2  C   UNL     1     116.982 116.687 117.180  1.00  0.00    -0.006 C 
ATOM      3  C   UNL     1     115.774 117.040 118.115  1.00  0.00    -0.002 C 
ATOM      4  C   UNL     1     115.174 118.417 117.765  1.00  0.00     0.005 C 
ATOM      5  C   UNL     1     116.280 119.393 118.196  1.00  0.00     0.010 C 
ATOM      6  C   UNL     1     117.338 118.455 118.826  1.00  0.00    -0.006 C 
ATOM      7  C   UNL     1     116.458 117.379 119.429  1.00  0.00     0.013 C 
ATOM      8  C   UNL     1     118.072 117.698 117.679  1.00  0.00     0.126 C 
ATOM      9  C   UNL     1     118.252 119.169 119.831  1.00  0.00     0.014 C 
ATOM     10  C   UNL     1     116.677 116.894 115.675  1.00  0.00     0.014 C 
ENDROOT
BRANCH   8  11
ATOM     11  O   UNL     1     119.269 117.073 118.092  1.00  0.00    -0.392 OA
ATOM     12  H   UNL     1     119.349 117.151 119.077  1.00  0.00     0.211 HD
ENDBRANCH   8  11
TORSDOF 1
ENDMDL
MODEL 7
REMARK VINA RESULT:    -3.473      1.897      3.765
REMARK INTER + INTRA:          -3.574
REMARK INTER:                  -3.574
REMARK INTRA:                   0.000
REMARK UNBOUND:                 0.000
REMARK SMILES CC1(C)[C@@H]2CC[C@@](C)(C2)[C@H]1O
REMARK SMILES IDX 1 1 2 2 4 3 5 4 6 5 7 6 9 7 10 8 8 9 3 10 11 11
REMARK H PARENT 11 12
REMARK Flexibility Score: inf
ROOT
ATOM      1  C   UNL     1     115.226 115.845 117.357  1.00  0.00     0.014 C 
ATOM      2  C   UNL     1     116.718 116.234 117.188  1.00  0.00    -0.006 C 
ATOM      3  C   UNL     1     117.068 117.432 118.138  1.00  0.00    -0.002 C 
ATOM      4  C   UNL     1     118.450 118.031 117.805  1.00  0.00     0.005 C 
ATOM      5  C   UNL     1     119.419 116.916 118.233  1.00  0.00     0.010 C 
ATOM      6  C   UNL     1     118.473 115.856 118.844  1.00  0.00    -0.006 C 
ATOM      7  C   UNL     1     117.394 116.733 119.447  1.00  0.00     0.013 C 
ATOM      8  C   UNL     1     117.722 115.135 117.683  1.00  0.00     0.126 C 
ATOM      9  C   UNL     1     119.175 114.929 119.846  1.00  0.00     0.014 C 
ATOM     10  C   UNL     1     116.939 116.554 115.688  1.00  0.00     0.014 C 
ENDROOT
BRANCH   8  11
ATOM     11  O   UNL     1     117.091 113.937 118.080  1.00  0.00    -0.392 OA
ATOM     12  H   UNL     1     116.225 114.156 118.511  1.00  0.00     0.211 HD
ENDBRANCH   8  11
TORSDOF 1
ENDMDL
MODEL 8
REMARK VINA RESULT:    -3.465      2.219      3.688
REMARK INTER + INTRA:          -3.566
REMARK INTER:                  -3.566
REMARK INTRA:                   0.000
REMARK UNBOUND:                 0.000
REMARK SMILES CC1(C)[C@@H]2CC[C@@](C)(C2)[C@H]1O
REMARK SMILES IDX 1 1 2 2 4 3 5 4 6 5 7 6 9 7 10 8 8 9 3 10 11 11
REMARK H PARENT 11 12
REMARK Flexibility Score: inf
ROOT
ATOM      1  C   UNL     1     115.864 117.999 117.337  1.00  0.00     0.014 C 
ATOM      2  C   UNL     1     116.254 116.506 117.183  1.00  0.00    -0.006 C 
ATOM      3  C   UNL     1     117.467 116.172 118.119  1.00  0.00    -0.002 C 
ATOM      4  C   UNL     1     118.064 114.787 117.796  1.00  0.00     0.005 C 
ATOM      5  C   UNL     1     116.959 113.821 118.254  1.00  0.00     0.010 C 
ATOM      6  C   UNL     1     115.905 114.773 118.868  1.00  0.00    -0.006 C 
ATOM      7  C   UNL     1     116.789 115.862 119.443  1.00  0.00     0.013 C 
ATOM      8  C   UNL     1     115.166 115.507 117.708  1.00  0.00     0.126 C 
ATOM      9  C   UNL     1     114.996 114.082 119.893  1.00  0.00     0.014 C 
ATOM     10  C   UNL     1     116.552 116.266 115.681  1.00  0.00     0.014 C 
ENDROOT
BRANCH   8  11
ATOM     11  O   UNL     1     113.972 116.141 118.115  1.00  0.00    -0.392 OA
ATOM     12  H   UNL     1     114.194 116.871 118.747  1.00  0.00     0.211 HD
ENDBRANCH   8  11
TORSDOF 1
ENDMDL
MODEL 9
REMARK VINA RESULT:    -3.444      1.710      2.881
REMARK INTER + INTRA:          -3.545
REMARK INTER:                  -3.545
REMARK INTRA:                   0.000
REMARK UNBOUND:                 0.000
REMARK SMILES CC1(C)[C@@H]2CC[C@@](C)(C2)[C@H]1O
REMARK SMILES IDX 1 1 2 2 4 3 5 4 6 5 7 6 9 7 10 8 8 9 3 10 11 11
REMARK H PARENT 11 12
REMARK Flexibility Score: inf
ROOT
ATOM      1  C   UNL     1     114.456 117.763 119.095  1.00  0.00     0.014 C 
ATOM      2  C   UNL     1     115.120 116.669 118.219  1.00  0.00    -0.006 C 
ATOM      3  C   UNL     1     115.804 117.328 116.971  1.00  0.00    -0.002 C 
ATOM      4  C   UNL     1     116.230 116.267 115.935  1.00  0.00     0.005 C 
ATOM      5  C   UNL     1     117.377 115.532 116.648  1.00  0.00     0.010 C 
ATOM      6  C   UNL     1     117.525 116.327 117.967  1.00  0.00    -0.006 C 
ATOM      7  C   UNL     1     117.167 117.728 117.511  1.00  0.00     0.013 C 
ATOM      8  C   UNL     1     116.337 115.956 118.905  1.00  0.00     0.126 C 
ATOM      9  C   UNL     1     118.920 116.198 118.594  1.00  0.00     0.014 C 
ATOM     10  C   UNL     1     114.014 115.649 117.847  1.00  0.00     0.014 C 
ENDROOT
BRANCH   8  11
ATOM     11  O   UNL     1     116.534 116.349 120.246  1.00  0.00    -0.392 OA
ATOM     12  H   UNL     1     115.652 116.513 120.667  1.00  0.00     0.211 HD
ENDBRANCH   8  11
TORSDOF 1
ENDMDL
