MODEL 1
REMARK VINA RESULT:    -3.713      0.000      0.000
REMARK INTER + INTRA:          -7.526
REMARK INTER:                  -6.317
REMARK INTRA:                  -1.209
REMARK UNBOUND:                -1.209
REMARK SMILES CCCCCCCCCCCCCC(=O)[O-]
REMARK SMILES IDX 8 1 9 2 10 3 11 4 12 5 13 6 14 7 15 8 16 9 7 10 6 11 5 12
REMARK SMILES IDX 4 13 3 14 2 15 1 16
REMARK H PARENT
REMARK Flexibility Score: inf
ROOT
ATOM      1  C   UNL     1     -99.683  69.730  22.888  1.00  0.00     0.000 C 
ENDROOT
BRANCH   1   2
ATOM      2  C   UNL     1     -99.303  68.631  23.903  1.00  0.00     0.000 C 
BRANCH   2   3
ATOM      3  C   UNL     1     -99.737  68.946  25.345  1.00  0.00     0.000 C 
BRANCH   3   4
ATOM      4  C   UNL     1     -98.545  69.126  26.300  1.00  0.00     0.000 C 
BRANCH   4   5
ATOM      5  C   UNL     1     -98.711  70.336  27.238  1.00  0.00     0.006 C 
BRANCH   5   6
ATOM      6  C   UNL     1     -98.405  70.040  28.715  1.00  0.00     0.053 C 
BRANCH   6   7
ATOM      7  C   UNL     1     -99.138  68.830  29.209  1.00  0.00     0.041 C 
ATOM      8  O   UNL     1    -100.397  68.826  29.255  1.00  0.00    -0.550 OA
ATOM      9  O   UNL     1     -98.432  67.696  29.587  1.00  0.00    -0.550 OA
ENDBRANCH   6   7
ENDBRANCH   5   6
ENDBRANCH   4   5
ENDBRANCH   3   4
ENDBRANCH   2   3
ENDBRANCH   1   2
BRANCH   1  10
ATOM     10  C   UNL     1     -98.453  70.514  22.397  1.00  0.00     0.000 C 
BRANCH  10  11
ATOM     11  C   UNL     1     -98.416  71.954  22.933  1.00  0.00    -0.000 C 
BRANCH  11  12
ATOM     12  C   UNL     1     -97.441  72.123  24.112  1.00  0.00    -0.000 C 
BRANCH  12  13
ATOM     13  C   UNL     1     -96.375  73.203  23.834  1.00  0.00    -0.000 C 
BRANCH  13  14
ATOM     14  C   UNL     1     -95.308  72.766  22.816  1.00  0.00    -0.000 C 
BRANCH  14  15
ATOM     15  C   UNL     1     -95.244  73.684  21.587  1.00  0.00    -0.003 C 
ATOM     16  C   UNL     1     -95.843  73.004  20.360  1.00  0.00     0.004 C 
ENDBRANCH  14  15
ENDBRANCH  13  14
ENDBRANCH  12  13
ENDBRANCH  11  12
ENDBRANCH  10  11
ENDBRANCH   1  10
TORSDOF 12
ENDMDL
MODEL 2
REMARK VINA RESULT:    -3.662      0.825      1.817
REMARK INTER + INTRA:          -7.440
REMARK INTER:                  -5.955
REMARK INTRA:                  -1.485
REMARK UNBOUND:                -1.209
REMARK SMILES CCCCCCCCCCCCCC(=O)[O-]
REMARK SMILES IDX 8 1 9 2 10 3 11 4 12 5 13 6 14 7 15 8 16 9 7 10 6 11 5 12
REMARK SMILES IDX 4 13 3 14 2 15 1 16
REMARK H PARENT
REMARK Flexibility Score: inf
ROOT
ATOM      1  C   UNL     1     -99.263  71.813  22.411  1.00  0.00     0.000 C 
ENDROOT
BRANCH   1   2
ATOM      2  C   UNL     1     -98.693  70.384  22.534  1.00  0.00     0.000 C 
BRANCH   2   3
ATOM      3  C   UNL     1     -99.692  69.371  23.119  1.00  0.00     0.000 C 
BRANCH   3   4
ATOM      4  C   UNL     1     -99.223  68.777  24.458  1.00  0.00     0.000 C 
BRANCH   4   5
ATOM      5  C   UNL     1     -99.713  69.586  25.673  1.00  0.00     0.006 C 
BRANCH   5   6
ATOM      6  C   UNL     1     -98.717  69.639  26.843  1.00  0.00     0.053 C 
BRANCH   6   7
ATOM      7  C   UNL     1     -99.252  68.963  28.068  1.00  0.00     0.041 C 
ATOM      8  O   UNL     1    -100.379  68.401  28.040  1.00  0.00    -0.550 OA
ATOM      9  O   UNL     1     -98.492  68.925  29.229  1.00  0.00    -0.550 OA
ENDBRANCH   6   7
ENDBRANCH   5   6
ENDBRANCH   4   5
ENDBRANCH   3   4
ENDBRANCH   2   3
ENDBRANCH   1   2
BRANCH   1  10
ATOM     10  C   UNL     1     -98.618  72.783  23.416  1.00  0.00     0.000 C 
BRANCH  10  11
ATOM     11  C   UNL     1     -97.297  72.246  23.991  1.00  0.00    -0.000 C 
BRANCH  11  12
ATOM     12  C   UNL     1     -96.147  73.263  23.884  1.00  0.00    -0.000 C 
BRANCH  12  13
ATOM     13  C   UNL     1     -95.261  73.010  22.646  1.00  0.00    -0.000 C 
BRANCH  13  14
ATOM     14  C   UNL     1     -95.467  74.040  21.522  1.00  0.00    -0.000 C 
BRANCH  14  15
ATOM     15  C   UNL     1     -95.618  73.392  20.138  1.00  0.00    -0.003 C 
ATOM     16  C   UNL     1     -96.220  71.994  20.248  1.00  0.00     0.004 C 
ENDBRANCH  14  15
ENDBRANCH  13  14
ENDBRANCH  12  13
ENDBRANCH  11  12
ENDBRANCH  10  11
ENDBRANCH   1  10
TORSDOF 12
ENDMDL
MODEL 3
REMARK VINA RESULT:    -3.579      3.829      6.847
REMARK INTER + INTRA:          -7.298
REMARK INTER:                  -5.714
REMARK INTRA:                  -1.584
REMARK UNBOUND:                -1.209
REMARK SMILES CCCCCCCCCCCCCC(=O)[O-]
REMARK SMILES IDX 8 1 9 2 10 3 11 4 12 5 13 6 14 7 15 8 16 9 7 10 6 11 5 12
REMARK SMILES IDX 4 13 3 14 2 15 1 16
REMARK H PARENT
REMARK Flexibility Score: inf
ROOT
ATOM      1  C   UNL     1     -98.960  70.926  22.319  1.00  0.00     0.000 C 
ENDROOT
BRANCH   1   2
ATOM      2  C   UNL     1     -98.728  72.148  23.233  1.00  0.00     0.000 C 
BRANCH   2   3
ATOM      3  C   UNL     1     -97.415  72.080  24.032  1.00  0.00     0.000 C 
BRANCH   3   4
ATOM      4  C   UNL     1     -96.471  73.255  23.728  1.00  0.00     0.000 C 
BRANCH   4   5
ATOM      5  C   UNL     1     -95.300  72.857  22.811  1.00  0.00     0.006 C 
BRANCH   5   6
ATOM      6  C   UNL     1     -95.275  73.589  21.459  1.00  0.00     0.053 C 
BRANCH   6   7
ATOM      7  C   UNL     1     -96.248  73.000  20.484  1.00  0.00     0.041 C 
ATOM      8  O   UNL     1     -96.158  71.789  20.152  1.00  0.00    -0.550 OA
ATOM      9  O   UNL     1     -97.274  73.781  19.967  1.00  0.00    -0.550 OA
ENDBRANCH   6   7
ENDBRANCH   5   6
ENDBRANCH   4   5
ENDBRANCH   3   4
ENDBRANCH   2   3
ENDBRANCH   1   2
BRANCH   1  10
ATOM     10  C   UNL     1     -99.924  69.906  22.951  1.00  0.00     0.000 C 
BRANCH  10  11
ATOM     11  C   UNL     1     -99.189  68.723  23.601  1.00  0.00    -0.000 C 
BRANCH  11  12
ATOM     12  C   UNL     1     -99.248  68.760  25.139  1.00  0.00    -0.000 C 
BRANCH  12  13
ATOM     13  C   UNL     1    -100.340  69.720  25.655  1.00  0.00    -0.000 C 
BRANCH  13  14
ATOM     14  C   UNL     1     -99.822  70.753  26.670  1.00  0.00    -0.000 C 
BRANCH  14  15
ATOM     15  C   UNL     1     -98.390  70.463  27.140  1.00  0.00    -0.003 C 
ATOM     16  C   UNL     1     -98.376  69.927  28.568  1.00  0.00     0.004 C 
ENDBRANCH  14  15
ENDBRANCH  13  14
ENDBRANCH  12  13
ENDBRANCH  11  12
ENDBRANCH  10  11
ENDBRANCH   1  10
TORSDOF 12
ENDMDL
MODEL 4
REMARK VINA RESULT:    -3.524      3.698      6.625
REMARK INTER + INTRA:          -7.205
REMARK INTER:                  -5.679
REMARK INTRA:                  -1.526
REMARK UNBOUND:                -1.209
REMARK SMILES CCCCCCCCCCCCCC(=O)[O-]
REMARK SMILES IDX 8 1 9 2 10 3 11 4 12 5 13 6 14 7 15 8 16 9 7 10 6 11 5 12
REMARK SMILES IDX 4 13 3 14 2 15 1 16
REMARK H PARENT
REMARK Flexibility Score: inf
ROOT
ATOM      1  C   UNL     1     -99.292  68.490  23.675  1.00  0.00     0.000 C 
ENDROOT
BRANCH   1   2
ATOM      2  C   UNL     1     -99.675  69.759  22.885  1.00  0.00     0.000 C 
BRANCH   2   3
ATOM      3  C   UNL     1     -98.473  70.651  22.530  1.00  0.00     0.000 C 
BRANCH   3   4
ATOM      4  C   UNL     1     -98.484  71.993  23.280  1.00  0.00     0.000 C 
BRANCH   4   5
ATOM      5  C   UNL     1     -97.127  72.324  23.929  1.00  0.00     0.006 C 
BRANCH   5   6
ATOM      6  C   UNL     1     -96.596  73.730  23.606  1.00  0.00     0.053 C 
BRANCH   6   7
ATOM      7  C   UNL     1     -95.967  73.795  22.248  1.00  0.00     0.041 C 
ATOM      8  O   UNL     1     -95.740  74.910  21.707  1.00  0.00    -0.550 OA
ATOM      9  O   UNL     1     -95.602  72.625  21.594  1.00  0.00    -0.550 OA
ENDBRANCH   6   7
ENDBRANCH   5   6
ENDBRANCH   4   5
ENDBRANCH   3   4
ENDBRANCH   2   3
ENDBRANCH   1   2
BRANCH   1  10
ATOM     10  C   UNL     1     -99.339  68.719  25.196  1.00  0.00     0.000 C 
BRANCH  10  11
ATOM     11  C   UNL     1    -100.416  69.735  25.608  1.00  0.00    -0.000 C 
BRANCH  11  12
ATOM     12  C   UNL     1     -99.865  70.850  26.515  1.00  0.00    -0.000 C 
BRANCH  12  13
ATOM     13  C   UNL     1     -98.417  70.567  26.969  1.00  0.00    -0.000 C 
BRANCH  13  14
ATOM     14  C   UNL     1     -98.298  70.224  28.464  1.00  0.00    -0.000 C 
BRANCH  14  15
ATOM     15  C   UNL     1     -98.450  68.723  28.748  1.00  0.00    -0.003 C 
ATOM     16  C   UNL     1     -99.844  68.402  29.277  1.00  0.00     0.004 C 
ENDBRANCH  14  15
ENDBRANCH  13  14
ENDBRANCH  12  13
ENDBRANCH  11  12
ENDBRANCH  10  11
ENDBRANCH   1  10
TORSDOF 12
ENDMDL
MODEL 5
REMARK VINA RESULT:    -3.523      1.499      3.068
REMARK INTER + INTRA:          -7.203
REMARK INTER:                  -5.655
REMARK INTRA:                  -1.548
REMARK UNBOUND:                -1.209
REMARK SMILES CCCCCCCCCCCCCC(=O)[O-]
REMARK SMILES IDX 8 1 9 2 10 3 11 4 12 5 13 6 14 7 15 8 16 9 7 10 6 11 5 12
REMARK SMILES IDX 4 13 3 14 2 15 1 16
REMARK H PARENT
REMARK Flexibility Score: inf
ROOT
ATOM      1  C   UNL     1     -97.666  72.099  24.254  1.00  0.00     0.000 C 
ENDROOT
BRANCH   1   2
ATOM      2  C   UNL     1     -98.835  71.609  23.374  1.00  0.00     0.000 C 
BRANCH   2   3
ATOM      3  C   UNL     1     -98.599  70.221  22.753  1.00  0.00     0.000 C 
BRANCH   3   4
ATOM      4  C   UNL     1     -99.345  69.101  23.496  1.00  0.00     0.000 C 
BRANCH   4   5
ATOM      5  C   UNL     1    -100.153  69.621  24.700  1.00  0.00     0.006 C 
BRANCH   5   6
ATOM      6  C   UNL     1     -99.662  69.107  26.063  1.00  0.00     0.053 C 
BRANCH   6   7
ATOM      7  C   UNL     1    -100.788  68.924  27.034  1.00  0.00     0.041 C 
ATOM      8  O   UNL     1    -100.622  68.236  28.076  1.00  0.00    -0.550 OA
ATOM      9  O   UNL     1    -102.012  69.541  26.804  1.00  0.00    -0.550 OA
ENDBRANCH   6   7
ENDBRANCH   5   6
ENDBRANCH   4   5
ENDBRANCH   3   4
ENDBRANCH   2   3
ENDBRANCH   1   2
BRANCH   1  10
ATOM     10  C   UNL     1     -97.402  73.605  24.079  1.00  0.00     0.000 C 
BRANCH  10  11
ATOM     11  C   UNL     1     -95.938  73.912  23.726  1.00  0.00    -0.000 C 
BRANCH  11  12
ATOM     12  C   UNL     1     -95.319  72.855  22.794  1.00  0.00    -0.000 C 
BRANCH  12  13
ATOM     13  C   UNL     1     -95.569  73.175  21.305  1.00  0.00    -0.000 C 
BRANCH  13  14
ATOM     14  C   UNL     1     -96.253  72.031  20.537  1.00  0.00    -0.000 C 
BRANCH  14  15
ATOM     15  C   UNL     1     -97.587  72.451  19.904  1.00  0.00    -0.003 C 
ATOM     16  C   UNL     1     -98.017  73.832  20.391  1.00  0.00     0.004 C 
ENDBRANCH  14  15
ENDBRANCH  13  14
ENDBRANCH  12  13
ENDBRANCH  11  12
ENDBRANCH  10  11
ENDBRANCH   1  10
TORSDOF 12
ENDMDL
MODEL 6
REMARK VINA RESULT:    -3.458      2.152      3.786
REMARK INTER + INTRA:          -7.092
REMARK INTER:                  -5.333
REMARK INTRA:                  -1.760
REMARK UNBOUND:                -1.209
REMARK SMILES CCCCCCCCCCCCCC(=O)[O-]
REMARK SMILES IDX 8 1 9 2 10 3 11 4 12 5 13 6 14 7 15 8 16 9 7 10 6 11 5 12
REMARK SMILES IDX 4 13 3 14 2 15 1 16
REMARK H PARENT
REMARK Flexibility Score: inf
ROOT
ATOM      1  C   UNL     1    -101.367  72.327  26.922  1.00  0.00     0.000 C 
ENDROOT
BRANCH   1   2
ATOM      2  C   UNL     1    -102.073  71.059  27.446  1.00  0.00     0.000 C 
BRANCH   2   3
ATOM      3  C   UNL     1    -101.871  69.825  26.549  1.00  0.00     0.000 C 
BRANCH   3   4
ATOM      4  C   UNL     1    -101.028  68.730  27.223  1.00  0.00     0.000 C 
BRANCH   4   5
ATOM      5  C   UNL     1     -99.540  69.114  27.343  1.00  0.00     0.006 C 
BRANCH   5   6
ATOM      6  C   UNL     1     -98.896  68.738  28.687  1.00  0.00     0.053 C 
BRANCH   6   7
ATOM      7  C   UNL     1     -99.267  69.697  29.776  1.00  0.00     0.041 C 
ATOM      8  O   UNL     1     -99.690  69.268  30.882  1.00  0.00    -0.550 OA
ATOM      9  O   UNL     1     -99.114  71.064  29.581  1.00  0.00    -0.550 OA
ENDBRANCH   6   7
ENDBRANCH   5   6
ENDBRANCH   4   5
ENDBRANCH   3   4
ENDBRANCH   2   3
ENDBRANCH   1   2
BRANCH   1  10
ATOM     10  C   UNL     1    -100.898  72.168  25.465  1.00  0.00     0.000 C 
BRANCH  10  11
ATOM     11  C   UNL     1     -99.451  72.639  25.255  1.00  0.00    -0.000 C 
BRANCH  11  12
ATOM     12  C   UNL     1     -98.506  71.493  24.854  1.00  0.00    -0.000 C 
BRANCH  12  13
ATOM     13  C   UNL     1     -98.253  71.454  23.332  1.00  0.00    -0.000 C 
BRANCH  13  14
ATOM     14  C   UNL     1     -98.731  70.155  22.662  1.00  0.00    -0.000 C 
BRANCH  14  15
ATOM     15  C   UNL     1     -99.671  69.332  23.554  1.00  0.00    -0.003 C 
ATOM     16  C   UNL     1     -99.062  67.974  23.890  1.00  0.00     0.004 C 
ENDBRANCH  14  15
ENDBRANCH  13  14
ENDBRANCH  12  13
ENDBRANCH  11  12
ENDBRANCH  10  11
ENDBRANCH   1  10
TORSDOF 12
ENDMDL
MODEL 7
REMARK VINA RESULT:    -3.439      1.319      2.486
REMARK INTER + INTRA:          -7.060
REMARK INTER:                  -5.598
REMARK INTRA:                  -1.462
REMARK UNBOUND:                -1.209
REMARK SMILES CCCCCCCCCCCCCC(=O)[O-]
REMARK SMILES IDX 8 1 9 2 10 3 11 4 12 5 13 6 14 7 15 8 16 9 7 10 6 11 5 12
REMARK SMILES IDX 4 13 3 14 2 15 1 16
REMARK H PARENT
REMARK Flexibility Score: inf
ROOT
ATOM      1  C   UNL     1     -99.396  71.533  21.919  1.00  0.00     0.000 C 
ENDROOT
BRANCH   1   2
ATOM      2  C   UNL     1     -98.422  70.444  22.416  1.00  0.00     0.000 C 
BRANCH   2   3
ATOM      3  C   UNL     1     -99.045  69.482  23.443  1.00  0.00     0.000 C 
BRANCH   3   4
ATOM      4  C   UNL     1     -99.756  70.216  24.592  1.00  0.00     0.000 C 
BRANCH   4   5
ATOM      5  C   UNL     1     -98.925  70.239  25.889  1.00  0.00     0.006 C 
BRANCH   5   6
ATOM      6  C   UNL     1     -99.331  69.175  26.921  1.00  0.00     0.053 C 
BRANCH   6   7
ATOM      7  C   UNL     1     -98.517  69.268  28.175  1.00  0.00     0.041 C 
ATOM      8  O   UNL     1     -97.974  70.358  28.499  1.00  0.00    -0.550 OA
ATOM      9  O   UNL     1     -98.384  68.160  29.002  1.00  0.00    -0.550 OA
ENDBRANCH   6   7
ENDBRANCH   5   6
ENDBRANCH   4   5
ENDBRANCH   3   4
ENDBRANCH   2   3
ENDBRANCH   1   2
BRANCH   1  10
ATOM     10  C   UNL     1     -98.701  72.557  21.005  1.00  0.00     0.000 C 
BRANCH  10  11
ATOM     11  C   UNL     1     -97.215  72.237  20.780  1.00  0.00    -0.000 C 
BRANCH  11  12
ATOM     12  C   UNL     1     -96.331  73.496  20.768  1.00  0.00    -0.000 C 
BRANCH  12  13
ATOM     13  C   UNL     1     -95.169  73.401  21.779  1.00  0.00    -0.000 C 
BRANCH  13  14
ATOM     14  C   UNL     1     -95.584  72.821  23.141  1.00  0.00    -0.000 C 
BRANCH  14  15
ATOM     15  C   UNL     1     -96.203  73.871  24.074  1.00  0.00    -0.003 C 
ATOM     16  C   UNL     1     -97.564  73.413  24.591  1.00  0.00     0.004 C 
ENDBRANCH  14  15
ENDBRANCH  13  14
ENDBRANCH  12  13
ENDBRANCH  11  12
ENDBRANCH  10  11
ENDBRANCH   1  10
TORSDOF 12
ENDMDL
MODEL 8
REMARK VINA RESULT:    -3.429      1.998      3.822
REMARK INTER + INTRA:          -7.043
REMARK INTER:                  -4.968
REMARK INTRA:                  -2.075
REMARK UNBOUND:                -1.209
REMARK SMILES CCCCCCCCCCCCCC(=O)[O-]
REMARK SMILES IDX 8 1 9 2 10 3 11 4 12 5 13 6 14 7 15 8 16 9 7 10 6 11 5 12
REMARK SMILES IDX 4 13 3 14 2 15 1 16
REMARK H PARENT
REMARK Flexibility Score: inf
ROOT
ATOM      1  C   UNL     1     -98.610  70.252  22.506  1.00  0.00     0.000 C 
ENDROOT
BRANCH   1   2
ATOM      2  C   UNL     1     -99.676  69.344  23.156  1.00  0.00     0.000 C 
BRANCH   2   3
ATOM      3  C   UNL     1     -99.128  68.470  24.297  1.00  0.00     0.000 C 
BRANCH   3   4
ATOM      4  C   UNL     1     -99.746  68.815  25.662  1.00  0.00     0.000 C 
BRANCH   4   5
ATOM      5  C   UNL     1     -98.691  69.220  26.709  1.00  0.00     0.006 C 
BRANCH   5   6
ATOM      6  C   UNL     1     -99.248  70.029  27.891  1.00  0.00     0.053 C 
BRANCH   6   7
ATOM      7  C   UNL     1    -100.317  69.283  28.629  1.00  0.00     0.041 C 
ATOM      8  O   UNL     1    -100.019  68.282  29.334  1.00  0.00    -0.550 OA
ATOM      9  O   UNL     1    -101.636  69.711  28.563  1.00  0.00    -0.550 OA
ENDBRANCH   6   7
ENDBRANCH   5   6
ENDBRANCH   4   5
ENDBRANCH   3   4
ENDBRANCH   2   3
ENDBRANCH   1   2
BRANCH   1  10
ATOM     10  C   UNL     1     -98.706  71.704  23.005  1.00  0.00     0.000 C 
BRANCH  10  11
ATOM     11  C   UNL     1     -97.925  71.935  24.308  1.00  0.00    -0.000 C 
BRANCH  11  12
ATOM     12  C   UNL     1     -98.736  72.716  25.356  1.00  0.00    -0.000 C 
BRANCH  12  13
ATOM     13  C   UNL     1    -100.194  72.950  24.907  1.00  0.00    -0.000 C 
BRANCH  13  14
ATOM     14  C   UNL     1    -101.233  72.244  25.796  1.00  0.00    -0.000 C 
BRANCH  14  15
ATOM     15  C   UNL     1    -102.159  71.310  25.006  1.00  0.00    -0.003 C 
ATOM     16  C   UNL     1    -103.351  72.072  24.433  1.00  0.00     0.004 C 
ENDBRANCH  14  15
ENDBRANCH  13  14
ENDBRANCH  12  13
ENDBRANCH  11  12
ENDBRANCH  10  11
ENDBRANCH   1  10
TORSDOF 12
ENDMDL
MODEL 9
REMARK VINA RESULT:    -3.393      1.378      2.813
REMARK INTER + INTRA:          -6.982
REMARK INTER:                  -5.588
REMARK INTRA:                  -1.394
REMARK UNBOUND:                -1.209
REMARK SMILES CCCCCCCCCCCCCC(=O)[O-]
REMARK SMILES IDX 8 1 9 2 10 3 11 4 12 5 13 6 14 7 15 8 16 9 7 10 6 11 5 12
REMARK SMILES IDX 4 13 3 14 2 15 1 16
REMARK H PARENT
REMARK Flexibility Score: inf
ROOT
ATOM      1  C   UNL     1     -99.783  70.557  25.393  1.00  0.00     0.000 C 
ENDROOT
BRANCH   1   2
ATOM      2  C   UNL     1     -98.614  71.534  25.640  1.00  0.00     0.000 C 
BRANCH   2   3
ATOM      3  C   UNL     1     -98.720  72.297  26.972  1.00  0.00     0.000 C 
BRANCH   3   4
ATOM      4  C   UNL     1     -99.201  71.409  28.131  1.00  0.00     0.000 C 
BRANCH   4   5
ATOM      5  C   UNL     1     -98.106  70.453  28.642  1.00  0.00     0.006 C 
BRANCH   5   6
ATOM      6  C   UNL     1     -98.504  68.968  28.629  1.00  0.00     0.053 C 
BRANCH   6   7
ATOM      7  C   UNL     1     -99.959  68.774  28.927  1.00  0.00     0.041 C 
ATOM      8  O   UNL     1    -100.728  68.295  28.052  1.00  0.00    -0.550 OA
ATOM      9  O   UNL     1    -100.460  69.091  30.183  1.00  0.00    -0.550 OA
ENDBRANCH   6   7
ENDBRANCH   5   6
ENDBRANCH   4   5
ENDBRANCH   3   4
ENDBRANCH   2   3
ENDBRANCH   1   2
BRANCH   1  10
ATOM     10  C   UNL     1     -99.292  69.175  24.925  1.00  0.00     0.000 C 
BRANCH  10  11
ATOM     11  C   UNL     1     -99.190  69.070  23.396  1.00  0.00    -0.000 C 
BRANCH  11  12
ATOM     12  C   UNL     1    -100.120  70.058  22.670  1.00  0.00    -0.000 C 
BRANCH  12  13
ATOM     13  C   UNL     1     -99.332  71.144  21.907  1.00  0.00    -0.000 C 
BRANCH  13  14
ATOM     14  C   UNL     1     -97.806  70.967  21.986  1.00  0.00    -0.000 C 
BRANCH  14  15
ATOM     15  C   UNL     1     -97.042  72.288  21.823  1.00  0.00    -0.003 C 
ATOM     16  C   UNL     1     -96.210  72.600  23.063  1.00  0.00     0.004 C 
ENDBRANCH  14  15
ENDBRANCH  13  14
ENDBRANCH  12  13
ENDBRANCH  11  12
ENDBRANCH  10  11
ENDBRANCH   1  10
TORSDOF 12
ENDMDL
