MODEL 1
REMARK VINA RESULT:    -4.936      0.000      0.000
REMARK INTER + INTRA:          -7.791
REMARK INTER:                  -6.523
REMARK INTRA:                  -1.268
REMARK UNBOUND:                -1.268
REMARK SMILES CC[C@@H](C=C[C@H](C)[C@H]1CC[C@H]2C3=CC[C@@H]4C[C@@H](O)CC[C@@]4(C)[C@@H]3CC[C@]12C)C(C)C
REMARK SMILES IDX 6 1 7 2 5 3 4 4 3 5 2 6 1 7 28 8 29 9 30 10 8 11 9 12 26 13
REMARK SMILES IDX 10 14 11 15 25 16 27 17 12 18 24 19 23 20 13 21 21 22 14 23
REMARK SMILES IDX 15 24 20 25 22 26 16 27 19 28 17 29 18 30
REMARK H PARENT 18 31
REMARK Flexibility Score: inf
ROOT
ATOM      1  C   UNL     1      -0.286   2.601  -7.582  1.00  0.00     0.012 C 
ATOM      2  C   UNL     1       0.281   2.228  -8.967  1.00  0.00     0.012 C 
ENDROOT
BRANCH   1   3
ATOM      3  C   UNL     1       0.884   2.953  -6.675  1.00  0.00    -0.028 C 
ATOM      4  C   UNL     1       0.996   2.506  -5.412  1.00  0.00    -0.027 C 
BRANCH   4   5
ATOM      5  C   UNL     1       1.983   3.094  -4.421  1.00  0.00     0.014 C 
BRANCH   5   6
ATOM      6  C   UNL     1       2.477   4.481  -4.947  1.00  0.00     0.004 C 
ATOM      7  C   UNL     1       1.712   5.681  -4.375  1.00  0.00     0.004 C 
ENDBRANCH   5   6
BRANCH   5   8
ATOM      8  C   UNL     1       3.135   2.065  -4.173  1.00  0.00    -0.011 C 
ATOM      9  C   UNL     1       2.712   0.868  -3.321  1.00  0.00     0.008 C 
ATOM     10  C   UNL     1       4.421   2.709  -3.590  1.00  0.00     0.008 C 
ENDBRANCH   5   8
ENDBRANCH   4   5
ENDBRANCH   1   3
BRANCH   1  11
ATOM     11  C   UNL     1      -1.334   3.762  -7.680  1.00  0.00     0.002 C 
ATOM     12  C   UNL     1      -2.246   3.699  -8.941  1.00  0.00     0.005 C 
ATOM     13  C   UNL     1      -2.361   3.907  -6.518  1.00  0.00    -0.023 C 
ATOM     14  C   UNL     1      -3.559   4.420  -8.560  1.00  0.00     0.009 C 
ATOM     15  C   UNL     1      -3.286   4.946  -7.146  1.00  0.00     0.021 C 
ATOM     16  C   UNL     1      -1.811   4.517  -5.222  1.00  0.00     0.008 C 
ATOM     17  C   UNL     1      -3.078   2.556  -6.238  1.00  0.00     0.012 C 
ATOM     18  C   UNL     1      -4.418   5.423  -6.251  1.00  0.00    -0.067 C 
ATOM     19  C   UNL     1      -2.930   4.728  -4.188  1.00  0.00     0.009 C 
ATOM     20  C   UNL     1      -4.261   5.383  -4.712  1.00  0.00     0.021 C 
ATOM     21  C   UNL     1      -5.372   6.205  -6.822  1.00  0.00    -0.027 C 
ATOM     22  C   UNL     1      -4.568   6.779  -4.061  1.00  0.00    -0.023 C 
ATOM     23  C   UNL     1      -6.028   7.354  -6.103  1.00  0.00     0.031 C 
ATOM     24  C   UNL     1      -5.985   7.220  -4.576  1.00  0.00     0.002 C 
ATOM     25  C   UNL     1      -4.666   6.664  -2.509  1.00  0.00     0.010 C 
ATOM     26  C   UNL     1      -3.445   7.779  -4.435  1.00  0.00     0.012 C 
ATOM     27  C   UNL     1      -6.493   8.517  -3.913  1.00  0.00     0.036 C 
ATOM     28  C   UNL     1      -5.198   7.947  -1.844  1.00  0.00     0.032 C 
ATOM     29  C   UNL     1      -6.566   8.363  -2.388  1.00  0.00     0.114 C 
BRANCH  29  30
ATOM     30  O   UNL     1      -7.512   7.392  -2.010  1.00  0.00    -0.393 OA
ATOM     31  H   UNL     1      -7.641   6.786  -2.791  1.00  0.00     0.210 HD
ENDBRANCH  29  30
ENDBRANCH   1  11
TORSDOF 6
ENDMDL
MODEL 2
REMARK VINA RESULT:    -4.903      7.728     13.573
REMARK INTER + INTRA:          -7.748
REMARK INTER:                  -6.496
REMARK INTRA:                  -1.252
REMARK UNBOUND:                -1.268
REMARK SMILES CC[C@@H](C=C[C@H](C)[C@H]1CC[C@H]2C3=CC[C@@H]4C[C@@H](O)CC[C@@]4(C)[C@@H]3CC[C@]12C)C(C)C
REMARK SMILES IDX 6 1 7 2 5 3 4 4 3 5 2 6 1 7 28 8 29 9 30 10 8 11 9 12 26 13
REMARK SMILES IDX 10 14 11 15 25 16 27 17 12 18 24 19 23 20 13 21 21 22 14 23
REMARK SMILES IDX 15 24 20 25 22 26 16 27 19 28 17 29 18 30
REMARK H PARENT 18 31
REMARK Flexibility Score: inf
ROOT
ATOM      1  C   UNL     1       5.842  -0.980  -0.156  1.00  0.00     0.012 C 
ATOM      2  C   UNL     1       7.319  -0.541  -0.223  1.00  0.00     0.012 C 
ENDROOT
BRANCH   1   3
ATOM      3  C   UNL     1       5.005   0.083  -0.851  1.00  0.00    -0.028 C 
ATOM      4  C   UNL     1       4.493  -0.072  -2.085  1.00  0.00    -0.027 C 
BRANCH   4   5
ATOM      5  C   UNL     1       3.932   1.085  -2.889  1.00  0.00     0.014 C 
BRANCH   5   6
ATOM      6  C   UNL     1       2.487   0.726  -3.368  1.00  0.00     0.004 C 
ATOM      7  C   UNL     1       1.765   1.865  -4.098  1.00  0.00     0.004 C 
ENDBRANCH   5   6
BRANCH   5   8
ATOM      8  C   UNL     1       4.918   1.424  -4.055  1.00  0.00    -0.011 C 
ATOM      9  C   UNL     1       6.093   0.452  -4.164  1.00  0.00     0.008 C 
ATOM     10  C   UNL     1       5.435   2.887  -4.019  1.00  0.00     0.008 C 
ENDBRANCH   5   8
ENDBRANCH   4   5
ENDBRANCH   1   3
BRANCH   1  11
ATOM     11  C   UNL     1       5.633  -2.402  -0.779  1.00  0.00     0.002 C 
ATOM     12  C   UNL     1       6.932  -3.056  -1.338  1.00  0.00     0.005 C 
ATOM     13  C   UNL     1       5.056  -3.517   0.144  1.00  0.00    -0.023 C 
ATOM     14  C   UNL     1       6.712  -4.583  -1.267  1.00  0.00     0.009 C 
ATOM     15  C   UNL     1       5.266  -4.718  -0.774  1.00  0.00     0.021 C 
ATOM     16  C   UNL     1       3.552  -3.425   0.430  1.00  0.00     0.008 C 
ATOM     17  C   UNL     1       5.870  -3.621   1.465  1.00  0.00     0.012 C 
ATOM     18  C   UNL     1       4.737  -6.038  -0.236  1.00  0.00    -0.067 C 
ATOM     19  C   UNL     1       3.065  -4.635   1.245  1.00  0.00     0.009 C 
ATOM     20  C   UNL     1       3.560  -6.051   0.769  1.00  0.00     0.021 C 
ATOM     21  C   UNL     1       5.060  -7.163  -0.926  1.00  0.00    -0.027 C 
ATOM     22  C   UNL     1       2.397  -6.990   0.289  1.00  0.00    -0.023 C 
ATOM     23  C   UNL     1       4.111  -8.319  -1.099  1.00  0.00     0.031 C 
ATOM     24  C   UNL     1       3.037  -8.393  -0.008  1.00  0.00     0.002 C 
ATOM     25  C   UNL     1       1.344  -7.202   1.419  1.00  0.00     0.010 C 
ATOM     26  C   UNL     1       1.706  -6.362  -0.948  1.00  0.00     0.012 C 
ATOM     27  C   UNL     1       1.993  -9.473  -0.360  1.00  0.00     0.036 C 
ATOM     28  C   UNL     1       0.315  -8.297   1.084  1.00  0.00     0.032 C 
ATOM     29  C   UNL     1       0.974  -9.643   0.775  1.00  0.00     0.114 C 
BRANCH  29  30
ATOM     30  O   UNL     1       1.581 -10.125   1.949  1.00  0.00    -0.393 OA
ATOM     31  H   UNL     1       1.867 -11.063   1.769  1.00  0.00     0.210 HD
ENDBRANCH  29  30
ENDBRANCH   1  11
TORSDOF 6
ENDMDL
MODEL 3
REMARK VINA RESULT:    -4.819      3.665      9.227
REMARK INTER + INTRA:          -7.637
REMARK INTER:                  -6.443
REMARK INTRA:                  -1.194
REMARK UNBOUND:                -1.268
REMARK SMILES CC[C@@H](C=C[C@H](C)[C@H]1CC[C@H]2C3=CC[C@@H]4C[C@@H](O)CC[C@@]4(C)[C@@H]3CC[C@]12C)C(C)C
REMARK SMILES IDX 6 1 7 2 5 3 4 4 3 5 2 6 1 7 28 8 29 9 30 10 8 11 9 12 26 13
REMARK SMILES IDX 10 14 11 15 25 16 27 17 12 18 24 19 23 20 13 21 21 22 14 23
REMARK SMILES IDX 15 24 20 25 22 26 16 27 19 28 17 29 18 30
REMARK H PARENT 18 31
REMARK Flexibility Score: inf
ROOT
ATOM      1  C   UNL     1      -0.917   5.232  -5.864  1.00  0.00     0.012 C 
ATOM      2  C   UNL     1      -2.259   4.658  -6.364  1.00  0.00     0.012 C 
ENDROOT
BRANCH   1   3
ATOM      3  C   UNL     1      -1.190   6.598  -5.254  1.00  0.00    -0.028 C 
ATOM      4  C   UNL     1      -1.557   6.773  -3.972  1.00  0.00    -0.027 C 
BRANCH   4   5
ATOM      5  C   UNL     1      -2.121   8.081  -3.453  1.00  0.00     0.014 C 
BRANCH   5   6
ATOM      6  C   UNL     1      -1.243   8.585  -2.262  1.00  0.00     0.004 C 
ATOM      7  C   UNL     1       0.268   8.455  -2.494  1.00  0.00     0.004 C 
ENDBRANCH   5   6
BRANCH   5   8
ATOM      8  C   UNL     1      -3.629   7.880  -3.087  1.00  0.00    -0.011 C 
ATOM      9  C   UNL     1      -3.961   8.254  -1.642  1.00  0.00     0.008 C 
ATOM     10  C   UNL     1      -4.155   6.456  -3.407  1.00  0.00     0.008 C 
ENDBRANCH   5   8
ENDBRANCH   4   5
ENDBRANCH   1   3
BRANCH   1  11
ATOM     11  C   UNL     1      -0.213   4.260  -4.857  1.00  0.00     0.002 C 
ATOM     12  C   UNL     1      -1.069   3.023  -4.452  1.00  0.00     0.005 C 
ATOM     13  C   UNL     1       1.136   3.617  -5.298  1.00  0.00    -0.023 C 
ATOM     14  C   UNL     1      -0.067   1.913  -4.065  1.00  0.00     0.009 C 
ATOM     15  C   UNL     1       1.298   2.605  -4.166  1.00  0.00     0.021 C 
ATOM     16  C   UNL     1       2.356   4.544  -5.252  1.00  0.00     0.008 C 
ATOM     17  C   UNL     1       0.999   2.942  -6.692  1.00  0.00     0.012 C 
ATOM     18  C   UNL     1       2.588   1.802  -4.203  1.00  0.00    -0.067 C 
ATOM     19  C   UNL     1       3.649   3.781  -5.587  1.00  0.00     0.009 C 
ATOM     20  C   UNL     1       3.850   2.390  -4.878  1.00  0.00     0.021 C 
ATOM     21  C   UNL     1       2.698   0.766  -3.331  1.00  0.00    -0.027 C 
ATOM     22  C   UNL     1       5.093   2.354  -3.918  1.00  0.00    -0.023 C 
ATOM     23  C   UNL     1       3.991   0.402  -2.649  1.00  0.00     0.031 C 
ATOM     24  C   UNL     1       5.234   0.874  -3.412  1.00  0.00     0.002 C 
ATOM     25  C   UNL     1       6.405   2.698  -4.685  1.00  0.00     0.010 C 
ATOM     26  C   UNL     1       4.884   3.372  -2.768  1.00  0.00     0.012 C 
ATOM     27  C   UNL     1       6.501   0.643  -2.562  1.00  0.00     0.036 C 
ATOM     28  C   UNL     1       7.673   2.445  -3.849  1.00  0.00     0.032 C 
ATOM     29  C   UNL     1       7.766   1.001  -3.351  1.00  0.00     0.114 C 
BRANCH  29  30
ATOM     30  O   UNL     1       7.941   0.155  -4.462  1.00  0.00    -0.393 OA
ATOM     31  H   UNL     1       7.659  -0.760  -4.183  1.00  0.00     0.210 HD
ENDBRANCH  29  30
ENDBRANCH   1  11
TORSDOF 6
ENDMDL
MODEL 4
REMARK VINA RESULT:    -4.812      3.524      8.842
REMARK INTER + INTRA:          -7.627
REMARK INTER:                  -6.383
REMARK INTRA:                  -1.244
REMARK UNBOUND:                -1.268
REMARK SMILES CC[C@@H](C=C[C@H](C)[C@H]1CC[C@H]2C3=CC[C@@H]4C[C@@H](O)CC[C@@]4(C)[C@@H]3CC[C@]12C)C(C)C
REMARK SMILES IDX 6 1 7 2 5 3 4 4 3 5 2 6 1 7 28 8 29 9 30 10 8 11 9 12 26 13
REMARK SMILES IDX 10 14 11 15 25 16 27 17 12 18 24 19 23 20 13 21 21 22 14 23
REMARK SMILES IDX 15 24 20 25 22 26 16 27 19 28 17 29 18 30
REMARK H PARENT 18 31
REMARK Flexibility Score: inf
ROOT
ATOM      1  C   UNL     1      -2.099   4.377  -6.283  1.00  0.00     0.012 C 
ATOM      2  C   UNL     1      -3.157   3.283  -6.534  1.00  0.00     0.012 C 
ENDROOT
BRANCH   1   3
ATOM      3  C   UNL     1      -2.821   5.623  -5.791  1.00  0.00    -0.028 C 
ATOM      4  C   UNL     1      -2.617   6.160  -4.575  1.00  0.00    -0.027 C 
BRANCH   4   5
ATOM      5  C   UNL     1      -3.544   7.199  -3.974  1.00  0.00     0.014 C 
BRANCH   5   6
ATOM      6  C   UNL     1      -2.705   8.209  -3.125  1.00  0.00     0.004 C 
ATOM      7  C   UNL     1      -1.189   7.991  -3.205  1.00  0.00     0.004 C 
ENDBRANCH   5   6
BRANCH   5   8
ATOM      8  C   UNL     1      -4.670   6.475  -3.165  1.00  0.00    -0.011 C 
ATOM      9  C   UNL     1      -5.984   6.338  -3.934  1.00  0.00     0.008 C 
ATOM     10  C   UNL     1      -4.928   7.104  -1.770  1.00  0.00     0.008 C 
ENDBRANCH   5   8
ENDBRANCH   4   5
ENDBRANCH   1   3
BRANCH   1  11
ATOM     11  C   UNL     1      -0.995   3.895  -5.282  1.00  0.00     0.002 C 
ATOM     12  C   UNL     1      -1.340   2.573  -4.532  1.00  0.00     0.005 C 
ATOM     13  C   UNL     1       0.424   3.604  -5.857  1.00  0.00    -0.023 C 
ATOM     14  C   UNL     1       0.010   1.920  -4.165  1.00  0.00     0.009 C 
ATOM     15  C   UNL     1       1.048   2.949  -4.628  1.00  0.00     0.021 C 
ATOM     16  C   UNL     1       1.268   4.841  -6.187  1.00  0.00     0.008 C 
ATOM     17  C   UNL     1       0.343   2.642  -7.075  1.00  0.00     0.012 C 
ATOM     18  C   UNL     1       2.515   2.578  -4.774  1.00  0.00    -0.067 C 
ATOM     19  C   UNL     1       2.687   4.445  -6.629  1.00  0.00     0.009 C 
ATOM     20  C   UNL     1       3.420   3.360  -5.757  1.00  0.00     0.021 C 
ATOM     21  C   UNL     1       3.067   1.830  -3.783  1.00  0.00    -0.027 C 
ATOM     22  C   UNL     1       4.715   3.898  -5.051  1.00  0.00    -0.023 C 
ATOM     23  C   UNL     1       4.482   2.020  -3.304  1.00  0.00     0.031 C 
ATOM     24  C   UNL     1       5.397   2.669  -4.350  1.00  0.00     0.002 C 
ATOM     25  C   UNL     1       5.736   4.448  -6.093  1.00  0.00     0.010 C 
ATOM     26  C   UNL     1       4.330   5.026  -4.060  1.00  0.00     0.012 C 
ATOM     27  C   UNL     1       6.764   3.010  -3.723  1.00  0.00     0.036 C 
ATOM     28  C   UNL     1       7.111   4.766  -5.478  1.00  0.00     0.032 C 
ATOM     29  C   UNL     1       7.733   3.555  -4.781  1.00  0.00     0.114 C 
BRANCH  29  30
ATOM     30  O   UNL     1       8.036   2.585  -5.755  1.00  0.00    -0.393 OA
ATOM     31  H   UNL     1       7.374   1.847  -5.652  1.00  0.00     0.210 HD
ENDBRANCH  29  30
ENDBRANCH   1  11
TORSDOF 6
ENDMDL
MODEL 5
REMARK VINA RESULT:    -4.758      4.548     10.708
REMARK INTER + INTRA:          -7.556
REMARK INTER:                  -6.413
REMARK INTRA:                  -1.144
REMARK UNBOUND:                -1.268
REMARK SMILES CC[C@@H](C=C[C@H](C)[C@H]1CC[C@H]2C3=CC[C@@H]4C[C@@H](O)CC[C@@]4(C)[C@@H]3CC[C@]12C)C(C)C
REMARK SMILES IDX 6 1 7 2 5 3 4 4 3 5 2 6 1 7 28 8 29 9 30 10 8 11 9 12 26 13
REMARK SMILES IDX 10 14 11 15 25 16 27 17 12 18 24 19 23 20 13 21 21 22 14 23
REMARK SMILES IDX 15 24 20 25 22 26 16 27 19 28 17 29 18 30
REMARK H PARENT 18 31
REMARK Flexibility Score: inf
ROOT
ATOM      1  C   UNL     1       2.555   4.928  -5.628  1.00  0.00     0.012 C 
ATOM      2  C   UNL     1       2.489   6.000  -6.735  1.00  0.00     0.012 C 
ENDROOT
BRANCH   1   3
ATOM      3  C   UNL     1       1.189   4.264  -5.538  1.00  0.00    -0.028 C 
ATOM      4  C   UNL     1       0.319   4.503  -4.540  1.00  0.00    -0.027 C 
BRANCH   4   5
ATOM      5  C   UNL     1      -0.892   3.626  -4.283  1.00  0.00     0.014 C 
BRANCH   5   6
ATOM      6  C   UNL     1      -0.549   2.150  -4.666  1.00  0.00     0.004 C 
ATOM      7  C   UNL     1       0.326   1.420  -3.639  1.00  0.00     0.004 C 
ENDBRANCH   5   6
BRANCH   5   8
ATOM      8  C   UNL     1      -2.121   4.211  -5.056  1.00  0.00    -0.011 C 
ATOM      9  C   UNL     1      -3.187   4.815  -4.141  1.00  0.00     0.008 C 
ATOM     10  C   UNL     1      -2.768   3.200  -6.039  1.00  0.00     0.008 C 
ENDBRANCH   5   8
ENDBRANCH   4   5
ENDBRANCH   1   3
BRANCH   1  11
ATOM     11  C   UNL     1       3.703   3.895  -5.892  1.00  0.00     0.002 C 
ATOM     12  C   UNL     1       4.885   4.452  -6.740  1.00  0.00     0.005 C 
ATOM     13  C   UNL     1       4.424   3.286  -4.653  1.00  0.00    -0.023 C 
ATOM     14  C   UNL     1       6.129   3.627  -6.340  1.00  0.00     0.009 C 
ATOM     15  C   UNL     1       5.571   2.579  -5.370  1.00  0.00     0.021 C 
ATOM     16  C   UNL     1       3.636   2.211  -3.893  1.00  0.00     0.008 C 
ATOM     17  C   UNL     1       4.915   4.403  -3.691  1.00  0.00     0.012 C 
ATOM     18  C   UNL     1       6.492   1.771  -4.468  1.00  0.00    -0.067 C 
ATOM     19  C   UNL     1       4.483   1.592  -2.768  1.00  0.00     0.009 C 
ATOM     20  C   UNL     1       5.960   1.190  -3.136  1.00  0.00     0.021 C 
ATOM     21  C   UNL     1       7.627   1.277  -5.026  1.00  0.00    -0.027 C 
ATOM     22  C   UNL     1       6.233  -0.352  -3.025  1.00  0.00    -0.023 C 
ATOM     23  C   UNL     1       8.197  -0.070  -4.667  1.00  0.00     0.031 C 
ATOM     24  C   UNL     1       7.769  -0.562  -3.279  1.00  0.00     0.002 C 
ATOM     25  C   UNL     1       5.937  -0.872  -1.585  1.00  0.00     0.010 C 
ATOM     26  C   UNL     1       5.339  -1.107  -4.041  1.00  0.00     0.012 C 
ATOM     27  C   UNL     1       8.224  -2.020  -3.066  1.00  0.00     0.036 C 
ATOM     28  C   UNL     1       6.413  -2.319  -1.360  1.00  0.00     0.032 C 
ATOM     29  C   UNL     1       7.906  -2.493  -1.642  1.00  0.00     0.114 C 
BRANCH  29  30
ATOM     30  O   UNL     1       8.632  -1.766  -0.680  1.00  0.00    -0.393 OA
ATOM     31  H   UNL     1       8.302  -0.825  -0.711  1.00  0.00     0.210 HD
ENDBRANCH  29  30
ENDBRANCH   1  11
TORSDOF 6
ENDMDL
MODEL 6
REMARK VINA RESULT:    -4.716      2.729      6.203
REMARK INTER + INTRA:          -7.501
REMARK INTER:                  -6.032
REMARK INTRA:                  -1.469
REMARK UNBOUND:                -1.268
REMARK SMILES CC[C@@H](C=C[C@H](C)[C@H]1CC[C@H]2C3=CC[C@@H]4C[C@@H](O)CC[C@@]4(C)[C@@H]3CC[C@]12C)C(C)C
REMARK SMILES IDX 6 1 7 2 5 3 4 4 3 5 2 6 1 7 28 8 29 9 30 10 8 11 9 12 26 13
REMARK SMILES IDX 10 14 11 15 25 16 27 17 12 18 24 19 23 20 13 21 21 22 14 23
REMARK SMILES IDX 15 24 20 25 22 26 16 27 19 28 17 29 18 30
REMARK H PARENT 18 31
REMARK Flexibility Score: inf
ROOT
ATOM      1  C   UNL     1       6.070   3.491  -4.815  1.00  0.00     0.012 C 
ATOM      2  C   UNL     1       7.299   4.410  -4.666  1.00  0.00     0.012 C 
ENDROOT
BRANCH   1   3
ATOM      3  C   UNL     1       6.375   2.181  -4.104  1.00  0.00    -0.028 C 
ATOM      4  C   UNL     1       5.634   1.069  -4.259  1.00  0.00    -0.027 C 
BRANCH   4   5
ATOM      5  C   UNL     1       5.748  -0.125  -3.331  1.00  0.00     0.014 C 
BRANCH   5   6
ATOM      6  C   UNL     1       5.899  -1.427  -4.183  1.00  0.00     0.004 C 
ATOM      7  C   UNL     1       7.269  -1.587  -4.853  1.00  0.00     0.004 C 
ENDBRANCH   5   6
BRANCH   5   8
ATOM      8  C   UNL     1       4.519  -0.141  -2.363  1.00  0.00    -0.011 C 
ATOM      9  C   UNL     1       3.227   0.363  -3.008  1.00  0.00     0.008 C 
ATOM     10  C   UNL     1       4.777   0.603  -1.027  1.00  0.00     0.008 C 
ENDBRANCH   5   8
ENDBRANCH   4   5
ENDBRANCH   1   3
BRANCH   1  11
ATOM     11  C   UNL     1       4.768   4.173  -4.274  1.00  0.00     0.002 C 
ATOM     12  C   UNL     1       4.960   5.649  -3.813  1.00  0.00     0.005 C 
ATOM     13  C   UNL     1       3.548   4.270  -5.239  1.00  0.00    -0.023 C 
ATOM     14  C   UNL     1       3.584   6.333  -3.968  1.00  0.00     0.009 C 
ATOM     15  C   UNL     1       2.660   5.191  -4.406  1.00  0.00     0.021 C 
ATOM     16  C   UNL     1       2.771   2.965  -5.453  1.00  0.00     0.008 C 
ATOM     17  C   UNL     1       3.963   4.902  -6.596  1.00  0.00     0.012 C 
ATOM     18  C   UNL     1       1.289   5.470  -5.002  1.00  0.00    -0.067 C 
ATOM     19  C   UNL     1       1.522   3.198  -6.320  1.00  0.00     0.009 C 
ATOM     20  C   UNL     1       0.632   4.443  -5.954  1.00  0.00     0.021 C 
ATOM     21  C   UNL     1       0.534   6.424  -4.397  1.00  0.00    -0.027 C 
ATOM     22  C   UNL     1      -0.816   4.058  -5.484  1.00  0.00    -0.023 C 
ATOM     23  C   UNL     1      -0.962   6.317  -4.256  1.00  0.00     0.031 C 
ATOM     24  C   UNL     1      -1.608   5.402  -5.303  1.00  0.00     0.002 C 
ATOM     25  C   UNL     1      -1.563   3.237  -6.579  1.00  0.00     0.010 C 
ATOM     26  C   UNL     1      -0.729   3.223  -4.182  1.00  0.00     0.012 C 
ATOM     27  C   UNL     1      -3.100   5.186  -4.974  1.00  0.00     0.036 C 
ATOM     28  C   UNL     1      -3.058   3.041  -6.268  1.00  0.00     0.032 C 
ATOM     29  C   UNL     1      -3.792   4.368  -6.072  1.00  0.00     0.114 C 
BRANCH  29  30
ATOM     30  O   UNL     1      -3.809   5.057  -7.299  1.00  0.00    -0.393 OA
ATOM     31  H   UNL     1      -3.412   4.451  -7.983  1.00  0.00     0.210 HD
ENDBRANCH  29  30
ENDBRANCH   1  11
TORSDOF 6
ENDMDL
MODEL 7
REMARK VINA RESULT:    -4.667      5.002     10.914
REMARK INTER + INTRA:          -7.436
REMARK INTER:                  -6.125
REMARK INTRA:                  -1.311
REMARK UNBOUND:                -1.268
REMARK SMILES CC[C@@H](C=C[C@H](C)[C@H]1CC[C@H]2C3=CC[C@@H]4C[C@@H](O)CC[C@@]4(C)[C@@H]3CC[C@]12C)C(C)C
REMARK SMILES IDX 6 1 7 2 5 3 4 4 3 5 2 6 1 7 28 8 29 9 30 10 8 11 9 12 26 13
REMARK SMILES IDX 10 14 11 15 25 16 27 17 12 18 24 19 23 20 13 21 21 22 14 23
REMARK SMILES IDX 15 24 20 25 22 26 16 27 19 28 17 29 18 30
REMARK H PARENT 18 31
REMARK Flexibility Score: inf
ROOT
ATOM      1  C   UNL     1       3.848   4.424  -6.318  1.00  0.00     0.012 C 
ATOM      2  C   UNL     1       4.226   5.472  -7.384  1.00  0.00     0.012 C 
ENDROOT
BRANCH   1   3
ATOM      3  C   UNL     1       2.547   3.765  -6.748  1.00  0.00    -0.028 C 
ATOM      4  C   UNL     1       1.541   3.495  -5.896  1.00  0.00    -0.027 C 
BRANCH   4   5
ATOM      5  C   UNL     1       0.391   2.574  -6.254  1.00  0.00     0.014 C 
BRANCH   5   6
ATOM      6  C   UNL     1      -0.445   3.219  -7.407  1.00  0.00     0.004 C 
ATOM      7  C   UNL     1      -0.562   2.348  -8.664  1.00  0.00     0.004 C 
ENDBRANCH   5   6
BRANCH   5   8
ATOM      8  C   UNL     1      -0.441   2.268  -4.964  1.00  0.00    -0.011 C 
ATOM      9  C   UNL     1      -1.314   3.437  -4.509  1.00  0.00     0.008 C 
ATOM     10  C   UNL     1       0.422   1.751  -3.783  1.00  0.00     0.008 C 
ENDBRANCH   5   8
ENDBRANCH   4   5
ENDBRANCH   1   3
BRANCH   1  11
ATOM     11  C   UNL     1       4.998   3.383  -6.098  1.00  0.00     0.002 C 
ATOM     12  C   UNL     1       6.421   3.915  -6.447  1.00  0.00     0.005 C 
ATOM     13  C   UNL     1       5.188   2.809  -4.662  1.00  0.00    -0.023 C 
ATOM     14  C   UNL     1       7.409   3.100  -5.584  1.00  0.00     0.009 C 
ATOM     15  C   UNL     1       6.513   2.081  -4.870  1.00  0.00     0.021 C 
ATOM     16  C   UNL     1       4.158   1.758  -4.230  1.00  0.00     0.008 C 
ATOM     17  C   UNL     1       5.290   3.954  -3.615  1.00  0.00     0.012 C 
ATOM     18  C   UNL     1       7.013   1.299  -3.666  1.00  0.00    -0.067 C 
ATOM     19  C   UNL     1       4.507   1.170  -2.852  1.00  0.00     0.009 C 
ATOM     20  C   UNL     1       6.008   0.757  -2.621  1.00  0.00     0.021 C 
ATOM     21  C   UNL     1       8.269   0.788  -3.737  1.00  0.00    -0.027 C 
ATOM     22  C   UNL     1       6.201  -0.781  -2.374  1.00  0.00    -0.023 C 
ATOM     23  C   UNL     1       8.644  -0.549  -3.153  1.00  0.00     0.031 C 
ATOM     24  C   UNL     1       7.715  -1.000  -2.020  1.00  0.00     0.002 C 
ATOM     25  C   UNL     1       5.374  -1.260  -1.142  1.00  0.00     0.010 C 
ATOM     26  C   UNL     1       5.751  -1.565  -3.633  1.00  0.00     0.012 C 
ATOM     27  C   UNL     1       8.038  -2.452  -1.612  1.00  0.00     0.036 C 
ATOM     28  C   UNL     1       5.712  -2.700  -0.714  1.00  0.00     0.032 C 
ATOM     29  C   UNL     1       7.198  -2.884  -0.403  1.00  0.00     0.114 C 
BRANCH  29  30
ATOM     30  O   UNL     1       7.513  -2.129   0.743  1.00  0.00    -0.393 OA
ATOM     31  H   UNL     1       8.033  -1.335   0.439  1.00  0.00     0.210 HD
ENDBRANCH  29  30
ENDBRANCH   1  11
TORSDOF 6
ENDMDL
MODEL 8
REMARK VINA RESULT:    -4.642     10.469     13.439
REMARK INTER + INTRA:          -7.403
REMARK INTER:                  -6.104
REMARK INTRA:                  -1.299
REMARK UNBOUND:                -1.268
REMARK SMILES CC[C@@H](C=C[C@H](C)[C@H]1CC[C@H]2C3=CC[C@@H]4C[C@@H](O)CC[C@@]4(C)[C@@H]3CC[C@]12C)C(C)C
REMARK SMILES IDX 6 1 7 2 5 3 4 4 3 5 2 6 1 7 28 8 29 9 30 10 8 11 9 12 26 13
REMARK SMILES IDX 10 14 11 15 25 16 27 17 12 18 24 19 23 20 13 21 21 22 14 23
REMARK SMILES IDX 15 24 20 25 22 26 16 27 19 28 17 29 18 30
REMARK H PARENT 18 31
REMARK Flexibility Score: inf
ROOT
ATOM      1  C   UNL     1       4.839  -5.234   1.291  1.00  0.00     0.012 C 
ATOM      2  C   UNL     1       4.864  -5.138   2.830  1.00  0.00     0.012 C 
ENDROOT
BRANCH   1   3
ATOM      3  C   UNL     1       3.761  -6.234   0.901  1.00  0.00    -0.028 C 
ATOM      4  C   UNL     1       2.874  -6.013  -0.086  1.00  0.00    -0.027 C 
BRANCH   4   5
ATOM      5  C   UNL     1       1.627  -6.855  -0.268  1.00  0.00     0.014 C 
BRANCH   5   6
ATOM      6  C   UNL     1       1.643  -7.498  -1.693  1.00  0.00     0.004 C 
ATOM      7  C   UNL     1       2.528  -8.745  -1.811  1.00  0.00     0.004 C 
ENDBRANCH   5   6
BRANCH   5   8
ATOM      8  C   UNL     1       0.366  -5.972   0.012  1.00  0.00    -0.011 C 
ATOM      9  C   UNL     1       0.656  -4.470  -0.005  1.00  0.00     0.008 C 
ATOM     10  C   UNL     1      -0.379  -6.358   1.317  1.00  0.00     0.008 C 
ENDBRANCH   5   8
ENDBRANCH   4   5
ENDBRANCH   1   3
BRANCH   1  11
ATOM     11  C   UNL     1       4.619  -3.832   0.628  1.00  0.00     0.002 C 
ATOM     12  C   UNL     1       4.153  -2.720   1.615  1.00  0.00     0.005 C 
ATOM     13  C   UNL     1       5.837  -3.171  -0.085  1.00  0.00    -0.023 C 
ATOM     14  C   UNL     1       4.629  -1.380   1.012  1.00  0.00     0.009 C 
ATOM     15  C   UNL     1       5.245  -1.787  -0.332  1.00  0.00     0.021 C 
ATOM     16  C   UNL     1       6.198  -3.759  -1.455  1.00  0.00     0.008 C 
ATOM     17  C   UNL     1       7.077  -3.136   0.852  1.00  0.00     0.012 C 
ATOM     18  C   UNL     1       6.140  -0.834  -1.109  1.00  0.00    -0.067 C 
ATOM     19  C   UNL     1       7.330  -2.959  -2.122  1.00  0.00     0.009 C 
ATOM     20  C   UNL     1       7.198  -1.391  -2.091  1.00  0.00     0.021 C 
ATOM     21  C   UNL     1       5.740   0.461  -1.195  1.00  0.00    -0.027 C 
ATOM     22  C   UNL     1       7.062  -0.748  -3.517  1.00  0.00    -0.023 C 
ATOM     23  C   UNL     1       5.939   1.299  -2.431  1.00  0.00     0.031 C 
ATOM     24  C   UNL     1       7.089   0.810  -3.319  1.00  0.00     0.002 C 
ATOM     25  C   UNL     1       8.282  -1.111  -4.416  1.00  0.00     0.010 C 
ATOM     26  C   UNL     1       5.759  -1.254  -4.187  1.00  0.00     0.012 C 
ATOM     27  C   UNL     1       7.103   1.589  -4.650  1.00  0.00     0.036 C 
ATOM     28  C   UNL     1       8.315  -0.317  -5.735  1.00  0.00     0.032 C 
ATOM     29  C   UNL     1       8.314   1.195  -5.505  1.00  0.00     0.114 C 
BRANCH  29  30
ATOM     30  O   UNL     1       9.525   1.556  -4.886  1.00  0.00    -0.393 OA
ATOM     31  H   UNL     1       9.294   2.041  -4.046  1.00  0.00     0.210 HD
ENDBRANCH  29  30
ENDBRANCH   1  11
TORSDOF 6
ENDMDL
MODEL 9
REMARK VINA RESULT:    -4.580      3.465      7.891
REMARK INTER + INTRA:          -7.320
REMARK INTER:                  -5.935
REMARK INTRA:                  -1.386
REMARK UNBOUND:                -1.268
REMARK SMILES CC[C@@H](C=C[C@H](C)[C@H]1CC[C@H]2C3=CC[C@@H]4C[C@@H](O)CC[C@@]4(C)[C@@H]3CC[C@]12C)C(C)C
REMARK SMILES IDX 6 1 7 2 5 3 4 4 3 5 2 6 1 7 28 8 29 9 30 10 8 11 9 12 26 13
REMARK SMILES IDX 10 14 11 15 25 16 27 17 12 18 24 19 23 20 13 21 21 22 14 23
REMARK SMILES IDX 15 24 20 25 22 26 16 27 19 28 17 29 18 30
REMARK H PARENT 18 31
REMARK Flexibility Score: inf
ROOT
ATOM      1  C   UNL     1      -4.265   9.394  -2.096  1.00  0.00     0.012 C 
ATOM      2  C   UNL     1      -5.708   9.662  -1.622  1.00  0.00     0.012 C 
ENDROOT
BRANCH   1   3
ATOM      3  C   UNL     1      -3.318   9.842  -0.993  1.00  0.00    -0.028 C 
ATOM      4  C   UNL     1      -2.837   9.008  -0.053  1.00  0.00    -0.027 C 
BRANCH   4   5
ATOM      5  C   UNL     1      -2.154   9.504   1.208  1.00  0.00     0.014 C 
BRANCH   5   6
ATOM      6  C   UNL     1      -0.727   8.874   1.303  1.00  0.00     0.004 C 
ATOM      7  C   UNL     1       0.053   8.880  -0.018  1.00  0.00     0.004 C 
ENDBRANCH   5   6
BRANCH   5   8
ATOM      8  C   UNL     1      -3.066   9.192   2.441  1.00  0.00    -0.011 C 
ATOM      9  C   UNL     1      -2.295   8.682   3.658  1.00  0.00     0.008 C 
ATOM     10  C   UNL     1      -4.242   8.235   2.111  1.00  0.00     0.008 C 
ENDBRANCH   5   8
ENDBRANCH   4   5
ENDBRANCH   1   3
BRANCH   1  11
ATOM     11  C   UNL     1      -4.054   7.892  -2.488  1.00  0.00     0.002 C 
ATOM     12  C   UNL     1      -5.375   7.095  -2.709  1.00  0.00     0.005 C 
ATOM     13  C   UNL     1      -3.248   7.591  -3.787  1.00  0.00    -0.023 C 
ATOM     14  C   UNL     1      -5.029   5.951  -3.688  1.00  0.00     0.009 C 
ATOM     15  C   UNL     1      -3.516   6.092  -3.890  1.00  0.00     0.021 C 
ATOM     16  C   UNL     1      -1.729   7.772  -3.678  1.00  0.00     0.008 C 
ATOM     17  C   UNL     1      -3.821   8.387  -4.993  1.00  0.00     0.012 C 
ATOM     18  C   UNL     1      -2.805   5.390  -5.036  1.00  0.00    -0.067 C 
ATOM     19  C   UNL     1      -1.023   7.333  -4.972  1.00  0.00     0.009 C 
ATOM     20  C   UNL     1      -1.480   5.962  -5.595  1.00  0.00     0.021 C 
ATOM     21  C   UNL     1      -3.152   4.100  -5.283  1.00  0.00    -0.027 C 
ATOM     22  C   UNL     1      -0.345   4.878  -5.621  1.00  0.00    -0.023 C 
ATOM     23  C   UNL     1      -2.159   3.053  -5.716  1.00  0.00     0.031 C 
ATOM     24  C   UNL     1      -0.916   3.637  -6.396  1.00  0.00     0.002 C 
ATOM     25  C   UNL     1       0.894   5.381  -6.422  1.00  0.00     0.010 C 
ATOM     26  C   UNL     1       0.080   4.544  -4.168  1.00  0.00     0.012 C 
ATOM     27  C   UNL     1       0.135   2.532  -6.628  1.00  0.00     0.036 C 
ATOM     28  C   UNL     1       1.934   4.275  -6.678  1.00  0.00     0.032 C 
ATOM     29  C   UNL     1       1.338   3.072  -7.412  1.00  0.00     0.114 C 
BRANCH  29  30
ATOM     30  O   UNL     1       0.973   3.475  -8.710  1.00  0.00    -0.393 OA
ATOM     31  H   UNL     1       1.219   2.732  -9.329  1.00  0.00     0.210 HD
ENDBRANCH  29  30
ENDBRANCH   1  11
TORSDOF 6
ENDMDL
