MODEL 1
REMARK VINA RESULT:    -4.028      0.000      0.000
REMARK INTER + INTRA:         -10.585
REMARK INTER:                  -7.796
REMARK INTRA:                  -2.789
REMARK UNBOUND:                -2.789
REMARK SMILES CCCCCCCCCCCCCCCCCC(=O)[O-]
REMARK SMILES IDX 10 1 11 2 12 3 13 4 14 5 15 6 16 7 17 8 18 9 19 10 20 11
REMARK SMILES IDX 9 12 8 13 7 14 6 15 5 16 4 17 3 18 2 19 1 20
REMARK H PARENT
REMARK Flexibility Score: inf
ROOT
ATOM      1  C   UNL     1      52.597  25.516  36.125  1.00  0.00     0.000 C 
ENDROOT
BRANCH   1   2
ATOM      2  C   UNL     1      53.445  24.876  35.014  1.00  0.00     0.000 C 
BRANCH   2   3
ATOM      3  C   UNL     1      53.765  25.847  33.871  1.00  0.00     0.000 C 
BRANCH   3   4
ATOM      4  C   UNL     1      55.060  26.619  34.148  1.00  0.00     0.000 C 
BRANCH   4   5
ATOM      5  C   UNL     1      54.819  28.135  34.099  1.00  0.00     0.000 C 
BRANCH   5   6
ATOM      6  C   UNL     1      53.325  28.505  34.039  1.00  0.00     0.000 C 
BRANCH   6   7
ATOM      7  C   UNL     1      52.892  29.620  35.008  1.00  0.00     0.006 C 
BRANCH   7   8
ATOM      8  C   UNL     1      53.146  29.266  36.479  1.00  0.00     0.053 C 
BRANCH   8   9
ATOM      9  C   UNL     1      53.992  30.315  37.129  1.00  0.00     0.041 C 
ATOM     10  O   UNL     1      53.807  31.533  36.863  1.00  0.00    -0.550 OA
ATOM     11  O   UNL     1      55.017  29.947  37.991  1.00  0.00    -0.550 OA
ENDBRANCH   8   9
ENDBRANCH   7   8
ENDBRANCH   6   7
ENDBRANCH   5   6
ENDBRANCH   4   5
ENDBRANCH   3   4
ENDBRANCH   2   3
ENDBRANCH   1   2
BRANCH   1  12
ATOM     12  C   UNL     1      51.076  25.392  35.891  1.00  0.00     0.000 C 
BRANCH  12  13
ATOM     13  C   UNL     1      50.409  26.761  35.668  1.00  0.00    -0.000 C 
BRANCH  13  14
ATOM     14  C   UNL     1      49.965  26.970  34.212  1.00  0.00    -0.000 C 
BRANCH  14  15
ATOM     15  C   UNL     1      50.074  25.685  33.371  1.00  0.00    -0.000 C 
BRANCH  15  16
ATOM     16  C   UNL     1      48.701  25.146  32.938  1.00  0.00    -0.000 C 
BRANCH  16  17
ATOM     17  C   UNL     1      48.010  24.337  34.046  1.00  0.00    -0.000 C 
BRANCH  17  18
ATOM     18  C   UNL     1      48.319  22.839  33.906  1.00  0.00    -0.000 C 
BRANCH  18  19
ATOM     19  C   UNL     1      49.267  22.327  35.001  1.00  0.00    -0.003 C 
ATOM     20  C   UNL     1      50.673  22.035  34.478  1.00  0.00     0.004 C 
ENDBRANCH  18  19
ENDBRANCH  17  18
ENDBRANCH  16  17
ENDBRANCH  15  16
ENDBRANCH  14  15
ENDBRANCH  13  14
ENDBRANCH  12  13
ENDBRANCH   1  12
TORSDOF 16
ENDMDL
MODEL 2
REMARK VINA RESULT:    -3.990      1.414      1.966
REMARK INTER + INTRA:         -10.510
REMARK INTER:                  -7.837
REMARK INTRA:                  -2.673
REMARK UNBOUND:                -2.789
REMARK SMILES CCCCCCCCCCCCCCCCCC(=O)[O-]
REMARK SMILES IDX 10 1 11 2 12 3 13 4 14 5 15 6 16 7 17 8 18 9 19 10 20 11
REMARK SMILES IDX 9 12 8 13 7 14 6 15 5 16 4 17 3 18 2 19 1 20
REMARK H PARENT
REMARK Flexibility Score: inf
ROOT
ATOM      1  C   UNL     1      53.567  24.138  35.638  1.00  0.00     0.000 C 
ENDROOT
BRANCH   1   2
ATOM      2  C   UNL     1      54.639  24.722  34.703  1.00  0.00     0.000 C 
BRANCH   2   3
ATOM      3  C   UNL     1      54.146  25.945  33.919  1.00  0.00     0.000 C 
BRANCH   3   4
ATOM      4  C   UNL     1      55.276  26.962  33.716  1.00  0.00     0.000 C 
BRANCH   4   5
ATOM      5  C   UNL     1      55.102  28.171  34.646  1.00  0.00     0.000 C 
BRANCH   5   6
ATOM      6  C   UNL     1      53.681  28.762  34.607  1.00  0.00     0.000 C 
BRANCH   6   7
ATOM      7  C   UNL     1      53.001  28.913  35.979  1.00  0.00     0.006 C 
BRANCH   7   8
ATOM      8  C   UNL     1      52.998  30.359  36.491  1.00  0.00     0.053 C 
BRANCH   8   9
ATOM      9  C   UNL     1      54.020  30.532  37.570  1.00  0.00     0.041 C 
ATOM     10  O   UNL     1      53.818  30.053  38.717  1.00  0.00    -0.550 OA
ATOM     11  O   UNL     1      55.174  31.265  37.324  1.00  0.00    -0.550 OA
ENDBRANCH   8   9
ENDBRANCH   7   8
ENDBRANCH   6   7
ENDBRANCH   5   6
ENDBRANCH   4   5
ENDBRANCH   3   4
ENDBRANCH   2   3
ENDBRANCH   1   2
BRANCH   1  12
ATOM     12  C   UNL     1      52.472  25.153  36.032  1.00  0.00     0.000 C 
BRANCH  12  13
ATOM     13  C   UNL     1      51.156  24.463  36.434  1.00  0.00    -0.000 C 
BRANCH  13  14
ATOM     14  C   UNL     1      49.918  25.201  35.904  1.00  0.00    -0.000 C 
BRANCH  14  15
ATOM     15  C   UNL     1      50.248  26.613  35.388  1.00  0.00    -0.000 C 
BRANCH  15  16
ATOM     16  C   UNL     1      49.793  26.831  33.936  1.00  0.00    -0.000 C 
BRANCH  16  17
ATOM     17  C   UNL     1      49.568  25.510  33.185  1.00  0.00    -0.000 C 
BRANCH  17  18
ATOM     18  C   UNL     1      50.877  25.001  32.564  1.00  0.00    -0.000 C 
BRANCH  18  19
ATOM     19  C   UNL     1      51.054  23.483  32.724  1.00  0.00    -0.003 C 
ATOM     20  C   UNL     1      52.433  22.997  32.279  1.00  0.00     0.004 C 
ENDBRANCH  18  19
ENDBRANCH  17  18
ENDBRANCH  16  17
ENDBRANCH  15  16
ENDBRANCH  14  15
ENDBRANCH  13  14
ENDBRANCH  12  13
ENDBRANCH   1  12
TORSDOF 16
ENDMDL
MODEL 3
REMARK VINA RESULT:    -3.966      1.334      2.620
REMARK INTER + INTRA:         -10.465
REMARK INTER:                  -7.874
REMARK INTRA:                  -2.591
REMARK UNBOUND:                -2.789
REMARK SMILES CCCCCCCCCCCCCCCCCC(=O)[O-]
REMARK SMILES IDX 10 1 11 2 12 3 13 4 14 5 15 6 16 7 17 8 18 9 19 10 20 11
REMARK SMILES IDX 9 12 8 13 7 14 6 15 5 16 4 17 3 18 2 19 1 20
REMARK H PARENT
REMARK Flexibility Score: inf
ROOT
ATOM      1  C   UNL     1      53.368  23.718  36.401  1.00  0.00     0.000 C 
ENDROOT
BRANCH   1   2
ATOM      2  C   UNL     1      54.217  24.915  35.943  1.00  0.00     0.000 C 
BRANCH   2   3
ATOM      3  C   UNL     1      53.372  26.137  35.562  1.00  0.00     0.000 C 
BRANCH   3   4
ATOM      4  C   UNL     1      54.011  26.910  34.402  1.00  0.00     0.000 C 
BRANCH   4   5
ATOM      5  C   UNL     1      53.374  28.299  34.249  1.00  0.00     0.000 C 
BRANCH   5   6
ATOM      6  C   UNL     1      52.536  28.715  35.472  1.00  0.00     0.000 C 
BRANCH   6   7
ATOM      7  C   UNL     1      53.002  30.004  36.172  1.00  0.00     0.006 C 
BRANCH   7   8
ATOM      8  C   UNL     1      53.953  29.737  37.346  1.00  0.00     0.053 C 
BRANCH   8   9
ATOM      9  C   UNL     1      54.617  31.006  37.779  1.00  0.00     0.041 C 
ATOM     10  O   UNL     1      55.330  31.027  38.817  1.00  0.00    -0.550 OA
ATOM     11  O   UNL     1      54.410  32.179  37.064  1.00  0.00    -0.550 OA
ENDBRANCH   8   9
ENDBRANCH   7   8
ENDBRANCH   6   7
ENDBRANCH   5   6
ENDBRANCH   4   5
ENDBRANCH   3   4
ENDBRANCH   2   3
ENDBRANCH   1   2
BRANCH   1  12
ATOM     12  C   UNL     1      51.848  23.987  36.358  1.00  0.00     0.000 C 
BRANCH  12  13
ATOM     13  C   UNL     1      51.096  22.940  35.517  1.00  0.00    -0.000 C 
BRANCH  13  14
ATOM     14  C   UNL     1      51.642  22.832  34.085  1.00  0.00    -0.000 C 
BRANCH  14  15
ATOM     15  C   UNL     1      50.748  23.546  33.057  1.00  0.00    -0.000 C 
BRANCH  15  16
ATOM     16  C   UNL     1      51.341  24.885  32.590  1.00  0.00    -0.000 C 
BRANCH  16  17
ATOM     17  C   UNL     1      50.602  26.096  33.180  1.00  0.00    -0.000 C 
BRANCH  17  18
ATOM     18  C   UNL     1      49.095  25.821  33.285  1.00  0.00    -0.000 C 
BRANCH  18  19
ATOM     19  C   UNL     1      48.592  25.832  34.737  1.00  0.00    -0.003 C 
ATOM     20  C   UNL     1      49.589  26.471  35.704  1.00  0.00     0.004 C 
ENDBRANCH  18  19
ENDBRANCH  17  18
ENDBRANCH  16  17
ENDBRANCH  15  16
ENDBRANCH  14  15
ENDBRANCH  13  14
ENDBRANCH  12  13
ENDBRANCH   1  12
TORSDOF 16
ENDMDL
MODEL 4
REMARK VINA RESULT:    -3.937      2.854      6.337
REMARK INTER + INTRA:         -10.407
REMARK INTER:                  -7.398
REMARK INTRA:                  -3.010
REMARK UNBOUND:                -2.789
REMARK SMILES CCCCCCCCCCCCCCCCCC(=O)[O-]
REMARK SMILES IDX 10 1 11 2 12 3 13 4 14 5 15 6 16 7 17 8 18 9 19 10 20 11
REMARK SMILES IDX 9 12 8 13 7 14 6 15 5 16 4 17 3 18 2 19 1 20
REMARK H PARENT
REMARK Flexibility Score: inf
ROOT
ATOM      1  C   UNL     1      54.476  25.599  33.630  1.00  0.00     0.000 C 
ENDROOT
BRANCH   1   2
ATOM      2  C   UNL     1      54.757  24.525  34.694  1.00  0.00     0.000 C 
BRANCH   2   3
ATOM      3  C   UNL     1      55.095  25.119  36.068  1.00  0.00     0.000 C 
BRANCH   3   4
ATOM      4  C   UNL     1      53.822  25.480  36.842  1.00  0.00     0.000 C 
BRANCH   4   5
ATOM      5  C   UNL     1      52.728  24.424  36.627  1.00  0.00     0.000 C 
BRANCH   5   6
ATOM      6  C   UNL     1      51.384  25.031  36.183  1.00  0.00     0.000 C 
BRANCH   6   7
ATOM      7  C   UNL     1      50.682  24.285  35.034  1.00  0.00     0.006 C 
BRANCH   7   8
ATOM      8  C   UNL     1      50.783  25.022  33.692  1.00  0.00     0.053 C 
BRANCH   8   9
ATOM      9  C   UNL     1      49.577  25.879  33.475  1.00  0.00     0.041 C 
ATOM     10  O   UNL     1      49.534  27.045  33.948  1.00  0.00    -0.550 OA
ATOM     11  O   UNL     1      48.478  25.373  32.791  1.00  0.00    -0.550 OA
ENDBRANCH   8   9
ENDBRANCH   7   8
ENDBRANCH   6   7
ENDBRANCH   5   6
ENDBRANCH   4   5
ENDBRANCH   3   4
ENDBRANCH   2   3
ENDBRANCH   1   2
BRANCH   1  12
ATOM     12  C   UNL     1      55.328  26.875  33.800  1.00  0.00     0.000 C 
BRANCH  12  13
ATOM     13  C   UNL     1      54.461  28.131  33.997  1.00  0.00    -0.000 C 
BRANCH  13  14
ATOM     14  C   UNL     1      52.978  27.794  34.218  1.00  0.00    -0.000 C 
BRANCH  14  15
ATOM     15  C   UNL     1      52.366  28.568  35.399  1.00  0.00    -0.000 C 
BRANCH  15  16
ATOM     16  C   UNL     1      52.992  29.960  35.579  1.00  0.00    -0.000 C 
BRANCH  16  17
ATOM     17  C   UNL     1      53.386  30.246  37.037  1.00  0.00    -0.000 C 
BRANCH  17  18
ATOM     18  C   UNL     1      54.384  29.199  37.551  1.00  0.00    -0.000 C 
BRANCH  18  19
ATOM     19  C   UNL     1      55.841  29.676  37.459  1.00  0.00    -0.003 C 
ATOM     20  C   UNL     1      56.749  28.675  36.747  1.00  0.00     0.004 C 
ENDBRANCH  18  19
ENDBRANCH  17  18
ENDBRANCH  16  17
ENDBRANCH  15  16
ENDBRANCH  14  15
ENDBRANCH  13  14
ENDBRANCH  12  13
ENDBRANCH   1  12
TORSDOF 16
ENDMDL
MODEL 5
REMARK VINA RESULT:    -3.935      1.494      3.552
REMARK INTER + INTRA:         -10.404
REMARK INTER:                  -8.176
REMARK INTRA:                  -2.228
REMARK UNBOUND:                -2.789
REMARK SMILES CCCCCCCCCCCCCCCCCC(=O)[O-]
REMARK SMILES IDX 10 1 11 2 12 3 13 4 14 5 15 6 16 7 17 8 18 9 19 10 20 11
REMARK SMILES IDX 9 12 8 13 7 14 6 15 5 16 4 17 3 18 2 19 1 20
REMARK H PARENT
REMARK Flexibility Score: inf
ROOT
ATOM      1  C   UNL     1      55.919  27.064  33.686  1.00  0.00     0.000 C 
ENDROOT
BRANCH   1   2
ATOM      2  C   UNL     1      55.152  28.041  34.593  1.00  0.00     0.000 C 
BRANCH   2   3
ATOM      3  C   UNL     1      53.861  28.566  33.950  1.00  0.00     0.000 C 
BRANCH   3   4
ATOM      4  C   UNL     1      53.094  29.477  34.916  1.00  0.00     0.000 C 
BRANCH   4   5
ATOM      5  C   UNL     1      53.430  29.139  36.376  1.00  0.00     0.000 C 
BRANCH   5   6
ATOM      6  C   UNL     1      53.299  30.349  37.319  1.00  0.00     0.000 C 
BRANCH   6   7
ATOM      7  C   UNL     1      54.531  30.625  38.199  1.00  0.00     0.006 C 
BRANCH   7   8
ATOM      8  C   UNL     1      55.851  30.545  37.422  1.00  0.00     0.053 C 
BRANCH   8   9
ATOM      9  C   UNL     1      56.555  31.864  37.451  1.00  0.00     0.041 C 
ATOM     10  O   UNL     1      55.893  32.934  37.511  1.00  0.00    -0.550 OA
ATOM     11  O   UNL     1      57.940  31.917  37.364  1.00  0.00    -0.550 OA
ENDBRANCH   8   9
ENDBRANCH   7   8
ENDBRANCH   6   7
ENDBRANCH   5   6
ENDBRANCH   4   5
ENDBRANCH   3   4
ENDBRANCH   2   3
ENDBRANCH   1   2
BRANCH   1  12
ATOM     12  C   UNL     1      55.185  25.724  33.463  1.00  0.00     0.000 C 
BRANCH  12  13
ATOM     13  C   UNL     1      54.588  25.165  34.767  1.00  0.00    -0.000 C 
BRANCH  13  14
ATOM     14  C   UNL     1      53.084  24.877  34.650  1.00  0.00    -0.000 C 
BRANCH  14  15
ATOM     15  C   UNL     1      52.260  25.587  35.739  1.00  0.00    -0.000 C 
BRANCH  15  16
ATOM     16  C   UNL     1      51.136  26.457  35.154  1.00  0.00    -0.000 C 
BRANCH  16  17
ATOM     17  C   UNL     1      51.000  26.299  33.631  1.00  0.00    -0.000 C 
BRANCH  17  18
ATOM     18  C   UNL     1      49.535  26.068  33.232  1.00  0.00    -0.000 C 
BRANCH  18  19
ATOM     19  C   UNL     1      48.694  25.495  34.382  1.00  0.00    -0.003 C 
ATOM     20  C   UNL     1      48.571  23.972  34.326  1.00  0.00     0.004 C 
ENDBRANCH  18  19
ENDBRANCH  17  18
ENDBRANCH  16  17
ENDBRANCH  15  16
ENDBRANCH  14  15
ENDBRANCH  13  14
ENDBRANCH  12  13
ENDBRANCH   1  12
TORSDOF 16
ENDMDL
MODEL 6
REMARK VINA RESULT:    -3.930      3.589      7.581
REMARK INTER + INTRA:         -10.395
REMARK INTER:                  -7.877
REMARK INTRA:                  -2.517
REMARK UNBOUND:                -2.789
REMARK SMILES CCCCCCCCCCCCCCCCCC(=O)[O-]
REMARK SMILES IDX 10 1 11 2 12 3 13 4 14 5 15 6 16 7 17 8 18 9 19 10 20 11
REMARK SMILES IDX 9 12 8 13 7 14 6 15 5 16 4 17 3 18 2 19 1 20
REMARK H PARENT
REMARK Flexibility Score: inf
ROOT
ATOM      1  C   UNL     1      58.264  27.496  36.493  1.00  0.00     0.000 C 
ENDROOT
BRANCH   1   2
ATOM      2  C   UNL     1      56.760  27.453  36.810  1.00  0.00     0.000 C 
BRANCH   2   3
ATOM      3  C   UNL     1      55.911  26.984  35.621  1.00  0.00     0.000 C 
BRANCH   3   4
ATOM      4  C   UNL     1      55.769  28.093  34.572  1.00  0.00     0.000 C 
BRANCH   4   5
ATOM      5  C   UNL     1      54.318  28.206  34.083  1.00  0.00     0.000 C 
BRANCH   5   6
ATOM      6  C   UNL     1      53.413  28.982  35.058  1.00  0.00     0.000 C 
BRANCH   6   7
ATOM      7  C   UNL     1      52.150  28.229  35.513  1.00  0.00     0.006 C 
BRANCH   7   8
ATOM      8  C   UNL     1      51.761  27.086  34.566  1.00  0.00     0.053 C 
BRANCH   8   9
ATOM      9  C   UNL     1      50.292  26.816  34.651  1.00  0.00     0.041 C 
ATOM     10  O   UNL     1      49.735  26.692  35.773  1.00  0.00    -0.550 OA
ATOM     11  O   UNL     1      49.547  26.652  33.491  1.00  0.00    -0.550 OA
ENDBRANCH   8   9
ENDBRANCH   7   8
ENDBRANCH   6   7
ENDBRANCH   5   6
ENDBRANCH   4   5
ENDBRANCH   3   4
ENDBRANCH   2   3
ENDBRANCH   1   2
BRANCH   1  12
ATOM     12  C   UNL     1      58.964  28.778  36.994  1.00  0.00     0.000 C 
BRANCH  12  13
ATOM     13  C   UNL     1      58.755  29.002  38.503  1.00  0.00    -0.000 C 
BRANCH  13  14
ATOM     14  C   UNL     1      58.452  30.469  38.844  1.00  0.00    -0.000 C 
BRANCH  14  15
ATOM     15  C   UNL     1      58.011  31.282  37.614  1.00  0.00    -0.000 C 
BRANCH  15  16
ATOM     16  C   UNL     1      56.580  31.827  37.750  1.00  0.00    -0.000 C 
BRANCH  16  17
ATOM     17  C   UNL     1      55.518  30.814  37.295  1.00  0.00    -0.000 C 
BRANCH  17  18
ATOM     18  C   UNL     1      54.448  30.616  38.379  1.00  0.00    -0.000 C 
BRANCH  18  19
ATOM     19  C   UNL     1      54.522  29.229  39.034  1.00  0.00    -0.003 C 
ATOM     20  C   UNL     1      55.349  29.223  40.319  1.00  0.00     0.004 C 
ENDBRANCH  18  19
ENDBRANCH  17  18
ENDBRANCH  16  17
ENDBRANCH  15  16
ENDBRANCH  14  15
ENDBRANCH  13  14
ENDBRANCH  12  13
ENDBRANCH   1  12
TORSDOF 16
ENDMDL
MODEL 7
REMARK VINA RESULT:    -3.889      1.492      3.194
REMARK INTER + INTRA:         -10.314
REMARK INTER:                  -7.835
REMARK INTRA:                  -2.479
REMARK UNBOUND:                -2.789
REMARK SMILES CCCCCCCCCCCCCCCCCC(=O)[O-]
REMARK SMILES IDX 10 1 11 2 12 3 13 4 14 5 15 6 16 7 17 8 18 9 19 10 20 11
REMARK SMILES IDX 9 12 8 13 7 14 6 15 5 16 4 17 3 18 2 19 1 20
REMARK H PARENT
REMARK Flexibility Score: inf
ROOT
ATOM      1  C   UNL     1      53.163  26.005  33.994  1.00  0.00     0.000 C 
ENDROOT
BRANCH   1   2
ATOM      2  C   UNL     1      54.399  26.919  34.034  1.00  0.00     0.000 C 
BRANCH   2   3
ATOM      3  C   UNL     1      54.039  28.407  34.143  1.00  0.00     0.000 C 
BRANCH   3   4
ATOM      4  C   UNL     1      52.915  28.630  35.161  1.00  0.00     0.000 C 
BRANCH   4   5
ATOM      5  C   UNL     1      52.857  30.098  35.605  1.00  0.00     0.000 C 
BRANCH   5   6
ATOM      6  C   UNL     1      53.225  30.294  37.088  1.00  0.00     0.000 C 
BRANCH   6   7
ATOM      7  C   UNL     1      54.731  30.234  37.398  1.00  0.00     0.006 C 
BRANCH   7   8
ATOM      8  C   UNL     1      55.099  29.100  38.363  1.00  0.00     0.053 C 
BRANCH   8   9
ATOM      9  C   UNL     1      55.528  27.886  37.601  1.00  0.00     0.041 C 
ATOM     10  O   UNL     1      54.938  26.786  37.777  1.00  0.00    -0.550 OA
ATOM     11  O   UNL     1      56.609  27.954  36.732  1.00  0.00    -0.550 OA
ENDBRANCH   8   9
ENDBRANCH   7   8
ENDBRANCH   6   7
ENDBRANCH   5   6
ENDBRANCH   4   5
ENDBRANCH   3   4
ENDBRANCH   2   3
ENDBRANCH   1   2
BRANCH   1  12
ATOM     12  C   UNL     1      53.222  24.842  35.007  1.00  0.00     0.000 C 
BRANCH  12  13
ATOM     13  C   UNL     1      52.323  25.092  36.232  1.00  0.00    -0.000 C 
BRANCH  13  14
ATOM     14  C   UNL     1      51.330  23.947  36.477  1.00  0.00    -0.000 C 
BRANCH  14  15
ATOM     15  C   UNL     1      50.910  23.240  35.175  1.00  0.00    -0.000 C 
BRANCH  15  16
ATOM     16  C   UNL     1      49.395  22.997  35.099  1.00  0.00    -0.000 C 
BRANCH  16  17
ATOM     17  C   UNL     1      48.679  24.012  34.194  1.00  0.00    -0.000 C 
BRANCH  17  18
ATOM     18  C   UNL     1      49.638  24.574  33.135  1.00  0.00    -0.000 C 
BRANCH  18  19
ATOM     19  C   UNL     1      49.622  26.110  33.079  1.00  0.00    -0.003 C 
ATOM     20  C   UNL     1      49.522  26.752  34.462  1.00  0.00     0.004 C 
ENDBRANCH  18  19
ENDBRANCH  17  18
ENDBRANCH  16  17
ENDBRANCH  15  16
ENDBRANCH  14  15
ENDBRANCH  13  14
ENDBRANCH  12  13
ENDBRANCH   1  12
TORSDOF 16
ENDMDL
MODEL 8
REMARK VINA RESULT:    -3.886      1.513      3.092
REMARK INTER + INTRA:         -10.310
REMARK INTER:                  -7.955
REMARK INTRA:                  -2.355
REMARK UNBOUND:                -2.789
REMARK SMILES CCCCCCCCCCCCCCCCCC(=O)[O-]
REMARK SMILES IDX 10 1 11 2 12 3 13 4 14 5 15 6 16 7 17 8 18 9 19 10 20 11
REMARK SMILES IDX 9 12 8 13 7 14 6 15 5 16 4 17 3 18 2 19 1 20
REMARK H PARENT
REMARK Flexibility Score: inf
ROOT
ATOM      1  C   UNL     1      54.120  25.991  33.857  1.00  0.00     0.000 C 
ENDROOT
BRANCH   1   2
ATOM      2  C   UNL     1      55.531  26.595  33.952  1.00  0.00     0.000 C 
BRANCH   2   3
ATOM      3  C   UNL     1      55.520  28.124  34.074  1.00  0.00     0.000 C 
BRANCH   3   4
ATOM      4  C   UNL     1      56.141  28.576  35.401  1.00  0.00     0.000 C 
BRANCH   4   5
ATOM      5  C   UNL     1      56.203  27.416  36.404  1.00  0.00     0.000 C 
BRANCH   5   6
ATOM      6  C   UNL     1      55.389  27.682  37.684  1.00  0.00     0.000 C 
BRANCH   6   7
ATOM      7  C   UNL     1      55.603  29.070  38.315  1.00  0.00     0.006 C 
BRANCH   7   8
ATOM      8  C   UNL     1      54.289  29.763  38.695  1.00  0.00     0.053 C 
BRANCH   8   9
ATOM      9  C   UNL     1      53.715  30.477  37.513  1.00  0.00     0.041 C 
ATOM     10  O   UNL     1      52.788  29.949  36.842  1.00  0.00    -0.550 OA
ATOM     11  O   UNL     1      54.234  31.704  37.120  1.00  0.00    -0.550 OA
ENDBRANCH   8   9
ENDBRANCH   7   8
ENDBRANCH   6   7
ENDBRANCH   5   6
ENDBRANCH   4   5
ENDBRANCH   3   4
ENDBRANCH   2   3
ENDBRANCH   1   2
BRANCH   1  12
ATOM     12  C   UNL     1      52.997  26.986  34.220  1.00  0.00     0.000 C 
BRANCH  12  13
ATOM     13  C   UNL     1      52.294  26.613  35.537  1.00  0.00    -0.000 C 
BRANCH  13  14
ATOM     14  C   UNL     1      52.907  25.370  36.200  1.00  0.00    -0.000 C 
BRANCH  14  15
ATOM     15  C   UNL     1      51.861  24.278  36.488  1.00  0.00    -0.000 C 
BRANCH  15  16
ATOM     16  C   UNL     1      50.425  24.749  36.208  1.00  0.00    -0.000 C 
BRANCH  16  17
ATOM     17  C   UNL     1      49.665  23.798  35.271  1.00  0.00    -0.000 C 
BRANCH  17  18
ATOM     18  C   UNL     1      48.586  24.552  34.480  1.00  0.00    -0.000 C 
BRANCH  18  19
ATOM     19  C   UNL     1      48.919  26.041  34.301  1.00  0.00    -0.003 C 
ATOM     20  C   UNL     1      49.556  26.347  32.946  1.00  0.00     0.004 C 
ENDBRANCH  18  19
ENDBRANCH  17  18
ENDBRANCH  16  17
ENDBRANCH  15  16
ENDBRANCH  14  15
ENDBRANCH  13  14
ENDBRANCH  12  13
ENDBRANCH   1  12
TORSDOF 16
ENDMDL
MODEL 9
REMARK VINA RESULT:    -3.847      3.667      7.626
REMARK INTER + INTRA:         -10.234
REMARK INTER:                  -7.676
REMARK INTRA:                  -2.558
REMARK UNBOUND:                -2.789
REMARK SMILES CCCCCCCCCCCCCCCCCC(=O)[O-]
REMARK SMILES IDX 10 1 11 2 12 3 13 4 14 5 15 6 16 7 17 8 18 9 19 10 20 11
REMARK SMILES IDX 9 12 8 13 7 14 6 15 5 16 4 17 3 18 2 19 1 20
REMARK H PARENT
REMARK Flexibility Score: inf
ROOT
ATOM      1  C   UNL     1      52.767  29.327  36.282  1.00  0.00     0.000 C 
ENDROOT
BRANCH   1   2
ATOM      2  C   UNL     1      52.914  29.427  34.755  1.00  0.00     0.000 C 
BRANCH   2   3
ATOM      3  C   UNL     1      53.886  28.390  34.177  1.00  0.00     0.000 C 
BRANCH   3   4
ATOM      4  C   UNL     1      53.173  27.063  33.894  1.00  0.00     0.000 C 
BRANCH   4   5
ATOM      5  C   UNL     1      53.599  25.983  34.900  1.00  0.00     0.000 C 
BRANCH   5   6
ATOM      6  C   UNL     1      52.465  25.569  35.856  1.00  0.00     0.000 C 
BRANCH   6   7
ATOM      7  C   UNL     1      51.080  26.147  35.511  1.00  0.00     0.006 C 
BRANCH   7   8
ATOM      8  C   UNL     1      50.098  25.084  35.003  1.00  0.00     0.053 C 
BRANCH   8   9
ATOM      9  C   UNL     1      49.314  25.610  33.843  1.00  0.00     0.041 C 
ATOM     10  O   UNL     1      49.531  26.771  33.405  1.00  0.00    -0.550 OA
ATOM     11  O   UNL     1      48.309  24.838  33.274  1.00  0.00    -0.550 OA
ENDBRANCH   8   9
ENDBRANCH   7   8
ENDBRANCH   6   7
ENDBRANCH   5   6
ENDBRANCH   4   5
ENDBRANCH   3   4
ENDBRANCH   2   3
ENDBRANCH   1   2
BRANCH   1  12
ATOM     12  C   UNL     1      53.539  30.422  37.049  1.00  0.00     0.000 C 
BRANCH  12  13
ATOM     13  C   UNL     1      54.942  29.953  37.476  1.00  0.00    -0.000 C 
BRANCH  13  14
ATOM     14  C   UNL     1      55.003  28.440  37.738  1.00  0.00    -0.000 C 
BRANCH  14  15
ATOM     15  C   UNL     1      56.170  27.760  37.000  1.00  0.00    -0.000 C 
BRANCH  15  16
ATOM     16  C   UNL     1      57.070  28.766  36.266  1.00  0.00    -0.000 C 
BRANCH  16  17
ATOM     17  C   UNL     1      58.556  28.594  36.618  1.00  0.00    -0.000 C 
BRANCH  17  18
ATOM     18  C   UNL     1      58.757  28.534  38.139  1.00  0.00    -0.000 C 
BRANCH  18  19
ATOM     19  C   UNL     1      58.619  29.911  38.806  1.00  0.00    -0.003 C 
ATOM     20  C   UNL     1      57.702  29.887  40.029  1.00  0.00     0.004 C 
ENDBRANCH  18  19
ENDBRANCH  17  18
ENDBRANCH  16  17
ENDBRANCH  15  16
ENDBRANCH  14  15
ENDBRANCH  13  14
ENDBRANCH  12  13
ENDBRANCH   1  12
TORSDOF 16
ENDMDL
