MODEL 1
REMARK VINA RESULT:    -4.000      0.000      0.000
REMARK INTER + INTRA:          -5.280
REMARK INTER:                  -4.935
REMARK INTRA:                  -0.345
REMARK UNBOUND:                -0.345
REMARK SMILES Oc1cc(O)c2cc(O)c(-c3cc(O)c(O)c(O)c3)[o+]c2c1.[Cl-]
REMARK SMILES IDX 10 1 20 2 21 3 22 4 2 5 3 6 4 7 6 8 7 9 8 10 11 11 12 12
REMARK SMILES IDX 13 13 19 14 15 15 17 16 14 17 16 19 18 21 9 23 1 25 5 27
REMARK H PARENT 14 18 16 20 18 22 9 24 1 26 5 28
REMARK Flexibility Score: inf
ROOT
ATOM      1  C   UNL     1     -16.018  46.005  -9.363  1.00  0.00     0.402 A 
ATOM      2  O   UNL     1     -17.318  45.955  -9.642  1.00  0.00    -0.202 OA
ATOM      3  C   UNL     1     -17.924  44.866 -10.102  1.00  0.00     0.368 A 
ATOM      4  C   UNL     1     -19.295  44.913 -10.369  1.00  0.00     0.162 A 
ATOM      5  C   UNL     1     -19.958  43.783 -10.856  1.00  0.00     0.128 A 
ATOM      6  C   UNL     1     -19.246  42.601 -11.078  1.00  0.00     0.093 A 
ATOM      7  C   UNL     1     -17.872  42.528 -10.818  1.00  0.00     0.136 A 
ATOM      8  C   UNL     1     -17.195  43.672 -10.321  1.00  0.00     0.125 A 
ATOM      9  C   UNL     1     -15.824  43.688 -10.020  1.00  0.00     0.078 A 
ATOM     10  C   UNL     1     -15.227  44.853  -9.529  1.00  0.00     0.223 A 
ENDROOT
BRANCH   1  11
ATOM     11  C   UNL     1     -15.456  47.282  -8.865  1.00  0.00     0.091 A 
ATOM     12  C   UNL     1     -15.262  47.459  -7.486  1.00  0.00     0.068 A 
ATOM     13  C   UNL     1     -14.750  48.664  -6.986  1.00  0.00     0.162 A 
ATOM     14  C   UNL     1     -15.165  48.343  -9.739  1.00  0.00     0.068 A 
ATOM     15  C   UNL     1     -14.443  49.713  -7.869  1.00  0.00     0.200 A 
ATOM     16  C   UNL     1     -14.655  49.552  -9.244  1.00  0.00     0.162 A 
BRANCH  13  17
ATOM     17  O   UNL     1     -14.549  48.823  -5.616  1.00  0.00    -0.504 OA
ATOM     18  H   UNL     1     -13.913  48.226  -5.099  1.00  0.00     0.293 HD
ENDBRANCH  13  17
BRANCH  15  19
ATOM     19  O   UNL     1     -13.931  50.921  -7.395  1.00  0.00    -0.502 OA
ATOM     20  H   UNL     1     -14.193  51.813  -7.799  1.00  0.00     0.293 HD
ENDBRANCH  15  19
BRANCH  16  21
ATOM     21  O   UNL     1     -14.361  50.600 -10.114  1.00  0.00    -0.504 OA
ATOM     22  H   UNL     1     -15.082  51.045 -10.672  1.00  0.00     0.293 HD
ENDBRANCH  16  21
ENDBRANCH   1  11
BRANCH  10  23
ATOM     23  O   UNL     1     -13.875  44.855  -9.183  1.00  0.00    -0.500 OA
ATOM     24  H   UNL     1     -13.567  44.654  -8.239  1.00  0.00     0.294 HD
ENDBRANCH  10  23
BRANCH   5  25
ATOM     25  O   UNL     1     -21.324  43.822 -11.125  1.00  0.00    -0.507 OA
ATOM     26  H   UNL     1     -21.679  43.770 -12.073  1.00  0.00     0.293 HD
ENDBRANCH   5  25
BRANCH   7  27
ATOM     27  O   UNL     1     -17.233  41.312 -11.070  1.00  0.00    -0.507 OA
ATOM     28  H   UNL     1     -17.445  40.446 -10.595  1.00  0.00     0.293 HD
ENDBRANCH   7  27
TORSDOF 7
ENDMDL
MODEL 2
REMARK VINA RESULT:    -2.567      2.335      7.158
REMARK INTER + INTRA:          -3.512
REMARK INTER:                  -3.300
REMARK INTRA:                  -0.212
REMARK UNBOUND:                -0.345
REMARK SMILES Oc1cc(O)c2cc(O)c(-c3cc(O)c(O)c(O)c3)[o+]c2c1.[Cl-]
REMARK SMILES IDX 10 1 20 2 21 3 22 4 2 5 3 6 4 7 6 8 7 9 8 10 11 11 12 12
REMARK SMILES IDX 13 13 19 14 15 15 17 16 14 17 16 19 18 21 9 23 1 25 5 27
REMARK H PARENT 14 18 16 20 18 22 9 24 1 26 5 28
REMARK Flexibility Score: inf
ROOT
ATOM      1  C   UNL     1     -15.972  47.072  -8.778  1.00  0.00     0.402 A 
ATOM      2  O   UNL     1     -15.647  47.989  -7.871  1.00  0.00    -0.202 OA
ATOM      3  C   UNL     1     -15.087  49.154  -8.180  1.00  0.00     0.368 A 
ATOM      4  C   UNL     1     -14.779  50.052  -7.155  1.00  0.00     0.162 A 
ATOM      5  C   UNL     1     -14.187  51.284  -7.450  1.00  0.00     0.128 A 
ATOM      6  C   UNL     1     -13.900  51.617  -8.776  1.00  0.00     0.093 A 
ATOM      7  C   UNL     1     -14.198  50.734  -9.821  1.00  0.00     0.136 A 
ATOM      8  C   UNL     1     -14.802  49.484  -9.527  1.00  0.00     0.125 A 
ATOM      9  C   UNL     1     -15.148  48.542 -10.509  1.00  0.00     0.078 A 
ATOM     10  C   UNL     1     -15.745  47.333 -10.143  1.00  0.00     0.223 A 
ENDROOT
BRANCH   1  11
ATOM     11  C   UNL     1     -16.582  45.807  -8.309  1.00  0.00     0.091 A 
ATOM     12  C   UNL     1     -17.912  45.514  -8.652  1.00  0.00     0.068 A 
ATOM     13  C   UNL     1     -18.521  44.334  -8.204  1.00  0.00     0.162 A 
ATOM     14  C   UNL     1     -15.878  44.918  -7.479  1.00  0.00     0.068 A 
ATOM     15  C   UNL     1     -17.803  43.440  -7.392  1.00  0.00     0.200 A 
ATOM     16  C   UNL     1     -16.483  43.736  -7.027  1.00  0.00     0.162 A 
BRANCH  13  17
ATOM     17  O   UNL     1     -19.838  44.047  -8.563  1.00  0.00    -0.504 OA
ATOM     18  H   UNL     1     -20.621  44.542  -8.151  1.00  0.00     0.293 HD
ENDBRANCH  13  17
BRANCH  15  19
ATOM     19  O   UNL     1     -18.387  42.258  -6.936  1.00  0.00    -0.502 OA
ATOM     20  H   UNL     1     -19.392  42.135  -6.894  1.00  0.00     0.293 HD
ENDBRANCH  15  19
BRANCH  16  21
ATOM     21  O   UNL     1     -15.780  42.854  -6.210  1.00  0.00    -0.504 OA
ATOM     22  H   UNL     1     -15.986  41.861  -6.199  1.00  0.00     0.293 HD
ENDBRANCH  16  21
ENDBRANCH   1  11
BRANCH  10  23
ATOM     23  O   UNL     1     -16.134  46.418 -11.122  1.00  0.00    -0.500 OA
ATOM     24  H   UNL     1     -15.793  45.464 -11.125  1.00  0.00     0.294 HD
ENDBRANCH  10  23
BRANCH   5  25
ATOM     25  O   UNL     1     -13.877  52.184  -6.434  1.00  0.00    -0.507 OA
ATOM     26  H   UNL     1     -14.051  51.965  -5.460  1.00  0.00     0.293 HD
ENDBRANCH   5  25
BRANCH   7  27
ATOM     27  O   UNL     1     -13.877  51.140 -11.119  1.00  0.00    -0.507 OA
ATOM     28  H   UNL     1     -13.034  50.875 -11.609  1.00  0.00     0.293 HD
ENDBRANCH   7  27
TORSDOF 7
ENDMDL
