MODEL 1
REMARK VINA RESULT:    -4.411      0.000      0.000
REMARK INTER + INTRA:          -8.813
REMARK INTER:                  -7.506
REMARK INTRA:                  -1.307
REMARK UNBOUND:                -1.307
REMARK SMILES CCCCCCCCCCCCCC(=O)[O-]
REMARK SMILES IDX 8 1 9 2 10 3 11 4 12 5 13 6 14 7 15 8 16 9 7 10 6 11 5 12
REMARK SMILES IDX 4 13 3 14 2 15 1 16
REMARK H PARENT
REMARK Flexibility Score: inf
ROOT
ATOM      1  C   UNL     1      68.590 -36.490   8.337  1.00  0.00     0.000 C 
ENDROOT
BRANCH   1   2
ATOM      2  C   UNL     1      69.476 -37.666   8.787  1.00  0.00     0.000 C 
BRANCH   2   3
ATOM      3  C   UNL     1      69.714 -37.686  10.306  1.00  0.00     0.000 C 
BRANCH   3   4
ATOM      4  C   UNL     1      70.746 -38.745  10.729  1.00  0.00     0.000 C 
BRANCH   4   5
ATOM      5  C   UNL     1      71.894 -38.154  11.565  1.00  0.00     0.006 C 
BRANCH   5   6
ATOM      6  C   UNL     1      72.710 -37.121  10.777  1.00  0.00     0.053 C 
BRANCH   6   7
ATOM      7  C   UNL     1      74.170 -37.455  10.762  1.00  0.00     0.041 C 
ATOM      8  O   UNL     1      74.679 -38.111  11.709  1.00  0.00    -0.550 OA
ATOM      9  O   UNL     1      74.962 -37.071   9.688  1.00  0.00    -0.550 OA
ENDBRANCH   6   7
ENDBRANCH   5   6
ENDBRANCH   4   5
ENDBRANCH   3   4
ENDBRANCH   2   3
ENDBRANCH   1   2
BRANCH   1  10
ATOM     10  C   UNL     1      69.156 -35.648   7.175  1.00  0.00     0.000 C 
BRANCH  10  11
ATOM     11  C   UNL     1      69.093 -34.124   7.382  1.00  0.00    -0.000 C 
BRANCH  11  12
ATOM     12  C   UNL     1      70.008 -33.353   6.419  1.00  0.00    -0.000 C 
BRANCH  12  13
ATOM     13  C   UNL     1      71.356 -33.037   7.077  1.00  0.00    -0.000 C 
BRANCH  13  14
ATOM     14  C   UNL     1      72.447 -34.001   6.587  1.00  0.00    -0.000 C 
BRANCH  14  15
ATOM     15  C   UNL     1      72.738 -35.124   7.595  1.00  0.00    -0.003 C 
ATOM     16  C   UNL     1      72.663 -36.515   6.966  1.00  0.00     0.004 C 
ENDBRANCH  14  15
ENDBRANCH  13  14
ENDBRANCH  12  13
ENDBRANCH  11  12
ENDBRANCH  10  11
ENDBRANCH   1  10
TORSDOF 12
ENDMDL
MODEL 2
REMARK VINA RESULT:    -4.156     11.602     14.081
REMARK INTER + INTRA:          -8.378
REMARK INTER:                  -7.049
REMARK INTRA:                  -1.329
REMARK UNBOUND:                -1.307
REMARK SMILES CCCCCCCCCCCCCC(=O)[O-]
REMARK SMILES IDX 8 1 9 2 10 3 11 4 12 5 13 6 14 7 15 8 16 9 7 10 6 11 5 12
REMARK SMILES IDX 4 13 3 14 2 15 1 16
REMARK H PARENT
REMARK Flexibility Score: inf
ROOT
ATOM      1  C   UNL     1      72.586 -32.562  21.346  1.00  0.00     0.000 C 
ENDROOT
BRANCH   1   2
ATOM      2  C   UNL     1      73.845 -31.904  20.754  1.00  0.00     0.000 C 
BRANCH   2   3
ATOM      3  C   UNL     1      73.520 -30.874  19.659  1.00  0.00     0.000 C 
BRANCH   3   4
ATOM      4  C   UNL     1      72.107 -31.055  19.079  1.00  0.00     0.000 C 
BRANCH   4   5
ATOM      5  C   UNL     1      71.459 -29.720  18.671  1.00  0.00     0.006 C 
BRANCH   5   6
ATOM      6  C   UNL     1      71.551 -29.472  17.160  1.00  0.00     0.053 C 
BRANCH   6   7
ATOM      7  C   UNL     1      72.470 -28.334  16.835  1.00  0.00     0.041 C 
ATOM      8  O   UNL     1      73.214 -27.847  17.727  1.00  0.00    -0.550 OA
ATOM      9  O   UNL     1      72.528 -27.833  15.541  1.00  0.00    -0.550 OA
ENDBRANCH   6   7
ENDBRANCH   5   6
ENDBRANCH   4   5
ENDBRANCH   3   4
ENDBRANCH   2   3
ENDBRANCH   1   2
BRANCH   1  10
ATOM     10  C   UNL     1      72.548 -32.644  22.886  1.00  0.00     0.000 C 
BRANCH  10  11
ATOM     11  C   UNL     1      73.888 -32.362  23.588  1.00  0.00    -0.000 C 
BRANCH  11  12
ATOM     12  C   UNL     1      74.579 -33.638  24.091  1.00  0.00    -0.000 C 
BRANCH  12  13
ATOM     13  C   UNL     1      75.656 -34.105  23.104  1.00  0.00    -0.000 C 
BRANCH  13  14
ATOM     14  C   UNL     1      75.152 -35.283  22.257  1.00  0.00    -0.000 C 
BRANCH  14  15
ATOM     15  C   UNL     1      74.007 -36.051  22.935  1.00  0.00    -0.003 C 
ATOM     16  C   UNL     1      72.910 -36.462  21.953  1.00  0.00     0.004 C 
ENDBRANCH  14  15
ENDBRANCH  13  14
ENDBRANCH  12  13
ENDBRANCH  11  12
ENDBRANCH  10  11
ENDBRANCH   1  10
TORSDOF 12
ENDMDL
MODEL 3
REMARK VINA RESULT:    -4.125      9.320     11.110
REMARK INTER + INTRA:          -8.326
REMARK INTER:                  -7.053
REMARK INTRA:                  -1.273
REMARK UNBOUND:                -1.307
REMARK SMILES CCCCCCCCCCCCCC(=O)[O-]
REMARK SMILES IDX 8 1 9 2 10 3 11 4 12 5 13 6 14 7 15 8 16 9 7 10 6 11 5 12
REMARK SMILES IDX 4 13 3 14 2 15 1 16
REMARK H PARENT
REMARK Flexibility Score: inf
ROOT
ATOM      1  C   UNL     1      63.119 -33.284  11.680  1.00  0.00     0.000 C 
ENDROOT
BRANCH   1   2
ATOM      2  C   UNL     1      61.647 -33.355  12.124  1.00  0.00     0.000 C 
BRANCH   2   3
ATOM      3  C   UNL     1      61.281 -32.270  13.150  1.00  0.00     0.000 C 
BRANCH   3   4
ATOM      4  C   UNL     1      62.423 -31.983  14.139  1.00  0.00     0.000 C 
BRANCH   4   5
ATOM      5  C   UNL     1      62.399 -30.539  14.670  1.00  0.00     0.006 C 
BRANCH   5   6
ATOM      6  C   UNL     1      63.138 -29.569  13.740  1.00  0.00     0.053 C 
BRANCH   6   7
ATOM      7  C   UNL     1      62.704 -28.151  13.953  1.00  0.00     0.041 C 
ATOM      8  O   UNL     1      62.762 -27.637  15.101  1.00  0.00    -0.550 OA
ATOM      9  O   UNL     1      62.267 -27.387  12.879  1.00  0.00    -0.550 OA
ENDBRANCH   6   7
ENDBRANCH   5   6
ENDBRANCH   4   5
ENDBRANCH   3   4
ENDBRANCH   2   3
ENDBRANCH   1   2
BRANCH   1  10
ATOM     10  C   UNL     1      63.602 -34.464  10.812  1.00  0.00     0.000 C 
BRANCH  10  11
ATOM     11  C   UNL     1      65.130 -34.627  10.722  1.00  0.00    -0.000 C 
BRANCH  11  12
ATOM     12  C   UNL     1      65.588 -36.082  10.902  1.00  0.00    -0.000 C 
BRANCH  12  13
ATOM     13  C   UNL     1      65.400 -36.542  12.352  1.00  0.00    -0.000 C 
BRANCH  13  14
ATOM     14  C   UNL     1      66.050 -35.554  13.332  1.00  0.00    -0.000 C 
BRANCH  14  15
ATOM     15  C   UNL     1      65.220 -35.356  14.610  1.00  0.00    -0.003 C 
ATOM     16  C   UNL     1      63.724 -35.567  14.380  1.00  0.00     0.004 C 
ENDBRANCH  14  15
ENDBRANCH  13  14
ENDBRANCH  12  13
ENDBRANCH  11  12
ENDBRANCH  10  11
ENDBRANCH   1  10
TORSDOF 12
ENDMDL
MODEL 4
REMARK VINA RESULT:    -4.075     11.752     14.338
REMARK INTER + INTRA:          -8.240
REMARK INTER:                  -6.838
REMARK INTRA:                  -1.402
REMARK UNBOUND:                -1.307
REMARK SMILES CCCCCCCCCCCCCC(=O)[O-]
REMARK SMILES IDX 8 1 9 2 10 3 11 4 12 5 13 6 14 7 15 8 16 9 7 10 6 11 5 12
REMARK SMILES IDX 4 13 3 14 2 15 1 16
REMARK H PARENT
REMARK Flexibility Score: inf
ROOT
ATOM      1  C   UNL     1      72.546 -32.569  23.097  1.00  0.00     0.000 C 
ENDROOT
BRANCH   1   2
ATOM      2  C   UNL     1      72.611 -32.525  21.560  1.00  0.00     0.000 C 
BRANCH   2   3
ATOM      3  C   UNL     1      73.928 -31.930  21.035  1.00  0.00     0.000 C 
BRANCH   3   4
ATOM      4  C   UNL     1      73.704 -30.873  19.940  1.00  0.00     0.000 C 
BRANCH   4   5
ATOM      5  C   UNL     1      72.650 -31.306  18.905  1.00  0.00     0.006 C 
BRANCH   5   6
ATOM      6  C   UNL     1      72.928 -30.718  17.516  1.00  0.00     0.053 C 
BRANCH   6   7
ATOM      7  C   UNL     1      71.821 -29.819  17.058  1.00  0.00     0.041 C 
ATOM      8  O   UNL     1      72.085 -28.753  16.441  1.00  0.00    -0.550 OA
ATOM      9  O   UNL     1      70.498 -30.173  17.283  1.00  0.00    -0.550 OA
ENDBRANCH   6   7
ENDBRANCH   5   6
ENDBRANCH   4   5
ENDBRANCH   3   4
ENDBRANCH   2   3
ENDBRANCH   1   2
BRANCH   1  10
ATOM     10  C   UNL     1      73.501 -31.599  23.824  1.00  0.00     0.000 C 
BRANCH  10  11
ATOM     11  C   UNL     1      74.706 -32.262  24.514  1.00  0.00    -0.000 C 
BRANCH  11  12
ATOM     12  C   UNL     1      74.698 -33.792  24.388  1.00  0.00    -0.000 C 
BRANCH  12  13
ATOM     13  C   UNL     1      75.754 -34.267  23.383  1.00  0.00    -0.000 C 
BRANCH  13  14
ATOM     14  C   UNL     1      75.146 -35.243  22.365  1.00  0.00    -0.000 C 
BRANCH  14  15
ATOM     15  C   UNL     1      73.887 -35.945  22.900  1.00  0.00    -0.003 C 
ATOM     16  C   UNL     1      72.985 -36.469  21.783  1.00  0.00     0.004 C 
ENDBRANCH  14  15
ENDBRANCH  13  14
ENDBRANCH  12  13
ENDBRANCH  11  12
ENDBRANCH  10  11
ENDBRANCH   1  10
TORSDOF 12
ENDMDL
MODEL 5
REMARK VINA RESULT:    -4.034      1.898      4.846
REMARK INTER + INTRA:          -8.170
REMARK INTER:                  -6.764
REMARK INTRA:                  -1.406
REMARK UNBOUND:                -1.307
REMARK SMILES CCCCCCCCCCCCCC(=O)[O-]
REMARK SMILES IDX 8 1 9 2 10 3 11 4 12 5 13 6 14 7 15 8 16 9 7 10 6 11 5 12
REMARK SMILES IDX 4 13 3 14 2 15 1 16
REMARK H PARENT
REMARK Flexibility Score: inf
ROOT
ATOM      1  C   UNL     1      69.351 -36.644   7.103  1.00  0.00     0.000 C 
ENDROOT
BRANCH   1   2
ATOM      2  C   UNL     1      68.558 -35.464   7.693  1.00  0.00     0.000 C 
BRANCH   2   3
ATOM      3  C   UNL     1      69.139 -34.097   7.297  1.00  0.00     0.000 C 
BRANCH   3   4
ATOM      4  C   UNL     1      70.304 -34.217   6.301  1.00  0.00     0.000 C 
BRANCH   4   5
ATOM      5  C   UNL     1      71.625 -33.662   6.863  1.00  0.00     0.006 C 
BRANCH   5   6
ATOM      6  C   UNL     1      72.506 -34.764   7.464  1.00  0.00     0.053 C 
BRANCH   6   7
ATOM      7  C   UNL     1      73.230 -35.540   6.407  1.00  0.00     0.041 C 
ATOM      8  O   UNL     1      73.979 -34.946   5.587  1.00  0.00    -0.550 OA
ATOM      9  O   UNL     1      73.103 -36.921   6.347  1.00  0.00    -0.550 OA
ENDBRANCH   6   7
ENDBRANCH   5   6
ENDBRANCH   4   5
ENDBRANCH   3   4
ENDBRANCH   2   3
ENDBRANCH   1   2
BRANCH   1  10
ATOM     10  C   UNL     1      70.026 -37.567   8.138  1.00  0.00     0.000 C 
BRANCH  10  11
ATOM     11  C   UNL     1      69.450 -37.482   9.563  1.00  0.00    -0.000 C 
BRANCH  11  12
ATOM     12  C   UNL     1      70.456 -37.912  10.640  1.00  0.00    -0.000 C 
BRANCH  12  13
ATOM     13  C   UNL     1      71.857 -37.368  10.333  1.00  0.00    -0.000 C 
BRANCH  13  14
ATOM     14  C   UNL     1      72.806 -37.590  11.519  1.00  0.00    -0.000 C 
BRANCH  14  15
ATOM     15  C   UNL     1      74.283 -37.620  11.097  1.00  0.00    -0.003 C 
ATOM     16  C   UNL     1      74.494 -37.152   9.657  1.00  0.00     0.004 C 
ENDBRANCH  14  15
ENDBRANCH  13  14
ENDBRANCH  12  13
ENDBRANCH  11  12
ENDBRANCH  10  11
ENDBRANCH   1  10
TORSDOF 12
ENDMDL
MODEL 6
REMARK VINA RESULT:    -3.996      2.335      5.283
REMARK INTER + INTRA:          -8.106
REMARK INTER:                  -7.159
REMARK INTRA:                  -0.947
REMARK UNBOUND:                -1.307
REMARK SMILES CCCCCCCCCCCCCC(=O)[O-]
REMARK SMILES IDX 8 1 9 2 10 3 11 4 12 5 13 6 14 7 15 8 16 9 7 10 6 11 5 12
REMARK SMILES IDX 4 13 3 14 2 15 1 16
REMARK H PARENT
REMARK Flexibility Score: inf
ROOT
ATOM      1  C   UNL     1      69.074 -37.493   9.287  1.00  0.00     0.000 C 
ENDROOT
BRANCH   1   2
ATOM      2  C   UNL     1      68.880 -37.856   7.804  1.00  0.00     0.000 C 
BRANCH   2   3
ATOM      3  C   UNL     1      68.392 -36.668   6.958  1.00  0.00     0.000 C 
BRANCH   3   4
ATOM      4  C   UNL     1      69.527 -35.695   6.597  1.00  0.00     0.000 C 
BRANCH   4   5
ATOM      5  C   UNL     1      69.410 -34.348   7.332  1.00  0.00     0.006 C 
BRANCH   5   6
ATOM      6  C   UNL     1      69.960 -33.184   6.498  1.00  0.00     0.053 C 
BRANCH   6   7
ATOM      7  C   UNL     1      71.458 -33.180   6.465  1.00  0.00     0.041 C 
ATOM      8  O   UNL     1      72.115 -33.400   7.516  1.00  0.00    -0.550 OA
ATOM      9  O   UNL     1      72.127 -32.965   5.268  1.00  0.00    -0.550 OA
ENDBRANCH   6   7
ENDBRANCH   5   6
ENDBRANCH   4   5
ENDBRANCH   3   4
ENDBRANCH   2   3
ENDBRANCH   1   2
BRANCH   1  10
ATOM     10  C   UNL     1      70.533 -37.526   9.787  1.00  0.00     0.000 C 
BRANCH  10  11
ATOM     11  C   UNL     1      70.728 -38.118  11.194  1.00  0.00    -0.000 C 
BRANCH  11  12
ATOM     12  C   UNL     1      72.205 -38.349  11.545  1.00  0.00    -0.000 C 
BRANCH  12  13
ATOM     13  C   UNL     1      73.064 -37.152  11.121  1.00  0.00    -0.000 C 
BRANCH  13  14
ATOM     14  C   UNL     1      74.464 -37.608  10.685  1.00  0.00    -0.000 C 
BRANCH  14  15
ATOM     15  C   UNL     1      74.945 -36.900   9.408  1.00  0.00    -0.003 C 
ATOM     16  C   UNL     1      73.793 -36.509   8.482  1.00  0.00     0.004 C 
ENDBRANCH  14  15
ENDBRANCH  13  14
ENDBRANCH  12  13
ENDBRANCH  11  12
ENDBRANCH  10  11
ENDBRANCH   1  10
TORSDOF 12
ENDMDL
MODEL 7
REMARK VINA RESULT:    -3.947      1.682      5.156
REMARK INTER + INTRA:          -8.023
REMARK INTER:                  -6.873
REMARK INTRA:                  -1.150
REMARK UNBOUND:                -1.307
REMARK SMILES CCCCCCCCCCCCCC(=O)[O-]
REMARK SMILES IDX 8 1 9 2 10 3 11 4 12 5 13 6 14 7 15 8 16 9 7 10 6 11 5 12
REMARK SMILES IDX 4 13 3 14 2 15 1 16
REMARK H PARENT
REMARK Flexibility Score: inf
ROOT
ATOM      1  C   UNL     1      68.832 -34.704   7.442  1.00  0.00     0.000 C 
ENDROOT
BRANCH   1   2
ATOM      2  C   UNL     1      69.640 -33.470   6.998  1.00  0.00     0.000 C 
BRANCH   2   3
ATOM      3  C   UNL     1      70.571 -33.763   5.810  1.00  0.00     0.000 C 
BRANCH   3   4
ATOM      4  C   UNL     1      71.947 -33.093   5.959  1.00  0.00     0.000 C 
BRANCH   4   5
ATOM      5  C   UNL     1      73.089 -33.949   5.384  1.00  0.00     0.006 C 
BRANCH   5   6
ATOM      6  C   UNL     1      72.837 -35.451   5.572  1.00  0.00     0.053 C 
BRANCH   6   7
ATOM      7  C   UNL     1      73.538 -35.988   6.782  1.00  0.00     0.041 C 
ATOM      8  O   UNL     1      73.144 -35.670   7.935  1.00  0.00    -0.550 OA
ATOM      9  O   UNL     1      74.604 -36.865   6.636  1.00  0.00    -0.550 OA
ENDBRANCH   6   7
ENDBRANCH   5   6
ENDBRANCH   4   5
ENDBRANCH   3   4
ENDBRANCH   2   3
ENDBRANCH   1   2
BRANCH   1  10
ATOM     10  C   UNL     1      69.557 -36.056   7.285  1.00  0.00     0.000 C 
BRANCH  10  11
ATOM     11  C   UNL     1      69.939 -36.750   8.605  1.00  0.00    -0.000 C 
BRANCH  11  12
ATOM     12  C   UNL     1      69.944 -38.281   8.494  1.00  0.00    -0.000 C 
BRANCH  12  13
ATOM     13  C   UNL     1      69.729 -38.933   9.866  1.00  0.00    -0.000 C 
BRANCH  13  14
ATOM     14  C   UNL     1      70.319 -38.063  10.986  1.00  0.00    -0.000 C 
BRANCH  14  15
ATOM     15  C   UNL     1      71.690 -38.567  11.464  1.00  0.00    -0.003 C 
ATOM     16  C   UNL     1      72.818 -37.578  11.169  1.00  0.00     0.004 C 
ENDBRANCH  14  15
ENDBRANCH  13  14
ENDBRANCH  12  13
ENDBRANCH  11  12
ENDBRANCH  10  11
ENDBRANCH   1  10
TORSDOF 12
ENDMDL
MODEL 8
REMARK VINA RESULT:    -3.924      9.148     10.613
REMARK INTER + INTRA:          -7.984
REMARK INTER:                  -7.271
REMARK INTRA:                  -0.713
REMARK UNBOUND:                -1.307
REMARK SMILES CCCCCCCCCCCCCC(=O)[O-]
REMARK SMILES IDX 8 1 9 2 10 3 11 4 12 5 13 6 14 7 15 8 16 9 7 10 6 11 5 12
REMARK SMILES IDX 4 13 3 14 2 15 1 16
REMARK H PARENT
REMARK Flexibility Score: inf
ROOT
ATOM      1  C   UNL     1      62.717 -33.529  14.323  1.00  0.00     0.000 C 
ENDROOT
BRANCH   1   2
ATOM      2  C   UNL     1      63.554 -34.620  15.016  1.00  0.00     0.000 C 
BRANCH   2   3
ATOM      3  C   UNL     1      64.130 -35.647  14.027  1.00  0.00     0.000 C 
BRANCH   3   4
ATOM      4  C   UNL     1      65.661 -35.563  13.913  1.00  0.00     0.000 C 
BRANCH   4   5
ATOM      5  C   UNL     1      66.182 -36.045  12.547  1.00  0.00     0.006 C 
BRANCH   5   6
ATOM      6  C   UNL     1      65.046 -36.515  11.629  1.00  0.00     0.053 C 
BRANCH   6   7
ATOM      7  C   UNL     1      64.757 -35.524  10.545  1.00  0.00     0.041 C 
ATOM      8  O   UNL     1      65.297 -34.386  10.567  1.00  0.00    -0.550 OA
ATOM      9  O   UNL     1      63.918 -35.867   9.493  1.00  0.00    -0.550 OA
ENDBRANCH   6   7
ENDBRANCH   5   6
ENDBRANCH   4   5
ENDBRANCH   3   4
ENDBRANCH   2   3
ENDBRANCH   1   2
BRANCH   1  10
ATOM     10  C   UNL     1      61.923 -32.608  15.271  1.00  0.00     0.000 C 
BRANCH  10  11
ATOM     11  C   UNL     1      61.853 -31.131  14.842  1.00  0.00    -0.000 C 
BRANCH  11  12
ATOM     12  C   UNL     1      62.734 -30.822  13.622  1.00  0.00    -0.000 C 
BRANCH  12  13
ATOM     13  C   UNL     1      63.317 -29.407  13.710  1.00  0.00    -0.000 C 
BRANCH  13  14
ATOM     14  C   UNL     1      63.020 -28.773  15.076  1.00  0.00    -0.000 C 
BRANCH  14  15
ATOM     15  C   UNL     1      62.349 -27.396  14.956  1.00  0.00    -0.003 C 
ATOM     16  C   UNL     1      62.724 -26.667  13.666  1.00  0.00     0.004 C 
ENDBRANCH  14  15
ENDBRANCH  13  14
ENDBRANCH  12  13
ENDBRANCH  11  12
ENDBRANCH  10  11
ENDBRANCH   1  10
TORSDOF 12
ENDMDL
MODEL 9
REMARK VINA RESULT:    -3.866      9.938     11.707
REMARK INTER + INTRA:          -7.884
REMARK INTER:                  -6.643
REMARK INTRA:                  -1.241
REMARK UNBOUND:                -1.307
REMARK SMILES CCCCCCCCCCCCCC(=O)[O-]
REMARK SMILES IDX 8 1 9 2 10 3 11 4 12 5 13 6 14 7 15 8 16 9 7 10 6 11 5 12
REMARK SMILES IDX 4 13 3 14 2 15 1 16
REMARK H PARENT
REMARK Flexibility Score: inf
ROOT
ATOM      1  C   UNL     1      62.124 -33.893  12.071  1.00  0.00     0.000 C 
ENDROOT
BRANCH   1   2
ATOM      2  C   UNL     1      61.470 -32.687  12.769  1.00  0.00     0.000 C 
BRANCH   2   3
ATOM      3  C   UNL     1      62.475 -31.572  13.101  1.00  0.00     0.000 C 
BRANCH   3   4
ATOM      4  C   UNL     1      62.437 -31.165  14.584  1.00  0.00     0.000 C 
BRANCH   4   5
ATOM      5  C   UNL     1      62.171 -29.662  14.780  1.00  0.00     0.006 C 
BRANCH   5   6
ATOM      6  C   UNL     1      62.841 -28.810  13.694  1.00  0.00     0.053 C 
BRANCH   6   7
ATOM      7  C   UNL     1      62.372 -27.388  13.731  1.00  0.00     0.041 C 
ATOM      8  O   UNL     1      61.894 -26.906  14.791  1.00  0.00    -0.550 OA
ATOM      9  O   UNL     1      62.493 -26.586  12.604  1.00  0.00    -0.550 OA
ENDBRANCH   6   7
ENDBRANCH   5   6
ENDBRANCH   4   5
ENDBRANCH   3   4
ENDBRANCH   2   3
ENDBRANCH   1   2
BRANCH   1  10
ATOM     10  C   UNL     1      62.124 -35.204  12.884  1.00  0.00     0.000 C 
BRANCH  10  11
ATOM     11  C   UNL     1      62.439 -35.044  14.382  1.00  0.00    -0.000 C 
BRANCH  11  12
ATOM     12  C   UNL     1      63.921 -34.748  14.652  1.00  0.00    -0.000 C 
BRANCH  12  13
ATOM     13  C   UNL     1      64.808 -35.910  14.186  1.00  0.00    -0.000 C 
BRANCH  13  14
ATOM     14  C   UNL     1      65.879 -35.423  13.199  1.00  0.00    -0.000 C 
BRANCH  14  15
ATOM     15  C   UNL     1      65.668 -35.975  11.780  1.00  0.00    -0.003 C 
ATOM     16  C   UNL     1      65.317 -34.883  10.769  1.00  0.00     0.004 C 
ENDBRANCH  14  15
ENDBRANCH  13  14
ENDBRANCH  12  13
ENDBRANCH  11  12
ENDBRANCH  10  11
ENDBRANCH   1  10
TORSDOF 12
ENDMDL
