MODEL 1
REMARK VINA RESULT:    -4.811      0.000      0.000
REMARK INTER + INTRA:         -11.681
REMARK INTER:                  -9.029
REMARK INTRA:                  -2.651
REMARK UNBOUND:                -2.651
REMARK SMILES CCCCCCCCC=CCCCCCCCC(=O)[O-]
REMARK SMILES IDX 10 1 9 2 11 3 12 4 13 5 14 6 15 7 16 8 17 9 18 10 19 11
REMARK SMILES IDX 20 12 8 13 7 14 6 15 5 16 4 17 3 18 2 19 1 20
REMARK H PARENT
REMARK Flexibility Score: inf
ROOT
ATOM      1  C   UNL     1      -6.273 -19.550 -10.530  1.00  0.00    -0.031 C 
ATOM      2  C   UNL     1      -5.668 -18.667  -9.713  1.00  0.00    -0.031 C 
ENDROOT
BRANCH   1   3
ATOM      3  C   UNL     1      -7.624 -20.172 -10.274  1.00  0.00     0.027 C 
BRANCH   3   4
ATOM      4  C   UNL     1      -7.520 -21.435  -9.406  1.00  0.00     0.004 C 
BRANCH   4   5
ATOM      5  C   UNL     1      -7.915 -22.703 -10.182  1.00  0.00     0.000 C 
BRANCH   5   6
ATOM      6  C   UNL     1      -6.696 -23.550 -10.586  1.00  0.00     0.000 C 
BRANCH   6   7
ATOM      7  C   UNL     1      -6.297 -23.349 -12.058  1.00  0.00     0.000 C 
BRANCH   7   8
ATOM      8  C   UNL     1      -5.040 -22.475 -12.219  1.00  0.00     0.006 C 
BRANCH   8   9
ATOM      9  C   UNL     1      -4.007 -22.644 -11.094  1.00  0.00     0.053 C 
BRANCH   9  10
ATOM     10  C   UNL     1      -2.813 -21.763 -11.293  1.00  0.00     0.041 C 
ATOM     11  O   UNL     1      -1.946 -22.056 -12.157  1.00  0.00    -0.550 OA
ATOM     12  O   UNL     1      -2.675 -20.599 -10.547  1.00  0.00    -0.550 OA
ENDBRANCH   9  10
ENDBRANCH   8   9
ENDBRANCH   7   8
ENDBRANCH   6   7
ENDBRANCH   5   6
ENDBRANCH   4   5
ENDBRANCH   3   4
ENDBRANCH   1   3
BRANCH   2  13
ATOM     13  C   UNL     1      -6.289 -18.092  -8.465  1.00  0.00     0.027 C 
BRANCH  13  14
ATOM     14  C   UNL     1      -6.902 -16.717  -8.749  1.00  0.00     0.004 C 
BRANCH  14  15
ATOM     15  C   UNL     1      -8.435 -16.801  -8.809  1.00  0.00     0.000 C 
BRANCH  15  16
ATOM     16  C   UNL     1      -8.980 -16.705 -10.243  1.00  0.00     0.000 C 
BRANCH  16  17
ATOM     17  C   UNL     1      -8.239 -15.654 -11.088  1.00  0.00    -0.000 C 
BRANCH  17  18
ATOM     18  C   UNL     1      -7.659 -16.242 -12.384  1.00  0.00    -0.000 C 
BRANCH  18  19
ATOM     19  C   UNL     1      -6.122 -16.240 -12.402  1.00  0.00    -0.003 C 
ATOM     20  C   UNL     1      -5.569 -14.929 -11.849  1.00  0.00     0.004 C 
ENDBRANCH  18  19
ENDBRANCH  17  18
ENDBRANCH  16  17
ENDBRANCH  15  16
ENDBRANCH  14  15
ENDBRANCH  13  14
ENDBRANCH   2  13
TORSDOF 15
ENDMDL
MODEL 2
REMARK VINA RESULT:    -4.635     13.750     16.879
REMARK INTER + INTRA:         -11.350
REMARK INTER:                  -9.313
REMARK INTRA:                  -2.037
REMARK UNBOUND:                -2.651
REMARK SMILES CCCCCCCCC=CCCCCCCCC(=O)[O-]
REMARK SMILES IDX 10 1 9 2 11 3 12 4 13 5 14 6 15 7 16 8 17 9 18 10 19 11
REMARK SMILES IDX 20 12 8 13 7 14 6 15 5 16 4 17 3 18 2 19 1 20
REMARK H PARENT
REMARK Flexibility Score: inf
ROOT
ATOM      1  C   UNL     1      -0.922 -10.204 -18.686  1.00  0.00    -0.031 C 
ATOM      2  C   UNL     1      -2.025 -10.951 -18.492  1.00  0.00    -0.031 C 
ENDROOT
BRANCH   1   3
ATOM      3  C   UNL     1      -0.573  -9.506 -19.977  1.00  0.00     0.027 C 
BRANCH   3   4
ATOM      4  C   UNL     1       0.787  -9.963 -20.528  1.00  0.00     0.004 C 
BRANCH   4   5
ATOM      5  C   UNL     1       1.334  -8.995 -21.591  1.00  0.00     0.000 C 
BRANCH   5   6
ATOM      6  C   UNL     1       2.364  -8.009 -21.016  1.00  0.00     0.000 C 
BRANCH   6   7
ATOM      7  C   UNL     1       1.743  -6.653 -20.644  1.00  0.00     0.000 C 
BRANCH   7   8
ATOM      8  C   UNL     1       2.548  -5.460 -21.190  1.00  0.00     0.006 C 
BRANCH   8   9
ATOM      9  C   UNL     1       2.844  -5.536 -22.696  1.00  0.00     0.053 C 
BRANCH   9  10
ATOM     10  C   UNL     1       4.312  -5.637 -22.973  1.00  0.00     0.041 C 
ATOM     11  O   UNL     1       4.777  -6.642 -23.571  1.00  0.00    -0.550 OA
ATOM     12  O   UNL     1       5.163  -4.603 -22.601  1.00  0.00    -0.550 OA
ENDBRANCH   9  10
ENDBRANCH   8   9
ENDBRANCH   7   8
ENDBRANCH   6   7
ENDBRANCH   5   6
ENDBRANCH   4   5
ENDBRANCH   3   4
ENDBRANCH   1   3
BRANCH   2  13
ATOM     13  C   UNL     1      -3.127 -11.128 -19.506  1.00  0.00     0.027 C 
BRANCH  13  14
ATOM     14  C   UNL     1      -4.314 -10.214 -19.181  1.00  0.00     0.004 C 
BRANCH  14  15
ATOM     15  C   UNL     1      -4.199  -8.878 -19.932  1.00  0.00     0.000 C 
BRANCH  15  16
ATOM     16  C   UNL     1      -4.470  -7.664 -19.029  1.00  0.00     0.000 C 
BRANCH  16  17
ATOM     17  C   UNL     1      -3.247  -7.275 -18.179  1.00  0.00    -0.000 C 
BRANCH  17  18
ATOM     18  C   UNL     1      -2.172  -6.541 -18.996  1.00  0.00    -0.000 C 
BRANCH  18  19
ATOM     19  C   UNL     1      -0.919  -6.212 -18.168  1.00  0.00    -0.003 C 
ATOM     20  C   UNL     1      -0.913  -6.987 -16.852  1.00  0.00     0.004 C 
ENDBRANCH  18  19
ENDBRANCH  17  18
ENDBRANCH  16  17
ENDBRANCH  15  16
ENDBRANCH  14  15
ENDBRANCH  13  14
ENDBRANCH   2  13
TORSDOF 15
ENDMDL
MODEL 3
REMARK VINA RESULT:    -4.633      1.645      2.361
REMARK INTER + INTRA:         -11.346
REMARK INTER:                  -8.840
REMARK INTRA:                  -2.506
REMARK UNBOUND:                -2.651
REMARK SMILES CCCCCCCCC=CCCCCCCCC(=O)[O-]
REMARK SMILES IDX 10 1 9 2 11 3 12 4 13 5 14 6 15 7 16 8 17 9 18 10 19 11
REMARK SMILES IDX 20 12 8 13 7 14 6 15 5 16 4 17 3 18 2 19 1 20
REMARK H PARENT
REMARK Flexibility Score: inf
ROOT
ATOM      1  C   UNL     1      -5.744 -18.661  -9.425  1.00  0.00    -0.031 C 
ATOM      2  C   UNL     1      -7.083 -18.529  -9.387  1.00  0.00    -0.031 C 
ENDROOT
BRANCH   1   3
ATOM      3  C   UNL     1      -4.980 -19.350 -10.530  1.00  0.00     0.027 C 
BRANCH   3   4
ATOM      4  C   UNL     1      -4.636 -20.804 -10.171  1.00  0.00     0.004 C 
BRANCH   4   5
ATOM      5  C   UNL     1      -5.770 -21.774 -10.542  1.00  0.00     0.000 C 
BRANCH   5   6
ATOM      6  C   UNL     1      -5.580 -22.398 -11.935  1.00  0.00     0.000 C 
BRANCH   6   7
ATOM      7  C   UNL     1      -4.104 -22.680 -12.261  1.00  0.00     0.000 C 
BRANCH   7   8
ATOM      8  C   UNL     1      -3.741 -22.340 -13.718  1.00  0.00     0.006 C 
BRANCH   8   9
ATOM      9  C   UNL     1      -2.388 -21.629 -13.880  1.00  0.00     0.053 C 
BRANCH   9  10
ATOM     10  C   UNL     1      -2.348 -20.326 -13.143  1.00  0.00     0.041 C 
ATOM     11  O   UNL     1      -1.532 -20.156 -12.199  1.00  0.00    -0.550 OA
ATOM     12  O   UNL     1      -3.189 -19.287 -13.520  1.00  0.00    -0.550 OA
ENDBRANCH   9  10
ENDBRANCH   8   9
ENDBRANCH   7   8
ENDBRANCH   6   7
ENDBRANCH   5   6
ENDBRANCH   4   5
ENDBRANCH   3   4
ENDBRANCH   1   3
BRANCH   2  13
ATOM     13  C   UNL     1      -8.018 -18.965 -10.487  1.00  0.00     0.027 C 
BRANCH  13  14
ATOM     14  C   UNL     1      -8.593 -17.749 -11.222  1.00  0.00     0.004 C 
BRANCH  14  15
ATOM     15  C   UNL     1      -8.886 -16.603 -10.241  1.00  0.00     0.000 C 
BRANCH  15  16
ATOM     16  C   UNL     1      -8.360 -15.246 -10.738  1.00  0.00     0.000 C 
BRANCH  16  17
ATOM     17  C   UNL     1      -7.177 -14.728  -9.901  1.00  0.00    -0.000 C 
BRANCH  17  18
ATOM     18  C   UNL     1      -5.816 -15.129 -10.494  1.00  0.00    -0.000 C 
BRANCH  18  19
ATOM     19  C   UNL     1      -5.776 -15.003 -12.025  1.00  0.00    -0.003 C 
ATOM     20  C   UNL     1      -5.482 -16.351 -12.678  1.00  0.00     0.004 C 
ENDBRANCH  18  19
ENDBRANCH  17  18
ENDBRANCH  16  17
ENDBRANCH  15  16
ENDBRANCH  14  15
ENDBRANCH  13  14
ENDBRANCH   2  13
TORSDOF 15
ENDMDL
MODEL 4
REMARK VINA RESULT:    -4.536      9.556     11.738
REMARK INTER + INTRA:         -11.165
REMARK INTER:                  -8.324
REMARK INTRA:                  -2.841
REMARK UNBOUND:                -2.651
REMARK SMILES CCCCCCCCC=CCCCCCCCC(=O)[O-]
REMARK SMILES IDX 10 1 9 2 11 3 12 4 13 5 14 6 15 7 16 8 17 9 18 10 19 11
REMARK SMILES IDX 20 12 8 13 7 14 6 15 5 16 4 17 3 18 2 19 1 20
REMARK H PARENT
REMARK Flexibility Score: inf
ROOT
ATOM      1  C   UNL     1       2.048 -18.484 -18.744  1.00  0.00    -0.031 C 
ATOM      2  C   UNL     1       2.477 -17.602 -19.667  1.00  0.00    -0.031 C 
ENDROOT
BRANCH   1   3
ATOM      3  C   UNL     1       2.200 -18.309 -17.253  1.00  0.00     0.027 C 
BRANCH   3   4
ATOM      4  C   UNL     1       0.848 -18.080 -16.560  1.00  0.00     0.004 C 
BRANCH   4   5
ATOM      5  C   UNL     1       0.557 -16.585 -16.341  1.00  0.00     0.000 C 
BRANCH   5   6
ATOM      6  C   UNL     1      -0.605 -16.077 -17.210  1.00  0.00     0.000 C 
BRANCH   6   7
ATOM      7  C   UNL     1      -1.380 -17.219 -17.889  1.00  0.00     0.000 C 
BRANCH   7   8
ATOM      8  C   UNL     1      -1.295 -17.165 -19.425  1.00  0.00     0.006 C 
BRANCH   8   9
ATOM      9  C   UNL     1      -1.637 -18.492 -20.121  1.00  0.00     0.053 C 
BRANCH   9  10
ATOM     10  C   UNL     1      -3.066 -18.886 -19.904  1.00  0.00     0.041 C 
ATOM     11  O   UNL     1      -3.356 -19.790 -19.078  1.00  0.00    -0.550 OA
ATOM     12  O   UNL     1      -4.080 -18.230 -20.590  1.00  0.00    -0.550 OA
ENDBRANCH   9  10
ENDBRANCH   8   9
ENDBRANCH   7   8
ENDBRANCH   6   7
ENDBRANCH   5   6
ENDBRANCH   4   5
ENDBRANCH   3   4
ENDBRANCH   1   3
BRANCH   2  13
ATOM     13  C   UNL     1       3.090 -16.262 -19.349  1.00  0.00     0.027 C 
BRANCH  13  14
ATOM     14  C   UNL     1       2.042 -15.148 -19.455  1.00  0.00     0.004 C 
BRANCH  14  15
ATOM     15  C   UNL     1       2.389 -13.977 -18.523  1.00  0.00     0.000 C 
BRANCH  15  16
ATOM     16  C   UNL     1       3.675 -14.221 -17.717  1.00  0.00     0.000 C 
BRANCH  16  17
ATOM     17  C   UNL     1       3.434 -14.200 -16.197  1.00  0.00    -0.000 C 
BRANCH  17  18
ATOM     18  C   UNL     1       2.278 -13.269 -15.797  1.00  0.00    -0.000 C 
BRANCH  18  19
ATOM     19  C   UNL     1       2.748 -12.061 -14.972  1.00  0.00    -0.003 C 
ATOM     20  C   UNL     1       3.342 -10.979 -15.871  1.00  0.00     0.004 C 
ENDBRANCH  18  19
ENDBRANCH  17  18
ENDBRANCH  16  17
ENDBRANCH  15  16
ENDBRANCH  14  15
ENDBRANCH  13  14
ENDBRANCH   2  13
TORSDOF 15
ENDMDL
MODEL 5
REMARK VINA RESULT:    -4.492     11.295     14.418
REMARK INTER + INTRA:         -11.083
REMARK INTER:                  -9.015
REMARK INTRA:                  -2.068
REMARK UNBOUND:                -2.651
REMARK SMILES CCCCCCCCC=CCCCCCCCC(=O)[O-]
REMARK SMILES IDX 10 1 9 2 11 3 12 4 13 5 14 6 15 7 16 8 17 9 18 10 19 11
REMARK SMILES IDX 20 12 8 13 7 14 6 15 5 16 4 17 3 18 2 19 1 20
REMARK H PARENT
REMARK Flexibility Score: inf
ROOT
ATOM      1  C   UNL     1      -0.834 -10.701 -18.860  1.00  0.00    -0.031 C 
ATOM      2  C   UNL     1       0.315 -11.366 -18.637  1.00  0.00    -0.031 C 
ENDROOT
BRANCH   1   3
ATOM      3  C   UNL     1      -2.027 -11.268 -19.590  1.00  0.00     0.027 C 
BRANCH   3   4
ATOM      4  C   UNL     1      -3.228 -11.477 -18.654  1.00  0.00     0.004 C 
BRANCH   4   5
ATOM      5  C   UNL     1      -4.486 -10.749 -19.158  1.00  0.00     0.000 C 
BRANCH   5   6
ATOM      6  C   UNL     1      -4.154  -9.450 -19.910  1.00  0.00     0.000 C 
BRANCH   6   7
ATOM      7  C   UNL     1      -4.574  -8.192 -19.133  1.00  0.00     0.000 C 
BRANCH   7   8
ATOM      8  C   UNL     1      -3.399  -7.231 -18.877  1.00  0.00     0.006 C 
BRANCH   8   9
ATOM      9  C   UNL     1      -2.505  -7.632 -17.693  1.00  0.00     0.053 C 
BRANCH   9  10
ATOM     10  C   UNL     1      -1.254  -6.811 -17.634  1.00  0.00     0.041 C 
ATOM     11  O   UNL     1      -0.491  -6.888 -16.636  1.00  0.00    -0.550 OA
ATOM     12  O   UNL     1      -0.913  -5.984 -18.697  1.00  0.00    -0.550 OA
ENDBRANCH   9  10
ENDBRANCH   8   9
ENDBRANCH   7   8
ENDBRANCH   6   7
ENDBRANCH   5   6
ENDBRANCH   4   5
ENDBRANCH   3   4
ENDBRANCH   1   3
BRANCH   2  13
ATOM     13  C   UNL     1       0.551 -12.811 -18.999  1.00  0.00     0.027 C 
BRANCH  13  14
ATOM     14  C   UNL     1       2.051 -13.096 -19.138  1.00  0.00     0.004 C 
BRANCH  14  15
ATOM     15  C   UNL     1       2.868 -12.214 -18.180  1.00  0.00     0.000 C 
BRANCH  15  16
ATOM     16  C   UNL     1       3.740 -13.034 -17.215  1.00  0.00     0.000 C 
BRANCH  16  17
ATOM     17  C   UNL     1       2.959 -13.519 -15.981  1.00  0.00    -0.000 C 
BRANCH  17  18
ATOM     18  C   UNL     1       2.503 -12.360 -15.080  1.00  0.00    -0.000 C 
BRANCH  18  19
ATOM     19  C   UNL     1       0.974 -12.267 -14.961  1.00  0.00    -0.003 C 
ATOM     20  C   UNL     1       0.311 -13.577 -15.379  1.00  0.00     0.004 C 
ENDBRANCH  18  19
ENDBRANCH  17  18
ENDBRANCH  16  17
ENDBRANCH  15  16
ENDBRANCH  14  15
ENDBRANCH  13  14
ENDBRANCH   2  13
TORSDOF 15
ENDMDL
MODEL 6
REMARK VINA RESULT:    -4.475     11.784     14.431
REMARK INTER + INTRA:         -11.051
REMARK INTER:                  -8.308
REMARK INTRA:                  -2.743
REMARK UNBOUND:                -2.651
REMARK SMILES CCCCCCCCC=CCCCCCCCC(=O)[O-]
REMARK SMILES IDX 10 1 9 2 11 3 12 4 13 5 14 6 15 7 16 8 17 9 18 10 19 11
REMARK SMILES IDX 20 12 8 13 7 14 6 15 5 16 4 17 3 18 2 19 1 20
REMARK H PARENT
REMARK Flexibility Score: inf
ROOT
ATOM      1  C   UNL     1       3.361 -11.310 -18.152  1.00  0.00    -0.031 C 
ATOM      2  C   UNL     1       3.706 -11.041 -16.879  1.00  0.00    -0.031 C 
ENDROOT
BRANCH   1   3
ATOM      3  C   UNL     1       1.949 -11.549 -18.627  1.00  0.00     0.027 C 
BRANCH   3   4
ATOM      4  C   UNL     1       1.277 -10.255 -19.110  1.00  0.00     0.004 C 
BRANCH   4   5
ATOM      5  C   UNL     1      -0.249 -10.291 -18.923  1.00  0.00     0.000 C 
BRANCH   5   6
ATOM      6  C   UNL     1      -0.662 -10.292 -17.442  1.00  0.00     0.000 C 
BRANCH   6   7
ATOM      7  C   UNL     1      -0.173  -9.043 -16.690  1.00  0.00     0.000 C 
BRANCH   7   8
ATOM      8  C   UNL     1      -1.268  -7.970 -16.545  1.00  0.00     0.006 C 
BRANCH   8   9
ATOM      9  C   UNL     1      -2.546  -8.262 -17.347  1.00  0.00     0.053 C 
BRANCH   9  10
ATOM     10  C   UNL     1      -2.629  -7.428 -18.588  1.00  0.00     0.041 C 
ATOM     11  O   UNL     1      -1.828  -6.475 -18.767  1.00  0.00    -0.550 OA
ATOM     12  O   UNL     1      -3.573  -7.726 -19.564  1.00  0.00    -0.550 OA
ENDBRANCH   9  10
ENDBRANCH   8   9
ENDBRANCH   7   8
ENDBRANCH   6   7
ENDBRANCH   5   6
ENDBRANCH   4   5
ENDBRANCH   3   4
ENDBRANCH   1   3
BRANCH   2  13
ATOM     13  C   UNL     1       2.726 -10.845 -15.750  1.00  0.00     0.027 C 
BRANCH  13  14
ATOM     14  C   UNL     1       2.632 -12.110 -14.889  1.00  0.00     0.004 C 
BRANCH  14  15
ATOM     15  C   UNL     1       1.177 -12.592 -14.779  1.00  0.00     0.000 C 
BRANCH  15  16
ATOM     16  C   UNL     1       0.784 -13.558 -15.908  1.00  0.00     0.000 C 
BRANCH  16  17
ATOM     17  C   UNL     1       1.823 -14.673 -16.120  1.00  0.00    -0.000 C 
BRANCH  17  18
ATOM     18  C   UNL     1       2.029 -15.012 -17.605  1.00  0.00    -0.000 C 
BRANCH  18  19
ATOM     19  C   UNL     1       3.512 -15.047 -18.006  1.00  0.00    -0.003 C 
ATOM     20  C   UNL     1       4.410 -14.727 -16.814  1.00  0.00     0.004 C 
ENDBRANCH  18  19
ENDBRANCH  17  18
ENDBRANCH  16  17
ENDBRANCH  15  16
ENDBRANCH  14  15
ENDBRANCH  13  14
ENDBRANCH   2  13
TORSDOF 15
ENDMDL
MODEL 7
REMARK VINA RESULT:    -4.472      9.203     11.431
REMARK INTER + INTRA:         -11.045
REMARK INTER:                  -8.082
REMARK INTRA:                  -2.963
REMARK UNBOUND:                -2.651
REMARK SMILES CCCCCCCCC=CCCCCCCCC(=O)[O-]
REMARK SMILES IDX 10 1 9 2 11 3 12 4 13 5 14 6 15 7 16 8 17 9 18 10 19 11
REMARK SMILES IDX 20 12 8 13 7 14 6 15 5 16 4 17 3 18 2 19 1 20
REMARK H PARENT
REMARK Flexibility Score: inf
ROOT
ATOM      1  C   UNL     1      -0.015 -17.441 -16.138  1.00  0.00    -0.031 C 
ATOM      2  C   UNL     1       0.815 -18.303 -16.755  1.00  0.00    -0.031 C 
ENDROOT
BRANCH   1   3
ATOM      3  C   UNL     1       0.349 -16.030 -15.746  1.00  0.00     0.027 C 
BRANCH   3   4
ATOM      4  C   UNL     1      -0.528 -14.991 -16.461  1.00  0.00     0.004 C 
BRANCH   4   5
ATOM      5  C   UNL     1      -1.714 -15.641 -17.194  1.00  0.00     0.000 C 
BRANCH   5   6
ATOM      6  C   UNL     1      -1.799 -15.217 -18.669  1.00  0.00     0.000 C 
BRANCH   6   7
ATOM      7  C   UNL     1      -2.415 -16.306 -19.564  1.00  0.00     0.000 C 
BRANCH   7   8
ATOM      8  C   UNL     1      -2.020 -17.728 -19.127  1.00  0.00     0.006 C 
BRANCH   8   9
ATOM      9  C   UNL     1      -1.771 -18.698 -20.293  1.00  0.00     0.053 C 
BRANCH   9  10
ATOM     10  C   UNL     1      -2.903 -19.663 -20.469  1.00  0.00     0.041 C 
ATOM     11  O   UNL     1      -4.079 -19.240 -20.616  1.00  0.00    -0.550 OA
ATOM     12  O   UNL     1      -2.654 -21.029 -20.505  1.00  0.00    -0.550 OA
ENDBRANCH   9  10
ENDBRANCH   8   9
ENDBRANCH   7   8
ENDBRANCH   6   7
ENDBRANCH   5   6
ENDBRANCH   4   5
ENDBRANCH   3   4
ENDBRANCH   1   3
BRANCH   2  13
ATOM     13  C   UNL     1       2.203 -17.960 -17.235  1.00  0.00     0.027 C 
BRANCH  13  14
ATOM     14  C   UNL     1       2.318 -18.162 -18.750  1.00  0.00     0.004 C 
BRANCH  14  15
ATOM     15  C   UNL     1       2.782 -16.871 -19.442  1.00  0.00     0.000 C 
BRANCH  15  16
ATOM     16  C   UNL     1       1.807 -15.701 -19.231  1.00  0.00     0.000 C 
BRANCH  16  17
ATOM     17  C   UNL     1       2.493 -14.461 -18.632  1.00  0.00    -0.000 C 
BRANCH  17  18
ATOM     18  C   UNL     1       3.832 -14.797 -17.956  1.00  0.00    -0.000 C 
BRANCH  18  19
ATOM     19  C   UNL     1       3.756 -14.728 -16.422  1.00  0.00    -0.003 C 
ATOM     20  C   UNL     1       3.076 -13.440 -15.965  1.00  0.00     0.004 C 
ENDBRANCH  18  19
ENDBRANCH  17  18
ENDBRANCH  16  17
ENDBRANCH  15  16
ENDBRANCH  14  15
ENDBRANCH  13  14
ENDBRANCH   2  13
TORSDOF 15
ENDMDL
MODEL 8
REMARK VINA RESULT:    -4.454     11.010     12.718
REMARK INTER + INTRA:         -11.011
REMARK INTER:                  -9.220
REMARK INTRA:                  -1.791
REMARK UNBOUND:                -2.651
REMARK SMILES CCCCCCCCC=CCCCCCCCC(=O)[O-]
REMARK SMILES IDX 10 1 9 2 11 3 12 4 13 5 14 6 15 7 16 8 17 9 18 10 19 11
REMARK SMILES IDX 20 12 8 13 7 14 6 15 5 16 4 17 3 18 2 19 1 20
REMARK H PARENT
REMARK Flexibility Score: inf
ROOT
ATOM      1  C   UNL     1       0.200 -10.470 -16.424  1.00  0.00    -0.031 C 
ATOM      2  C   UNL     1      -0.542 -10.236 -17.523  1.00  0.00    -0.031 C 
ENDROOT
BRANCH   1   3
ATOM      3  C   UNL     1       1.217 -11.577 -16.294  1.00  0.00     0.027 C 
BRANCH   3   4
ATOM      4  C   UNL     1       2.627 -11.033 -16.021  1.00  0.00     0.004 C 
BRANCH   4   5
ATOM      5  C   UNL     1       3.648 -11.525 -17.062  1.00  0.00     0.000 C 
BRANCH   5   6
ATOM      6  C   UNL     1       3.264 -12.886 -17.666  1.00  0.00     0.000 C 
BRANCH   6   7
ATOM      7  C   UNL     1       4.299 -13.982 -17.362  1.00  0.00     0.000 C 
BRANCH   7   8
ATOM      8  C   UNL     1       3.765 -15.052 -16.392  1.00  0.00     0.006 C 
BRANCH   8   9
ATOM      9  C   UNL     1       2.297 -15.439 -16.629  1.00  0.00     0.053 C 
BRANCH   9  10
ATOM     10  C   UNL     1       2.173 -16.722 -17.392  1.00  0.00     0.041 C 
ATOM     11  O   UNL     1       1.599 -17.715 -16.873  1.00  0.00    -0.550 OA
ATOM     12  O   UNL     1       2.661 -16.810 -18.689  1.00  0.00    -0.550 OA
ENDBRANCH   9  10
ENDBRANCH   8   9
ENDBRANCH   7   8
ENDBRANCH   6   7
ENDBRANCH   5   6
ENDBRANCH   4   5
ENDBRANCH   3   4
ENDBRANCH   1   3
BRANCH   2  13
ATOM     13  C   UNL     1      -0.403 -10.984 -18.824  1.00  0.00     0.027 C 
BRANCH  13  14
ATOM     14  C   UNL     1      -1.723 -11.666 -19.201  1.00  0.00     0.004 C 
BRANCH  14  15
ATOM     15  C   UNL     1      -2.886 -11.108 -18.366  1.00  0.00     0.000 C 
BRANCH  15  16
ATOM     16  C   UNL     1      -4.154 -10.866 -19.200  1.00  0.00     0.000 C 
BRANCH  16  17
ATOM     17  C   UNL     1      -4.610  -9.396 -19.170  1.00  0.00    -0.000 C 
BRANCH  17  18
ATOM     18  C   UNL     1      -3.604  -8.454 -19.850  1.00  0.00    -0.000 C 
BRANCH  18  19
ATOM     19  C   UNL     1      -3.402  -7.142 -19.075  1.00  0.00    -0.003 C 
ATOM     20  C   UNL     1      -1.941  -6.964 -18.671  1.00  0.00     0.004 C 
ENDBRANCH  18  19
ENDBRANCH  17  18
ENDBRANCH  16  17
ENDBRANCH  15  16
ENDBRANCH  14  15
ENDBRANCH  13  14
ENDBRANCH   2  13
TORSDOF 15
ENDMDL
MODEL 9
REMARK VINA RESULT:    -4.409     11.851     14.554
REMARK INTER + INTRA:         -10.927
REMARK INTER:                  -9.009
REMARK INTRA:                  -1.918
REMARK UNBOUND:                -2.651
REMARK SMILES CCCCCCCCC=CCCCCCCCC(=O)[O-]
REMARK SMILES IDX 10 1 9 2 11 3 12 4 13 5 14 6 15 7 16 8 17 9 18 10 19 11
REMARK SMILES IDX 20 12 8 13 7 14 6 15 5 16 4 17 3 18 2 19 1 20
REMARK H PARENT
REMARK Flexibility Score: inf
ROOT
ATOM      1  C   UNL     1      -0.279 -10.668 -18.085  1.00  0.00    -0.031 C 
ATOM      2  C   UNL     1       0.358 -11.759 -17.619  1.00  0.00    -0.031 C 
ENDROOT
BRANCH   1   3
ATOM      3  C   UNL     1      -0.405 -10.305 -19.545  1.00  0.00     0.027 C 
BRANCH   3   4
ATOM      4  C   UNL     1      -1.818 -10.575 -20.084  1.00  0.00     0.004 C 
BRANCH   4   5
ATOM      5  C   UNL     1      -2.775 -11.059 -18.981  1.00  0.00     0.000 C 
BRANCH   5   6
ATOM      6  C   UNL     1      -4.206 -10.529 -19.169  1.00  0.00     0.000 C 
BRANCH   6   7
ATOM      7  C   UNL     1      -4.251  -9.210 -19.960  1.00  0.00     0.000 C 
BRANCH   7   8
ATOM      8  C   UNL     1      -4.442  -7.980 -19.055  1.00  0.00     0.006 C 
BRANCH   8   9
ATOM      9  C   UNL     1      -3.303  -6.952 -19.141  1.00  0.00     0.053 C 
BRANCH   9  10
ATOM     10  C   UNL     1      -2.167  -7.297 -18.229  1.00  0.00     0.041 C 
ATOM     11  O   UNL     1      -2.375  -7.966 -17.183  1.00  0.00    -0.550 OA
ATOM     12  O   UNL     1      -0.873  -6.909 -18.551  1.00  0.00    -0.550 OA
ENDBRANCH   9  10
ENDBRANCH   8   9
ENDBRANCH   7   8
ENDBRANCH   6   7
ENDBRANCH   5   6
ENDBRANCH   4   5
ENDBRANCH   3   4
ENDBRANCH   1   3
BRANCH   2  13
ATOM     13  C   UNL     1       0.961 -12.834 -18.487  1.00  0.00     0.027 C 
BRANCH  13  14
ATOM     14  C   UNL     1       2.438 -12.538 -18.769  1.00  0.00     0.004 C 
BRANCH  14  15
ATOM     15  C   UNL     1       3.289 -12.744 -17.506  1.00  0.00     0.000 C 
BRANCH  15  16
ATOM     16  C   UNL     1       4.077 -14.064 -17.530  1.00  0.00     0.000 C 
BRANCH  16  17
ATOM     17  C   UNL     1       3.621 -15.045 -16.436  1.00  0.00    -0.000 C 
BRANCH  17  18
ATOM     18  C   UNL     1       2.386 -15.860 -16.853  1.00  0.00    -0.000 C 
BRANCH  18  19
ATOM     19  C   UNL     1       2.491 -16.406 -18.286  1.00  0.00    -0.003 C 
ATOM     20  C   UNL     1       2.245 -17.912 -18.318  1.00  0.00     0.004 C 
ENDBRANCH  18  19
ENDBRANCH  17  18
ENDBRANCH  16  17
ENDBRANCH  15  16
ENDBRANCH  14  15
ENDBRANCH  13  14
ENDBRANCH   2  13
TORSDOF 15
ENDMDL
