MODEL 1
REMARK VINA RESULT:    -4.130      0.000      0.000
REMARK INTER + INTRA:          -6.967
REMARK INTER:                  -6.544
REMARK INTRA:                  -0.423
REMARK UNBOUND:                -0.423
REMARK SMILES CCCCCCCCCCCC(=O)[O-]
REMARK SMILES IDX 7 1 8 2 9 3 10 4 11 5 12 6 13 7 14 8 6 9 5 10 4 11 3 12 2 13
REMARK SMILES IDX 1 14
REMARK H PARENT
REMARK Flexibility Score: inf
ROOT
ATOM      1  C   UNL     1     160.956 158.046 150.284  1.00  0.00     0.000 C 
ENDROOT
BRANCH   1   2
ATOM      2  C   UNL     1     162.136 158.945 149.875  1.00  0.00     0.000 C 
BRANCH   2   3
ATOM      3  C   UNL     1     162.833 159.603 151.080  1.00  0.00     0.000 C 
BRANCH   3   4
ATOM      4  C   UNL     1     164.193 158.986 151.471  1.00  0.00     0.006 C 
BRANCH   4   5
ATOM      5  C   UNL     1     165.299 160.011 151.763  1.00  0.00     0.053 C 
BRANCH   5   6
ATOM      6  C   UNL     1     166.307 159.488 152.739  1.00  0.00     0.041 C 
ATOM      7  O   UNL     1     167.534 159.516 152.459  1.00  0.00    -0.550 OA
ATOM      8  O   UNL     1     165.894 159.002 153.973  1.00  0.00    -0.550 OA
ENDBRANCH   5   6
ENDBRANCH   4   5
ENDBRANCH   3   4
ENDBRANCH   2   3
ENDBRANCH   1   2
BRANCH   1   9
ATOM      9  C   UNL     1     159.600 158.757 150.150  1.00  0.00     0.000 C 
BRANCH   9  10
ATOM     10  C   UNL     1     158.418 157.777 150.115  1.00  0.00    -0.000 C 
BRANCH  10  11
ATOM     11  C   UNL     1     157.295 158.237 151.053  1.00  0.00    -0.000 C 
BRANCH  11  12
ATOM     12  C   UNL     1     157.358 157.492 152.394  1.00  0.00    -0.000 C 
BRANCH  12  13
ATOM     13  C   UNL     1     158.230 156.229 152.327  1.00  0.00    -0.003 C 
ATOM     14  C   UNL     1     157.412 154.940 152.396  1.00  0.00     0.004 C 
ENDBRANCH  12  13
ENDBRANCH  11  12
ENDBRANCH  10  11
ENDBRANCH   9  10
ENDBRANCH   1   9
TORSDOF 10
ENDMDL
MODEL 2
REMARK VINA RESULT:    -4.118     13.239     14.491
REMARK INTER + INTRA:          -6.949
REMARK INTER:                  -5.904
REMARK INTRA:                  -1.045
REMARK UNBOUND:                -0.423
REMARK SMILES CCCCCCCCCCCC(=O)[O-]
REMARK SMILES IDX 7 1 8 2 9 3 10 4 11 5 12 6 13 7 14 8 6 9 5 10 4 11 3 12 2 13
REMARK SMILES IDX 1 14
REMARK H PARENT
REMARK Flexibility Score: inf
ROOT
ATOM      1  C   UNL     1     164.345 155.938 165.446  1.00  0.00     0.000 C 
ENDROOT
BRANCH   1   2
ATOM      2  C   UNL     1     163.345 156.100 166.604  1.00  0.00     0.000 C 
BRANCH   2   3
ATOM      3  C   UNL     1     162.719 157.506 166.662  1.00  0.00     0.000 C 
BRANCH   3   4
ATOM      4  C   UNL     1     162.518 158.193 165.295  1.00  0.00     0.006 C 
BRANCH   4   5
ATOM      5  C   UNL     1     161.756 159.526 165.356  1.00  0.00     0.053 C 
BRANCH   5   6
ATOM      6  C   UNL     1     160.303 159.358 165.035  1.00  0.00     0.041 C 
ATOM      7  O   UNL     1     159.446 160.111 165.566  1.00  0.00    -0.550 OA
ATOM      8  O   UNL     1     159.898 158.392 164.122  1.00  0.00    -0.550 OA
ENDBRANCH   5   6
ENDBRANCH   4   5
ENDBRANCH   3   4
ENDBRANCH   2   3
ENDBRANCH   1   2
BRANCH   1   9
ATOM      9  C   UNL     1     164.920 154.515 165.360  1.00  0.00     0.000 C 
BRANCH   9  10
ATOM     10  C   UNL     1     164.861 153.937 163.938  1.00  0.00    -0.000 C 
BRANCH  10  11
ATOM     11  C   UNL     1     163.482 154.165 163.308  1.00  0.00    -0.000 C 
BRANCH  11  12
ATOM     12  C   UNL     1     162.506 153.046 163.701  1.00  0.00    -0.000 C 
BRANCH  12  13
ATOM     13  C   UNL     1     161.042 153.515 163.705  1.00  0.00    -0.003 C 
ATOM     14  C   UNL     1     160.876 154.936 164.244  1.00  0.00     0.004 C 
ENDBRANCH  12  13
ENDBRANCH  11  12
ENDBRANCH  10  11
ENDBRANCH   9  10
ENDBRANCH   1   9
TORSDOF 10
ENDMDL
MODEL 3
REMARK VINA RESULT:    -3.918      4.441      5.305
REMARK INTER + INTRA:          -6.631
REMARK INTER:                  -5.307
REMARK INTRA:                  -1.324
REMARK UNBOUND:                -0.423
REMARK SMILES CCCCCCCCCCCC(=O)[O-]
REMARK SMILES IDX 7 1 8 2 9 3 10 4 11 5 12 6 13 7 14 8 6 9 5 10 4 11 3 12 2 13
REMARK SMILES IDX 1 14
REMARK H PARENT
REMARK Flexibility Score: inf
ROOT
ATOM      1  C   UNL     1     160.069 156.756 150.456  1.00  0.00     0.000 C 
ENDROOT
BRANCH   1   2
ATOM      2  C   UNL     1     159.389 155.403 150.188  1.00  0.00     0.000 C 
BRANCH   2   3
ATOM      3  C   UNL     1     159.086 154.619 151.479  1.00  0.00     0.000 C 
BRANCH   3   4
ATOM      4  C   UNL     1     159.362 155.382 152.791  1.00  0.00     0.006 C 
BRANCH   4   5
ATOM      5  C   UNL     1     160.566 154.862 153.591  1.00  0.00     0.053 C 
BRANCH   5   6
ATOM      6  C   UNL     1     160.191 154.490 154.993  1.00  0.00     0.041 C 
ATOM      7  O   UNL     1     159.021 154.109 155.256  1.00  0.00    -0.550 OA
ATOM      8  O   UNL     1     161.145 154.530 156.003  1.00  0.00    -0.550 OA
ENDBRANCH   5   6
ENDBRANCH   4   5
ENDBRANCH   3   4
ENDBRANCH   2   3
ENDBRANCH   1   2
BRANCH   1   9
ATOM      9  C   UNL     1     159.277 157.939 149.876  1.00  0.00     0.000 C 
BRANCH   9  10
ATOM     10  C   UNL     1     158.561 158.762 150.958  1.00  0.00    -0.000 C 
BRANCH  10  11
ATOM     11  C   UNL     1     157.039 158.609 150.847  1.00  0.00    -0.000 C 
BRANCH  11  12
ATOM     12  C   UNL     1     156.559 157.344 151.572  1.00  0.00    -0.000 C 
BRANCH  12  13
ATOM     13  C   UNL     1     155.831 156.367 150.635  1.00  0.00    -0.003 C 
ATOM     14  C   UNL     1     155.306 155.129 151.363  1.00  0.00     0.004 C 
ENDBRANCH  12  13
ENDBRANCH  11  12
ENDBRANCH  10  11
ENDBRANCH   9  10
ENDBRANCH   1   9
TORSDOF 10
ENDMDL
MODEL 4
REMARK VINA RESULT:    -3.886      3.196      6.830
REMARK INTER + INTRA:          -6.580
REMARK INTER:                  -5.957
REMARK INTRA:                  -0.624
REMARK UNBOUND:                -0.423
REMARK SMILES CCCCCCCCCCCC(=O)[O-]
REMARK SMILES IDX 7 1 8 2 9 3 10 4 11 5 12 6 13 7 14 8 6 9 5 10 4 11 3 12 2 13
REMARK SMILES IDX 1 14
REMARK H PARENT
REMARK Flexibility Score: inf
ROOT
ATOM      1  C   UNL     1     161.344 158.225 150.304  1.00  0.00     0.000 C 
ENDROOT
BRANCH   1   2
ATOM      2  C   UNL     1     159.897 158.632 150.633  1.00  0.00     0.000 C 
BRANCH   2   3
ATOM      3  C   UNL     1     158.852 157.791 149.875  1.00  0.00     0.000 C 
BRANCH   3   4
ATOM      4  C   UNL     1     158.583 156.390 150.464  1.00  0.00     0.006 C 
BRANCH   4   5
ATOM      5  C   UNL     1     158.546 156.339 151.999  1.00  0.00     0.053 C 
BRANCH   5   6
ATOM      6  C   UNL     1     159.526 155.352 152.553  1.00  0.00     0.041 C 
ATOM      7  O   UNL     1     160.346 154.778 151.790  1.00  0.00    -0.550 OA
ATOM      8  O   UNL     1     159.557 155.092 153.918  1.00  0.00    -0.550 OA
ENDBRANCH   5   6
ENDBRANCH   4   5
ENDBRANCH   3   4
ENDBRANCH   2   3
ENDBRANCH   1   2
BRANCH   1   9
ATOM      9  C   UNL     1     162.352 158.746 151.341  1.00  0.00     0.000 C 
BRANCH   9  10
ATOM     10  C   UNL     1     163.041 160.046 150.898  1.00  0.00    -0.000 C 
BRANCH  10  11
ATOM     11  C   UNL     1     164.512 160.064 151.332  1.00  0.00    -0.000 C 
BRANCH  11  12
ATOM     12  C   UNL     1     164.874 158.785 152.102  1.00  0.00    -0.000 C 
BRANCH  12  13
ATOM     13  C   UNL     1     166.310 158.813 152.648  1.00  0.00    -0.003 C 
ATOM     14  C   UNL     1     166.649 160.125 153.355  1.00  0.00     0.004 C 
ENDBRANCH  12  13
ENDBRANCH  11  12
ENDBRANCH  10  11
ENDBRANCH   9  10
ENDBRANCH   1   9
TORSDOF 10
ENDMDL
MODEL 5
REMARK VINA RESULT:    -3.884     13.229     14.477
REMARK INTER + INTRA:          -6.577
REMARK INTER:                  -5.616
REMARK INTRA:                  -0.961
REMARK UNBOUND:                -0.423
REMARK SMILES CCCCCCCCCCCC(=O)[O-]
REMARK SMILES IDX 7 1 8 2 9 3 10 4 11 5 12 6 13 7 14 8 6 9 5 10 4 11 3 12 2 13
REMARK SMILES IDX 1 14
REMARK H PARENT
REMARK Flexibility Score: inf
ROOT
ATOM      1  C   UNL     1     161.859 155.776 164.677  1.00  0.00     0.000 C 
ENDROOT
BRANCH   1   2
ATOM      2  C   UNL     1     162.128 156.003 166.175  1.00  0.00     0.000 C 
BRANCH   2   3
ATOM      3  C   UNL     1     162.500 157.461 166.502  1.00  0.00     0.000 C 
BRANCH   3   4
ATOM      4  C   UNL     1     162.590 158.406 165.285  1.00  0.00     0.006 C 
BRANCH   4   5
ATOM      5  C   UNL     1     161.762 159.693 165.414  1.00  0.00     0.053 C 
BRANCH   5   6
ATOM      6  C   UNL     1     160.312 159.460 165.122  1.00  0.00     0.041 C 
ATOM      7  O   UNL     1     159.969 158.644 164.227  1.00  0.00    -0.550 OA
ATOM      8  O   UNL     1     159.337 160.118 165.862  1.00  0.00    -0.550 OA
ENDBRANCH   5   6
ENDBRANCH   4   5
ENDBRANCH   3   4
ENDBRANCH   2   3
ENDBRANCH   1   2
BRANCH   1   9
ATOM      9  C   UNL     1     161.046 154.499 164.411  1.00  0.00     0.000 C 
BRANCH   9  10
ATOM     10  C   UNL     1     161.775 153.514 163.484  1.00  0.00    -0.000 C 
BRANCH  10  11
ATOM     11  C   UNL     1     163.180 153.199 164.013  1.00  0.00    -0.000 C 
BRANCH  11  12
ATOM     12  C   UNL     1     164.253 153.573 162.980  1.00  0.00    -0.000 C 
BRANCH  12  13
ATOM     13  C   UNL     1     165.591 153.959 163.632  1.00  0.00    -0.003 C 
ATOM     14  C   UNL     1     165.420 154.925 164.804  1.00  0.00     0.004 C 
ENDBRANCH  12  13
ENDBRANCH  11  12
ENDBRANCH  10  11
ENDBRANCH   9  10
ENDBRANCH   1   9
TORSDOF 10
ENDMDL
MODEL 6
REMARK VINA RESULT:    -3.855     13.295     15.203
REMARK INTER + INTRA:          -6.531
REMARK INTER:                  -4.864
REMARK INTRA:                  -1.667
REMARK UNBOUND:                -0.423
REMARK SMILES CCCCCCCCCCCC(=O)[O-]
REMARK SMILES IDX 7 1 8 2 9 3 10 4 11 5 12 6 13 7 14 8 6 9 5 10 4 11 3 12 2 13
REMARK SMILES IDX 1 14
REMARK H PARENT
REMARK Flexibility Score: inf
ROOT
ATOM      1  C   UNL     1     153.868 159.959 162.766  1.00  0.00     0.000 C 
ENDROOT
BRANCH   1   2
ATOM      2  C   UNL     1     152.948 159.976 163.999  1.00  0.00     0.000 C 
BRANCH   2   3
ATOM      3  C   UNL     1     153.145 158.749 164.909  1.00  0.00     0.000 C 
BRANCH   3   4
ATOM      4  C   UNL     1     153.593 157.460 164.188  1.00  0.00     0.006 C 
BRANCH   4   5
ATOM      5  C   UNL     1     152.487 156.407 164.018  1.00  0.00     0.053 C 
BRANCH   5   6
ATOM      6  C   UNL     1     153.020 155.114 163.481  1.00  0.00     0.041 C 
ATOM      7  O   UNL     1     153.236 154.147 164.256  1.00  0.00    -0.550 OA
ATOM      8  O   UNL     1     153.246 154.967 162.118  1.00  0.00    -0.550 OA
ENDBRANCH   5   6
ENDBRANCH   4   5
ENDBRANCH   3   4
ENDBRANCH   2   3
ENDBRANCH   1   2
BRANCH   1   9
ATOM      9  C   UNL     1     153.083 159.950 161.445  1.00  0.00     0.000 C 
BRANCH   9  10
ATOM     10  C   UNL     1     153.196 158.612 160.697  1.00  0.00    -0.000 C 
BRANCH  10  11
ATOM     11  C   UNL     1     151.842 157.893 160.651  1.00  0.00    -0.000 C 
BRANCH  11  12
ATOM     12  C   UNL     1     150.725 158.787 161.209  1.00  0.00    -0.000 C 
BRANCH  12  13
ATOM     13  C   UNL     1     149.728 158.008 162.083  1.00  0.00    -0.003 C 
ATOM     14  C   UNL     1     149.550 158.626 163.470  1.00  0.00     0.004 C 
ENDBRANCH  12  13
ENDBRANCH  11  12
ENDBRANCH  10  11
ENDBRANCH   9  10
ENDBRANCH   1   9
TORSDOF 10
ENDMDL
MODEL 7
REMARK VINA RESULT:    -3.854      3.746      6.834
REMARK INTER + INTRA:          -6.530
REMARK INTER:                  -5.523
REMARK INTRA:                  -1.007
REMARK UNBOUND:                -0.423
REMARK SMILES CCCCCCCCCCCC(=O)[O-]
REMARK SMILES IDX 7 1 8 2 9 3 10 4 11 5 12 6 13 7 14 8 6 9 5 10 4 11 3 12 2 13
REMARK SMILES IDX 1 14
REMARK H PARENT
REMARK Flexibility Score: inf
ROOT
ATOM      1  C   UNL     1     156.776 157.095 150.310  1.00  0.00     0.000 C 
ENDROOT
BRANCH   1   2
ATOM      2  C   UNL     1     155.876 156.166 151.142  1.00  0.00     0.000 C 
BRANCH   2   3
ATOM      3  C   UNL     1     156.542 154.814 151.459  1.00  0.00     0.000 C 
BRANCH   3   4
ATOM      4  C   UNL     1     157.982 154.901 152.006  1.00  0.00     0.006 C 
BRANCH   4   5
ATOM      5  C   UNL     1     158.097 155.527 153.404  1.00  0.00     0.053 C 
BRANCH   5   6
ATOM      6  C   UNL     1     158.301 154.493 154.468  1.00  0.00     0.041 C 
ATOM      7  O   UNL     1     159.460 154.232 154.883  1.00  0.00    -0.550 OA
ATOM      8  O   UNL     1     157.207 153.843 155.025  1.00  0.00    -0.550 OA
ENDBRANCH   5   6
ENDBRANCH   4   5
ENDBRANCH   3   4
ENDBRANCH   2   3
ENDBRANCH   1   2
BRANCH   1   9
ATOM      9  C   UNL     1     157.122 158.398 151.049  1.00  0.00     0.000 C 
BRANCH   9  10
ATOM     10  C   UNL     1     158.568 158.855 150.801  1.00  0.00    -0.000 C 
BRANCH  10  11
ATOM     11  C   UNL     1     159.371 157.767 150.078  1.00  0.00    -0.000 C 
BRANCH  11  12
ATOM     12  C   UNL     1     160.755 157.587 150.720  1.00  0.00    -0.000 C 
BRANCH  12  13
ATOM     13  C   UNL     1     161.848 158.394 150.001  1.00  0.00    -0.003 C 
ATOM     14  C   UNL     1     163.039 158.714 150.905  1.00  0.00     0.004 C 
ENDBRANCH  12  13
ENDBRANCH  11  12
ENDBRANCH  10  11
ENDBRANCH   9  10
ENDBRANCH   1   9
TORSDOF 10
ENDMDL
MODEL 8
REMARK VINA RESULT:    -3.841     12.669     14.110
REMARK INTER + INTRA:          -6.510
REMARK INTER:                  -5.438
REMARK INTRA:                  -1.072
REMARK UNBOUND:                -0.423
REMARK SMILES CCCCCCCCCCCC(=O)[O-]
REMARK SMILES IDX 7 1 8 2 9 3 10 4 11 5 12 6 13 7 14 8 6 9 5 10 4 11 3 12 2 13
REMARK SMILES IDX 1 14
REMARK H PARENT
REMARK Flexibility Score: inf
ROOT
ATOM      1  C   UNL     1     164.233 155.362 166.215  1.00  0.00     0.000 C 
ENDROOT
BRANCH   1   2
ATOM      2  C   UNL     1     165.379 155.586 165.214  1.00  0.00     0.000 C 
BRANCH   2   3
ATOM      3  C   UNL     1     165.543 154.421 164.220  1.00  0.00     0.000 C 
BRANCH   3   4
ATOM      4  C   UNL     1     164.310 153.505 164.072  1.00  0.00     0.006 C 
BRANCH   4   5
ATOM      5  C   UNL     1     163.519 153.705 162.770  1.00  0.00     0.053 C 
BRANCH   5   6
ATOM      6  C   UNL     1     162.247 154.461 162.997  1.00  0.00     0.041 C 
ATOM      7  O   UNL     1     161.575 154.273 164.045  1.00  0.00    -0.550 OA
ATOM      8  O   UNL     1     161.820 155.402 162.067  1.00  0.00    -0.550 OA
ENDBRANCH   5   6
ENDBRANCH   4   5
ENDBRANCH   3   4
ENDBRANCH   2   3
ENDBRANCH   1   2
BRANCH   1   9
ATOM      9  C   UNL     1     163.226 156.523 166.227  1.00  0.00     0.000 C 
BRANCH   9  10
ATOM     10  C   UNL     1     163.284 157.372 164.948  1.00  0.00    -0.000 C 
BRANCH  10  11
ATOM     11  C   UNL     1     161.902 157.942 164.604  1.00  0.00    -0.000 C 
BRANCH  11  12
ATOM     12  C   UNL     1     161.622 159.224 165.401  1.00  0.00    -0.000 C 
BRANCH  12  13
ATOM     13  C   UNL     1     160.177 159.721 165.230  1.00  0.00    -0.003 C 
ATOM     14  C   UNL     1     159.340 158.808 164.335  1.00  0.00     0.004 C 
ENDBRANCH  12  13
ENDBRANCH  11  12
ENDBRANCH  10  11
ENDBRANCH   9  10
ENDBRANCH   1   9
TORSDOF 10
ENDMDL
MODEL 9
REMARK VINA RESULT:    -3.756     13.098     14.754
REMARK INTER + INTRA:          -6.374
REMARK INTER:                  -4.778
REMARK INTRA:                  -1.596
REMARK UNBOUND:                -0.423
REMARK SMILES CCCCCCCCCCCC(=O)[O-]
REMARK SMILES IDX 7 1 8 2 9 3 10 4 11 5 12 6 13 7 14 8 6 9 5 10 4 11 3 12 2 13
REMARK SMILES IDX 1 14
REMARK H PARENT
REMARK Flexibility Score: inf
ROOT
ATOM      1  C   UNL     1     150.935 157.746 160.702  1.00  0.00     0.000 C 
ENDROOT
BRANCH   1   2
ATOM      2  C   UNL     1     150.515 158.143 162.127  1.00  0.00     0.000 C 
BRANCH   2   3
ATOM      3  C   UNL     1     150.937 157.108 163.186  1.00  0.00     0.000 C 
BRANCH   3   4
ATOM      4  C   UNL     1     152.110 156.191 162.779  1.00  0.00     0.006 C 
BRANCH   4   5
ATOM      5  C   UNL     1     153.305 156.216 163.743  1.00  0.00     0.053 C 
BRANCH   5   6
ATOM      6  C   UNL     1     154.581 155.819 163.067  1.00  0.00     0.041 C 
ATOM      7  O   UNL     1     155.601 155.544 163.750  1.00  0.00    -0.550 OA
ATOM      8  O   UNL     1     154.633 155.718 161.682  1.00  0.00    -0.550 OA
ENDBRANCH   5   6
ENDBRANCH   4   5
ENDBRANCH   3   4
ENDBRANCH   2   3
ENDBRANCH   1   2
BRANCH   1   9
ATOM      9  C   UNL     1     151.910 158.754 160.072  1.00  0.00     0.000 C 
BRANCH   9  10
ATOM     10  C   UNL     1     152.563 159.676 161.113  1.00  0.00    -0.000 C 
BRANCH  10  11
ATOM     11  C   UNL     1     153.948 159.155 161.517  1.00  0.00    -0.000 C 
BRANCH  11  12
ATOM     12  C   UNL     1     154.406 159.780 162.843  1.00  0.00    -0.000 C 
BRANCH  12  13
ATOM     13  C   UNL     1     153.229 160.120 163.772  1.00  0.00    -0.003 C 
ATOM     14  C   UNL     1     153.479 159.698 165.220  1.00  0.00     0.004 C 
ENDBRANCH  12  13
ENDBRANCH  11  12
ENDBRANCH  10  11
ENDBRANCH   9  10
ENDBRANCH   1   9
TORSDOF 10
ENDMDL
