MODEL 1
REMARK VINA RESULT:    -5.205      0.000      0.000
REMARK INTER + INTRA:          -6.527
REMARK INTER:                  -6.422
REMARK INTRA:                  -0.105
REMARK UNBOUND:                -0.105
REMARK SMILES Oc1cc(O)c2cc(O)c(-c3cc(O)c(O)c(O)c3)[o+]c2c1
REMARK SMILES IDX 10 1 20 2 21 3 22 4 2 5 3 6 4 7 6 8 7 9 8 10 11 11 12 12
REMARK SMILES IDX 13 13 19 14 15 15 17 16 14 17 16 19 18 21 9 23 1 25 5 27
REMARK H PARENT 14 18 16 20 18 22 9 24 1 26 5 28
REMARK Flexibility Score: inf
ROOT
ATOM      1  C   UNL     1      34.941  12.507  -1.254  1.00  0.00     0.402 A 
ATOM      2  O   UNL     1      33.857  11.741  -1.166  1.00  0.00    -0.202 OA
ATOM      3  C   UNL     1      33.891  10.468  -0.785  1.00  0.00     0.368 A 
ATOM      4  C   UNL     1      32.698   9.745  -0.721  1.00  0.00     0.162 A 
ATOM      5  C   UNL     1      32.703   8.407  -0.322  1.00  0.00     0.128 A 
ATOM      6  C   UNL     1      33.911   7.788   0.018  1.00  0.00     0.093 A 
ATOM      7  C   UNL     1      35.121   8.491  -0.038  1.00  0.00     0.136 A 
ATOM      8  C   UNL     1      35.119   9.850  -0.446  1.00  0.00     0.125 A 
ATOM      9  C   UNL     1      36.284  10.628  -0.545  1.00  0.00     0.078 A 
ATOM     10  C   UNL     1      36.204  11.961  -0.959  1.00  0.00     0.223 A 
ENDROOT
BRANCH   1  11
ATOM     11  C   UNL     1      34.772  13.914  -1.681  1.00  0.00     0.091 A 
ATOM     12  C   UNL     1      33.993  14.204  -2.811  1.00  0.00     0.068 A 
ATOM     13  C   UNL     1      33.794  15.524  -3.232  1.00  0.00     0.162 A 
ATOM     14  C   UNL     1      35.327  14.973  -0.946  1.00  0.00     0.068 A 
ATOM     15  C   UNL     1      34.377  16.585  -2.499  1.00  0.00     0.200 A 
ATOM     16  C   UNL     1      35.136  16.299  -1.356  1.00  0.00     0.162 A 
BRANCH  13  17
ATOM     17  O   UNL     1      33.016  15.731  -4.373  1.00  0.00    -0.504 OA
ATOM     18  H   UNL     1      32.853  16.637  -4.789  1.00  0.00     0.293 HD
ENDBRANCH  13  17
BRANCH  15  19
ATOM     19  O   UNL     1      34.224  17.924  -2.867  1.00  0.00    -0.502 OA
ATOM     20  H   UNL     1      33.334  18.357  -3.069  1.00  0.00     0.293 HD
ENDBRANCH  15  19
BRANCH  16  21
ATOM     21  O   UNL     1      35.698  17.345  -0.625  1.00  0.00    -0.504 OA
ATOM     22  H   UNL     1      36.464  17.190   0.020  1.00  0.00     0.293 HD
ENDBRANCH  16  21
ENDBRANCH   1  11
BRANCH  10  23
ATOM     23  O   UNL     1      37.366  12.719  -1.105  1.00  0.00    -0.500 OA
ATOM     24  H   UNL     1      37.379  13.714  -0.915  1.00  0.00     0.294 HD
ENDBRANCH  10  23
BRANCH   5  25
ATOM     25  O   UNL     1      31.503   7.703  -0.264  1.00  0.00    -0.507 OA
ATOM     26  H   UNL     1      30.617   8.176  -0.133  1.00  0.00     0.293 HD
ENDBRANCH   5  25
BRANCH   7  27
ATOM     27  O   UNL     1      36.283   7.800   0.320  1.00  0.00    -0.507 OA
ATOM     28  H   UNL     1      36.299   6.971   0.895  1.00  0.00     0.293 HD
ENDBRANCH   7  27
TORSDOF 7
ENDMDL
MODEL 2
REMARK VINA RESULT:    -5.084      1.608      7.456
REMARK INTER + INTRA:          -6.378
REMARK INTER:                  -6.104
REMARK INTRA:                  -0.273
REMARK UNBOUND:                -0.105
REMARK SMILES Oc1cc(O)c2cc(O)c(-c3cc(O)c(O)c(O)c3)[o+]c2c1
REMARK SMILES IDX 10 1 20 2 21 3 22 4 2 5 3 6 4 7 6 8 7 9 8 10 11 11 12 12
REMARK SMILES IDX 13 13 19 14 15 15 17 16 14 17 16 19 18 21 9 23 1 25 5 27
REMARK H PARENT 14 18 16 20 18 22 9 24 1 26 5 28
REMARK Flexibility Score: inf
ROOT
ATOM      1  C   UNL     1      34.210  11.430  -1.331  1.00  0.00     0.402 A 
ATOM      2  O   UNL     1      35.096  12.337  -0.931  1.00  0.00    -0.202 OA
ATOM      3  C   UNL     1      35.101  13.595  -1.363  1.00  0.00     0.368 A 
ATOM      4  C   UNL     1      36.072  14.476  -0.882  1.00  0.00     0.162 A 
ATOM      5  C   UNL     1      36.099  15.802  -1.316  1.00  0.00     0.128 A 
ATOM      6  C   UNL     1      35.147  16.252  -2.238  1.00  0.00     0.093 A 
ATOM      7  C   UNL     1      34.163  15.388  -2.736  1.00  0.00     0.136 A 
ATOM      8  C   UNL     1      34.135  14.039  -2.298  1.00  0.00     0.125 A 
ATOM      9  C   UNL     1      33.195  13.099  -2.753  1.00  0.00     0.078 A 
ATOM     10  C   UNL     1      33.232  11.785  -2.279  1.00  0.00     0.223 A 
ENDROOT
BRANCH   1  11
ATOM     11  C   UNL     1      34.303  10.064  -0.769  1.00  0.00     0.091 A 
ATOM     12  C   UNL     1      33.920   9.838   0.562  1.00  0.00     0.068 A 
ATOM     13  C   UNL     1      33.975   8.556   1.121  1.00  0.00     0.162 A 
ATOM     14  C   UNL     1      34.712   8.976  -1.555  1.00  0.00     0.068 A 
ATOM     15  C   UNL     1      34.411   7.467   0.328  1.00  0.00     0.200 A 
ATOM     16  C   UNL     1      34.771   7.687  -1.009  1.00  0.00     0.162 A 
BRANCH  13  17
ATOM     17  O   UNL     1      33.589   8.411   2.455  1.00  0.00    -0.504 OA
ATOM     18  H   UNL     1      32.651   8.181   2.751  1.00  0.00     0.293 HD
ENDBRANCH  13  17
BRANCH  15  19
ATOM     19  O   UNL     1      34.496   6.164   0.825  1.00  0.00    -0.502 OA
ATOM     20  H   UNL     1      34.559   5.340   0.244  1.00  0.00     0.293 HD
ENDBRANCH  15  19
BRANCH  16  21
ATOM     21  O   UNL     1      35.187   6.613  -1.794  1.00  0.00    -0.504 OA
ATOM     22  H   UNL     1      35.082   6.620  -2.802  1.00  0.00     0.293 HD
ENDBRANCH  16  21
ENDBRANCH   1  11
BRANCH  10  23
ATOM     23  O   UNL     1      32.330  10.839  -2.768  1.00  0.00    -0.500 OA
ATOM     24  H   UNL     1      32.208  10.684  -3.761  1.00  0.00     0.294 HD
ENDBRANCH  10  23
BRANCH   5  25
ATOM     25  O   UNL     1      37.075  16.666  -0.825  1.00  0.00    -0.507 OA
ATOM     26  H   UNL     1      37.651  16.416  -0.030  1.00  0.00     0.293 HD
ENDBRANCH   5  25
BRANCH   7  27
ATOM     27  O   UNL     1      33.248  15.915  -3.652  1.00  0.00    -0.507 OA
ATOM     28  H   UNL     1      32.516  16.568  -3.414  1.00  0.00     0.293 HD
ENDBRANCH   7  27
TORSDOF 7
ENDMDL
MODEL 3
REMARK VINA RESULT:    -5.082      1.950      6.932
REMARK INTER + INTRA:          -6.375
REMARK INTER:                  -5.997
REMARK INTRA:                  -0.378
REMARK UNBOUND:                -0.105
REMARK SMILES Oc1cc(O)c2cc(O)c(-c3cc(O)c(O)c(O)c3)[o+]c2c1
REMARK SMILES IDX 10 1 20 2 21 3 22 4 2 5 3 6 4 7 6 8 7 9 8 10 11 11 12 12
REMARK SMILES IDX 13 13 19 14 15 15 17 16 14 17 16 19 18 21 9 23 1 25 5 27
REMARK H PARENT 14 18 16 20 18 22 9 24 1 26 5 28
REMARK Flexibility Score: inf
ROOT
ATOM      1  C   UNL     1      35.594  11.757  -1.398  1.00  0.00     0.402 A 
ATOM      2  O   UNL     1      35.199  12.998  -1.127  1.00  0.00    -0.202 OA
ATOM      3  C   UNL     1      35.975  14.065  -1.294  1.00  0.00     0.368 A 
ATOM      4  C   UNL     1      35.469  15.329  -0.985  1.00  0.00     0.162 A 
ATOM      5  C   UNL     1      36.260  16.467  -1.152  1.00  0.00     0.128 A 
ATOM      6  C   UNL     1      37.567  16.340  -1.634  1.00  0.00     0.093 A 
ATOM      7  C   UNL     1      38.099  15.083  -1.952  1.00  0.00     0.136 A 
ATOM      8  C   UNL     1      37.297  13.925  -1.780  1.00  0.00     0.125 A 
ATOM      9  C   UNL     1      37.751  12.625  -2.059  1.00  0.00     0.078 A 
ATOM     10  C   UNL     1      36.904  11.530  -1.861  1.00  0.00     0.223 A 
ENDROOT
BRANCH   1  11
ATOM     11  C   UNL     1      34.633  10.653  -1.180  1.00  0.00     0.091 A 
ATOM     12  C   UNL     1      34.423  10.166   0.118  1.00  0.00     0.068 A 
ATOM     13  C   UNL     1      33.507   9.137   0.364  1.00  0.00     0.162 A 
ATOM     14  C   UNL     1      33.882  10.118  -2.239  1.00  0.00     0.068 A 
ATOM     15  C   UNL     1      32.770   8.586  -0.712  1.00  0.00     0.200 A 
ATOM     16  C   UNL     1      32.961   9.088  -2.007  1.00  0.00     0.162 A 
BRANCH  13  17
ATOM     17  O   UNL     1      33.362   8.697   1.681  1.00  0.00    -0.504 OA
ATOM     18  H   UNL     1      32.654   8.044   1.985  1.00  0.00     0.293 HD
ENDBRANCH  13  17
BRANCH  15  19
ATOM     19  O   UNL     1      31.845   7.554  -0.538  1.00  0.00    -0.502 OA
ATOM     20  H   UNL     1      31.953   6.627  -0.923  1.00  0.00     0.293 HD
ENDBRANCH  15  19
BRANCH  16  21
ATOM     21  O   UNL     1      32.225   8.557  -3.065  1.00  0.00    -0.504 OA
ATOM     22  H   UNL     1      32.601   8.515  -4.005  1.00  0.00     0.293 HD
ENDBRANCH  16  21
ENDBRANCH   1  11
BRANCH  10  23
ATOM     23  O   UNL     1      37.370  10.236  -2.090  1.00  0.00    -0.500 OA
ATOM     24  H   UNL     1      36.940   9.630  -2.780  1.00  0.00     0.294 HD
ENDBRANCH  10  23
BRANCH   5  25
ATOM     25  O   UNL     1      35.737  17.719  -0.838  1.00  0.00    -0.507 OA
ATOM     26  H   UNL     1      35.256  17.887   0.037  1.00  0.00     0.293 HD
ENDBRANCH   5  25
BRANCH   7  27
ATOM     27  O   UNL     1      39.412  15.043  -2.430  1.00  0.00    -0.507 OA
ATOM     28  H   UNL     1      39.661  14.988  -3.407  1.00  0.00     0.293 HD
ENDBRANCH   7  27
TORSDOF 7
ENDMDL
MODEL 4
REMARK VINA RESULT:    -5.038      1.519      2.693
REMARK INTER + INTRA:          -6.321
REMARK INTER:                  -5.941
REMARK INTRA:                  -0.380
REMARK UNBOUND:                -0.105
REMARK SMILES Oc1cc(O)c2cc(O)c(-c3cc(O)c(O)c(O)c3)[o+]c2c1
REMARK SMILES IDX 10 1 20 2 21 3 22 4 2 5 3 6 4 7 6 8 7 9 8 10 11 11 12 12
REMARK SMILES IDX 13 13 19 14 15 15 17 16 14 17 16 19 18 21 9 23 1 25 5 27
REMARK H PARENT 14 18 16 20 18 22 9 24 1 26 5 28
REMARK Flexibility Score: inf
ROOT
ATOM      1  C   UNL     1      34.490  12.528  -1.453  1.00  0.00     0.402 A 
ATOM      2  O   UNL     1      35.288  11.673  -0.819  1.00  0.00    -0.202 OA
ATOM      3  C   UNL     1      34.877  10.495  -0.358  1.00  0.00     0.368 A 
ATOM      4  C   UNL     1      35.791   9.664   0.294  1.00  0.00     0.162 A 
ATOM      5  C   UNL     1      35.389   8.421   0.785  1.00  0.00     0.128 A 
ATOM      6  C   UNL     1      34.063   8.005   0.623  1.00  0.00     0.093 A 
ATOM      7  C   UNL     1      33.127   8.820  -0.027  1.00  0.00     0.136 A 
ATOM      8  C   UNL     1      33.533  10.085  -0.525  1.00  0.00     0.125 A 
ATOM      9  C   UNL     1      32.661  10.974  -1.177  1.00  0.00     0.078 A 
ATOM     10  C   UNL     1      33.132  12.206  -1.638  1.00  0.00     0.223 A 
ENDROOT
BRANCH   1  11
ATOM     11  C   UNL     1      35.069  13.805  -1.929  1.00  0.00     0.091 A 
ATOM     12  C   UNL     1      35.560  13.896  -3.239  1.00  0.00     0.068 A 
ATOM     13  C   UNL     1      36.094  15.093  -3.729  1.00  0.00     0.162 A 
ATOM     14  C   UNL     1      35.085  14.948  -1.114  1.00  0.00     0.068 A 
ATOM     15  C   UNL     1      36.130  16.235  -2.894  1.00  0.00     0.200 A 
ATOM     16  C   UNL     1      35.617  16.153  -1.591  1.00  0.00     0.162 A 
BRANCH  13  17
ATOM     17  O   UNL     1      36.575  15.101  -5.040  1.00  0.00    -0.504 OA
ATOM     18  H   UNL     1      37.548  14.988  -5.287  1.00  0.00     0.293 HD
ENDBRANCH  13  17
BRANCH  15  19
ATOM     19  O   UNL     1      36.655  17.458  -3.317  1.00  0.00    -0.502 OA
ATOM     20  H   UNL     1      37.348  17.984  -2.804  1.00  0.00     0.293 HD
ENDBRANCH  15  19
BRANCH  16  21
ATOM     21  O   UNL     1      35.637  17.282  -0.773  1.00  0.00    -0.504 OA
ATOM     22  H   UNL     1      35.656  17.205   0.237  1.00  0.00     0.293 HD
ENDBRANCH  16  21
ENDBRANCH   1  11
BRANCH  10  23
ATOM     23  O   UNL     1      32.257  13.109  -2.240  1.00  0.00    -0.500 OA
ATOM     24  H   UNL     1      31.501  13.543  -1.724  1.00  0.00     0.294 HD
ENDBRANCH  10  23
BRANCH   5  25
ATOM     25  O   UNL     1      36.315   7.607   1.433  1.00  0.00    -0.507 OA
ATOM     26  H   UNL     1      37.298   7.847   1.468  1.00  0.00     0.293 HD
ENDBRANCH   5  25
BRANCH   7  27
ATOM     27  O   UNL     1      31.823   8.331  -0.150  1.00  0.00    -0.507 OA
ATOM     28  H   UNL     1      30.997   8.910  -0.175  1.00  0.00     0.293 HD
ENDBRANCH   7  27
TORSDOF 7
ENDMDL
MODEL 5
REMARK VINA RESULT:    -5.036      1.449      3.100
REMARK INTER + INTRA:          -6.319
REMARK INTER:                  -5.934
REMARK INTRA:                  -0.385
REMARK UNBOUND:                -0.105
REMARK SMILES Oc1cc(O)c2cc(O)c(-c3cc(O)c(O)c(O)c3)[o+]c2c1
REMARK SMILES IDX 10 1 20 2 21 3 22 4 2 5 3 6 4 7 6 8 7 9 8 10 11 11 12 12
REMARK SMILES IDX 13 13 19 14 15 15 17 16 14 17 16 19 18 21 9 23 1 25 5 27
REMARK H PARENT 14 18 16 20 18 22 9 24 1 26 5 28
REMARK Flexibility Score: inf
ROOT
ATOM      1  C   UNL     1      34.170  12.453  -1.577  1.00  0.00     0.402 A 
ATOM      2  O   UNL     1      34.978  11.640  -0.902  1.00  0.00    -0.202 OA
ATOM      3  C   UNL     1      34.591  10.464  -0.416  1.00  0.00     0.368 A 
ATOM      4  C   UNL     1      35.514   9.678   0.278  1.00  0.00     0.162 A 
ATOM      5  C   UNL     1      35.137   8.439   0.797  1.00  0.00     0.128 A 
ATOM      6  C   UNL     1      33.827   7.981   0.621  1.00  0.00     0.093 A 
ATOM      7  C   UNL     1      32.882   8.750  -0.071  1.00  0.00     0.136 A 
ATOM      8  C   UNL     1      33.262  10.012  -0.597  1.00  0.00     0.125 A 
ATOM      9  C   UNL     1      32.380  10.856  -1.292  1.00  0.00     0.078 A 
ATOM     10  C   UNL     1      32.826  12.088  -1.779  1.00  0.00     0.223 A 
ENDROOT
BRANCH   1  11
ATOM     11  C   UNL     1      34.722  13.732  -2.078  1.00  0.00     0.091 A 
ATOM     12  C   UNL     1      34.807  14.833  -1.213  1.00  0.00     0.068 A 
ATOM     13  C   UNL     1      35.343  16.052  -1.645  1.00  0.00     0.162 A 
ATOM     14  C   UNL     1      35.218  13.853  -3.385  1.00  0.00     0.068 A 
ATOM     15  C   UNL     1      35.819  16.173  -2.973  1.00  0.00     0.200 A 
ATOM     16  C   UNL     1      35.757  15.066  -3.831  1.00  0.00     0.162 A 
BRANCH  13  17
ATOM     17  O   UNL     1      35.382  17.106  -0.730  1.00  0.00    -0.504 OA
ATOM     18  H   UNL     1      35.208  18.071  -0.971  1.00  0.00     0.293 HD
ENDBRANCH  13  17
BRANCH  15  19
ATOM     19  O   UNL     1      36.359  17.361  -3.471  1.00  0.00    -0.502 OA
ATOM     20  H   UNL     1      36.369  17.612  -4.449  1.00  0.00     0.293 HD
ENDBRANCH  15  19
BRANCH  16  21
ATOM     21  O   UNL     1      36.240  15.180  -5.135  1.00  0.00    -0.504 OA
ATOM     22  H   UNL     1      36.905  15.899  -5.393  1.00  0.00     0.293 HD
ENDBRANCH  16  21
ENDBRANCH   1  11
BRANCH  10  23
ATOM     23  O   UNL     1      31.938  12.948  -2.425  1.00  0.00    -0.500 OA
ATOM     24  H   UNL     1      31.831  13.914  -2.141  1.00  0.00     0.294 HD
ENDBRANCH  10  23
BRANCH   5  25
ATOM     25  O   UNL     1      36.072   7.670   1.486  1.00  0.00    -0.507 OA
ATOM     26  H   UNL     1      36.899   7.308   1.028  1.00  0.00     0.293 HD
ENDBRANCH   5  25
BRANCH   7  27
ATOM     27  O   UNL     1      31.595   8.220  -0.206  1.00  0.00    -0.507 OA
ATOM     28  H   UNL     1      30.782   8.569   0.280  1.00  0.00     0.293 HD
ENDBRANCH   7  27
TORSDOF 7
ENDMDL
MODEL 6
REMARK VINA RESULT:    -5.009      2.274      7.919
REMARK INTER + INTRA:          -6.285
REMARK INTER:                  -5.906
REMARK INTRA:                  -0.380
REMARK UNBOUND:                -0.105
REMARK SMILES Oc1cc(O)c2cc(O)c(-c3cc(O)c(O)c(O)c3)[o+]c2c1
REMARK SMILES IDX 10 1 20 2 21 3 22 4 2 5 3 6 4 7 6 8 7 9 8 10 11 11 12 12
REMARK SMILES IDX 13 13 19 14 15 15 17 16 14 17 16 19 18 21 9 23 1 25 5 27
REMARK H PARENT 14 18 16 20 18 22 9 24 1 26 5 28
REMARK Flexibility Score: inf
ROOT
ATOM      1  C   UNL     1      34.298   9.578   0.139  1.00  0.00     0.402 A 
ATOM      2  O   UNL     1      35.230  10.478  -0.162  1.00  0.00    -0.202 OA
ATOM      3  C   UNL     1      34.997  11.543  -0.923  1.00  0.00     0.368 A 
ATOM      4  C   UNL     1      36.041  12.436  -1.181  1.00  0.00     0.162 A 
ATOM      5  C   UNL     1      35.826  13.563  -1.975  1.00  0.00     0.128 A 
ATOM      6  C   UNL     1      34.557  13.801  -2.515  1.00  0.00     0.093 A 
ATOM      7  C   UNL     1      33.494  12.922  -2.272  1.00  0.00     0.136 A 
ATOM      8  C   UNL     1      33.711  11.773  -1.467  1.00  0.00     0.125 A 
ATOM      9  C   UNL     1      32.709  10.831  -1.182  1.00  0.00     0.078 A 
ATOM     10  C   UNL     1      32.998   9.720  -0.383  1.00  0.00     0.223 A 
ENDROOT
BRANCH   1  11
ATOM     11  C   UNL     1      34.677   8.440   1.006  1.00  0.00     0.091 A 
ATOM     12  C   UNL     1      34.513   8.545   2.395  1.00  0.00     0.068 A 
ATOM     13  C   UNL     1      34.842   7.482   3.244  1.00  0.00     0.162 A 
ATOM     14  C   UNL     1      35.145   7.233   0.465  1.00  0.00     0.068 A 
ATOM     15  C   UNL     1      35.336   6.276   2.692  1.00  0.00     0.200 A 
ATOM     16  C   UNL     1      35.478   6.160   1.302  1.00  0.00     0.162 A 
BRANCH  13  17
ATOM     17  O   UNL     1      34.663   7.667   4.616  1.00  0.00    -0.504 OA
ATOM     18  H   UNL     1      34.213   8.474   5.025  1.00  0.00     0.293 HD
ENDBRANCH  13  17
BRANCH  15  19
ATOM     19  O   UNL     1      35.689   5.179   3.482  1.00  0.00    -0.502 OA
ATOM     20  H   UNL     1      35.090   4.772   4.186  1.00  0.00     0.293 HD
ENDBRANCH  15  19
BRANCH  16  21
ATOM     21  O   UNL     1      35.950   4.966   0.757  1.00  0.00    -0.504 OA
ATOM     22  H   UNL     1      35.402   4.115   0.789  1.00  0.00     0.293 HD
ENDBRANCH  16  21
ENDBRANCH   1  11
BRANCH  10  23
ATOM     23  O   UNL     1      32.018   8.759  -0.141  1.00  0.00    -0.500 OA
ATOM     24  H   UNL     1      31.105   8.808  -0.577  1.00  0.00     0.294 HD
ENDBRANCH  10  23
BRANCH   5  25
ATOM     25  O   UNL     1      36.879  14.441  -2.221  1.00  0.00    -0.507 OA
ATOM     26  H   UNL     1      36.839  15.410  -1.930  1.00  0.00     0.293 HD
ENDBRANCH   5  25
BRANCH   7  27
ATOM     27  O   UNL     1      32.258  13.233  -2.846  1.00  0.00    -0.507 OA
ATOM     28  H   UNL     1      31.577  12.547  -3.140  1.00  0.00     0.293 HD
ENDBRANCH   7  27
TORSDOF 7
ENDMDL
MODEL 7
REMARK VINA RESULT:    -4.987      5.101      7.945
REMARK INTER + INTRA:          -6.258
REMARK INTER:                  -5.953
REMARK INTRA:                  -0.305
REMARK UNBOUND:                -0.105
REMARK SMILES Oc1cc(O)c2cc(O)c(-c3cc(O)c(O)c(O)c3)[o+]c2c1
REMARK SMILES IDX 10 1 20 2 21 3 22 4 2 5 3 6 4 7 6 8 7 9 8 10 11 11 12 12
REMARK SMILES IDX 13 13 19 14 15 15 17 16 14 17 16 19 18 21 9 23 1 25 5 27
REMARK H PARENT 14 18 16 20 18 22 9 24 1 26 5 28
REMARK Flexibility Score: inf
ROOT
ATOM      1  C   UNL     1      35.276   6.471   3.088  1.00  0.00     0.402 A 
ATOM      2  O   UNL     1      34.702   6.596   4.282  1.00  0.00    -0.202 OA
ATOM      3  C   UNL     1      34.618   5.601   5.160  1.00  0.00     0.368 A 
ATOM      4  C   UNL     1      33.998   5.831   6.391  1.00  0.00     0.162 A 
ATOM      5  C   UNL     1      33.897   4.806   7.332  1.00  0.00     0.128 A 
ATOM      6  C   UNL     1      34.421   3.541   7.042  1.00  0.00     0.093 A 
ATOM      7  C   UNL     1      35.047   3.285   5.816  1.00  0.00     0.136 A 
ATOM      8  C   UNL     1      35.148   4.325   4.855  1.00  0.00     0.125 A 
ATOM      9  C   UNL     1      35.746   4.156   3.595  1.00  0.00     0.078 A 
ATOM     10  C   UNL     1      35.806   5.226   2.699  1.00  0.00     0.223 A 
ENDROOT
BRANCH   1  11
ATOM     11  C   UNL     1      35.317   7.657   2.203  1.00  0.00     0.091 A 
ATOM     12  C   UNL     1      36.539   8.306   1.974  1.00  0.00     0.068 A 
ATOM     13  C   UNL     1      36.619   9.417   1.127  1.00  0.00     0.162 A 
ATOM     14  C   UNL     1      34.168   8.113   1.539  1.00  0.00     0.068 A 
ATOM     15  C   UNL     1      35.451   9.886   0.479  1.00  0.00     0.200 A 
ATOM     16  C   UNL     1      34.233   9.223   0.687  1.00  0.00     0.162 A 
BRANCH  13  17
ATOM     17  O   UNL     1      37.868  10.018   0.959  1.00  0.00    -0.504 OA
ATOM     18  H   UNL     1      38.185  10.434   0.095  1.00  0.00     0.293 HD
ENDBRANCH  13  17
BRANCH  15  19
ATOM     19  O   UNL     1      35.459  10.992  -0.374  1.00  0.00    -0.502 OA
ATOM     20  H   UNL     1      34.678  11.622  -0.491  1.00  0.00     0.293 HD
ENDBRANCH  15  19
BRANCH  16  21
ATOM     21  O   UNL     1      33.085   9.675   0.037  1.00  0.00    -0.504 OA
ATOM     22  H   UNL     1      32.996   9.636  -0.971  1.00  0.00     0.293 HD
ENDBRANCH  16  21
ENDBRANCH   1  11
BRANCH  10  23
ATOM     23  O   UNL     1      36.355   5.046   1.429  1.00  0.00    -0.500 OA
ATOM     24  H   UNL     1      37.349   5.144   1.260  1.00  0.00     0.294 HD
ENDBRANCH  10  23
BRANCH   5  25
ATOM     25  O   UNL     1      33.276   5.055   8.554  1.00  0.00    -0.507 OA
ATOM     26  H   UNL     1      33.561   4.577   9.400  1.00  0.00     0.293 HD
ENDBRANCH   5  25
BRANCH   7  27
ATOM     27  O   UNL     1      35.546   1.996   5.605  1.00  0.00    -0.507 OA
ATOM     28  H   UNL     1      35.169   1.162   6.032  1.00  0.00     0.293 HD
ENDBRANCH   7  27
TORSDOF 7
ENDMDL
MODEL 8
REMARK VINA RESULT:    -4.981      2.295      7.792
REMARK INTER + INTRA:          -6.251
REMARK INTER:                  -5.867
REMARK INTRA:                  -0.383
REMARK UNBOUND:                -0.105
REMARK SMILES Oc1cc(O)c2cc(O)c(-c3cc(O)c(O)c(O)c3)[o+]c2c1
REMARK SMILES IDX 10 1 20 2 21 3 22 4 2 5 3 6 4 7 6 8 7 9 8 10 11 11 12 12
REMARK SMILES IDX 13 13 19 14 15 15 17 16 14 17 16 19 18 21 9 23 1 25 5 27
REMARK H PARENT 14 18 16 20 18 22 9 24 1 26 5 28
REMARK Flexibility Score: inf
ROOT
ATOM      1  C   UNL     1      34.281   9.561   0.169  1.00  0.00     0.402 A 
ATOM      2  O   UNL     1      35.246  10.425  -0.133  1.00  0.00    -0.202 OA
ATOM      3  C   UNL     1      35.061  11.481  -0.919  1.00  0.00     0.368 A 
ATOM      4  C   UNL     1      36.137  12.334  -1.176  1.00  0.00     0.162 A 
ATOM      5  C   UNL     1      35.972  13.452  -1.995  1.00  0.00     0.128 A 
ATOM      6  C   UNL     1      34.720  13.721  -2.560  1.00  0.00     0.093 A 
ATOM      7  C   UNL     1      33.625  12.881  -2.318  1.00  0.00     0.136 A 
ATOM      8  C   UNL     1      33.792  11.742  -1.488  1.00  0.00     0.125 A 
ATOM      9  C   UNL     1      32.755  10.839  -1.201  1.00  0.00     0.078 A 
ATOM     10  C   UNL     1      32.996   9.735  -0.377  1.00  0.00     0.223 A 
ENDROOT
BRANCH   1  11
ATOM     11  C   UNL     1      34.609   8.428   1.065  1.00  0.00     0.091 A 
ATOM     12  C   UNL     1      35.106   7.237   0.517  1.00  0.00     0.068 A 
ATOM     13  C   UNL     1      35.447   6.153   1.334  1.00  0.00     0.162 A 
ATOM     14  C   UNL     1      34.489   8.540   2.458  1.00  0.00     0.068 A 
ATOM     15  C   UNL     1      35.300   6.264   2.738  1.00  0.00     0.200 A 
ATOM     16  C   UNL     1      34.827   7.464   3.289  1.00  0.00     0.162 A 
BRANCH  13  17
ATOM     17  O   UNL     1      35.922   4.996   0.714  1.00  0.00    -0.504 OA
ATOM     18  H   UNL     1      35.332   4.313   0.261  1.00  0.00     0.293 HD
ENDBRANCH  13  17
BRANCH  15  19
ATOM     19  O   UNL     1      35.616   5.220   3.611  1.00  0.00    -0.502 OA
ATOM     20  H   UNL     1      36.515   5.106   4.055  1.00  0.00     0.293 HD
ENDBRANCH  15  19
BRANCH  16  21
ATOM     21  O   UNL     1      34.697   7.580   4.673  1.00  0.00    -0.504 OA
ATOM     22  H   UNL     1      34.714   6.767   5.277  1.00  0.00     0.293 HD
ENDBRANCH  16  21
ENDBRANCH   1  11
BRANCH  10  23
ATOM     23  O   UNL     1      31.980   8.811  -0.132  1.00  0.00    -0.500 OA
ATOM     24  H   UNL     1      31.377   8.474  -0.873  1.00  0.00     0.294 HD
ENDBRANCH  10  23
BRANCH   5  25
ATOM     25  O   UNL     1      37.057  14.290  -2.240  1.00  0.00    -0.507 OA
ATOM     26  H   UNL     1      37.667  14.148  -3.035  1.00  0.00     0.293 HD
ENDBRANCH   5  25
BRANCH   7  27
ATOM     27  O   UNL     1      32.410  13.220  -2.918  1.00  0.00    -0.507 OA
ATOM     28  H   UNL     1      32.276  13.328  -3.914  1.00  0.00     0.293 HD
ENDBRANCH   7  27
TORSDOF 7
ENDMDL
MODEL 9
REMARK VINA RESULT:    -4.849      4.188      9.276
REMARK INTER + INTRA:          -6.087
REMARK INTER:                  -5.731
REMARK INTRA:                  -0.357
REMARK UNBOUND:                -0.105
REMARK SMILES Oc1cc(O)c2cc(O)c(-c3cc(O)c(O)c(O)c3)[o+]c2c1
REMARK SMILES IDX 10 1 20 2 21 3 22 4 2 5 3 6 4 7 6 8 7 9 8 10 11 11 12 12
REMARK SMILES IDX 13 13 19 14 15 15 17 16 14 17 16 19 18 21 9 23 1 25 5 27
REMARK H PARENT 14 18 16 20 18 22 9 24 1 26 5 28
REMARK Flexibility Score: inf
ROOT
ATOM      1  C   UNL     1      35.552   7.306   2.612  1.00  0.00     0.402 A 
ATOM      2  O   UNL     1      34.547   7.679   1.825  1.00  0.00    -0.202 OA
ATOM      3  C   UNL     1      34.620   8.707   0.985  1.00  0.00     0.368 A 
ATOM      4  C   UNL     1      33.510   9.021   0.196  1.00  0.00     0.162 A 
ATOM      5  C   UNL     1      33.559  10.093  -0.696  1.00  0.00     0.128 A 
ATOM      6  C   UNL     1      34.727  10.856  -0.803  1.00  0.00     0.093 A 
ATOM      7  C   UNL     1      35.854  10.562  -0.024  1.00  0.00     0.136 A 
ATOM      8  C   UNL     1      35.805   9.474   0.887  1.00  0.00     0.125 A 
ATOM      9  C   UNL     1      36.880   9.115   1.717  1.00  0.00     0.078 A 
ATOM     10  C   UNL     1      36.758   8.033   2.593  1.00  0.00     0.223 A 
ENDROOT
BRANCH   1  11
ATOM     11  C   UNL     1      35.351   6.137   3.498  1.00  0.00     0.091 A 
ATOM     12  C   UNL     1      34.556   6.269   4.646  1.00  0.00     0.068 A 
ATOM     13  C   UNL     1      34.328   5.181   5.496  1.00  0.00     0.162 A 
ATOM     14  C   UNL     1      35.892   4.881   3.185  1.00  0.00     0.068 A 
ATOM     15  C   UNL     1      34.896   3.922   5.186  1.00  0.00     0.200 A 
ATOM     16  C   UNL     1      35.671   3.782   4.026  1.00  0.00     0.162 A 
BRANCH  13  17
ATOM     17  O   UNL     1      33.536   5.394   6.626  1.00  0.00    -0.504 OA
ATOM     18  H   UNL     1      33.210   6.302   6.925  1.00  0.00     0.293 HD
ENDBRANCH  13  17
BRANCH  15  19
ATOM     19  O   UNL     1      34.713   2.797   5.993  1.00  0.00    -0.502 OA
ATOM     20  H   UNL     1      35.077   2.708   6.931  1.00  0.00     0.293 HD
ENDBRANCH  15  19
BRANCH  16  21
ATOM     21  O   UNL     1      36.219   2.539   3.712  1.00  0.00    -0.504 OA
ATOM     22  H   UNL     1      36.836   2.416   2.917  1.00  0.00     0.293 HD
ENDBRANCH  16  21
ENDBRANCH   1  11
BRANCH  10  23
ATOM     23  O   UNL     1      37.806   7.706   3.453  1.00  0.00    -0.500 OA
ATOM     24  H   UNL     1      38.572   8.346   3.624  1.00  0.00     0.294 HD
ENDBRANCH  10  23
BRANCH   5  25
ATOM     25  O   UNL     1      32.442  10.390  -1.473  1.00  0.00    -0.507 OA
ATOM     26  H   UNL     1      31.799   9.669  -1.773  1.00  0.00     0.293 HD
ENDBRANCH   5  25
BRANCH   7  27
ATOM     27  O   UNL     1      36.981  11.371  -0.192  1.00  0.00    -0.507 OA
ATOM     28  H   UNL     1      37.572  11.362  -1.011  1.00  0.00     0.293 HD
ENDBRANCH   7  27
TORSDOF 7
ENDMDL
