MODEL 1
REMARK VINA RESULT:    -5.113      0.000      0.000
REMARK INTER + INTRA:         -11.324
REMARK INTER:                  -9.596
REMARK INTRA:                  -1.727
REMARK UNBOUND:                -1.727
REMARK SMILES CCCCCCCCC=CCCCCCCCC(=O)[O-]
REMARK SMILES IDX 10 1 9 2 11 3 12 4 13 5 14 6 15 7 16 8 17 9 18 10 19 11
REMARK SMILES IDX 20 12 8 13 7 14 6 15 5 16 4 17 3 18 2 19 1 20
REMARK H PARENT
REMARK Flexibility Score: inf
ROOT
ATOM      1  C   UNL     1      -3.495  11.213 -18.936  1.00  0.00    -0.031 C 
ATOM      2  C   UNL     1      -2.492  12.066 -18.655  1.00  0.00    -0.031 C 
ENDROOT
BRANCH   1   3
ATOM      3  C   UNL     1      -4.718  11.566 -19.744  1.00  0.00     0.027 C 
BRANCH   3   4
ATOM      4  C   UNL     1      -5.981  11.461 -18.883  1.00  0.00     0.004 C 
BRANCH   4   5
ATOM      5  C   UNL     1      -6.002  12.548 -17.802  1.00  0.00     0.000 C 
BRANCH   5   6
ATOM      6  C   UNL     1      -6.428  11.971 -16.448  1.00  0.00     0.000 C 
BRANCH   6   7
ATOM      7  C   UNL     1      -5.657  12.638 -15.299  1.00  0.00     0.000 C 
BRANCH   7   8
ATOM      8  C   UNL     1      -4.210  13.002 -15.682  1.00  0.00     0.006 C 
BRANCH   8   9
ATOM      9  C   UNL     1      -3.142  12.426 -14.739  1.00  0.00     0.053 C 
BRANCH   9  10
ATOM     10  C   UNL     1      -3.200  10.930 -14.676  1.00  0.00     0.041 C 
ATOM     11  O   UNL     1      -3.166  10.248 -15.734  1.00  0.00    -0.550 OA
ATOM     12  O   UNL     1      -3.259  10.289 -13.445  1.00  0.00    -0.550 OA
ENDBRANCH   9  10
ENDBRANCH   8   9
ENDBRANCH   7   8
ENDBRANCH   6   7
ENDBRANCH   5   6
ENDBRANCH   4   5
ENDBRANCH   3   4
ENDBRANCH   1   3
BRANCH   2  13
ATOM     13  C   UNL     1      -2.481  13.528 -19.031  1.00  0.00     0.027 C 
BRANCH  13  14
ATOM     14  C   UNL     1      -1.757  14.400 -17.986  1.00  0.00     0.004 C 
BRANCH  14  15
ATOM     15  C   UNL     1      -1.281  15.761 -18.532  1.00  0.00     0.000 C 
BRANCH  15  16
ATOM     16  C   UNL     1       0.246  15.910 -18.671  1.00  0.00     0.000 C 
BRANCH  16  17
ATOM     17  C   UNL     1       0.736  17.317 -19.073  1.00  0.00    -0.000 C 
BRANCH  17  18
ATOM     18  C   UNL     1      -0.379  18.348 -19.320  1.00  0.00    -0.000 C 
BRANCH  18  19
ATOM     19  C   UNL     1      -0.457  19.416 -18.219  1.00  0.00    -0.003 C 
ATOM     20  C   UNL     1      -1.862  20.003 -18.122  1.00  0.00     0.004 C 
ENDBRANCH  18  19
ENDBRANCH  17  18
ENDBRANCH  16  17
ENDBRANCH  15  16
ENDBRANCH  14  15
ENDBRANCH  13  14
ENDBRANCH   2  13
TORSDOF 15
ENDMDL
MODEL 2
REMARK VINA RESULT:    -4.832      3.252      7.405
REMARK INTER + INTRA:         -10.796
REMARK INTER:                  -8.948
REMARK INTRA:                  -1.848
REMARK UNBOUND:                -1.727
REMARK SMILES CCCCCCCCC=CCCCCCCCC(=O)[O-]
REMARK SMILES IDX 10 1 9 2 11 3 12 4 13 5 14 6 15 7 16 8 17 9 18 10 19 11
REMARK SMILES IDX 20 12 8 13 7 14 6 15 5 16 4 17 3 18 2 19 1 20
REMARK H PARENT
REMARK Flexibility Score: inf
ROOT
ATOM      1  C   UNL     1      -2.588  11.793 -18.600  1.00  0.00    -0.031 C 
ATOM      2  C   UNL     1      -3.547  10.906 -18.929  1.00  0.00    -0.031 C 
ENDROOT
BRANCH   1   3
ATOM      3  C   UNL     1      -2.508  13.202 -19.130  1.00  0.00     0.027 C 
BRANCH   3   4
ATOM      4  C   UNL     1      -1.929  14.144 -18.068  1.00  0.00     0.004 C 
BRANCH   4   5
ATOM      5  C   UNL     1      -1.355  15.411 -18.711  1.00  0.00     0.000 C 
BRANCH   5   6
ATOM      6  C   UNL     1       0.051  15.712 -18.177  1.00  0.00     0.000 C 
BRANCH   6   7
ATOM      7  C   UNL     1       1.028  15.990 -19.328  1.00  0.00     0.000 C 
BRANCH   7   8
ATOM      8  C   UNL     1       1.572  17.431 -19.315  1.00  0.00     0.006 C 
BRANCH   8   9
ATOM      9  C   UNL     1       0.590  18.483 -19.855  1.00  0.00     0.053 C 
BRANCH   9  10
ATOM     10  C   UNL     1      -0.067  19.253 -18.751  1.00  0.00     0.041 C 
ATOM     11  O   UNL     1       0.629  19.932 -17.949  1.00  0.00    -0.550 OA
ATOM     12  O   UNL     1      -1.451  19.246 -18.627  1.00  0.00    -0.550 OA
ENDBRANCH   9  10
ENDBRANCH   8   9
ENDBRANCH   7   8
ENDBRANCH   6   7
ENDBRANCH   5   6
ENDBRANCH   4   5
ENDBRANCH   3   4
ENDBRANCH   1   3
BRANCH   2  13
ATOM     13  C   UNL     1      -4.636  11.159 -19.943  1.00  0.00     0.027 C 
BRANCH  13  14
ATOM     14  C   UNL     1      -6.015  11.368 -19.287  1.00  0.00     0.004 C 
BRANCH  14  15
ATOM     15  C   UNL     1      -6.011  12.398 -18.141  1.00  0.00     0.000 C 
BRANCH  15  16
ATOM     16  C   UNL     1      -6.579  11.888 -16.802  1.00  0.00     0.000 C 
BRANCH  16  17
ATOM     17  C   UNL     1      -5.874  12.426 -15.540  1.00  0.00    -0.000 C 
BRANCH  17  18
ATOM     18  C   UNL     1      -4.543  13.155 -15.799  1.00  0.00    -0.000 C 
BRANCH  18  19
ATOM     19  C   UNL     1      -3.363  12.529 -15.042  1.00  0.00    -0.003 C 
ATOM     20  C   UNL     1      -3.511  11.013 -14.951  1.00  0.00     0.004 C 
ENDBRANCH  18  19
ENDBRANCH  17  18
ENDBRANCH  16  17
ENDBRANCH  15  16
ENDBRANCH  14  15
ENDBRANCH  13  14
ENDBRANCH   2  13
TORSDOF 15
ENDMDL
MODEL 3
REMARK VINA RESULT:    -4.642      3.224      6.920
REMARK INTER + INTRA:         -10.440
REMARK INTER:                  -8.872
REMARK INTRA:                  -1.569
REMARK UNBOUND:                -1.727
REMARK SMILES CCCCCCCCC=CCCCCCCCC(=O)[O-]
REMARK SMILES IDX 10 1 9 2 11 3 12 4 13 5 14 6 15 7 16 8 17 9 18 10 19 11
REMARK SMILES IDX 20 12 8 13 7 14 6 15 5 16 4 17 3 18 2 19 1 20
REMARK H PARENT
REMARK Flexibility Score: inf
ROOT
ATOM      1  C   UNL     1      -4.295  11.036 -20.101  1.00  0.00    -0.031 C 
ATOM      2  C   UNL     1      -5.618  11.257 -20.223  1.00  0.00    -0.031 C 
ENDROOT
BRANCH   1   3
ATOM      3  C   UNL     1      -3.597  10.710 -18.806  1.00  0.00     0.027 C 
BRANCH   3   4
ATOM      4  C   UNL     1      -2.398  11.640 -18.591  1.00  0.00     0.004 C 
BRANCH   4   5
ATOM      5  C   UNL     1      -2.751  13.087 -18.956  1.00  0.00     0.000 C 
BRANCH   5   6
ATOM      6  C   UNL     1      -2.006  14.079 -18.056  1.00  0.00     0.000 C 
BRANCH   6   7
ATOM      7  C   UNL     1      -1.323  15.173 -18.891  1.00  0.00     0.000 C 
BRANCH   7   8
ATOM      8  C   UNL     1      -0.124  15.814 -18.168  1.00  0.00     0.006 C 
BRANCH   8   9
ATOM      9  C   UNL     1       0.881  16.508 -19.102  1.00  0.00     0.053 C 
BRANCH   9  10
ATOM     10  C   UNL     1       0.472  17.915 -19.416  1.00  0.00     0.041 C 
ATOM     11  O   UNL     1       1.021  18.537 -20.364  1.00  0.00    -0.550 OA
ATOM     12  O   UNL     1      -0.535  18.527 -18.681  1.00  0.00    -0.550 OA
ENDBRANCH   9  10
ENDBRANCH   8   9
ENDBRANCH   7   8
ENDBRANCH   6   7
ENDBRANCH   5   6
ENDBRANCH   4   5
ENDBRANCH   3   4
ENDBRANCH   1   3
BRANCH   2  13
ATOM     13  C   UNL     1      -6.588  11.299 -19.067  1.00  0.00     0.027 C 
BRANCH  13  14
ATOM     14  C   UNL     1      -6.163  12.302 -17.977  1.00  0.00     0.004 C 
BRANCH  14  15
ATOM     15  C   UNL     1      -6.659  11.935 -16.564  1.00  0.00     0.000 C 
BRANCH  15  16
ATOM     16  C   UNL     1      -5.899  12.614 -15.409  1.00  0.00     0.000 C 
BRANCH  16  17
ATOM     17  C   UNL     1      -4.493  13.139 -15.764  1.00  0.00    -0.000 C 
BRANCH  17  18
ATOM     18  C   UNL     1      -3.344  12.532 -14.941  1.00  0.00    -0.000 C 
BRANCH  18  19
ATOM     19  C   UNL     1      -3.178  11.023 -15.172  1.00  0.00    -0.003 C 
ATOM     20  C   UNL     1      -3.258  10.253 -13.856  1.00  0.00     0.004 C 
ENDBRANCH  18  19
ENDBRANCH  17  18
ENDBRANCH  16  17
ENDBRANCH  15  16
ENDBRANCH  14  15
ENDBRANCH  13  14
ENDBRANCH   2  13
TORSDOF 15
ENDMDL
MODEL 4
REMARK VINA RESULT:    -4.630      0.843      2.188
REMARK INTER + INTRA:         -10.418
REMARK INTER:                  -8.866
REMARK INTRA:                  -1.552
REMARK UNBOUND:                -1.727
REMARK SMILES CCCCCCCCC=CCCCCCCCC(=O)[O-]
REMARK SMILES IDX 10 1 9 2 11 3 12 4 13 5 14 6 15 7 16 8 17 9 18 10 19 11
REMARK SMILES IDX 20 12 8 13 7 14 6 15 5 16 4 17 3 18 2 19 1 20
REMARK H PARENT
REMARK Flexibility Score: inf
ROOT
ATOM      1  C   UNL     1      -5.624  11.405 -20.173  1.00  0.00    -0.031 C 
ATOM      2  C   UNL     1      -4.303  11.152 -20.121  1.00  0.00    -0.031 C 
ENDROOT
BRANCH   1   3
ATOM      3  C   UNL     1      -6.556  11.340 -18.990  1.00  0.00     0.027 C 
BRANCH   3   4
ATOM      4  C   UNL     1      -6.109  12.317 -17.898  1.00  0.00     0.004 C 
BRANCH   4   5
ATOM      5  C   UNL     1      -6.689  11.923 -16.535  1.00  0.00     0.000 C 
BRANCH   5   6
ATOM      6  C   UNL     1      -5.931  12.609 -15.393  1.00  0.00     0.000 C 
BRANCH   6   7
ATOM      7  C   UNL     1      -4.504  12.978 -15.825  1.00  0.00     0.000 C 
BRANCH   7   8
ATOM      8  C   UNL     1      -3.534  13.107 -14.635  1.00  0.00     0.006 C 
BRANCH   8   9
ATOM      9  C   UNL     1      -2.412  12.058 -14.616  1.00  0.00     0.053 C 
BRANCH   9  10
ATOM     10  C   UNL     1      -2.952  10.662 -14.550  1.00  0.00     0.041 C 
ATOM     11  O   UNL     1      -3.088   9.984 -15.603  1.00  0.00    -0.550 OA
ATOM     12  O   UNL     1      -3.276  10.099 -13.322  1.00  0.00    -0.550 OA
ENDBRANCH   9  10
ENDBRANCH   8   9
ENDBRANCH   7   8
ENDBRANCH   6   7
ENDBRANCH   5   6
ENDBRANCH   4   5
ENDBRANCH   3   4
ENDBRANCH   1   3
BRANCH   2  13
ATOM     13  C   UNL     1      -3.570  10.681 -18.889  1.00  0.00     0.027 C 
BRANCH  13  14
ATOM     14  C   UNL     1      -2.387  11.597 -18.520  1.00  0.00     0.004 C 
BRANCH  14  15
ATOM     15  C   UNL     1      -2.546  13.050 -19.011  1.00  0.00     0.000 C 
BRANCH  15  16
ATOM     16  C   UNL     1      -2.001  14.127 -18.054  1.00  0.00     0.000 C 
BRANCH  16  17
ATOM     17  C   UNL     1      -1.399  15.372 -18.738  1.00  0.00    -0.000 C 
BRANCH  17  18
ATOM     18  C   UNL     1       0.049  15.701 -18.335  1.00  0.00    -0.000 C 
BRANCH  18  19
ATOM     19  C   UNL     1       0.679  16.791 -19.212  1.00  0.00    -0.003 C 
ATOM     20  C   UNL     1      -0.080  18.109 -19.082  1.00  0.00     0.004 C 
ENDBRANCH  18  19
ENDBRANCH  17  18
ENDBRANCH  16  17
ENDBRANCH  15  16
ENDBRANCH  14  15
ENDBRANCH  13  14
ENDBRANCH   2  13
TORSDOF 15
ENDMDL
MODEL 5
REMARK VINA RESULT:    -4.572      3.325      7.750
REMARK INTER + INTRA:         -10.309
REMARK INTER:                  -8.922
REMARK INTRA:                  -1.387
REMARK UNBOUND:                -1.727
REMARK SMILES CCCCCCCCC=CCCCCCCCC(=O)[O-]
REMARK SMILES IDX 10 1 9 2 11 3 12 4 13 5 14 6 15 7 16 8 17 9 18 10 19 11
REMARK SMILES IDX 20 12 8 13 7 14 6 15 5 16 4 17 3 18 2 19 1 20
REMARK H PARENT
REMARK Flexibility Score: inf
ROOT
ATOM      1  C   UNL     1      -1.915  14.291 -16.406  1.00  0.00    -0.031 C 
ATOM      2  C   UNL     1      -2.206  13.603 -15.286  1.00  0.00    -0.031 C 
ENDROOT
BRANCH   1   3
ATOM      3  C   UNL     1      -2.437  13.953 -17.779  1.00  0.00     0.027 C 
BRANCH   3   4
ATOM      4  C   UNL     1      -1.540  14.562 -18.862  1.00  0.00     0.004 C 
BRANCH   4   5
ATOM      5  C   UNL     1      -0.716  15.727 -18.303  1.00  0.00     0.000 C 
BRANCH   5   6
ATOM      6  C   UNL     1       0.735  15.661 -18.792  1.00  0.00     0.000 C 
BRANCH   6   7
ATOM      7  C   UNL     1       1.352  17.065 -18.878  1.00  0.00     0.000 C 
BRANCH   7   8
ATOM      8  C   UNL     1       0.982  17.801 -20.179  1.00  0.00     0.006 C 
BRANCH   8   9
ATOM      9  C   UNL     1       0.597  19.276 -19.984  1.00  0.00     0.053 C 
BRANCH   9  10
ATOM     10  C   UNL     1      -0.239  19.479 -18.757  1.00  0.00     0.041 C 
ATOM     11  O   UNL     1      -1.425  19.056 -18.721  1.00  0.00    -0.550 OA
ATOM     12  O   UNL     1       0.303  20.108 -17.643  1.00  0.00    -0.550 OA
ENDBRANCH   9  10
ENDBRANCH   8   9
ENDBRANCH   7   8
ENDBRANCH   6   7
ENDBRANCH   5   6
ENDBRANCH   4   5
ENDBRANCH   3   4
ENDBRANCH   1   3
BRANCH   2  13
ATOM     13  C   UNL     1      -3.029  12.338 -15.248  1.00  0.00     0.027 C 
BRANCH  13  14
ATOM     14  C   UNL     1      -4.461  12.581 -14.733  1.00  0.00     0.004 C 
BRANCH  14  15
ATOM     15  C   UNL     1      -5.421  13.141 -15.801  1.00  0.00     0.000 C 
BRANCH  15  16
ATOM     16  C   UNL     1      -6.305  12.091 -16.500  1.00  0.00     0.000 C 
BRANCH  16  17
ATOM     17  C   UNL     1      -6.136  12.001 -18.031  1.00  0.00    -0.000 C 
BRANCH  17  18
ATOM     18  C   UNL     1      -4.727  11.606 -18.508  1.00  0.00    -0.000 C 
BRANCH  18  19
ATOM     19  C   UNL     1      -4.688  11.216 -19.992  1.00  0.00    -0.003 C 
ATOM     20  C   UNL     1      -6.083  11.260 -20.610  1.00  0.00     0.004 C 
ENDBRANCH  18  19
ENDBRANCH  17  18
ENDBRANCH  16  17
ENDBRANCH  15  16
ENDBRANCH  14  15
ENDBRANCH  13  14
ENDBRANCH   2  13
TORSDOF 15
ENDMDL
MODEL 6
REMARK VINA RESULT:    -4.449      1.732      2.789
REMARK INTER + INTRA:         -10.078
REMARK INTER:                  -8.314
REMARK INTRA:                  -1.765
REMARK UNBOUND:                -1.727
REMARK SMILES CCCCCCCCC=CCCCCCCCC(=O)[O-]
REMARK SMILES IDX 10 1 9 2 11 3 12 4 13 5 14 6 15 7 16 8 17 9 18 10 19 11
REMARK SMILES IDX 20 12 8 13 7 14 6 15 5 16 4 17 3 18 2 19 1 20
REMARK H PARENT
REMARK Flexibility Score: inf
ROOT
ATOM      1  C   UNL     1      -2.873  11.128 -18.436  1.00  0.00    -0.031 C 
ATOM      2  C   UNL     1      -2.950  12.418 -18.816  1.00  0.00    -0.031 C 
ENDROOT
BRANCH   1   3
ATOM      3  C   UNL     1      -2.215  10.647 -17.168  1.00  0.00     0.027 C 
BRANCH   3   4
ATOM      4  C   UNL     1      -3.234   9.943 -16.265  1.00  0.00     0.004 C 
BRANCH   4   5
ATOM      5  C   UNL     1      -3.250  10.564 -14.864  1.00  0.00     0.000 C 
BRANCH   5   6
ATOM      6  C   UNL     1      -2.430  11.858 -14.825  1.00  0.00     0.000 C 
BRANCH   6   7
ATOM      7  C   UNL     1      -3.335  13.076 -14.588  1.00  0.00     0.000 C 
BRANCH   7   8
ATOM      8  C   UNL     1      -4.823  12.773 -14.844  1.00  0.00     0.006 C 
BRANCH   8   9
ATOM      9  C   UNL     1      -5.321  13.183 -16.239  1.00  0.00     0.053 C 
BRANCH   9  10
ATOM     10  C   UNL     1      -6.324  12.212 -16.782  1.00  0.00     0.041 C 
ATOM     11  O   UNL     1      -7.267  11.801 -16.055  1.00  0.00    -0.550 OA
ATOM     12  O   UNL     1      -6.236  11.786 -18.102  1.00  0.00    -0.550 OA
ENDBRANCH   9  10
ENDBRANCH   8   9
ENDBRANCH   7   8
ENDBRANCH   6   7
ENDBRANCH   5   6
ENDBRANCH   4   5
ENDBRANCH   3   4
ENDBRANCH   1   3
BRANCH   2  13
ATOM     13  C   UNL     1      -2.314  13.568 -18.073  1.00  0.00     0.027 C 
BRANCH  13  14
ATOM     14  C   UNL     1      -1.596  14.553 -19.017  1.00  0.00     0.004 C 
BRANCH  14  15
ATOM     15  C   UNL     1      -0.834  15.675 -18.285  1.00  0.00     0.000 C 
BRANCH  15  16
ATOM     16  C   UNL     1       0.595  15.938 -18.799  1.00  0.00     0.000 C 
BRANCH  16  17
ATOM     17  C   UNL     1       0.883  17.393 -19.225  1.00  0.00    -0.000 C 
BRANCH  17  18
ATOM     18  C   UNL     1      -0.355  18.302 -19.315  1.00  0.00    -0.000 C 
BRANCH  18  19
ATOM     19  C   UNL     1      -0.284  19.502 -18.359  1.00  0.00    -0.003 C 
ATOM     20  C   UNL     1      -1.680  20.012 -18.013  1.00  0.00     0.004 C 
ENDBRANCH  18  19
ENDBRANCH  17  18
ENDBRANCH  16  17
ENDBRANCH  15  16
ENDBRANCH  14  15
ENDBRANCH  13  14
ENDBRANCH   2  13
TORSDOF 15
ENDMDL
MODEL 7
REMARK VINA RESULT:    -4.413      3.388      7.328
REMARK INTER + INTRA:         -10.010
REMARK INTER:                  -8.115
REMARK INTRA:                  -1.895
REMARK UNBOUND:                -1.727
REMARK SMILES CCCCCCCCC=CCCCCCCCC(=O)[O-]
REMARK SMILES IDX 10 1 9 2 11 3 12 4 13 5 14 6 15 7 16 8 17 9 18 10 19 11
REMARK SMILES IDX 20 12 8 13 7 14 6 15 5 16 4 17 3 18 2 19 1 20
REMARK H PARENT
REMARK Flexibility Score: inf
ROOT
ATOM      1  C   UNL     1      -2.650  12.941 -14.934  1.00  0.00    -0.031 C 
ATOM      2  C   UNL     1      -2.950  11.643 -14.745  1.00  0.00    -0.031 C 
ENDROOT
BRANCH   1   3
ATOM      3  C   UNL     1      -2.992  13.728 -16.174  1.00  0.00     0.027 C 
BRANCH   3   4
ATOM      4  C   UNL     1      -1.753  14.451 -16.712  1.00  0.00     0.004 C 
BRANCH   4   5
ATOM      5  C   UNL     1      -1.757  14.483 -18.245  1.00  0.00     0.000 C 
BRANCH   5   6
ATOM      6  C   UNL     1      -1.224  15.821 -18.770  1.00  0.00     0.000 C 
BRANCH   6   7
ATOM      7  C   UNL     1       0.303  15.900 -18.623  1.00  0.00     0.000 C 
BRANCH   7   8
ATOM      8  C   UNL     1       0.877  17.257 -19.072  1.00  0.00     0.006 C 
BRANCH   8   9
ATOM      9  C   UNL     1      -0.186  18.295 -19.465  1.00  0.00     0.053 C 
BRANCH   9  10
ATOM     10  C   UNL     1      -0.319  19.377 -18.438  1.00  0.00     0.041 C 
ATOM     11  O   UNL     1       0.709  19.905 -17.937  1.00  0.00    -0.550 OA
ATOM     12  O   UNL     1      -1.578  19.823 -18.057  1.00  0.00    -0.550 OA
ENDBRANCH   9  10
ENDBRANCH   8   9
ENDBRANCH   7   8
ENDBRANCH   6   7
ENDBRANCH   5   6
ENDBRANCH   4   5
ENDBRANCH   3   4
ENDBRANCH   1   3
BRANCH   2  13
ATOM     13  C   UNL     1      -3.598  10.755 -15.781  1.00  0.00     0.027 C 
BRANCH  13  14
ATOM     14  C   UNL     1      -2.571  10.125 -16.742  1.00  0.00     0.004 C 
BRANCH  14  15
ATOM     15  C   UNL     1      -2.425  10.878 -18.079  1.00  0.00     0.000 C 
BRANCH  15  16
ATOM     16  C   UNL     1      -3.578  10.665 -19.078  1.00  0.00     0.000 C 
BRANCH  16  17
ATOM     17  C   UNL     1      -4.534  11.864 -19.247  1.00  0.00    -0.000 C 
BRANCH  17  18
ATOM     18  C   UNL     1      -5.930  11.676 -18.627  1.00  0.00    -0.000 C 
BRANCH  18  19
ATOM     19  C   UNL     1      -6.161  12.566 -17.398  1.00  0.00    -0.003 C 
ATOM     20  C   UNL     1      -6.942  11.820 -16.318  1.00  0.00     0.004 C 
ENDBRANCH  18  19
ENDBRANCH  17  18
ENDBRANCH  16  17
ENDBRANCH  15  16
ENDBRANCH  14  15
ENDBRANCH  13  14
ENDBRANCH   2  13
TORSDOF 15
ENDMDL
MODEL 8
REMARK VINA RESULT:    -4.377      2.326      3.801
REMARK INTER + INTRA:          -9.943
REMARK INTER:                  -8.324
REMARK INTRA:                  -1.619
REMARK UNBOUND:                -1.727
REMARK SMILES CCCCCCCCC=CCCCCCCCC(=O)[O-]
REMARK SMILES IDX 10 1 9 2 11 3 12 4 13 5 14 6 15 7 16 8 17 9 18 10 19 11
REMARK SMILES IDX 20 12 8 13 7 14 6 15 5 16 4 17 3 18 2 19 1 20
REMARK H PARENT
REMARK Flexibility Score: inf
ROOT
ATOM      1  C   UNL     1      -2.060  14.125 -17.885  1.00  0.00    -0.031 C 
ATOM      2  C   UNL     1      -1.407  14.954 -18.721  1.00  0.00    -0.031 C 
ENDROOT
BRANCH   1   3
ATOM      3  C   UNL     1      -1.924  14.141 -16.384  1.00  0.00     0.027 C 
BRANCH   3   4
ATOM      4  C   UNL     1      -3.219  13.659 -15.721  1.00  0.00     0.004 C 
BRANCH   4   5
ATOM      5  C   UNL     1      -3.140  12.167 -15.379  1.00  0.00     0.000 C 
BRANCH   5   6
ATOM      6  C   UNL     1      -4.405  11.430 -15.832  1.00  0.00     0.000 C 
BRANCH   6   7
ATOM      7  C   UNL     1      -5.474  12.420 -16.318  1.00  0.00     0.000 C 
BRANCH   7   8
ATOM      8  C   UNL     1      -5.957  12.123 -17.750  1.00  0.00     0.006 C 
BRANCH   8   9
ATOM      9  C   UNL     1      -4.832  11.774 -18.738  1.00  0.00     0.053 C 
BRANCH   9  10
ATOM     10  C   UNL     1      -5.364  11.158 -19.996  1.00  0.00     0.041 C 
ATOM     11  O   UNL     1      -4.577  10.629 -20.825  1.00  0.00    -0.550 OA
ATOM     12  O   UNL     1      -6.732  11.142 -20.237  1.00  0.00    -0.550 OA
ENDBRANCH   9  10
ENDBRANCH   8   9
ENDBRANCH   7   8
ENDBRANCH   6   7
ENDBRANCH   5   6
ENDBRANCH   4   5
ENDBRANCH   3   4
ENDBRANCH   1   3
BRANCH   2  13
ATOM     13  C   UNL     1      -0.374  15.967 -18.288  1.00  0.00     0.027 C 
BRANCH  13  14
ATOM     14  C   UNL     1       0.974  15.780 -19.012  1.00  0.00     0.004 C 
BRANCH  14  15
ATOM     15  C   UNL     1       1.729  17.099 -19.274  1.00  0.00     0.000 C 
BRANCH  15  16
ATOM     16  C   UNL     1       1.182  17.944 -20.441  1.00  0.00     0.000 C 
BRANCH  16  17
ATOM     17  C   UNL     1       0.726  19.368 -20.064  1.00  0.00    -0.000 C 
BRANCH  17  18
ATOM     18  C   UNL     1       1.119  19.825 -18.648  1.00  0.00    -0.000 C 
BRANCH  18  19
ATOM     19  C   UNL     1      -0.088  19.955 -17.708  1.00  0.00    -0.003 C 
ATOM     20  C   UNL     1      -1.391  19.649 -18.440  1.00  0.00     0.004 C 
ENDBRANCH  18  19
ENDBRANCH  17  18
ENDBRANCH  16  17
ENDBRANCH  15  16
ENDBRANCH  14  15
ENDBRANCH  13  14
ENDBRANCH   2  13
TORSDOF 15
ENDMDL
MODEL 9
REMARK VINA RESULT:    -4.344      2.077      3.821
REMARK INTER + INTRA:          -9.881
REMARK INTER:                  -8.239
REMARK INTRA:                  -1.642
REMARK UNBOUND:                -1.727
REMARK SMILES CCCCCCCCC=CCCCCCCCC(=O)[O-]
REMARK SMILES IDX 10 1 9 2 11 3 12 4 13 5 14 6 15 7 16 8 17 9 18 10 19 11
REMARK SMILES IDX 20 12 8 13 7 14 6 15 5 16 4 17 3 18 2 19 1 20
REMARK H PARENT
REMARK Flexibility Score: inf
ROOT
ATOM      1  C   UNL     1      -2.749  13.286 -14.986  1.00  0.00    -0.031 C 
ATOM      2  C   UNL     1      -2.000  13.913 -15.913  1.00  0.00    -0.031 C 
ENDROOT
BRANCH   1   3
ATOM      3  C   UNL     1      -4.213  12.962 -15.144  1.00  0.00     0.027 C 
BRANCH   3   4
ATOM      4  C   UNL     1      -4.400  11.496 -15.548  1.00  0.00     0.004 C 
BRANCH   4   5
ATOM      5  C   UNL     1      -3.090  10.713 -15.404  1.00  0.00     0.000 C 
BRANCH   5   6
ATOM      6  C   UNL     1      -2.755   9.958 -16.695  1.00  0.00     0.000 C 
BRANCH   6   7
ATOM      7  C   UNL     1      -2.455  10.934 -17.842  1.00  0.00     0.000 C 
BRANCH   7   8
ATOM      8  C   UNL     1      -3.361  10.714 -19.067  1.00  0.00     0.006 C 
BRANCH   8   9
ATOM      9  C   UNL     1      -4.208  11.936 -19.455  1.00  0.00     0.053 C 
BRANCH   9  10
ATOM     10  C   UNL     1      -5.671  11.613 -19.494  1.00  0.00     0.041 C 
ATOM     11  O   UNL     1      -6.209  11.237 -20.569  1.00  0.00    -0.550 OA
ATOM     12  O   UNL     1      -6.433  11.699 -18.336  1.00  0.00    -0.550 OA
ENDBRANCH   9  10
ENDBRANCH   8   9
ENDBRANCH   7   8
ENDBRANCH   6   7
ENDBRANCH   5   6
ENDBRANCH   4   5
ENDBRANCH   3   4
ENDBRANCH   1   3
BRANCH   2  13
ATOM     13  C   UNL     1      -2.533  14.464 -17.214  1.00  0.00     0.027 C 
BRANCH  13  14
ATOM     14  C   UNL     1      -1.452  14.534 -18.311  1.00  0.00     0.004 C 
BRANCH  14  15
ATOM     15  C   UNL     1      -0.608  15.823 -18.273  1.00  0.00     0.000 C 
BRANCH  15  16
ATOM     16  C   UNL     1       0.754  15.733 -18.989  1.00  0.00     0.000 C 
BRANCH  16  17
ATOM     17  C   UNL     1       1.562  17.047 -19.033  1.00  0.00    -0.000 C 
BRANCH  17  18
ATOM     18  C   UNL     1       1.821  17.604 -20.444  1.00  0.00    -0.000 C 
BRANCH  18  19
ATOM     19  C   UNL     1       1.147  18.963 -20.681  1.00  0.00    -0.003 C 
ATOM     20  C   UNL     1       0.024  19.203 -19.677  1.00  0.00     0.004 C 
ENDBRANCH  18  19
ENDBRANCH  17  18
ENDBRANCH  16  17
ENDBRANCH  15  16
ENDBRANCH  14  15
ENDBRANCH  13  14
ENDBRANCH   2  13
TORSDOF 15
ENDMDL
