MODEL 1
REMARK VINA RESULT:    -5.349      0.000      0.000
REMARK INTER + INTRA:          -6.563
REMARK INTER:                  -6.443
REMARK INTRA:                  -0.120
REMARK UNBOUND:                -0.120
REMARK SMILES O=c1c(O)c(-c2ccc(O)c(O)c2)oc2cc(O)cc(O)c12
REMARK SMILES IDX 5 1 3 2 2 3 1 4 22 5 20 6 19 7 17 8 16 9 15 10 14 11 6 12
REMARK SMILES IDX 7 13 8 14 9 15 13 16 11 17 10 18 12 20 4 22 21 24 18 26
REMARK H PARENT 10 19 12 21 4 23 21 25 18 27
REMARK Flexibility Score: inf
ROOT
ATOM      1  C   UNL     1      23.998  -6.927   9.398  1.00  0.00     0.180 A 
ATOM      2  C   UNL     1      23.743  -7.927  10.357  1.00  0.00     0.208 A 
ATOM      3  C   UNL     1      22.686  -7.744  11.263  1.00  0.00     0.238 A 
ATOM      4  O   UNL     1      22.456  -8.627  12.133  1.00  0.00    -0.285 OA
ATOM      5  C   UNL     1      21.891  -6.582  11.182  1.00  0.00     0.111 A 
ATOM      6  C   UNL     1      20.806  -6.324  12.053  1.00  0.00     0.134 A 
ATOM      7  C   UNL     1      20.057  -5.147  11.903  1.00  0.00     0.093 A 
ATOM      8  C   UNL     1      20.373  -4.226  10.898  1.00  0.00     0.123 A 
ATOM      9  C   UNL     1      21.443  -4.475  10.037  1.00  0.00     0.094 A 
ATOM     10  C   UNL     1      22.202  -5.641  10.172  1.00  0.00     0.146 A 
ATOM     11  O   UNL     1      23.217  -5.851   9.342  1.00  0.00    -0.452 OA
ENDROOT
BRANCH   1  12
ATOM     12  C   UNL     1      25.105  -7.037   8.422  1.00  0.00     0.025 A 
ATOM     13  C   UNL     1      25.167  -8.098   7.503  1.00  0.00     0.016 A 
ATOM     14  C   UNL     1      26.235  -8.195   6.607  1.00  0.00     0.051 A 
ATOM     15  C   UNL     1      27.262  -7.241   6.624  1.00  0.00     0.157 A 
ATOM     16  C   UNL     1      26.148  -6.097   8.450  1.00  0.00     0.062 A 
ATOM     17  C   UNL     1      27.218  -6.190   7.554  1.00  0.00     0.158 A 
BRANCH  15  18
ATOM     18  O   UNL     1      28.325  -7.339   5.728  1.00  0.00    -0.504 OA
ATOM     19  H   UNL     1      28.421  -6.701   4.946  1.00  0.00     0.293 HD
ENDBRANCH  15  18
BRANCH  17  20
ATOM     20  O   UNL     1      28.229  -5.228   7.602  1.00  0.00    -0.504 OA
ATOM     21  H   UNL     1      28.459  -4.649   6.804  1.00  0.00     0.293 HD
ENDBRANCH  17  20
ENDBRANCH   1  12
BRANCH   2  22
ATOM     22  O   UNL     1      24.514  -9.091  10.385  1.00  0.00    -0.502 OA
ATOM     23  H   UNL     1      24.161  -9.984  10.062  1.00  0.00     0.293 HD
ENDBRANCH   2  22
BRANCH   6  24
ATOM     24  O   UNL     1      20.466  -7.224  13.064  1.00  0.00    -0.507 OA
ATOM     25  H   UNL     1      20.228  -6.913  13.998  1.00  0.00     0.293 HD
ENDBRANCH   6  24
BRANCH   8  26
ATOM     26  O   UNL     1      19.628  -3.058  10.748  1.00  0.00    -0.508 OA
ATOM     27  H   UNL     1      19.562  -2.372  11.490  1.00  0.00     0.293 HD
ENDBRANCH   8  26
TORSDOF 6
ENDMDL
MODEL 2
REMARK VINA RESULT:    -5.346      1.628      2.085
REMARK INTER + INTRA:          -6.560
REMARK INTER:                  -6.251
REMARK INTRA:                  -0.309
REMARK UNBOUND:                -0.120
REMARK SMILES O=c1c(O)c(-c2ccc(O)c(O)c2)oc2cc(O)cc(O)c12
REMARK SMILES IDX 5 1 3 2 2 3 1 4 22 5 20 6 19 7 17 8 16 9 15 10 14 11 6 12
REMARK SMILES IDX 7 13 8 14 9 15 13 16 11 17 10 18 12 20 4 22 21 24 18 26
REMARK H PARENT 10 19 12 21 4 23 21 25 18 27
REMARK Flexibility Score: inf
ROOT
ATOM      1  C   UNL     1      23.501  -6.126   8.876  1.00  0.00     0.180 A 
ATOM      2  C   UNL     1      23.564  -6.170  10.282  1.00  0.00     0.208 A 
ATOM      3  C   UNL     1      22.669  -5.384  11.026  1.00  0.00     0.238 A 
ATOM      4  O   UNL     1      22.724  -5.407  12.286  1.00  0.00    -0.285 OA
ATOM      5  C   UNL     1      21.716  -4.589  10.356  1.00  0.00     0.111 A 
ATOM      6  C   UNL     1      20.777  -3.774  11.032  1.00  0.00     0.134 A 
ATOM      7  C   UNL     1      19.854  -3.017  10.293  1.00  0.00     0.093 A 
ATOM      8  C   UNL     1      19.854  -3.063   8.895  1.00  0.00     0.123 A 
ATOM      9  C   UNL     1      20.779  -3.864   8.224  1.00  0.00     0.094 A 
ATOM     10  C   UNL     1      21.707  -4.624   8.942  1.00  0.00     0.146 A 
ATOM     11  O   UNL     1      22.578  -5.375   8.279  1.00  0.00    -0.452 OA
ENDROOT
BRANCH   1  12
ATOM     12  C   UNL     1      24.422  -6.909   8.022  1.00  0.00     0.025 A 
ATOM     13  C   UNL     1      24.054  -8.165   7.509  1.00  0.00     0.016 A 
ATOM     14  C   UNL     1      24.949  -8.897   6.725  1.00  0.00     0.051 A 
ATOM     15  C   UNL     1      26.229  -8.393   6.453  1.00  0.00     0.157 A 
ATOM     16  C   UNL     1      25.712  -6.418   7.764  1.00  0.00     0.062 A 
ATOM     17  C   UNL     1      26.611  -7.149   6.979  1.00  0.00     0.158 A 
BRANCH  15  18
ATOM     18  O   UNL     1      27.118  -9.125   5.669  1.00  0.00    -0.504 OA
ATOM     19  H   UNL     1      26.930  -9.319   4.692  1.00  0.00     0.293 HD
ENDBRANCH  15  18
BRANCH  17  20
ATOM     20  O   UNL     1      27.880  -6.622   6.734  1.00  0.00    -0.504 OA
ATOM     21  H   UNL     1      28.162  -6.306   5.814  1.00  0.00     0.293 HD
ENDBRANCH  17  20
ENDBRANCH   1  12
BRANCH   2  22
ATOM     22  O   UNL     1      24.484  -7.003  10.922  1.00  0.00    -0.502 OA
ATOM     23  H   UNL     1      24.291  -7.979  11.114  1.00  0.00     0.293 HD
ENDBRANCH   2  22
BRANCH   6  24
ATOM     24  O   UNL     1      20.752  -3.708  12.425  1.00  0.00    -0.507 OA
ATOM     25  H   UNL     1      20.445  -4.491  12.991  1.00  0.00     0.293 HD
ENDBRANCH   6  24
BRANCH   8  26
ATOM     26  O   UNL     1      18.937  -2.312   8.161  1.00  0.00    -0.508 OA
ATOM     27  H   UNL     1      19.144  -1.367   7.860  1.00  0.00     0.293 HD
ENDBRANCH   8  26
TORSDOF 6
ENDMDL
MODEL 3
REMARK VINA RESULT:    -5.320      1.756      6.970
REMARK INTER + INTRA:          -6.529
REMARK INTER:                  -6.196
REMARK INTRA:                  -0.332
REMARK UNBOUND:                -0.120
REMARK SMILES O=c1c(O)c(-c2ccc(O)c(O)c2)oc2cc(O)cc(O)c12
REMARK SMILES IDX 5 1 3 2 2 3 1 4 22 5 20 6 19 7 17 8 16 9 15 10 14 11 6 12
REMARK SMILES IDX 7 13 8 14 9 15 13 16 11 17 10 18 12 20 4 22 21 24 18 26
REMARK H PARENT 10 19 12 21 4 23 21 25 18 27
REMARK Flexibility Score: inf
ROOT
ATOM      1  C   UNL     1      23.939  -7.096  10.005  1.00  0.00     0.180 A 
ATOM      2  C   UNL     1      24.878  -6.156  10.473  1.00  0.00     0.208 A 
ATOM      3  C   UNL     1      25.997  -5.863   9.678  1.00  0.00     0.238 A 
ATOM      4  O   UNL     1      26.851  -5.031  10.093  1.00  0.00    -0.285 OA
ATOM      5  C   UNL     1      26.148  -6.494   8.427  1.00  0.00     0.111 A 
ATOM      6  C   UNL     1      27.244  -6.250   7.564  1.00  0.00     0.134 A 
ATOM      7  C   UNL     1      27.318  -6.912   6.329  1.00  0.00     0.093 A 
ATOM      8  C   UNL     1      26.318  -7.810   5.941  1.00  0.00     0.123 A 
ATOM      9  C   UNL     1      25.236  -8.054   6.789  1.00  0.00     0.094 A 
ATOM     10  C   UNL     1      25.145  -7.406   8.024  1.00  0.00     0.146 A 
ATOM     11  O   UNL     1      24.107  -7.660   8.812  1.00  0.00    -0.452 OA
ENDROOT
BRANCH   1  12
ATOM     12  C   UNL     1      22.743  -7.473  10.793  1.00  0.00     0.025 A 
ATOM     13  C   UNL     1      22.795  -8.492  11.760  1.00  0.00     0.016 A 
ATOM     14  C   UNL     1      21.648  -8.846  12.474  1.00  0.00     0.051 A 
ATOM     15  C   UNL     1      20.430  -8.199  12.224  1.00  0.00     0.157 A 
ATOM     16  C   UNL     1      21.516  -6.842  10.532  1.00  0.00     0.062 A 
ATOM     17  C   UNL     1      20.365  -7.194  11.245  1.00  0.00     0.158 A 
BRANCH  15  18
ATOM     18  O   UNL     1      19.288  -8.554  12.940  1.00  0.00    -0.504 OA
ATOM     19  H   UNL     1      19.280  -8.569  13.954  1.00  0.00     0.293 HD
ENDBRANCH  15  18
BRANCH  17  20
ATOM     20  O   UNL     1      19.167  -6.535  10.968  1.00  0.00    -0.504 OA
ATOM     21  H   UNL     1      18.982  -5.594  11.294  1.00  0.00     0.293 HD
ENDBRANCH  17  20
ENDBRANCH   1  12
BRANCH   2  22
ATOM     22  O   UNL     1      24.680  -5.508  11.694  1.00  0.00    -0.502 OA
ATOM     23  H   UNL     1      24.976  -5.909  12.577  1.00  0.00     0.293 HD
ENDBRANCH   2  22
BRANCH   6  24
ATOM     24  O   UNL     1      28.257  -5.360   7.922  1.00  0.00    -0.507 OA
ATOM     25  H   UNL     1      29.236  -5.616   7.870  1.00  0.00     0.293 HD
ENDBRANCH   6  24
BRANCH   8  26
ATOM     26  O   UNL     1      26.391  -8.467   4.715  1.00  0.00    -0.508 OA
ATOM     27  H   UNL     1      25.599  -8.499   4.082  1.00  0.00     0.293 HD
ENDBRANCH   8  26
TORSDOF 6
ENDMDL
MODEL 4
REMARK VINA RESULT:    -5.155     11.575     14.859
REMARK INTER + INTRA:          -6.330
REMARK INTER:                  -6.461
REMARK INTRA:                   0.131
REMARK UNBOUND:                -0.120
REMARK SMILES O=c1c(O)c(-c2ccc(O)c(O)c2)oc2cc(O)cc(O)c12
REMARK SMILES IDX 5 1 3 2 2 3 1 4 22 5 20 6 19 7 17 8 16 9 15 10 14 11 6 12
REMARK SMILES IDX 7 13 8 14 9 15 13 16 11 17 10 18 12 20 4 22 21 24 18 26
REMARK H PARENT 10 19 12 21 4 23 21 25 18 27
REMARK Flexibility Score: inf
ROOT
ATOM      1  C   UNL     1      23.396  -6.729  -4.542  1.00  0.00     0.180 A 
ATOM      2  C   UNL     1      24.536  -7.100  -5.281  1.00  0.00     0.208 A 
ATOM      3  C   UNL     1      25.585  -7.761  -4.622  1.00  0.00     0.238 A 
ATOM      4  O   UNL     1      26.616  -8.088  -5.271  1.00  0.00    -0.285 OA
ATOM      5  C   UNL     1      25.468  -8.059  -3.249  1.00  0.00     0.111 A 
ATOM      6  C   UNL     1      26.477  -8.727  -2.513  1.00  0.00     0.134 A 
ATOM      7  C   UNL     1      26.282  -8.995  -1.150  1.00  0.00     0.093 A 
ATOM      8  C   UNL     1      25.098  -8.609  -0.511  1.00  0.00     0.123 A 
ATOM      9  C   UNL     1      24.101  -7.950  -1.232  1.00  0.00     0.094 A 
ATOM     10  C   UNL     1      24.277  -7.672  -2.590  1.00  0.00     0.146 A 
ATOM     11  O   UNL     1      23.314  -7.041  -3.251  1.00  0.00    -0.452 OA
ENDROOT
BRANCH   1  12
ATOM     12  C   UNL     1      22.257  -6.012  -5.160  1.00  0.00     0.025 A 
ATOM     13  C   UNL     1      21.783  -6.355  -6.438  1.00  0.00     0.016 A 
ATOM     14  C   UNL     1      20.723  -5.648  -7.011  1.00  0.00     0.051 A 
ATOM     15  C   UNL     1      20.129  -4.582  -6.322  1.00  0.00     0.157 A 
ATOM     16  C   UNL     1      21.672  -4.930  -4.483  1.00  0.00     0.062 A 
ATOM     17  C   UNL     1      20.610  -4.220  -5.053  1.00  0.00     0.158 A 
BRANCH  15  18
ATOM     18  O   UNL     1      19.070  -3.881  -6.895  1.00  0.00    -0.504 OA
ATOM     19  H   UNL     1      18.388  -3.390  -6.328  1.00  0.00     0.293 HD
ENDBRANCH  15  18
BRANCH  17  20
ATOM     20  O   UNL     1      20.045  -3.159  -4.345  1.00  0.00    -0.504 OA
ATOM     21  H   UNL     1      19.885  -3.204  -3.346  1.00  0.00     0.293 HD
ENDBRANCH  17  20
ENDBRANCH   1  12
BRANCH   2  22
ATOM     22  O   UNL     1      24.606  -6.837  -6.651  1.00  0.00    -0.502 OA
ATOM     23  H   UNL     1      24.746  -7.569  -7.337  1.00  0.00     0.293 HD
ENDBRANCH   2  22
BRANCH   6  24
ATOM     24  O   UNL     1      27.667  -9.124  -3.123  1.00  0.00    -0.507 OA
ATOM     25  H   UNL     1      27.894 -10.102  -3.264  1.00  0.00     0.293 HD
ENDBRANCH   6  24
BRANCH   8  26
ATOM     26  O   UNL     1      24.904  -8.876   0.843  1.00  0.00    -0.508 OA
ATOM     27  H   UNL     1      24.528  -8.177   1.473  1.00  0.00     0.293 HD
ENDBRANCH   8  26
TORSDOF 6
ENDMDL
MODEL 5
REMARK VINA RESULT:    -5.075      1.685      6.943
REMARK INTER + INTRA:          -6.233
REMARK INTER:                  -5.923
REMARK INTRA:                  -0.310
REMARK UNBOUND:                -0.120
REMARK SMILES O=c1c(O)c(-c2ccc(O)c(O)c2)oc2cc(O)cc(O)c12
REMARK SMILES IDX 5 1 3 2 2 3 1 4 22 5 20 6 19 7 17 8 16 9 15 10 14 11 6 12
REMARK SMILES IDX 7 13 8 14 9 15 13 16 11 17 10 18 12 20 4 22 21 24 18 26
REMARK H PARENT 10 19 12 21 4 23 21 25 18 27
REMARK Flexibility Score: inf
ROOT
ATOM      1  C   UNL     1      23.262  -7.426   8.998  1.00  0.00     0.180 A 
ATOM      2  C   UNL     1      23.149  -8.288   7.890  1.00  0.00     0.208 A 
ATOM      3  C   UNL     1      24.184  -8.311   6.941  1.00  0.00     0.238 A 
ATOM      4  O   UNL     1      24.088  -9.071   5.939  1.00  0.00    -0.285 OA
ATOM      5  C   UNL     1      25.317  -7.492   7.124  1.00  0.00     0.111 A 
ATOM      6  C   UNL     1      26.403  -7.460   6.218  1.00  0.00     0.134 A 
ATOM      7  C   UNL     1      27.500  -6.623   6.476  1.00  0.00     0.093 A 
ATOM      8  C   UNL     1      27.531  -5.822   7.622  1.00  0.00     0.123 A 
ATOM      9  C   UNL     1      26.461  -5.850   8.519  1.00  0.00     0.094 A 
ATOM     10  C   UNL     1      25.359  -6.675   8.279  1.00  0.00     0.146 A 
ATOM     11  O   UNL     1      24.353  -6.679   9.146  1.00  0.00    -0.452 OA
ENDROOT
BRANCH   1  12
ATOM     12  C   UNL     1      22.206  -7.330  10.031  1.00  0.00     0.025 A 
ATOM     13  C   UNL     1      21.253  -6.297  10.010  1.00  0.00     0.016 A 
ATOM     14  C   UNL     1      20.280  -6.214  11.010  1.00  0.00     0.051 A 
ATOM     15  C   UNL     1      20.253  -7.151  12.051  1.00  0.00     0.157 A 
ATOM     16  C   UNL     1      22.187  -8.254  11.088  1.00  0.00     0.062 A 
ATOM     17  C   UNL     1      21.214  -8.174  12.091  1.00  0.00     0.158 A 
BRANCH  15  18
ATOM     18  O   UNL     1      19.280  -7.066  13.045  1.00  0.00    -0.504 OA
ATOM     19  H   UNL     1      18.707  -7.863  13.298  1.00  0.00     0.293 HD
ENDBRANCH  15  18
BRANCH  17  20
ATOM     20  O   UNL     1      21.220  -9.118  13.118  1.00  0.00    -0.504 OA
ATOM     21  H   UNL     1      20.464  -9.187  13.789  1.00  0.00     0.293 HD
ENDBRANCH  17  20
ENDBRANCH   1  12
BRANCH   2  22
ATOM     22  O   UNL     1      22.039  -9.125   7.757  1.00  0.00    -0.502 OA
ATOM     23  H   UNL     1      22.126 -10.118   7.579  1.00  0.00     0.293 HD
ENDBRANCH   2  22
BRANCH   6  24
ATOM     24  O   UNL     1      26.403  -8.248   5.067  1.00  0.00    -0.507 OA
ATOM     25  H   UNL     1      27.176  -8.863   4.840  1.00  0.00     0.293 HD
ENDBRANCH   6  24
BRANCH   8  26
ATOM     26  O   UNL     1      28.620  -4.993   7.879  1.00  0.00    -0.508 OA
ATOM     27  H   UNL     1      28.635  -4.026   7.574  1.00  0.00     0.293 HD
ENDBRANCH   8  26
TORSDOF 6
ENDMDL
MODEL 6
REMARK VINA RESULT:    -4.500      3.366      7.484
REMARK INTER + INTRA:          -5.540
REMARK INTER:                  -5.322
REMARK INTRA:                  -0.218
REMARK UNBOUND:                -0.120
REMARK SMILES O=c1c(O)c(-c2ccc(O)c(O)c2)oc2cc(O)cc(O)c12
REMARK SMILES IDX 5 1 3 2 2 3 1 4 22 5 20 6 19 7 17 8 16 9 15 10 14 11 6 12
REMARK SMILES IDX 7 13 8 14 9 15 13 16 11 17 10 18 12 20 4 22 21 24 18 26
REMARK H PARENT 10 19 12 21 4 23 21 25 18 27
REMARK Flexibility Score: inf
ROOT
ATOM      1  C   UNL     1      20.625  -3.131   9.011  1.00  0.00     0.180 A 
ATOM      2  C   UNL     1      19.983  -3.837   7.975  1.00  0.00     0.208 A 
ATOM      3  C   UNL     1      20.332  -5.179   7.751  1.00  0.00     0.238 A 
ATOM      4  O   UNL     1      19.772  -5.817   6.819  1.00  0.00    -0.285 OA
ATOM      5  C   UNL     1      21.296  -5.795   8.575  1.00  0.00     0.111 A 
ATOM      6  C   UNL     1      21.701  -7.142   8.418  1.00  0.00     0.134 A 
ATOM      7  C   UNL     1      22.662  -7.686   9.285  1.00  0.00     0.093 A 
ATOM      8  C   UNL     1      23.223  -6.908  10.304  1.00  0.00     0.123 A 
ATOM      9  C   UNL     1      22.828  -5.579  10.461  1.00  0.00     0.094 A 
ATOM     10  C   UNL     1      21.874  -5.019   9.607  1.00  0.00     0.146 A 
ATOM     11  O   UNL     1      21.519  -3.750   9.777  1.00  0.00    -0.452 OA
ENDROOT
BRANCH   1  12
ATOM     12  C   UNL     1      20.326  -1.710   9.297  1.00  0.00     0.025 A 
ATOM     13  C   UNL     1      20.666  -0.693   8.389  1.00  0.00     0.016 A 
ATOM     14  C   UNL     1      20.396   0.644   8.692  1.00  0.00     0.051 A 
ATOM     15  C   UNL     1      19.794   0.986   9.910  1.00  0.00     0.157 A 
ATOM     16  C   UNL     1      19.742  -1.360  10.526  1.00  0.00     0.062 A 
ATOM     17  C   UNL     1      19.469  -0.022  10.832  1.00  0.00     0.158 A 
BRANCH  15  18
ATOM     18  O   UNL     1      19.523   2.320  10.208  1.00  0.00    -0.504 OA
ATOM     19  H   UNL     1      18.711   2.796   9.829  1.00  0.00     0.293 HD
ENDBRANCH  15  18
BRANCH  17  20
ATOM     20  O   UNL     1      18.876   0.285  12.057  1.00  0.00    -0.504 OA
ATOM     21  H   UNL     1      19.423   0.527  12.874  1.00  0.00     0.293 HD
ENDBRANCH  17  20
ENDBRANCH   1  12
BRANCH   2  22
ATOM     22  O   UNL     1      18.995  -3.219   7.206  1.00  0.00    -0.502 OA
ATOM     23  H   UNL     1      18.146  -3.696   6.926  1.00  0.00     0.293 HD
ENDBRANCH   2  22
BRANCH   6  24
ATOM     24  O   UNL     1      21.159  -7.943   7.412  1.00  0.00    -0.507 OA
ATOM     25  H   UNL     1      21.049  -7.606   6.463  1.00  0.00     0.293 HD
ENDBRANCH   6  24
BRANCH   8  26
ATOM     26  O   UNL     1      24.176  -7.448  11.165  1.00  0.00    -0.508 OA
ATOM     27  H   UNL     1      23.941  -7.719  12.113  1.00  0.00     0.293 HD
ENDBRANCH   8  26
TORSDOF 6
ENDMDL
MODEL 7
REMARK VINA RESULT:    -4.473      2.636      6.376
REMARK INTER + INTRA:          -5.508
REMARK INTER:                  -5.312
REMARK INTRA:                  -0.196
REMARK UNBOUND:                -0.120
REMARK SMILES O=c1c(O)c(-c2ccc(O)c(O)c2)oc2cc(O)cc(O)c12
REMARK SMILES IDX 5 1 3 2 2 3 1 4 22 5 20 6 19 7 17 8 16 9 15 10 14 11 6 12
REMARK SMILES IDX 7 13 8 14 9 15 13 16 11 17 10 18 12 20 4 22 21 24 18 26
REMARK H PARENT 10 19 12 21 4 23 21 25 18 27
REMARK Flexibility Score: inf
ROOT
ATOM      1  C   UNL     1      21.337  -4.527   8.890  1.00  0.00     0.180 A 
ATOM      2  C   UNL     1      20.583  -5.314   9.782  1.00  0.00     0.208 A 
ATOM      3  C   UNL     1      21.085  -6.565  10.174  1.00  0.00     0.238 A 
ATOM      4  O   UNL     1      20.413  -7.283  10.964  1.00  0.00    -0.285 OA
ATOM      5  C   UNL     1      22.336  -6.997   9.688  1.00  0.00     0.111 A 
ATOM      6  C   UNL     1      22.915  -8.241  10.038  1.00  0.00     0.134 A 
ATOM      7  C   UNL     1      24.169  -8.596   9.518  1.00  0.00     0.093 A 
ATOM      8  C   UNL     1      24.854  -7.730   8.658  1.00  0.00     0.123 A 
ATOM      9  C   UNL     1      24.287  -6.504   8.309  1.00  0.00     0.094 A 
ATOM     10  C   UNL     1      23.038  -6.133   8.815  1.00  0.00     0.146 A 
ATOM     11  O   UNL     1      22.520  -4.962   8.464  1.00  0.00    -0.452 OA
ENDROOT
BRANCH   1  12
ATOM     12  C   UNL     1      20.866  -3.206   8.414  1.00  0.00     0.025 A 
ATOM     13  C   UNL     1      20.529  -2.991   7.067  1.00  0.00     0.016 A 
ATOM     14  C   UNL     1      20.110  -1.730   6.637  1.00  0.00     0.051 A 
ATOM     15  C   UNL     1      20.035  -0.662   7.542  1.00  0.00     0.157 A 
ATOM     16  C   UNL     1      20.809  -2.128   9.313  1.00  0.00     0.062 A 
ATOM     17  C   UNL     1      20.390  -0.863   8.885  1.00  0.00     0.158 A 
BRANCH  15  18
ATOM     18  O   UNL     1      19.615   0.595   7.110  1.00  0.00    -0.504 OA
ATOM     19  H   UNL     1      19.107   0.716   6.240  1.00  0.00     0.293 HD
ENDBRANCH  15  18
BRANCH  17  20
ATOM     20  O   UNL     1      20.333   0.180   9.810  1.00  0.00    -0.504 OA
ATOM     21  H   UNL     1      21.121   0.420  10.399  1.00  0.00     0.293 HD
ENDBRANCH  17  20
ENDBRANCH   1  12
BRANCH   2  22
ATOM     22  O   UNL     1      19.370  -4.842  10.288  1.00  0.00    -0.502 OA
ATOM     23  H   UNL     1      19.196  -4.745  11.281  1.00  0.00     0.293 HD
ENDBRANCH   2  22
BRANCH   6  24
ATOM     24  O   UNL     1      22.257  -9.124  10.894  1.00  0.00    -0.507 OA
ATOM     25  H   UNL     1      21.336  -8.921  11.265  1.00  0.00     0.293 HD
ENDBRANCH   6  24
BRANCH   8  26
ATOM     26  O   UNL     1      26.100  -8.082   8.143  1.00  0.00    -0.508 OA
ATOM     27  H   UNL     1      26.788  -7.381   7.893  1.00  0.00     0.293 HD
ENDBRANCH   8  26
TORSDOF 6
ENDMDL
MODEL 8
REMARK VINA RESULT:    -4.444      3.497      6.059
REMARK INTER + INTRA:          -5.473
REMARK INTER:                  -5.149
REMARK INTRA:                  -0.324
REMARK UNBOUND:                -0.120
REMARK SMILES O=c1c(O)c(-c2ccc(O)c(O)c2)oc2cc(O)cc(O)c12
REMARK SMILES IDX 5 1 3 2 2 3 1 4 22 5 20 6 19 7 17 8 16 9 15 10 14 11 6 12
REMARK SMILES IDX 7 13 8 14 9 15 13 16 11 17 10 18 12 20 4 22 21 24 18 26
REMARK H PARENT 10 19 12 21 4 23 21 25 18 27
REMARK Flexibility Score: inf
ROOT
ATOM      1  C   UNL     1      21.340  -4.535   9.281  1.00  0.00     0.180 A 
ATOM      2  C   UNL     1      20.815  -5.034   8.073  1.00  0.00     0.208 A 
ATOM      3  C   UNL     1      20.172  -4.147   7.195  1.00  0.00     0.238 A 
ATOM      4  O   UNL     1      19.688  -4.585   6.116  1.00  0.00    -0.285 OA
ATOM      5  C   UNL     1      20.084  -2.779   7.527  1.00  0.00     0.111 A 
ATOM      6  C   UNL     1      19.457  -1.820   6.696  1.00  0.00     0.134 A 
ATOM      7  C   UNL     1      19.418  -0.475   7.093  1.00  0.00     0.093 A 
ATOM      8  C   UNL     1      19.994  -0.072   8.303  1.00  0.00     0.123 A 
ATOM      9  C   UNL     1      20.612  -1.015   9.126  1.00  0.00     0.094 A 
ATOM     10  C   UNL     1      20.660  -2.360   8.749  1.00  0.00     0.146 A 
ATOM     11  O   UNL     1      21.251  -3.236   9.553  1.00  0.00    -0.452 OA
ENDROOT
BRANCH   1  12
ATOM     12  C   UNL     1      22.014  -5.410  10.267  1.00  0.00     0.025 A 
ATOM     13  C   UNL     1      23.400  -5.635  10.218  1.00  0.00     0.016 A 
ATOM     14  C   UNL     1      24.011  -6.484  11.145  1.00  0.00     0.051 A 
ATOM     15  C   UNL     1      23.246  -7.131  12.124  1.00  0.00     0.157 A 
ATOM     16  C   UNL     1      21.248  -6.077  11.237  1.00  0.00     0.062 A 
ATOM     17  C   UNL     1      21.857  -6.928  12.167  1.00  0.00     0.158 A 
BRANCH  15  18
ATOM     18  O   UNL     1      23.858  -7.975  13.048  1.00  0.00    -0.504 OA
ATOM     19  H   UNL     1      24.859  -8.140  13.036  1.00  0.00     0.293 HD
ENDBRANCH  15  18
BRANCH  17  20
ATOM     20  O   UNL     1      21.065  -7.562  13.125  1.00  0.00    -0.504 OA
ATOM     21  H   UNL     1      21.050  -8.570  13.229  1.00  0.00     0.293 HD
ENDBRANCH  17  20
ENDBRANCH   1  12
BRANCH   2  22
ATOM     22  O   UNL     1      20.959  -6.384   7.745  1.00  0.00    -0.502 OA
ATOM     23  H   UNL     1      21.521  -7.021   8.297  1.00  0.00     0.293 HD
ENDBRANCH   2  22
BRANCH   6  24
ATOM     24  O   UNL     1      18.875  -2.191   5.483  1.00  0.00    -0.507 OA
ATOM     25  H   UNL     1      19.169  -1.783   4.603  1.00  0.00     0.293 HD
ENDBRANCH   6  24
BRANCH   8  26
ATOM     26  O   UNL     1      19.957   1.264   8.697  1.00  0.00    -0.508 OA
ATOM     27  H   UNL     1      20.528   1.967   8.243  1.00  0.00     0.293 HD
ENDBRANCH   8  26
TORSDOF 6
ENDMDL
MODEL 9
REMARK VINA RESULT:    -3.590      2.862      4.740
REMARK INTER + INTRA:          -4.444
REMARK INTER:                  -4.126
REMARK INTRA:                  -0.318
REMARK UNBOUND:                -0.120
REMARK SMILES O=c1c(O)c(-c2ccc(O)c(O)c2)oc2cc(O)cc(O)c12
REMARK SMILES IDX 5 1 3 2 2 3 1 4 22 5 20 6 19 7 17 8 16 9 15 10 14 11 6 12
REMARK SMILES IDX 7 13 8 14 9 15 13 16 11 17 10 18 12 20 4 22 21 24 18 26
REMARK H PARENT 10 19 12 21 4 23 21 25 18 27
REMARK Flexibility Score: inf
ROOT
ATOM      1  C   UNL     1      21.498  -4.299   9.569  1.00  0.00     0.180 A 
ATOM      2  C   UNL     1      21.252  -4.124  10.945  1.00  0.00     0.208 A 
ATOM      3  C   UNL     1      20.727  -2.900  11.390  1.00  0.00     0.238 A 
ATOM      4  O   UNL     1      20.513  -2.729  12.621  1.00  0.00    -0.285 OA
ATOM      5  C   UNL     1      20.439  -1.885  10.455  1.00  0.00     0.111 A 
ATOM      6  C   UNL     1      19.904  -0.626  10.821  1.00  0.00     0.134 A 
ATOM      7  C   UNL     1      19.636   0.331   9.830  1.00  0.00     0.093 A 
ATOM      8  C   UNL     1      19.891   0.051   8.483  1.00  0.00     0.123 A 
ATOM      9  C   UNL     1      20.419  -1.188   8.118  1.00  0.00     0.094 A 
ATOM     10  C   UNL     1      20.694  -2.154   9.090  1.00  0.00     0.146 A 
ATOM     11  O   UNL     1      21.200  -3.323   8.715  1.00  0.00    -0.452 OA
ENDROOT
BRANCH   1  12
ATOM     12  C   UNL     1      22.068  -5.552   9.025  1.00  0.00     0.025 A 
ATOM     13  C   UNL     1      21.243  -6.587   8.554  1.00  0.00     0.016 A 
ATOM     14  C   UNL     1      21.803  -7.771   8.067  1.00  0.00     0.051 A 
ATOM     15  C   UNL     1      23.193  -7.944   8.055  1.00  0.00     0.157 A 
ATOM     16  C   UNL     1      23.460  -5.739   9.030  1.00  0.00     0.062 A 
ATOM     17  C   UNL     1      24.025  -6.923   8.543  1.00  0.00     0.158 A 
BRANCH  15  18
ATOM     18  O   UNL     1      23.749  -9.125   7.567  1.00  0.00    -0.504 OA
ATOM     19  H   UNL     1      23.350 -10.031   7.788  1.00  0.00     0.293 HD
ENDBRANCH  15  18
BRANCH  17  20
ATOM     20  O   UNL     1      25.413  -7.066   8.552  1.00  0.00    -0.504 OA
ATOM     21  H   UNL     1      25.999  -6.578   9.218  1.00  0.00     0.293 HD
ENDBRANCH  17  20
ENDBRANCH   1  12
BRANCH   2  22
ATOM     22  O   UNL     1      21.499  -5.164  11.844  1.00  0.00    -0.502 OA
ATOM     23  H   UNL     1      22.235  -5.117  12.539  1.00  0.00     0.293 HD
ENDBRANCH   2  22
BRANCH   6  24
ATOM     24  O   UNL     1      19.639  -0.318  12.156  1.00  0.00    -0.507 OA
ATOM     25  H   UNL     1      19.166  -0.970  12.770  1.00  0.00     0.293 HD
ENDBRANCH   6  24
BRANCH   8  26
ATOM     26  O   UNL     1      19.624   1.000   7.499  1.00  0.00    -0.508 OA
ATOM     27  H   UNL     1      18.851   0.892   6.853  1.00  0.00     0.293 HD
ENDBRANCH   8  26
TORSDOF 6
ENDMDL
