MODEL 1
REMARK VINA RESULT:    -5.675      0.000      0.000
REMARK INTER + INTRA:          -6.220
REMARK INTER:                  -6.173
REMARK INTRA:                  -0.047
REMARK UNBOUND:                -0.047
REMARK SMILES COc1cc2ccc(=O)oc2cc1O
REMARK SMILES IDX 3 1 13 2 12 3 11 4 5 5 4 6 6 7 7 8 8 9 9 10 10 11 2 12 1 13
REMARK SMILES IDX 14 14
REMARK H PARENT 14 15
REMARK Flexibility Score: inf
ROOT
ATOM      1  C   UNL     1      15.686  30.150  23.069  1.00  0.00     0.161 A 
ATOM      2  C   UNL     1      16.389  31.365  23.102  1.00  0.00     0.161 A 
ATOM      3  C   UNL     1      17.406  31.570  24.045  1.00  0.00     0.098 A 
ATOM      4  C   UNL     1      17.728  30.567  24.962  1.00  0.00     0.142 A 
ATOM      5  C   UNL     1      17.028  29.343  24.936  1.00  0.00     0.022 A 
ATOM      6  C   UNL     1      16.011  29.137  23.994  1.00  0.00     0.062 A 
ATOM      7  C   UNL     1      17.374  28.357  25.867  1.00  0.00     0.019 A 
ATOM      8  C   UNL     1      18.393  28.611  26.785  1.00  0.00     0.094 A 
ATOM      9  C   UNL     1      19.044  29.848  26.751  1.00  0.00     0.336 A 
ATOM     10  O   UNL     1      19.966  30.096  27.571  1.00  0.00    -0.246 OA
ATOM     11  O   UNL     1      18.695  30.768  25.855  1.00  0.00    -0.423 OA
ENDROOT
BRANCH   1  12
ATOM     12  O   UNL     1      14.677  29.988  22.107  1.00  0.00    -0.493 OA
ATOM     13  C   UNL     1      14.240  28.731  21.599  1.00  0.00     0.278 C 
ENDBRANCH   1  12
BRANCH   2  14
ATOM     14  O   UNL     1      16.069  32.368  22.188  1.00  0.00    -0.504 OA
ATOM     15  H   UNL     1      16.001  33.339  22.468  1.00  0.00     0.293 HD
ENDBRANCH   2  14
TORSDOF 2
ENDMDL
MODEL 2
REMARK VINA RESULT:    -5.549      1.509      5.571
REMARK INTER + INTRA:          -6.082
REMARK INTER:                  -6.132
REMARK INTRA:                   0.049
REMARK UNBOUND:                -0.047
REMARK SMILES COc1cc2ccc(=O)oc2cc1O
REMARK SMILES IDX 3 1 13 2 12 3 11 4 5 5 4 6 6 7 7 8 8 9 9 10 10 11 2 12 1 13
REMARK SMILES IDX 14 14
REMARK H PARENT 14 15
REMARK Flexibility Score: inf
ROOT
ATOM      1  C   UNL     1      17.693  30.508  24.636  1.00  0.00     0.161 A 
ATOM      2  C   UNL     1      16.930  29.331  24.697  1.00  0.00     0.161 A 
ATOM      3  C   UNL     1      15.755  29.209  23.941  1.00  0.00     0.098 A 
ATOM      4  C   UNL     1      15.334  30.258  23.120  1.00  0.00     0.142 A 
ATOM      5  C   UNL     1      16.095  31.443  23.053  1.00  0.00     0.022 A 
ATOM      6  C   UNL     1      17.269  31.567  23.808  1.00  0.00     0.062 A 
ATOM      7  C   UNL     1      15.648  32.476  22.221  1.00  0.00     0.019 A 
ATOM      8  C   UNL     1      14.474  32.305  21.489  1.00  0.00     0.094 A 
ATOM      9  C   UNL     1      13.771  31.101  21.606  1.00  0.00     0.336 A 
ATOM     10  O   UNL     1      12.709  30.928  20.953  1.00  0.00    -0.246 OA
ATOM     11  O   UNL     1      14.219  30.134  22.404  1.00  0.00    -0.423 OA
ENDROOT
BRANCH   1  12
ATOM     12  O   UNL     1      18.861  30.586  25.410  1.00  0.00    -0.493 OA
ATOM     13  C   UNL     1      18.886  30.836  26.812  1.00  0.00     0.278 C 
ENDBRANCH   1  12
BRANCH   2  14
ATOM     14  O   UNL     1      17.348  28.283  25.515  1.00  0.00    -0.504 OA
ATOM     15  H   UNL     1      18.048  28.418  26.235  1.00  0.00     0.293 HD
ENDBRANCH   2  14
TORSDOF 2
ENDMDL
MODEL 3
REMARK VINA RESULT:    -5.543      1.620      2.678
REMARK INTER + INTRA:          -6.076
REMARK INTER:                  -6.010
REMARK INTRA:                  -0.065
REMARK UNBOUND:                -0.047
REMARK SMILES COc1cc2ccc(=O)oc2cc1O
REMARK SMILES IDX 3 1 13 2 12 3 11 4 5 5 4 6 6 7 7 8 8 9 9 10 10 11 2 12 1 13
REMARK SMILES IDX 14 14
REMARK H PARENT 14 15
REMARK Flexibility Score: inf
ROOT
ATOM      1  C   UNL     1      15.552  31.670  22.545  1.00  0.00     0.161 A 
ATOM      2  C   UNL     1      14.859  30.452  22.636  1.00  0.00     0.161 A 
ATOM      3  C   UNL     1      15.326  29.433  23.478  1.00  0.00     0.098 A 
ATOM      4  C   UNL     1      16.485  29.620  24.234  1.00  0.00     0.142 A 
ATOM      5  C   UNL     1      17.187  30.840  24.149  1.00  0.00     0.022 A 
ATOM      6  C   UNL     1      16.722  31.860  23.308  1.00  0.00     0.062 A 
ATOM      7  C   UNL     1      18.345  30.997  24.918  1.00  0.00     0.019 A 
ATOM      8  C   UNL     1      18.768  29.952  25.740  1.00  0.00     0.094 A 
ATOM      9  C   UNL     1      18.021  28.771  25.773  1.00  0.00     0.336 A 
ATOM     10  O   UNL     1      18.385  27.817  26.509  1.00  0.00    -0.246 OA
ATOM     11  O   UNL     1      16.922  28.647  25.031  1.00  0.00    -0.423 OA
ENDROOT
BRANCH   1  12
ATOM     12  O   UNL     1      15.048  32.663  21.691  1.00  0.00    -0.493 OA
ATOM     13  C   UNL     1      15.583  32.970  20.407  1.00  0.00     0.278 C 
ENDBRANCH   1  12
BRANCH   2  14
ATOM     14  O   UNL     1      13.701  30.264  21.883  1.00  0.00    -0.504 OA
ATOM     15  H   UNL     1      12.807  30.637  22.182  1.00  0.00     0.293 HD
ENDBRANCH   2  14
TORSDOF 2
ENDMDL
MODEL 4
REMARK VINA RESULT:    -5.421      6.960      8.594
REMARK INTER + INTRA:          -5.944
REMARK INTER:                  -5.897
REMARK INTRA:                  -0.046
REMARK UNBOUND:                -0.047
REMARK SMILES COc1cc2ccc(=O)oc2cc1O
REMARK SMILES IDX 3 1 13 2 12 3 11 4 5 5 4 6 6 7 7 8 8 9 9 10 10 11 2 12 1 13
REMARK SMILES IDX 14 14
REMARK H PARENT 14 15
REMARK Flexibility Score: inf
ROOT
ATOM      1  C   UNL     1       9.668  32.759  23.991  1.00  0.00     0.161 A 
ATOM      2  C   UNL     1       8.731  33.118  23.008  1.00  0.00     0.161 A 
ATOM      3  C   UNL     1       9.157  33.474  21.720  1.00  0.00     0.098 A 
ATOM      4  C   UNL     1      10.517  33.474  21.403  1.00  0.00     0.142 A 
ATOM      5  C   UNL     1      11.465  33.115  22.384  1.00  0.00     0.022 A 
ATOM      6  C   UNL     1      11.041  32.759  23.672  1.00  0.00     0.062 A 
ATOM      7  C   UNL     1      12.820  33.124  22.036  1.00  0.00     0.019 A 
ATOM      8  C   UNL     1      13.191  33.486  20.742  1.00  0.00     0.094 A 
ATOM      9  C   UNL     1      12.196  33.830  19.822  1.00  0.00     0.336 A 
ATOM     10  O   UNL     1      12.511  34.159  18.648  1.00  0.00    -0.246 OA
ATOM     11  O   UNL     1      10.914  33.812  20.178  1.00  0.00    -0.423 OA
ENDROOT
BRANCH   1  12
ATOM     12  O   UNL     1       9.197  32.410  25.266  1.00  0.00    -0.493 OA
ATOM     13  C   UNL     1       9.985  32.435  26.452  1.00  0.00     0.278 C 
ENDBRANCH   1  12
BRANCH   2  14
ATOM     14  O   UNL     1       7.373  33.118  23.322  1.00  0.00    -0.504 OA
ATOM     15  H   UNL     1       7.050  33.165  24.281  1.00  0.00     0.293 HD
ENDBRANCH   2  14
TORSDOF 2
ENDMDL
MODEL 5
REMARK VINA RESULT:    -5.327      1.270      4.853
REMARK INTER + INTRA:          -5.841
REMARK INTER:                  -5.842
REMARK INTRA:                   0.001
REMARK UNBOUND:                -0.047
REMARK SMILES COc1cc2ccc(=O)oc2cc1O
REMARK SMILES IDX 3 1 13 2 12 3 11 4 5 5 4 6 6 7 7 8 8 9 9 10 10 11 2 12 1 13
REMARK SMILES IDX 14 14
REMARK H PARENT 14 15
REMARK Flexibility Score: inf
ROOT
ATOM      1  C   UNL     1      17.647  29.221  25.452  1.00  0.00     0.161 A 
ATOM      2  C   UNL     1      18.198  30.509  25.348  1.00  0.00     0.161 A 
ATOM      3  C   UNL     1      17.675  31.431  24.430  1.00  0.00     0.098 A 
ATOM      4  C   UNL     1      16.602  31.076  23.609  1.00  0.00     0.142 A 
ATOM      5  C   UNL     1      16.043  29.785  23.707  1.00  0.00     0.022 A 
ATOM      6  C   UNL     1      16.564  28.863  24.624  1.00  0.00     0.062 A 
ATOM      7  C   UNL     1      14.968  29.460  22.872  1.00  0.00     0.019 A 
ATOM      8  C   UNL     1      14.485  30.412  21.975  1.00  0.00     0.094 A 
ATOM      9  C   UNL     1      15.090  31.673  21.934  1.00  0.00     0.336 A 
ATOM     10  O   UNL     1      14.668  32.547  21.132  1.00  0.00    -0.246 OA
ATOM     11  O   UNL     1      16.111  31.957  22.740  1.00  0.00    -0.423 OA
ENDROOT
BRANCH   1  12
ATOM     12  O   UNL     1      18.201  28.331  26.385  1.00  0.00    -0.493 OA
ATOM     13  C   UNL     1      19.355  27.530  26.150  1.00  0.00     0.278 C 
ENDBRANCH   1  12
BRANCH   2  14
ATOM     14  O   UNL     1      19.269  30.865  26.166  1.00  0.00    -0.504 OA
ATOM     15  H   UNL     1      19.429  30.412  27.058  1.00  0.00     0.293 HD
ENDBRANCH   2  14
TORSDOF 2
ENDMDL
MODEL 6
REMARK VINA RESULT:    -5.264      7.222      8.507
REMARK INTER + INTRA:          -5.772
REMARK INTER:                  -5.727
REMARK INTRA:                  -0.045
REMARK UNBOUND:                -0.047
REMARK SMILES COc1cc2ccc(=O)oc2cc1O
REMARK SMILES IDX 3 1 13 2 12 3 11 4 5 5 4 6 6 7 7 8 8 9 9 10 10 11 2 12 1 13
REMARK SMILES IDX 14 14
REMARK H PARENT 14 15
REMARK Flexibility Score: inf
ROOT
ATOM      1  C   UNL     1       9.805  33.888  20.860  1.00  0.00     0.161 A 
ATOM      2  C   UNL     1      11.113  33.558  21.249  1.00  0.00     0.161 A 
ATOM      3  C   UNL     1      11.376  33.126  22.557  1.00  0.00     0.098 A 
ATOM      4  C   UNL     1      10.337  33.022  23.485  1.00  0.00     0.142 A 
ATOM      5  C   UNL     1       9.021  33.352  23.103  1.00  0.00     0.022 A 
ATOM      6  C   UNL     1       8.757  33.783  21.796  1.00  0.00     0.062 A 
ATOM      7  C   UNL     1       8.002  33.236  24.055  1.00  0.00     0.019 A 
ATOM      8  C   UNL     1       8.315  32.803  25.343  1.00  0.00     0.094 A 
ATOM      9  C   UNL     1       9.644  32.494  25.650  1.00  0.00     0.336 A 
ATOM     10  O   UNL     1       9.946  32.100  26.807  1.00  0.00    -0.246 OA
ATOM     11  O   UNL     1      10.594  32.611  24.725  1.00  0.00    -0.423 OA
ENDROOT
BRANCH   1  12
ATOM     12  O   UNL     1       9.589  34.314  19.540  1.00  0.00    -0.493 OA
ATOM     13  C   UNL     1       8.328  34.728  19.022  1.00  0.00     0.278 C 
ENDBRANCH   1  12
BRANCH   2  14
ATOM     14  O   UNL     1      12.151  33.660  20.324  1.00  0.00    -0.504 OA
ATOM     15  H   UNL     1      12.178  33.085  19.490  1.00  0.00     0.293 HD
ENDBRANCH   2  14
TORSDOF 2
ENDMDL
MODEL 7
REMARK VINA RESULT:    -5.218      8.330      9.790
REMARK INTER + INTRA:          -5.723
REMARK INTER:                  -5.675
REMARK INTRA:                  -0.048
REMARK UNBOUND:                -0.047
REMARK SMILES COc1cc2ccc(=O)oc2cc1O
REMARK SMILES IDX 3 1 13 2 12 3 11 4 5 5 4 6 6 7 7 8 8 9 9 10 10 11 2 12 1 13
REMARK SMILES IDX 14 14
REMARK H PARENT 14 15
REMARK Flexibility Score: inf
ROOT
ATOM      1  C   UNL     1       7.247  33.172  21.070  1.00  0.00     0.161 A 
ATOM      2  C   UNL     1       6.803  31.973  21.651  1.00  0.00     0.161 A 
ATOM      3  C   UNL     1       7.286  31.571  22.904  1.00  0.00     0.098 A 
ATOM      4  C   UNL     1       8.216  32.360  23.586  1.00  0.00     0.142 A 
ATOM      5  C   UNL     1       8.667  33.566  23.010  1.00  0.00     0.022 A 
ATOM      6  C   UNL     1       8.184  33.969  21.758  1.00  0.00     0.062 A 
ATOM      7  C   UNL     1       9.597  34.334  23.718  1.00  0.00     0.019 A 
ATOM      8  C   UNL     1      10.047  33.890  24.961  1.00  0.00     0.094 A 
ATOM      9  C   UNL     1       9.555  32.684  25.469  1.00  0.00     0.336 A 
ATOM     10  O   UNL     1       9.949  32.266  26.590  1.00  0.00    -0.246 OA
ATOM     11  O   UNL     1       8.670  31.972  24.776  1.00  0.00    -0.423 OA
ENDROOT
BRANCH   1  12
ATOM     12  O   UNL     1       6.736  33.536  19.815  1.00  0.00    -0.493 OA
ATOM     13  C   UNL     1       7.457  34.271  18.831  1.00  0.00     0.278 C 
ENDBRANCH   1  12
BRANCH   2  14
ATOM     14  O   UNL     1       5.875  31.184  20.972  1.00  0.00    -0.504 OA
ATOM     15  H   UNL     1       5.544  30.306  21.354  1.00  0.00     0.293 HD
ENDBRANCH   2  14
TORSDOF 2
ENDMDL
MODEL 8
REMARK VINA RESULT:    -5.207      6.715      8.355
REMARK INTER + INTRA:          -5.710
REMARK INTER:                  -5.646
REMARK INTRA:                  -0.064
REMARK UNBOUND:                -0.047
REMARK SMILES COc1cc2ccc(=O)oc2cc1O
REMARK SMILES IDX 3 1 13 2 12 3 11 4 5 5 4 6 6 7 7 8 8 9 9 10 10 11 2 12 1 13
REMARK SMILES IDX 14 14
REMARK H PARENT 14 15
REMARK Flexibility Score: inf
ROOT
ATOM      1  C   UNL     1       8.662  32.318  24.578  1.00  0.00     0.161 A 
ATOM      2  C   UNL     1       9.822  32.478  25.353  1.00  0.00     0.161 A 
ATOM      3  C   UNL     1      11.042  32.800  24.743  1.00  0.00     0.098 A 
ATOM      4  C   UNL     1      11.115  32.966  23.358  1.00  0.00     0.142 A 
ATOM      5  C   UNL     1       9.954  32.808  22.572  1.00  0.00     0.022 A 
ATOM      6  C   UNL     1       8.734  32.486  23.181  1.00  0.00     0.062 A 
ATOM      7  C   UNL     1      10.059  32.981  21.188  1.00  0.00     0.019 A 
ATOM      8  C   UNL     1      11.296  33.302  20.630  1.00  0.00     0.094 A 
ATOM      9  C   UNL     1      12.404  33.442  21.472  1.00  0.00     0.336 A 
ATOM     10  O   UNL     1      13.529  33.732  20.987  1.00  0.00    -0.246 OA
ATOM     11  O   UNL     1      12.277  33.273  22.786  1.00  0.00    -0.423 OA
ENDROOT
BRANCH   1  12
ATOM     12  O   UNL     1       7.462  31.996  25.231  1.00  0.00    -0.493 OA
ATOM     13  C   UNL     1       6.910  30.685  25.306  1.00  0.00     0.278 C 
ENDBRANCH   1  12
BRANCH   2  14
ATOM     14  O   UNL     1       9.752  32.313  26.736  1.00  0.00    -0.504 OA
ATOM     15  H   UNL     1       8.970  32.669  27.274  1.00  0.00     0.293 HD
ENDBRANCH   2  14
TORSDOF 2
ENDMDL
MODEL 9
REMARK VINA RESULT:    -5.100      6.119      7.738
REMARK INTER + INTRA:          -5.594
REMARK INTER:                  -5.529
REMARK INTRA:                  -0.065
REMARK UNBOUND:                -0.047
REMARK SMILES COc1cc2ccc(=O)oc2cc1O
REMARK SMILES IDX 3 1 13 2 12 3 11 4 5 5 4 6 6 7 7 8 8 9 9 10 10 11 2 12 1 13
REMARK SMILES IDX 14 14
REMARK H PARENT 14 15
REMARK Flexibility Score: inf
ROOT
ATOM      1  C   UNL     1      11.635  33.118  20.660  1.00  0.00     0.161 A 
ATOM      2  C   UNL     1      12.400  32.197  21.393  1.00  0.00     0.161 A 
ATOM      3  C   UNL     1      12.138  31.982  22.753  1.00  0.00     0.098 A 
ATOM      4  C   UNL     1      11.113  32.683  23.393  1.00  0.00     0.142 A 
ATOM      5  C   UNL     1      10.339  33.610  22.664  1.00  0.00     0.022 A 
ATOM      6  C   UNL     1      10.600  33.826  21.304  1.00  0.00     0.062 A 
ATOM      7  C   UNL     1       9.320  34.297  23.332  1.00  0.00     0.019 A 
ATOM      8  C   UNL     1       9.099  34.048  24.686  1.00  0.00     0.094 A 
ATOM      9  C   UNL     1       9.907  33.114  25.343  1.00  0.00     0.336 A 
ATOM     10  O   UNL     1       9.723  32.874  26.566  1.00  0.00    -0.246 OA
ATOM     11  O   UNL     1      10.870  32.474  24.684  1.00  0.00    -0.423 OA
ENDROOT
BRANCH   1  12
ATOM     12  O   UNL     1      11.931  33.301  19.301  1.00  0.00    -0.493 OA
ATOM     13  C   UNL     1      12.687  34.389  18.778  1.00  0.00     0.278 C 
ENDBRANCH   1  12
BRANCH   2  14
ATOM     14  O   UNL     1      13.423  31.495  20.757  1.00  0.00    -0.504 OA
ATOM     15  H   UNL     1      13.364  31.241  19.778  1.00  0.00     0.293 HD
ENDBRANCH   2  14
TORSDOF 2
ENDMDL
