MODEL 1
REMARK VINA RESULT:    -3.787      0.000      0.000
REMARK INTER + INTRA:          -6.827
REMARK INTER:                  -6.000
REMARK INTRA:                  -0.826
REMARK UNBOUND:                -0.826
REMARK SMILES CCCCCCCCCCCC(=O)[O-]
REMARK SMILES IDX 7 1 8 2 9 3 10 4 11 5 12 6 13 7 14 8 6 9 5 10 4 11 3 12 2 13
REMARK SMILES IDX 1 14
REMARK H PARENT
REMARK Flexibility Score: inf
ROOT
ATOM      1  C   UNL     1      -5.754  -7.382  -6.030  1.00  0.00     0.000 C 
ENDROOT
BRANCH   1   2
ATOM      2  C   UNL     1      -5.209  -6.412  -7.089  1.00  0.00     0.000 C 
BRANCH   2   3
ATOM      3  C   UNL     1      -4.308  -7.106  -8.122  1.00  0.00     0.000 C 
BRANCH   3   4
ATOM      4  C   UNL     1      -5.108  -7.874  -9.186  1.00  0.00     0.006 C 
BRANCH   4   5
ATOM      5  C   UNL     1      -5.021  -9.385  -8.951  1.00  0.00     0.053 C 
BRANCH   5   6
ATOM      6  C   UNL     1      -3.600  -9.804  -8.756  1.00  0.00     0.041 C 
ATOM      7  O   UNL     1      -2.814  -9.859  -9.738  1.00  0.00    -0.550 OA
ATOM      8  O   UNL     1      -3.126 -10.088  -7.480  1.00  0.00    -0.550 OA
ENDBRANCH   5   6
ENDBRANCH   4   5
ENDBRANCH   3   4
ENDBRANCH   2   3
ENDBRANCH   1   2
BRANCH   1   9
ATOM      9  C   UNL     1      -7.251  -7.151  -5.791  1.00  0.00     0.000 C 
BRANCH   9  10
ATOM     10  C   UNL     1      -8.081  -7.612  -6.995  1.00  0.00    -0.000 C 
BRANCH  10  11
ATOM     11  C   UNL     1      -9.395  -6.823  -7.091  1.00  0.00    -0.000 C 
BRANCH  11  12
ATOM     12  C   UNL     1      -9.540  -5.775  -5.975  1.00  0.00    -0.000 C 
BRANCH  12  13
ATOM     13  C   UNL     1     -10.124  -4.448  -6.483  1.00  0.00    -0.003 C 
ATOM     14  C   UNL     1      -9.673  -4.160  -7.911  1.00  0.00     0.004 C 
ENDBRANCH  12  13
ENDBRANCH  11  12
ENDBRANCH  10  11
ENDBRANCH   9  10
ENDBRANCH   1   9
TORSDOF 10
ENDMDL
MODEL 2
REMARK VINA RESULT:    -3.503      3.586      5.814
REMARK INTER + INTRA:          -6.377
REMARK INTER:                  -5.092
REMARK INTRA:                  -1.285
REMARK UNBOUND:                -0.826
REMARK SMILES CCCCCCCCCCCC(=O)[O-]
REMARK SMILES IDX 7 1 8 2 9 3 10 4 11 5 12 6 13 7 14 8 6 9 5 10 4 11 3 12 2 13
REMARK SMILES IDX 1 14
REMARK H PARENT
REMARK Flexibility Score: inf
ROOT
ATOM      1  C   UNL     1      -5.624  -6.745  -6.165  1.00  0.00     0.000 C 
ENDROOT
BRANCH   1   2
ATOM      2  C   UNL     1      -6.297  -8.124  -6.097  1.00  0.00     0.000 C 
BRANCH   2   3
ATOM      3  C   UNL     1      -7.831  -8.035  -6.103  1.00  0.00     0.000 C 
BRANCH   3   4
ATOM      4  C   UNL     1      -8.341  -6.585  -6.066  1.00  0.00     0.006 C 
BRANCH   4   5
ATOM      5  C   UNL     1      -9.652  -6.445  -6.844  1.00  0.00     0.053 C 
BRANCH   5   6
ATOM      6  C   UNL     1      -9.886  -5.019  -7.225  1.00  0.00     0.041 C 
ATOM      7  O   UNL     1     -10.122  -4.157  -6.338  1.00  0.00    -0.550 OA
ATOM      8  O   UNL     1      -9.795  -4.629  -8.556  1.00  0.00    -0.550 OA
ENDBRANCH   5   6
ENDBRANCH   4   5
ENDBRANCH   3   4
ENDBRANCH   2   3
ENDBRANCH   1   2
BRANCH   1   9
ATOM      9  C   UNL     1      -4.938  -6.534  -7.521  1.00  0.00     0.000 C 
BRANCH   9  10
ATOM     10  C   UNL     1      -3.971  -7.681  -7.835  1.00  0.00    -0.000 C 
BRANCH  10  11
ATOM     11  C   UNL     1      -4.225  -8.245  -9.242  1.00  0.00    -0.000 C 
BRANCH  11  12
ATOM     12  C   UNL     1      -5.526  -7.714  -9.866  1.00  0.00    -0.000 C 
BRANCH  12  13
ATOM     13  C   UNL     1      -6.690  -8.709  -9.740  1.00  0.00    -0.003 C 
ATOM     14  C   UNL     1      -8.035  -7.993  -9.822  1.00  0.00     0.004 C 
ENDBRANCH  12  13
ENDBRANCH  11  12
ENDBRANCH  10  11
ENDBRANCH   9  10
ENDBRANCH   1   9
TORSDOF 10
ENDMDL
MODEL 3
REMARK VINA RESULT:    -3.431      3.607      6.262
REMARK INTER + INTRA:          -6.263
REMARK INTER:                  -5.225
REMARK INTRA:                  -1.038
REMARK UNBOUND:                -0.826
REMARK SMILES CCCCCCCCCCCC(=O)[O-]
REMARK SMILES IDX 7 1 8 2 9 3 10 4 11 5 12 6 13 7 14 8 6 9 5 10 4 11 3 12 2 13
REMARK SMILES IDX 1 14
REMARK H PARENT
REMARK Flexibility Score: inf
ROOT
ATOM      1  C   UNL     1      -6.737  -8.048  -6.161  1.00  0.00     0.000 C 
ENDROOT
BRANCH   1   2
ATOM      2  C   UNL     1      -8.167  -7.490  -6.092  1.00  0.00     0.000 C 
BRANCH   2   3
ATOM      3  C   UNL     1      -8.973  -7.768  -7.369  1.00  0.00     0.000 C 
BRANCH   3   4
ATOM      4  C   UNL     1      -8.819  -6.658  -8.421  1.00  0.00     0.006 C 
BRANCH   4   5
ATOM      5  C   UNL     1     -10.120  -5.864  -8.573  1.00  0.00     0.053 C 
BRANCH   5   6
ATOM      6  C   UNL     1      -9.945  -4.468  -8.069  1.00  0.00     0.041 C 
ATOM      7  O   UNL     1      -9.684  -4.260  -6.855  1.00  0.00    -0.550 OA
ATOM      8  O   UNL     1     -10.019  -3.395  -8.950  1.00  0.00    -0.550 OA
ENDBRANCH   5   6
ENDBRANCH   4   5
ENDBRANCH   3   4
ENDBRANCH   2   3
ENDBRANCH   1   2
BRANCH   1   9
ATOM      9  C   UNL     1      -5.702  -6.936  -5.949  1.00  0.00     0.000 C 
BRANCH   9  10
ATOM     10  C   UNL     1      -5.240  -6.350  -7.289  1.00  0.00    -0.000 C 
BRANCH  10  11
ATOM     11  C   UNL     1      -4.104  -7.191  -7.893  1.00  0.00    -0.000 C 
BRANCH  11  12
ATOM     12  C   UNL     1      -4.490  -7.827  -9.238  1.00  0.00    -0.000 C 
BRANCH  12  13
ATOM     13  C   UNL     1      -4.654  -9.352  -9.145  1.00  0.00    -0.003 C 
ATOM     14  C   UNL     1      -3.882  -9.916  -7.956  1.00  0.00     0.004 C 
ENDBRANCH  12  13
ENDBRANCH  11  12
ENDBRANCH  10  11
ENDBRANCH   9  10
ENDBRANCH   1   9
TORSDOF 10
ENDMDL
MODEL 4
REMARK VINA RESULT:    -3.315      2.096      3.274
REMARK INTER + INTRA:          -6.079
REMARK INTER:                  -4.993
REMARK INTRA:                  -1.086
REMARK UNBOUND:                -0.826
REMARK SMILES CCCCCCCCCCCC(=O)[O-]
REMARK SMILES IDX 7 1 8 2 9 3 10 4 11 5 12 6 13 7 14 8 6 9 5 10 4 11 3 12 2 13
REMARK SMILES IDX 1 14
REMARK H PARENT
REMARK Flexibility Score: inf
ROOT
ATOM      1  C   UNL     1      -6.283  -9.135  -9.599  1.00  0.00     0.000 C 
ENDROOT
BRANCH   1   2
ATOM      2  C   UNL     1      -5.563  -7.780  -9.672  1.00  0.00     0.000 C 
BRANCH   2   3
ATOM      3  C   UNL     1      -4.132  -7.838  -9.116  1.00  0.00     0.000 C 
BRANCH   3   4
ATOM      4  C   UNL     1      -4.065  -7.501  -7.618  1.00  0.00     0.006 C 
BRANCH   4   5
ATOM      5  C   UNL     1      -5.287  -6.687  -7.184  1.00  0.00     0.053 C 
BRANCH   5   6
ATOM      6  C   UNL     1      -6.025  -7.391  -6.091  1.00  0.00     0.041 C 
ATOM      7  O   UNL     1      -6.809  -6.752  -5.341  1.00  0.00    -0.550 OA
ATOM      8  O   UNL     1      -5.887  -8.765  -5.930  1.00  0.00    -0.550 OA
ENDBRANCH   5   6
ENDBRANCH   4   5
ENDBRANCH   3   4
ENDBRANCH   2   3
ENDBRANCH   1   2
BRANCH   1   9
ATOM      9  C   UNL     1      -7.712  -8.970  -9.067  1.00  0.00     0.000 C 
BRANCH   9  10
ATOM     10  C   UNL     1      -8.211  -7.534  -9.260  1.00  0.00    -0.000 C 
BRANCH  10  11
ATOM     11  C   UNL     1      -9.212  -7.147  -8.160  1.00  0.00    -0.000 C 
BRANCH  11  12
ATOM     12  C   UNL     1      -9.755  -5.720  -8.329  1.00  0.00    -0.000 C 
BRANCH  12  13
ATOM     13  C   UNL     1      -9.717  -4.914  -7.021  1.00  0.00    -0.003 C 
ATOM     14  C   UNL     1     -10.125  -5.779  -5.832  1.00  0.00     0.004 C 
ENDBRANCH  12  13
ENDBRANCH  11  12
ENDBRANCH  10  11
ENDBRANCH   9  10
ENDBRANCH   1   9
TORSDOF 10
ENDMDL
MODEL 5
REMARK VINA RESULT:    -3.250      3.221      5.468
REMARK INTER + INTRA:          -5.976
REMARK INTER:                  -4.380
REMARK INTRA:                  -1.595
REMARK UNBOUND:                -0.826
REMARK SMILES CCCCCCCCCCCC(=O)[O-]
REMARK SMILES IDX 7 1 8 2 9 3 10 4 11 5 12 6 13 7 14 8 6 9 5 10 4 11 3 12 2 13
REMARK SMILES IDX 1 14
REMARK H PARENT
REMARK Flexibility Score: inf
ROOT
ATOM      1  C   UNL     1      -5.564  -7.862  -9.784  1.00  0.00     0.000 C 
ENDROOT
BRANCH   1   2
ATOM      2  C   UNL     1      -6.274  -9.210  -9.587  1.00  0.00     0.000 C 
BRANCH   2   3
ATOM      3  C   UNL     1      -7.680  -9.057  -8.988  1.00  0.00     0.000 C 
BRANCH   3   4
ATOM      4  C   UNL     1      -8.168  -7.599  -8.985  1.00  0.00     0.006 C 
BRANCH   4   5
ATOM      5  C   UNL     1      -9.353  -7.421  -8.031  1.00  0.00     0.053 C 
BRANCH   5   6
ATOM      6  C   UNL     1      -9.189  -6.176  -7.219  1.00  0.00     0.041 C 
ATOM      7  O   UNL     1      -8.727  -6.239  -6.049  1.00  0.00    -0.550 OA
ATOM      8  O   UNL     1      -9.499  -4.939  -7.771  1.00  0.00    -0.550 OA
ENDBRANCH   5   6
ENDBRANCH   4   5
ENDBRANCH   3   4
ENDBRANCH   2   3
ENDBRANCH   1   2
BRANCH   1   9
ATOM      9  C   UNL     1      -4.437  -7.678  -8.760  1.00  0.00     0.000 C 
BRANCH   9  10
ATOM     10  C   UNL     1      -4.847  -6.694  -7.658  1.00  0.00    -0.000 C 
BRANCH  10  11
ATOM     11  C   UNL     1      -5.380  -7.440  -6.425  1.00  0.00    -0.000 C 
BRANCH  11  12
ATOM     12  C   UNL     1      -4.804  -8.860  -6.298  1.00  0.00    -0.000 C 
BRANCH  12  13
ATOM     13  C   UNL     1      -5.848  -9.880  -5.819  1.00  0.00    -0.003 C 
ATOM     14  C   UNL     1      -7.109  -9.182  -5.320  1.00  0.00     0.004 C 
ENDBRANCH  12  13
ENDBRANCH  11  12
ENDBRANCH  10  11
ENDBRANCH   9  10
ENDBRANCH   1   9
TORSDOF 10
ENDMDL
MODEL 6
REMARK VINA RESULT:    -3.223      3.469      6.170
REMARK INTER + INTRA:          -5.934
REMARK INTER:                  -5.005
REMARK INTRA:                  -0.929
REMARK UNBOUND:                -0.826
REMARK SMILES CCCCCCCCCCCC(=O)[O-]
REMARK SMILES IDX 7 1 8 2 9 3 10 4 11 5 12 6 13 7 14 8 6 9 5 10 4 11 3 12 2 13
REMARK SMILES IDX 1 14
REMARK H PARENT
REMARK Flexibility Score: inf
ROOT
ATOM      1  C   UNL     1      -5.282  -6.393  -7.110  1.00  0.00     0.000 C 
ENDROOT
BRANCH   1   2
ATOM      2  C   UNL     1      -6.621  -7.041  -7.491  1.00  0.00     0.000 C 
BRANCH   2   3
ATOM      3  C   UNL     1      -7.515  -7.316  -6.272  1.00  0.00     0.000 C 
BRANCH   3   4
ATOM      4  C   UNL     1      -8.604  -6.248  -6.082  1.00  0.00     0.006 C 
BRANCH   4   5
ATOM      5  C   UNL     1      -9.762  -6.468  -7.059  1.00  0.00     0.053 C 
BRANCH   5   6
ATOM      6  C   UNL     1      -9.801  -5.376  -8.080  1.00  0.00     0.041 C 
ATOM      7  O   UNL     1      -9.811  -4.170  -7.718  1.00  0.00    -0.550 OA
ATOM      8  O   UNL     1      -9.778  -5.688  -9.434  1.00  0.00    -0.550 OA
ENDBRANCH   5   6
ENDBRANCH   4   5
ENDBRANCH   3   4
ENDBRANCH   2   3
ENDBRANCH   1   2
BRANCH   1   9
ATOM      9  C   UNL     1      -4.120  -7.039  -7.877  1.00  0.00     0.000 C 
BRANCH   9  10
ATOM     10  C   UNL     1      -4.632  -7.853  -9.070  1.00  0.00    -0.000 C 
BRANCH  10  11
ATOM     11  C   UNL     1      -4.226  -9.329  -8.942  1.00  0.00    -0.000 C 
BRANCH  11  12
ATOM     12  C   UNL     1      -3.752  -9.693  -7.526  1.00  0.00    -0.000 C 
BRANCH  12  13
ATOM     13  C   UNL     1      -4.906 -10.125  -6.609  1.00  0.00    -0.003 C 
ATOM     14  C   UNL     1      -4.565  -9.875  -5.143  1.00  0.00     0.004 C 
ENDBRANCH  12  13
ENDBRANCH  11  12
ENDBRANCH  10  11
ENDBRANCH   9  10
ENDBRANCH   1   9
TORSDOF 10
ENDMDL
MODEL 7
REMARK VINA RESULT:    -3.113      3.650      6.127
REMARK INTER + INTRA:          -5.759
REMARK INTER:                  -4.742
REMARK INTRA:                  -1.018
REMARK UNBOUND:                -0.826
REMARK SMILES CCCCCCCCCCCC(=O)[O-]
REMARK SMILES IDX 7 1 8 2 9 3 10 4 11 5 12 6 13 7 14 8 6 9 5 10 4 11 3 12 2 13
REMARK SMILES IDX 1 14
REMARK H PARENT
REMARK Flexibility Score: inf
ROOT
ATOM      1  C   UNL     1      -7.172  -8.435  -6.374  1.00  0.00     0.000 C 
ENDROOT
BRANCH   1   2
ATOM      2  C   UNL     1      -7.719  -7.166  -7.045  1.00  0.00     0.000 C 
BRANCH   2   3
ATOM      3  C   UNL     1      -8.521  -6.284  -6.076  1.00  0.00     0.000 C 
BRANCH   3   4
ATOM      4  C   UNL     1      -9.914  -5.924  -6.617  1.00  0.00     0.006 C 
BRANCH   4   5
ATOM      5  C   UNL     1      -9.973  -4.454  -7.045  1.00  0.00     0.053 C 
BRANCH   5   6
ATOM      6  C   UNL     1     -10.025  -4.344  -8.535  1.00  0.00     0.041 C 
ATOM      7  O   UNL     1     -10.023  -3.212  -9.087  1.00  0.00    -0.550 OA
ATOM      8  O   UNL     1     -10.026  -5.491  -9.318  1.00  0.00    -0.550 OA
ENDBRANCH   5   6
ENDBRANCH   4   5
ENDBRANCH   3   4
ENDBRANCH   2   3
ENDBRANCH   1   2
BRANCH   1   9
ATOM      9  C   UNL     1      -7.276  -9.642  -7.315  1.00  0.00     0.000 C 
BRANCH   9  10
ATOM     10  C   UNL     1      -7.610  -9.201  -8.744  1.00  0.00    -0.000 C 
BRANCH  10  11
ATOM     11  C   UNL     1      -6.467  -9.551  -9.709  1.00  0.00    -0.000 C 
BRANCH  11  12
ATOM     12  C   UNL     1      -5.084  -9.185  -9.145  1.00  0.00    -0.000 C 
BRANCH  12  13
ATOM     13  C   UNL     1      -4.783  -7.682  -9.244  1.00  0.00    -0.003 C 
ATOM     14  C   UNL     1      -3.982  -7.202  -8.038  1.00  0.00     0.004 C 
ENDBRANCH  12  13
ENDBRANCH  11  12
ENDBRANCH  10  11
ENDBRANCH   9  10
ENDBRANCH   1   9
TORSDOF 10
ENDMDL
MODEL 8
REMARK VINA RESULT:    -3.007      2.210      2.624
REMARK INTER + INTRA:          -5.592
REMARK INTER:                  -4.241
REMARK INTRA:                  -1.351
REMARK UNBOUND:                -0.826
REMARK SMILES CCCCCCCCCCCC(=O)[O-]
REMARK SMILES IDX 7 1 8 2 9 3 10 4 11 5 12 6 13 7 14 8 6 9 5 10 4 11 3 12 2 13
REMARK SMILES IDX 1 14
REMARK H PARENT
REMARK Flexibility Score: inf
ROOT
ATOM      1  C   UNL     1      -5.759  -6.857  -6.715  1.00  0.00     0.000 C 
ENDROOT
BRANCH   1   2
ATOM      2  C   UNL     1      -4.592  -6.649  -7.691  1.00  0.00     0.000 C 
BRANCH   2   3
ATOM      3  C   UNL     1      -4.090  -7.965  -8.304  1.00  0.00     0.000 C 
BRANCH   3   4
ATOM      4  C   UNL     1      -4.506  -8.131  -9.775  1.00  0.00     0.006 C 
BRANCH   4   5
ATOM      5  C   UNL     1      -5.395  -9.363  -9.957  1.00  0.00     0.053 C 
BRANCH   5   6
ATOM      6  C   UNL     1      -6.839  -8.981  -9.895  1.00  0.00     0.041 C 
ATOM      7  O   UNL     1      -7.184  -7.779 -10.046  1.00  0.00    -0.550 OA
ATOM      8  O   UNL     1      -7.811  -9.958  -9.719  1.00  0.00    -0.550 OA
ENDBRANCH   5   6
ENDBRANCH   4   5
ENDBRANCH   3   4
ENDBRANCH   2   3
ENDBRANCH   1   2
BRANCH   1   9
ATOM      9  C   UNL     1      -5.691  -8.244  -6.064  1.00  0.00     0.000 C 
BRANCH   9  10
ATOM     10  C   UNL     1      -7.003  -9.012  -6.262  1.00  0.00    -0.000 C 
BRANCH  10  11
ATOM     11  C   UNL     1      -8.214  -8.123  -5.944  1.00  0.00    -0.000 C 
BRANCH  11  12
ATOM     12  C   UNL     1      -9.217  -8.050  -7.106  1.00  0.00    -0.000 C 
BRANCH  12  13
ATOM     13  C   UNL     1      -9.488  -6.608  -7.564  1.00  0.00    -0.003 C 
ATOM     14  C   UNL     1      -9.418  -5.637  -6.389  1.00  0.00     0.004 C 
ENDBRANCH  12  13
ENDBRANCH  11  12
ENDBRANCH  10  11
ENDBRANCH   9  10
ENDBRANCH   1   9
TORSDOF 10
ENDMDL
MODEL 9
REMARK VINA RESULT:    -2.931      1.989      3.292
REMARK INTER + INTRA:          -5.470
REMARK INTER:                  -4.085
REMARK INTRA:                  -1.385
REMARK UNBOUND:                -0.826
REMARK SMILES CCCCCCCCCCCC(=O)[O-]
REMARK SMILES IDX 7 1 8 2 9 3 10 4 11 5 12 6 13 7 14 8 6 9 5 10 4 11 3 12 2 13
REMARK SMILES IDX 1 14
REMARK H PARENT
REMARK Flexibility Score: inf
ROOT
ATOM      1  C   UNL     1      -7.124  -7.166  -5.857  1.00  0.00     0.000 C 
ENDROOT
BRANCH   1   2
ATOM      2  C   UNL     1      -7.099  -8.594  -5.294  1.00  0.00     0.000 C 
BRANCH   2   3
ATOM      3  C   UNL     1      -6.284  -9.561  -6.167  1.00  0.00     0.000 C 
BRANCH   3   4
ATOM      4  C   UNL     1      -4.843  -9.078  -6.399  1.00  0.00     0.006 C 
BRANCH   4   5
ATOM      5  C   UNL     1      -4.406  -9.333  -7.844  1.00  0.00     0.053 C 
BRANCH   5   6
ATOM      6  C   UNL     1      -4.174  -8.039  -8.557  1.00  0.00     0.041 C 
ATOM      7  O   UNL     1      -3.428  -7.161  -8.050  1.00  0.00    -0.550 OA
ATOM      8  O   UNL     1      -4.742  -7.821  -9.806  1.00  0.00    -0.550 OA
ENDBRANCH   5   6
ENDBRANCH   4   5
ENDBRANCH   3   4
ENDBRANCH   2   3
ENDBRANCH   1   2
BRANCH   1   9
ATOM      9  C   UNL     1      -8.564  -6.658  -6.005  1.00  0.00     0.000 C 
BRANCH   9  10
ATOM     10  C   UNL     1      -8.769  -5.963  -7.356  1.00  0.00    -0.000 C 
BRANCH  10  11
ATOM     11  C   UNL     1      -9.294  -6.951  -8.408  1.00  0.00    -0.000 C 
BRANCH  11  12
ATOM     12  C   UNL     1      -8.180  -7.500  -9.314  1.00  0.00    -0.000 C 
BRANCH  12  13
ATOM     13  C   UNL     1      -8.102  -9.035  -9.291  1.00  0.00    -0.003 C 
ATOM     14  C   UNL     1      -9.180  -9.626  -8.388  1.00  0.00     0.004 C 
ENDBRANCH  12  13
ENDBRANCH  11  12
ENDBRANCH  10  11
ENDBRANCH   9  10
ENDBRANCH   1   9
TORSDOF 10
ENDMDL
