MODEL 1
REMARK VINA RESULT:    -5.185      0.000      0.000
REMARK INTER + INTRA:         -12.051
REMARK INTER:                 -10.034
REMARK INTRA:                  -2.017
REMARK UNBOUND:                -2.017
REMARK SMILES CCCCCCCCCCCCCCCCCC(=O)[O-]
REMARK SMILES IDX 10 1 11 2 12 3 13 4 14 5 15 6 16 7 17 8 18 9 19 10 20 11
REMARK SMILES IDX 9 12 8 13 7 14 6 15 5 16 4 17 3 18 2 19 1 20
REMARK H PARENT
REMARK Flexibility Score: inf
ROOT
ATOM      1  C   UNL     1      -3.141  10.414  -7.403  1.00  0.00     0.000 C 
ENDROOT
BRANCH   1   2
ATOM      2  C   UNL     1      -2.328  11.268  -6.413  1.00  0.00     0.000 C 
BRANCH   2   3
ATOM      3  C   UNL     1      -2.337  12.764  -6.769  1.00  0.00     0.000 C 
BRANCH   3   4
ATOM      4  C   UNL     1      -0.941  13.291  -7.135  1.00  0.00     0.000 C 
BRANCH   4   5
ATOM      5  C   UNL     1       0.138  12.845  -6.134  1.00  0.00     0.000 C 
BRANCH   5   6
ATOM      6  C   UNL     1       1.322  12.140  -6.815  1.00  0.00     0.000 C 
BRANCH   6   7
ATOM      7  C   UNL     1       0.986  11.664  -8.237  1.00  0.00     0.006 C 
BRANCH   7   8
ATOM      8  C   UNL     1       1.233  10.160  -8.383  1.00  0.00     0.053 C 
BRANCH   8   9
ATOM      9  C   UNL     1       2.593   9.905  -8.953  1.00  0.00     0.041 C 
ATOM     10  O   UNL     1       3.611  10.418  -8.416  1.00  0.00    -0.550 OA
ATOM     11  O   UNL     1       2.734   9.143 -10.106  1.00  0.00    -0.550 OA
ENDBRANCH   8   9
ENDBRANCH   7   8
ENDBRANCH   6   7
ENDBRANCH   5   6
ENDBRANCH   4   5
ENDBRANCH   3   4
ENDBRANCH   2   3
ENDBRANCH   1   2
BRANCH   1  12
ATOM     12  C   UNL     1      -2.440  10.134  -8.748  1.00  0.00     0.000 C 
BRANCH  12  13
ATOM     13  C   UNL     1      -2.786  11.118  -9.881  1.00  0.00    -0.000 C 
BRANCH  13  14
ATOM     14  C   UNL     1      -4.280  11.462  -9.938  1.00  0.00    -0.000 C 
BRANCH  14  15
ATOM     15  C   UNL     1      -4.979  10.688 -11.066  1.00  0.00    -0.000 C 
BRANCH  15  16
ATOM     16  C   UNL     1      -6.304  10.048 -10.620  1.00  0.00    -0.000 C 
BRANCH  16  17
ATOM     17  C   UNL     1      -6.101   8.679  -9.949  1.00  0.00    -0.000 C 
BRANCH  17  18
ATOM     18  C   UNL     1      -4.908   7.898 -10.531  1.00  0.00    -0.000 C 
BRANCH  18  19
ATOM     19  C   UNL     1      -5.284   6.770 -11.509  1.00  0.00    -0.003 C 
ATOM     20  C   UNL     1      -6.414   5.881 -10.992  1.00  0.00     0.004 C 
ENDBRANCH  18  19
ENDBRANCH  17  18
ENDBRANCH  16  17
ENDBRANCH  15  16
ENDBRANCH  14  15
ENDBRANCH  13  14
ENDBRANCH  12  13
ENDBRANCH   1  12
TORSDOF 16
ENDMDL
MODEL 2
REMARK VINA RESULT:    -5.036      2.849      7.268
REMARK INTER + INTRA:         -11.764
REMARK INTER:                  -9.611
REMARK INTRA:                  -2.153
REMARK UNBOUND:                -2.017
REMARK SMILES CCCCCCCCCCCCCCCCCC(=O)[O-]
REMARK SMILES IDX 10 1 11 2 12 3 13 4 14 5 15 6 16 7 17 8 18 9 19 10 20 11
REMARK SMILES IDX 9 12 8 13 7 14 6 15 5 16 4 17 3 18 2 19 1 20
REMARK H PARENT
REMARK Flexibility Score: inf
ROOT
ATOM      1  C   UNL     1      -2.911  10.056  -9.417  1.00  0.00     0.000 C 
ENDROOT
BRANCH   1   2
ATOM      2  C   UNL     1      -3.367  11.056 -10.493  1.00  0.00     0.000 C 
BRANCH   2   3
ATOM      3  C   UNL     1      -4.674  10.633 -11.186  1.00  0.00     0.000 C 
BRANCH   3   4
ATOM      4  C   UNL     1      -5.915  11.271 -10.542  1.00  0.00     0.000 C 
BRANCH   4   5
ATOM      5  C   UNL     1      -7.027  10.245 -10.264  1.00  0.00     0.000 C 
BRANCH   5   6
ATOM      6  C   UNL     1      -6.851   9.533  -8.913  1.00  0.00     0.000 C 
BRANCH   6   7
ATOM      7  C   UNL     1      -6.193   8.153  -9.056  1.00  0.00     0.006 C 
BRANCH   7   8
ATOM      8  C   UNL     1      -6.788   7.382 -10.239  1.00  0.00     0.053 C 
BRANCH   8   9
ATOM      9  C   UNL     1      -5.718   6.631 -10.967  1.00  0.00     0.041 C 
ATOM     10  O   UNL     1      -5.995   5.559 -11.568  1.00  0.00    -0.550 OA
ATOM     11  O   UNL     1      -4.406   7.086 -10.939  1.00  0.00    -0.550 OA
ENDBRANCH   8   9
ENDBRANCH   7   8
ENDBRANCH   6   7
ENDBRANCH   5   6
ENDBRANCH   4   5
ENDBRANCH   3   4
ENDBRANCH   2   3
ENDBRANCH   1   2
BRANCH   1  12
ATOM     12  C   UNL     1      -3.291  10.436  -7.972  1.00  0.00     0.000 C 
BRANCH  12  13
ATOM     13  C   UNL     1      -3.481  11.944  -7.723  1.00  0.00    -0.000 C 
BRANCH  13  14
ATOM     14  C   UNL     1      -2.457  12.520  -6.735  1.00  0.00    -0.000 C 
BRANCH  14  15
ATOM     15  C   UNL     1      -1.178  12.959  -7.465  1.00  0.00    -0.000 C 
BRANCH  15  16
ATOM     16  C   UNL     1       0.091  12.752  -6.621  1.00  0.00    -0.000 C 
BRANCH  16  17
ATOM     17  C   UNL     1       1.133  11.870  -7.330  1.00  0.00    -0.000 C 
BRANCH  17  18
ATOM     18  C   UNL     1       0.511  10.633  -8.005  1.00  0.00    -0.000 C 
BRANCH  18  19
ATOM     19  C   UNL     1       1.520   9.676  -8.666  1.00  0.00    -0.003 C 
ATOM     20  C   UNL     1       2.941  10.237  -8.703  1.00  0.00     0.004 C 
ENDBRANCH  18  19
ENDBRANCH  17  18
ENDBRANCH  16  17
ENDBRANCH  15  16
ENDBRANCH  14  15
ENDBRANCH  13  14
ENDBRANCH  12  13
ENDBRANCH   1  12
TORSDOF 16
ENDMDL
MODEL 3
REMARK VINA RESULT:    -5.028      1.327      2.136
REMARK INTER + INTRA:         -11.747
REMARK INTER:                  -9.686
REMARK INTRA:                  -2.061
REMARK UNBOUND:                -2.017
REMARK SMILES CCCCCCCCCCCCCCCCCC(=O)[O-]
REMARK SMILES IDX 10 1 11 2 12 3 13 4 14 5 15 6 16 7 17 8 18 9 19 10 20 11
REMARK SMILES IDX 9 12 8 13 7 14 6 15 5 16 4 17 3 18 2 19 1 20
REMARK H PARENT
REMARK Flexibility Score: inf
ROOT
ATOM      1  C   UNL     1      -4.353  10.091  -6.557  1.00  0.00     0.000 C 
ENDROOT
BRANCH   1   2
ATOM      2  C   UNL     1      -2.946  10.420  -7.084  1.00  0.00     0.000 C 
BRANCH   2   3
ATOM      3  C   UNL     1      -2.779  10.100  -8.580  1.00  0.00     0.000 C 
BRANCH   3   4
ATOM      4  C   UNL     1      -1.919  11.140  -9.313  1.00  0.00     0.000 C 
BRANCH   4   5
ATOM      5  C   UNL     1      -1.274  12.153  -8.352  1.00  0.00     0.000 C 
BRANCH   5   6
ATOM      6  C   UNL     1       0.256  12.019  -8.290  1.00  0.00     0.000 C 
BRANCH   6   7
ATOM      7  C   UNL     1       0.706  10.694  -7.656  1.00  0.00     0.006 C 
BRANCH   7   8
ATOM      8  C   UNL     1       1.395   9.798  -8.691  1.00  0.00     0.053 C 
BRANCH   8   9
ATOM      9  C   UNL     1       2.869  10.053  -8.707  1.00  0.00     0.041 C 
ATOM     10  O   UNL     1       3.567   9.667  -9.682  1.00  0.00    -0.550 OA
ATOM     11  O   UNL     1       3.481  10.670  -7.624  1.00  0.00    -0.550 OA
ENDBRANCH   8   9
ENDBRANCH   7   8
ENDBRANCH   6   7
ENDBRANCH   5   6
ENDBRANCH   4   5
ENDBRANCH   3   4
ENDBRANCH   2   3
ENDBRANCH   1   2
BRANCH   1  12
ATOM     12  C   UNL     1      -5.504  10.834  -7.265  1.00  0.00     0.000 C 
BRANCH  12  13
ATOM     13  C   UNL     1      -5.306  12.354  -7.412  1.00  0.00    -0.000 C 
BRANCH  13  14
ATOM     14  C   UNL     1      -5.167  12.800  -8.874  1.00  0.00    -0.000 C 
BRANCH  14  15
ATOM     15  C   UNL     1      -6.249  12.151  -9.750  1.00  0.00    -0.000 C 
BRANCH  15  16
ATOM     16  C   UNL     1      -5.666  11.221 -10.827  1.00  0.00    -0.000 C 
BRANCH  16  17
ATOM     17  C   UNL     1      -6.114   9.760 -10.650  1.00  0.00    -0.000 C 
BRANCH  17  18
ATOM     18  C   UNL     1      -4.983   8.750 -10.924  1.00  0.00    -0.000 C 
BRANCH  18  19
ATOM     19  C   UNL     1      -5.294   7.299 -10.515  1.00  0.00    -0.003 C 
ATOM     20  C   UNL     1      -5.337   6.339 -11.703  1.00  0.00     0.004 C 
ENDBRANCH  18  19
ENDBRANCH  17  18
ENDBRANCH  16  17
ENDBRANCH  15  16
ENDBRANCH  14  15
ENDBRANCH  13  14
ENDBRANCH  12  13
ENDBRANCH   1  12
TORSDOF 16
ENDMDL
MODEL 4
REMARK VINA RESULT:    -5.009      1.481      3.040
REMARK INTER + INTRA:         -11.711
REMARK INTER:                  -9.270
REMARK INTRA:                  -2.441
REMARK UNBOUND:                -2.017
REMARK SMILES CCCCCCCCCCCCCCCCCC(=O)[O-]
REMARK SMILES IDX 10 1 11 2 12 3 13 4 14 5 15 6 16 7 17 8 18 9 19 10 20 11
REMARK SMILES IDX 9 12 8 13 7 14 6 15 5 16 4 17 3 18 2 19 1 20
REMARK H PARENT
REMARK Flexibility Score: inf
ROOT
ATOM      1  C   UNL     1      -5.386  10.942 -11.001  1.00  0.00     0.000 C 
ENDROOT
BRANCH   1   2
ATOM      2  C   UNL     1      -3.899  10.551 -11.063  1.00  0.00     0.000 C 
BRANCH   2   3
ATOM      3  C   UNL     1      -3.072  11.170  -9.923  1.00  0.00     0.000 C 
BRANCH   3   4
ATOM      4  C   UNL     1      -2.294  10.116  -9.121  1.00  0.00     0.000 C 
BRANCH   4   5
ATOM      5  C   UNL     1      -1.856  10.631  -7.739  1.00  0.00     0.000 C 
BRANCH   5   6
ATOM      6  C   UNL     1      -0.977  11.889  -7.830  1.00  0.00     0.000 C 
BRANCH   6   7
ATOM      7  C   UNL     1       0.394  11.606  -8.462  1.00  0.00     0.006 C 
BRANCH   7   8
ATOM      8  C   UNL     1       1.029  10.351  -7.854  1.00  0.00     0.053 C 
BRANCH   8   9
ATOM      9  C   UNL     1       2.409  10.147  -8.392  1.00  0.00     0.041 C 
ATOM     10  O   UNL     1       2.580   9.541  -9.484  1.00  0.00    -0.550 OA
ATOM     11  O   UNL     1       3.511  10.579  -7.665  1.00  0.00    -0.550 OA
ENDBRANCH   8   9
ENDBRANCH   7   8
ENDBRANCH   6   7
ENDBRANCH   5   6
ENDBRANCH   4   5
ENDBRANCH   3   4
ENDBRANCH   2   3
ENDBRANCH   1   2
BRANCH   1  12
ATOM     12  C   UNL     1      -5.733  12.018  -9.952  1.00  0.00     0.000 C 
BRANCH  12  13
ATOM     13  C   UNL     1      -6.801  11.606  -8.923  1.00  0.00    -0.000 C 
BRANCH  13  14
ATOM     14  C   UNL     1      -6.282  11.633  -7.479  1.00  0.00    -0.000 C 
BRANCH  14  15
ATOM     15  C   UNL     1      -5.442  10.382  -7.176  1.00  0.00    -0.000 C 
BRANCH  15  16
ATOM     16  C   UNL     1      -6.219   9.074  -7.397  1.00  0.00    -0.000 C 
BRANCH  16  17
ATOM     17  C   UNL     1      -5.596   8.197  -8.497  1.00  0.00    -0.000 C 
BRANCH  17  18
ATOM     18  C   UNL     1      -6.587   7.858  -9.626  1.00  0.00    -0.000 C 
BRANCH  18  19
ATOM     19  C   UNL     1      -6.001   7.021 -10.777  1.00  0.00    -0.003 C 
ATOM     20  C   UNL     1      -4.473   7.022 -10.800  1.00  0.00     0.004 C 
ENDBRANCH  18  19
ENDBRANCH  17  18
ENDBRANCH  16  17
ENDBRANCH  15  16
ENDBRANCH  14  15
ENDBRANCH  13  14
ENDBRANCH  12  13
ENDBRANCH   1  12
TORSDOF 16
ENDMDL
MODEL 5
REMARK VINA RESULT:    -4.943      1.999      3.903
REMARK INTER + INTRA:         -11.584
REMARK INTER:                  -8.939
REMARK INTRA:                  -2.645
REMARK UNBOUND:                -2.017
REMARK SMILES CCCCCCCCCCCCCCCCCC(=O)[O-]
REMARK SMILES IDX 10 1 11 2 12 3 13 4 14 5 15 6 16 7 17 8 18 9 19 10 20 11
REMARK SMILES IDX 9 12 8 13 7 14 6 15 5 16 4 17 3 18 2 19 1 20
REMARK H PARENT
REMARK Flexibility Score: inf
ROOT
ATOM      1  C   UNL     1      -4.008  10.767 -10.717  1.00  0.00     0.000 C 
ENDROOT
BRANCH   1   2
ATOM      2  C   UNL     1      -3.573   9.859  -9.554  1.00  0.00     0.000 C 
BRANCH   2   3
ATOM      3  C   UNL     1      -2.216  10.266  -8.955  1.00  0.00     0.000 C 
BRANCH   3   4
ATOM      4  C   UNL     1      -1.960  11.777  -9.049  1.00  0.00     0.000 C 
BRANCH   4   5
ATOM      5  C   UNL     1      -0.580  12.177  -8.498  1.00  0.00     0.000 C 
BRANCH   5   6
ATOM      6  C   UNL     1      -0.215  11.418  -7.212  1.00  0.00     0.000 C 
BRANCH   6   7
ATOM      7  C   UNL     1       1.144  10.708  -7.313  1.00  0.00     0.006 C 
BRANCH   7   8
ATOM      8  C   UNL     1       1.283   9.982  -8.655  1.00  0.00     0.053 C 
BRANCH   8   9
ATOM      9  C   UNL     1       2.720   9.913  -9.067  1.00  0.00     0.041 C 
ATOM     10  O   UNL     1       3.063   9.206 -10.052  1.00  0.00    -0.550 OA
ATOM     11  O   UNL     1       3.688  10.588  -8.334  1.00  0.00    -0.550 OA
ENDBRANCH   8   9
ENDBRANCH   7   8
ENDBRANCH   6   7
ENDBRANCH   5   6
ENDBRANCH   4   5
ENDBRANCH   3   4
ENDBRANCH   2   3
ENDBRANCH   1   2
BRANCH   1  12
ATOM     12  C   UNL     1      -5.528  10.805 -10.981  1.00  0.00     0.000 C 
BRANCH  12  13
ATOM     13  C   UNL     1      -6.330  11.724 -10.041  1.00  0.00    -0.000 C 
BRANCH  13  14
ATOM     14  C   UNL     1      -5.507  12.908  -9.517  1.00  0.00    -0.000 C 
BRANCH  14  15
ATOM     15  C   UNL     1      -5.505  12.937  -7.981  1.00  0.00    -0.000 C 
BRANCH  15  16
ATOM     16  C   UNL     1      -6.223  11.727  -7.360  1.00  0.00    -0.000 C 
BRANCH  16  17
ATOM     17  C   UNL     1      -5.376  11.026  -6.285  1.00  0.00    -0.000 C 
BRANCH  17  18
ATOM     18  C   UNL     1      -4.011  11.705  -6.061  1.00  0.00    -0.000 C 
BRANCH  18  19
ATOM     19  C   UNL     1      -3.122  11.041  -4.993  1.00  0.00    -0.003 C 
ATOM     20  C   UNL     1      -2.791   9.584  -5.312  1.00  0.00     0.004 C 
ENDBRANCH  18  19
ENDBRANCH  17  18
ENDBRANCH  16  17
ENDBRANCH  15  16
ENDBRANCH  14  15
ENDBRANCH  13  14
ENDBRANCH  12  13
ENDBRANCH   1  12
TORSDOF 16
ENDMDL
MODEL 6
REMARK VINA RESULT:    -4.923      2.436      3.590
REMARK INTER + INTRA:         -11.545
REMARK INTER:                  -8.798
REMARK INTRA:                  -2.747
REMARK UNBOUND:                -2.017
REMARK SMILES CCCCCCCCCCCCCCCCCC(=O)[O-]
REMARK SMILES IDX 10 1 11 2 12 3 13 4 14 5 15 6 16 7 17 8 18 9 19 10 20 11
REMARK SMILES IDX 9 12 8 13 7 14 6 15 5 16 4 17 3 18 2 19 1 20
REMARK H PARENT
REMARK Flexibility Score: inf
ROOT
ATOM      1  C   UNL     1      -3.068  10.808  -7.014  1.00  0.00     0.000 C 
ENDROOT
BRANCH   1   2
ATOM      2  C   UNL     1      -2.660  11.833  -8.086  1.00  0.00     0.000 C 
BRANCH   2   3
ATOM      3  C   UNL     1      -1.506  11.337  -8.976  1.00  0.00     0.000 C 
BRANCH   3   4
ATOM      4  C   UNL     1      -0.861  10.051  -8.440  1.00  0.00     0.000 C 
BRANCH   4   5
ATOM      5  C   UNL     1       0.674  10.140  -8.384  1.00  0.00     0.000 C 
BRANCH   5   6
ATOM      6  C   UNL     1       1.172  11.560  -8.066  1.00  0.00     0.000 C 
BRANCH   6   7
ATOM      7  C   UNL     1       1.534  11.739  -6.584  1.00  0.00     0.006 C 
BRANCH   7   8
ATOM      8  C   UNL     1       0.306  12.151  -5.767  1.00  0.00     0.053 C 
BRANCH   8   9
ATOM      9  C   UNL     1       0.156  13.640  -5.759  1.00  0.00     0.041 C 
ATOM     10  O   UNL     1      -0.893  14.173  -6.211  1.00  0.00    -0.550 OA
ATOM     11  O   UNL     1       1.193  14.442  -5.302  1.00  0.00    -0.550 OA
ENDBRANCH   8   9
ENDBRANCH   7   8
ENDBRANCH   6   7
ENDBRANCH   5   6
ENDBRANCH   4   5
ENDBRANCH   3   4
ENDBRANCH   2   3
ENDBRANCH   1   2
BRANCH   1  12
ATOM     12  C   UNL     1      -4.347  10.006  -7.333  1.00  0.00     0.000 C 
BRANCH  12  13
ATOM     13  C   UNL     1      -5.660  10.656  -6.858  1.00  0.00    -0.000 C 
BRANCH  13  14
ATOM     14  C   UNL     1      -6.728  10.719  -7.958  1.00  0.00    -0.000 C 
BRANCH  14  15
ATOM     15  C   UNL     1      -6.854  12.144  -8.518  1.00  0.00    -0.000 C 
BRANCH  15  16
ATOM     16  C   UNL     1      -5.995  12.370  -9.772  1.00  0.00    -0.000 C 
BRANCH  16  17
ATOM     17  C   UNL     1      -5.925  11.124 -10.672  1.00  0.00    -0.000 C 
BRANCH  17  18
ATOM     18  C   UNL     1      -4.483  10.746 -11.060  1.00  0.00    -0.000 C 
BRANCH  18  19
ATOM     19  C   UNL     1      -4.172   9.239 -11.015  1.00  0.00    -0.003 C 
ATOM     20  C   UNL     1      -5.377   8.390 -10.611  1.00  0.00     0.004 C 
ENDBRANCH  18  19
ENDBRANCH  17  18
ENDBRANCH  16  17
ENDBRANCH  15  16
ENDBRANCH  14  15
ENDBRANCH  13  14
ENDBRANCH  12  13
ENDBRANCH   1  12
TORSDOF 16
ENDMDL
MODEL 7
REMARK VINA RESULT:    -4.919      1.063      1.763
REMARK INTER + INTRA:         -11.537
REMARK INTER:                  -9.263
REMARK INTRA:                  -2.275
REMARK UNBOUND:                -2.017
REMARK SMILES CCCCCCCCCCCCCCCCCC(=O)[O-]
REMARK SMILES IDX 10 1 11 2 12 3 13 4 14 5 15 6 16 7 17 8 18 9 19 10 20 11
REMARK SMILES IDX 9 12 8 13 7 14 6 15 5 16 4 17 3 18 2 19 1 20
REMARK H PARENT
REMARK Flexibility Score: inf
ROOT
ATOM      1  C   UNL     1      -3.137  10.329  -6.223  1.00  0.00     0.000 C 
ENDROOT
BRANCH   1   2
ATOM      2  C   UNL     1      -2.937  11.290  -5.037  1.00  0.00     0.000 C 
BRANCH   2   3
ATOM      3  C   UNL     1      -1.527  11.905  -4.999  1.00  0.00     0.000 C 
BRANCH   3   4
ATOM      4  C   UNL     1      -1.462  13.270  -5.701  1.00  0.00     0.000 C 
BRANCH   4   5
ATOM      5  C   UNL     1      -0.702  13.210  -7.037  1.00  0.00     0.000 C 
BRANCH   5   6
ATOM      6  C   UNL     1       0.397  12.135  -7.044  1.00  0.00     0.000 C 
BRANCH   6   7
ATOM      7  C   UNL     1       0.435  11.339  -8.357  1.00  0.00     0.006 C 
BRANCH   7   8
ATOM      8  C   UNL     1       1.060   9.957  -8.141  1.00  0.00     0.053 C 
BRANCH   8   9
ATOM      9  C   UNL     1       2.509   9.974  -8.512  1.00  0.00     0.041 C 
ATOM     10  O   UNL     1       3.358  10.470  -7.724  1.00  0.00    -0.550 OA
ATOM     11  O   UNL     1       2.918   9.488  -9.747  1.00  0.00    -0.550 OA
ENDBRANCH   8   9
ENDBRANCH   7   8
ENDBRANCH   6   7
ENDBRANCH   5   6
ENDBRANCH   4   5
ENDBRANCH   3   4
ENDBRANCH   2   3
ENDBRANCH   1   2
BRANCH   1  12
ATOM     12  C   UNL     1      -4.296  10.698  -7.171  1.00  0.00     0.000 C 
BRANCH  12  13
ATOM     13  C   UNL     1      -4.376  12.187  -7.555  1.00  0.00    -0.000 C 
BRANCH  13  14
ATOM     14  C   UNL     1      -4.057  12.441  -9.034  1.00  0.00    -0.000 C 
BRANCH  14  15
ATOM     15  C   UNL     1      -2.961  11.485  -9.530  1.00  0.00    -0.000 C 
BRANCH  15  16
ATOM     16  C   UNL     1      -3.380  10.695 -10.781  1.00  0.00    -0.000 C 
BRANCH  16  17
ATOM     17  C   UNL     1      -4.907  10.649 -10.966  1.00  0.00    -0.000 C 
BRANCH  17  18
ATOM     18  C   UNL     1      -5.505   9.264 -10.657  1.00  0.00    -0.000 C 
BRANCH  18  19
ATOM     19  C   UNL     1      -4.503   8.096 -10.707  1.00  0.00    -0.003 C 
ATOM     20  C   UNL     1      -5.104   6.816 -11.285  1.00  0.00     0.004 C 
ENDBRANCH  18  19
ENDBRANCH  17  18
ENDBRANCH  16  17
ENDBRANCH  15  16
ENDBRANCH  14  15
ENDBRANCH  13  14
ENDBRANCH  12  13
ENDBRANCH   1  12
TORSDOF 16
ENDMDL
MODEL 8
REMARK VINA RESULT:    -4.916      3.147      7.046
REMARK INTER + INTRA:         -11.532
REMARK INTER:                  -9.220
REMARK INTRA:                  -2.312
REMARK UNBOUND:                -2.017
REMARK SMILES CCCCCCCCCCCCCCCCCC(=O)[O-]
REMARK SMILES IDX 10 1 11 2 12 3 13 4 14 5 15 6 16 7 17 8 18 9 19 10 20 11
REMARK SMILES IDX 9 12 8 13 7 14 6 15 5 16 4 17 3 18 2 19 1 20
REMARK H PARENT
REMARK Flexibility Score: inf
ROOT
ATOM      1  C   UNL     1      -3.604  11.517  -7.002  1.00  0.00     0.000 C 
ENDROOT
BRANCH   1   2
ATOM      2  C   UNL     1      -5.072  11.426  -7.456  1.00  0.00     0.000 C 
BRANCH   2   3
ATOM      3  C   UNL     1      -5.628  12.771  -7.952  1.00  0.00     0.000 C 
BRANCH   3   4
ATOM      4  C   UNL     1      -5.761  12.825  -9.481  1.00  0.00     0.000 C 
BRANCH   4   5
ATOM      5  C   UNL     1      -6.016  11.440 -10.099  1.00  0.00     0.000 C 
BRANCH   5   6
ATOM      6  C   UNL     1      -4.941  11.043 -11.125  1.00  0.00     0.000 C 
BRANCH   6   7
ATOM      7  C   UNL     1      -4.561   9.557 -11.035  1.00  0.00     0.006 C 
BRANCH   7   8
ATOM      8  C   UNL     1      -5.748   8.717 -10.554  1.00  0.00     0.053 C 
BRANCH   8   9
ATOM      9  C   UNL     1      -5.439   7.258 -10.667  1.00  0.00     0.041 C 
ATOM     10  O   UNL     1      -5.364   6.544  -9.632  1.00  0.00    -0.550 OA
ATOM     11  O   UNL     1      -5.182   6.695 -11.911  1.00  0.00    -0.550 OA
ENDBRANCH   8   9
ENDBRANCH   7   8
ENDBRANCH   6   7
ENDBRANCH   5   6
ENDBRANCH   4   5
ENDBRANCH   3   4
ENDBRANCH   2   3
ENDBRANCH   1   2
BRANCH   1  12
ATOM     12  C   UNL     1      -2.756  12.565  -7.752  1.00  0.00     0.000 C 
BRANCH  12  13
ATOM     13  C   UNL     1      -1.780  11.988  -8.794  1.00  0.00    -0.000 C 
BRANCH  13  14
ATOM     14  C   UNL     1      -1.636  10.463  -8.699  1.00  0.00    -0.000 C 
BRANCH  14  15
ATOM     15  C   UNL     1      -0.191  10.070  -8.352  1.00  0.00    -0.000 C 
BRANCH  15  16
ATOM     16  C   UNL     1       0.758  11.279  -8.293  1.00  0.00    -0.000 C 
BRANCH  16  17
ATOM     17  C   UNL     1       1.876  11.100  -7.252  1.00  0.00    -0.000 C 
BRANCH  17  18
ATOM     18  C   UNL     1       1.823  12.153  -6.129  1.00  0.00    -0.000 C 
BRANCH  18  19
ATOM     19  C   UNL     1       0.423  12.725  -5.840  1.00  0.00    -0.003 C 
ATOM     20  C   UNL     1      -0.221  12.126  -4.590  1.00  0.00     0.004 C 
ENDBRANCH  18  19
ENDBRANCH  17  18
ENDBRANCH  16  17
ENDBRANCH  15  16
ENDBRANCH  14  15
ENDBRANCH  13  14
ENDBRANCH  12  13
ENDBRANCH   1  12
TORSDOF 16
ENDMDL
MODEL 9
REMARK VINA RESULT:    -4.877      1.739      2.784
REMARK INTER + INTRA:         -11.457
REMARK INTER:                  -9.088
REMARK INTRA:                  -2.369
REMARK UNBOUND:                -2.017
REMARK SMILES CCCCCCCCCCCCCCCCCC(=O)[O-]
REMARK SMILES IDX 10 1 11 2 12 3 13 4 14 5 15 6 16 7 17 8 18 9 19 10 20 11
REMARK SMILES IDX 9 12 8 13 7 14 6 15 5 16 4 17 3 18 2 19 1 20
REMARK H PARENT
REMARK Flexibility Score: inf
ROOT
ATOM      1  C   UNL     1      -2.891  11.613  -6.620  1.00  0.00     0.000 C 
ENDROOT
BRANCH   1   2
ATOM      2  C   UNL     1      -2.759  12.950  -7.370  1.00  0.00     0.000 C 
BRANCH   2   3
ATOM      3  C   UNL     1      -1.507  13.744  -6.959  1.00  0.00     0.000 C 
BRANCH   3   4
ATOM      4  C   UNL     1      -0.774  13.111  -5.766  1.00  0.00     0.000 C 
BRANCH   4   5
ATOM      5  C   UNL     1       0.754  13.249  -5.873  1.00  0.00     0.000 C 
BRANCH   5   6
ATOM      6  C   UNL     1       1.437  11.943  -6.311  1.00  0.00     0.000 C 
BRANCH   6   7
ATOM      7  C   UNL     1       1.090  11.553  -7.756  1.00  0.00     0.006 C 
BRANCH   7   8
ATOM      8  C   UNL     1       1.376  10.069  -8.006  1.00  0.00     0.053 C 
BRANCH   8   9
ATOM      9  C   UNL     1       2.694   9.896  -8.692  1.00  0.00     0.041 C 
ATOM     10  O   UNL     1       3.742  10.375  -8.181  1.00  0.00    -0.550 OA
ATOM     11  O   UNL     1       2.760   9.253  -9.921  1.00  0.00    -0.550 OA
ENDBRANCH   8   9
ENDBRANCH   7   8
ENDBRANCH   6   7
ENDBRANCH   5   6
ENDBRANCH   4   5
ENDBRANCH   3   4
ENDBRANCH   2   3
ENDBRANCH   1   2
BRANCH   1  12
ATOM     12  C   UNL     1      -3.084  10.377  -7.522  1.00  0.00     0.000 C 
BRANCH  12  13
ATOM     13  C   UNL     1      -2.222  10.359  -8.798  1.00  0.00    -0.000 C 
BRANCH  13  14
ATOM     14  C   UNL     1      -3.002   9.907 -10.040  1.00  0.00    -0.000 C 
BRANCH  14  15
ATOM     15  C   UNL     1      -3.823  11.067 -10.624  1.00  0.00    -0.000 C 
BRANCH  15  16
ATOM     16  C   UNL     1      -5.255  10.654 -11.000  1.00  0.00    -0.000 C 
BRANCH  16  17
ATOM     17  C   UNL     1      -6.320  11.402 -10.179  1.00  0.00    -0.000 C 
BRANCH  17  18
ATOM     18  C   UNL     1      -5.768  12.665  -9.492  1.00  0.00    -0.000 C 
BRANCH  18  19
ATOM     19  C   UNL     1      -6.411  13.001  -8.134  1.00  0.00    -0.003 C 
ATOM     20  C   UNL     1      -6.582  11.778  -7.234  1.00  0.00     0.004 C 
ENDBRANCH  18  19
ENDBRANCH  17  18
ENDBRANCH  16  17
ENDBRANCH  15  16
ENDBRANCH  14  15
ENDBRANCH  13  14
ENDBRANCH  12  13
ENDBRANCH   1  12
TORSDOF 16
ENDMDL
