MODEL 1
REMARK VINA RESULT:    -4.836      0.000      0.000
REMARK INTER + INTRA:         -16.262
REMARK INTER:                 -12.186
REMARK INTRA:                  -4.076
REMARK UNBOUND:                -4.076
REMARK SMILES CCCCCCCCCCCCCCCCCCCCCCCCCCCC(=O)[O-]
REMARK SMILES IDX 15 1 16 2 17 3 18 4 19 5 20 6 21 7 22 8 23 9 24 10 25 11
REMARK SMILES IDX 26 12 27 13 28 14 29 15 30 16 14 17 13 18 12 19 11 20 10 21
REMARK SMILES IDX 9 22 8 23 7 24 6 25 5 26 4 27 3 28 2 29 1 30
REMARK H PARENT
REMARK Flexibility Score: inf
ROOT
ATOM      1  C   UNL     1      10.962  13.144  22.931  1.00  0.00     0.000 C 
ENDROOT
BRANCH   1   2
ATOM      2  C   UNL     1      10.039  13.647  21.807  1.00  0.00     0.000 C 
BRANCH   2   3
ATOM      3  C   UNL     1       8.794  14.379  22.337  1.00  0.00     0.000 C 
BRANCH   3   4
ATOM      4  C   UNL     1       7.472  13.668  21.982  1.00  0.00     0.000 C 
BRANCH   4   5
ATOM      5  C   UNL     1       6.892  12.799  23.115  1.00  0.00     0.000 C 
BRANCH   5   6
ATOM      6  C   UNL     1       6.061  11.584  22.667  1.00  0.00     0.000 C 
BRANCH   6   7
ATOM      7  C   UNL     1       6.834  10.259  22.784  1.00  0.00     0.000 C 
BRANCH   7   8
ATOM      8  C   UNL     1       8.336  10.457  23.039  1.00  0.00     0.000 C 
BRANCH   8   9
ATOM      9  C   UNL     1       9.211   9.969  21.869  1.00  0.00     0.000 C 
BRANCH   9  10
ATOM     10  C   UNL     1       8.468   9.984  20.525  1.00  0.00     0.000 C 
BRANCH  10  11
ATOM     11  C   UNL     1       8.851  11.191  19.650  1.00  0.00     0.000 C 
BRANCH  11  12
ATOM     12  C   UNL     1       9.929  10.844  18.612  1.00  0.00     0.006 C 
BRANCH  12  13
ATOM     13  C   UNL     1      10.588  12.091  18.005  1.00  0.00     0.053 C 
BRANCH  13  14
ATOM     14  C   UNL     1      10.373  12.131  16.525  1.00  0.00     0.041 C 
ATOM     15  O   UNL     1      10.016  11.092  15.909  1.00  0.00    -0.550 OA
ATOM     16  O   UNL     1      10.603  13.305  15.819  1.00  0.00    -0.550 OA
ENDBRANCH  13  14
ENDBRANCH  12  13
ENDBRANCH  11  12
ENDBRANCH  10  11
ENDBRANCH   9  10
ENDBRANCH   8   9
ENDBRANCH   7   8
ENDBRANCH   6   7
ENDBRANCH   5   6
ENDBRANCH   4   5
ENDBRANCH   3   4
ENDBRANCH   2   3
ENDBRANCH   1   2
BRANCH   1  17
ATOM     17  C   UNL     1      12.433  13.590  22.778  1.00  0.00     0.000 C 
BRANCH  17  18
ATOM     18  C   UNL     1      12.970  14.268  24.052  1.00  0.00     0.000 C 
BRANCH  18  19
ATOM     19  C   UNL     1      11.996  15.306  24.631  1.00  0.00     0.000 C 
BRANCH  19  20
ATOM     20  C   UNL     1      12.701  16.357  25.501  1.00  0.00     0.000 C 
BRANCH  20  21
ATOM     21  C   UNL     1      11.906  17.668  25.525  1.00  0.00     0.000 C 
BRANCH  21  22
ATOM     22  C   UNL     1      12.846  18.882  25.577  1.00  0.00    -0.000 C 
BRANCH  22  23
ATOM     23  C   UNL     1      13.284  19.349  24.181  1.00  0.00    -0.000 C 
BRANCH  23  24
ATOM     24  C   UNL     1      14.689  18.854  23.805  1.00  0.00    -0.000 C 
BRANCH  24  25
ATOM     25  C   UNL     1      15.216  19.588  22.566  1.00  0.00    -0.000 C 
BRANCH  25  26
ATOM     26  C   UNL     1      14.402  19.222  21.317  1.00  0.00    -0.000 C 
BRANCH  26  27
ATOM     27  C   UNL     1      14.455  17.719  20.997  1.00  0.00    -0.000 C 
BRANCH  27  28
ATOM     28  C   UNL     1      13.169  16.981  21.407  1.00  0.00    -0.000 C 
BRANCH  28  29
ATOM     29  C   UNL     1      11.904  17.818  21.160  1.00  0.00    -0.003 C 
ATOM     30  C   UNL     1      10.732  17.389  22.044  1.00  0.00     0.004 C 
ENDBRANCH  28  29
ENDBRANCH  27  28
ENDBRANCH  26  27
ENDBRANCH  25  26
ENDBRANCH  24  25
ENDBRANCH  23  24
ENDBRANCH  22  23
ENDBRANCH  21  22
ENDBRANCH  20  21
ENDBRANCH  19  20
ENDBRANCH  18  19
ENDBRANCH  17  18
ENDBRANCH   1  17
TORSDOF 26
ENDMDL
MODEL 2
REMARK VINA RESULT:    -4.670      2.497      7.894
REMARK INTER + INTRA:         -15.843
REMARK INTER:                 -11.185
REMARK INTRA:                  -4.658
REMARK UNBOUND:                -4.076
REMARK SMILES CCCCCCCCCCCCCCCCCCCCCCCCCCCC(=O)[O-]
REMARK SMILES IDX 15 1 16 2 17 3 18 4 19 5 20 6 21 7 22 8 23 9 24 10 25 11
REMARK SMILES IDX 26 12 27 13 28 14 29 15 30 16 14 17 13 18 12 19 11 20 10 21
REMARK SMILES IDX 9 22 8 23 7 24 6 25 5 26 4 27 3 28 2 29 1 30
REMARK H PARENT
REMARK Flexibility Score: inf
ROOT
ATOM      1  C   UNL     1      10.115  15.265  22.259  1.00  0.00     0.000 C 
ENDROOT
BRANCH   1   2
ATOM      2  C   UNL     1      10.689  15.967  23.504  1.00  0.00     0.000 C 
BRANCH   2   3
ATOM      3  C   UNL     1      11.366  14.991  24.481  1.00  0.00     0.000 C 
BRANCH   3   4
ATOM      4  C   UNL     1      12.732  15.493  24.994  1.00  0.00     0.000 C 
BRANCH   4   5
ATOM      5  C   UNL     1      13.493  16.394  24.001  1.00  0.00     0.000 C 
BRANCH   5   6
ATOM      6  C   UNL     1      13.844  17.802  24.512  1.00  0.00     0.000 C 
BRANCH   6   7
ATOM      7  C   UNL     1      12.902  18.281  25.630  1.00  0.00     0.000 C 
BRANCH   7   8
ATOM      8  C   UNL     1      12.154  19.576  25.275  1.00  0.00     0.000 C 
BRANCH   8   9
ATOM      9  C   UNL     1      11.551  19.547  23.858  1.00  0.00     0.000 C 
BRANCH   9  10
ATOM     10  C   UNL     1      12.161  20.607  22.930  1.00  0.00     0.000 C 
BRANCH  10  11
ATOM     11  C   UNL     1      12.330  20.105  21.485  1.00  0.00     0.000 C 
BRANCH  11  12
ATOM     12  C   UNL     1      11.795  18.677  21.295  1.00  0.00     0.006 C 
BRANCH  12  13
ATOM     13  C   UNL     1      12.865  17.710  20.769  1.00  0.00     0.053 C 
BRANCH  13  14
ATOM     14  C   UNL     1      13.789  18.412  19.825  1.00  0.00     0.041 C 
ATOM     15  O   UNL     1      14.915  18.812  20.221  1.00  0.00    -0.550 OA
ATOM     16  O   UNL     1      13.392  18.658  18.516  1.00  0.00    -0.550 OA
ENDBRANCH  13  14
ENDBRANCH  12  13
ENDBRANCH  11  12
ENDBRANCH  10  11
ENDBRANCH   9  10
ENDBRANCH   8   9
ENDBRANCH   7   8
ENDBRANCH   6   7
ENDBRANCH   5   6
ENDBRANCH   4   5
ENDBRANCH   3   4
ENDBRANCH   2   3
ENDBRANCH   1   2
BRANCH   1  17
ATOM     17  C   UNL     1       9.284  14.003  22.581  1.00  0.00     0.000 C 
BRANCH  17  18
ATOM     18  C   UNL     1       7.791  14.192  22.256  1.00  0.00     0.000 C 
BRANCH  18  19
ATOM     19  C   UNL     1       6.876  13.314  23.123  1.00  0.00     0.000 C 
BRANCH  19  20
ATOM     20  C   UNL     1       7.132  11.813  22.919  1.00  0.00     0.000 C 
BRANCH  20  21
ATOM     21  C   UNL     1       6.899  11.412  21.458  1.00  0.00     0.000 C 
BRANCH  21  22
ATOM     22  C   UNL     1       8.143  10.733  20.866  1.00  0.00    -0.000 C 
BRANCH  22  23
ATOM     23  C   UNL     1       8.783  11.555  19.737  1.00  0.00    -0.000 C 
BRANCH  23  24
ATOM     24  C   UNL     1      10.294  11.752  19.932  1.00  0.00    -0.000 C 
BRANCH  24  25
ATOM     25  C   UNL     1      10.817  10.881  21.081  1.00  0.00    -0.000 C 
BRANCH  25  26
ATOM     26  C   UNL     1      12.301  11.163  21.357  1.00  0.00    -0.000 C 
BRANCH  26  27
ATOM     27  C   UNL     1      12.510  12.341  22.322  1.00  0.00    -0.000 C 
BRANCH  27  28
ATOM     28  C   UNL     1      13.375  13.458  21.715  1.00  0.00    -0.000 C 
BRANCH  28  29
ATOM     29  C   UNL     1      13.877  13.114  20.303  1.00  0.00    -0.003 C 
ATOM     30  C   UNL     1      14.614  14.279  19.640  1.00  0.00     0.004 C 
ENDBRANCH  28  29
ENDBRANCH  27  28
ENDBRANCH  26  27
ENDBRANCH  25  26
ENDBRANCH  24  25
ENDBRANCH  23  24
ENDBRANCH  22  23
ENDBRANCH  21  22
ENDBRANCH  20  21
ENDBRANCH  19  20
ENDBRANCH  18  19
ENDBRANCH  17  18
ENDBRANCH   1  17
TORSDOF 26
ENDMDL
MODEL 3
REMARK VINA RESULT:    -4.644      3.298      5.990
REMARK INTER + INTRA:         -15.778
REMARK INTER:                 -12.090
REMARK INTRA:                  -3.687
REMARK UNBOUND:                -4.076
REMARK SMILES CCCCCCCCCCCCCCCCCCCCCCCCCCCC(=O)[O-]
REMARK SMILES IDX 15 1 16 2 17 3 18 4 19 5 20 6 21 7 22 8 23 9 24 10 25 11
REMARK SMILES IDX 26 12 27 13 28 14 29 15 30 16 14 17 13 18 12 19 11 20 10 21
REMARK SMILES IDX 9 22 8 23 7 24 6 25 5 26 4 27 3 28 2 29 1 30
REMARK H PARENT
REMARK Flexibility Score: inf
ROOT
ATOM      1  C   UNL     1      11.296  19.012  24.693  1.00  0.00     0.000 C 
ENDROOT
BRANCH   1   2
ATOM      2  C   UNL     1      12.246  18.698  25.863  1.00  0.00     0.000 C 
BRANCH   2   3
ATOM      3  C   UNL     1      12.615  17.207  25.949  1.00  0.00     0.000 C 
BRANCH   3   4
ATOM      4  C   UNL     1      13.437  16.711  24.741  1.00  0.00     0.000 C 
BRANCH   4   5
ATOM      5  C   UNL     1      13.229  15.223  24.397  1.00  0.00     0.000 C 
BRANCH   5   6
ATOM      6  C   UNL     1      11.807  14.832  23.959  1.00  0.00     0.000 C 
BRANCH   6   7
ATOM      7  C   UNL     1      11.467  15.316  22.538  1.00  0.00     0.000 C 
BRANCH   7   8
ATOM      8  C   UNL     1       9.955  15.422  22.283  1.00  0.00     0.000 C 
BRANCH   8   9
ATOM      9  C   UNL     1       9.243  14.058  22.338  1.00  0.00     0.000 C 
BRANCH   9  10
ATOM     10  C   UNL     1       9.709  13.099  21.233  1.00  0.00     0.000 C 
BRANCH  10  11
ATOM     11  C   UNL     1       9.440  11.623  21.576  1.00  0.00     0.000 C 
BRANCH  11  12
ATOM     12  C   UNL     1       8.674  11.459  22.897  1.00  0.00     0.006 C 
BRANCH  12  13
ATOM     13  C   UNL     1       7.408  10.604  22.744  1.00  0.00     0.053 C 
BRANCH  13  14
ATOM     14  C   UNL     1       6.183  11.453  22.869  1.00  0.00     0.041 C 
ATOM     15  O   UNL     1       5.057  10.992  22.544  1.00  0.00    -0.550 OA
ATOM     16  O   UNL     1       6.288  12.767  23.309  1.00  0.00    -0.550 OA
ENDBRANCH  13  14
ENDBRANCH  12  13
ENDBRANCH  11  12
ENDBRANCH  10  11
ENDBRANCH   9  10
ENDBRANCH   8   9
ENDBRANCH   7   8
ENDBRANCH   6   7
ENDBRANCH   5   6
ENDBRANCH   4   5
ENDBRANCH   3   4
ENDBRANCH   2   3
ENDBRANCH   1   2
BRANCH   1  17
ATOM     17  C   UNL     1      11.968  19.776  23.530  1.00  0.00     0.000 C 
BRANCH  17  18
ATOM     18  C   UNL     1      11.856  19.016  22.195  1.00  0.00     0.000 C 
BRANCH  18  19
ATOM     19  C   UNL     1      13.222  18.752  21.544  1.00  0.00     0.000 C 
BRANCH  19  20
ATOM     20  C   UNL     1      14.322  19.681  22.080  1.00  0.00     0.000 C 
BRANCH  20  21
ATOM     21  C   UNL     1      15.575  19.610  21.199  1.00  0.00     0.000 C 
BRANCH  21  22
ATOM     22  C   UNL     1      15.219  19.796  19.717  1.00  0.00    -0.000 C 
BRANCH  22  23
ATOM     23  C   UNL     1      15.328  21.260  19.264  1.00  0.00    -0.000 C 
BRANCH  23  24
ATOM     24  C   UNL     1      14.233  21.653  18.260  1.00  0.00    -0.000 C 
BRANCH  24  25
ATOM     25  C   UNL     1      12.899  20.984  18.614  1.00  0.00    -0.000 C 
BRANCH  25  26
ATOM     26  C   UNL     1      11.822  22.031  18.932  1.00  0.00    -0.000 C 
BRANCH  26  27
ATOM     27  C   UNL     1      12.042  22.709  20.294  1.00  0.00    -0.000 C 
BRANCH  27  28
ATOM     28  C   UNL     1      10.900  22.429  21.286  1.00  0.00    -0.000 C 
BRANCH  28  29
ATOM     29  C   UNL     1      11.028  23.250  22.579  1.00  0.00    -0.003 C 
ATOM     30  C   UNL     1       9.673  23.710  23.121  1.00  0.00     0.004 C 
ENDBRANCH  28  29
ENDBRANCH  27  28
ENDBRANCH  26  27
ENDBRANCH  25  26
ENDBRANCH  24  25
ENDBRANCH  23  24
ENDBRANCH  22  23
ENDBRANCH  21  22
ENDBRANCH  20  21
ENDBRANCH  19  20
ENDBRANCH  18  19
ENDBRANCH  17  18
ENDBRANCH   1  17
TORSDOF 26
ENDMDL
MODEL 4
REMARK VINA RESULT:    -4.637      1.227      2.467
REMARK INTER + INTRA:         -15.760
REMARK INTER:                 -11.961
REMARK INTRA:                  -3.798
REMARK UNBOUND:                -4.076
REMARK SMILES CCCCCCCCCCCCCCCCCCCCCCCCCCCC(=O)[O-]
REMARK SMILES IDX 15 1 16 2 17 3 18 4 19 5 20 6 21 7 22 8 23 9 24 10 25 11
REMARK SMILES IDX 26 12 27 13 28 14 29 15 30 16 14 17 13 18 12 19 11 20 10 21
REMARK SMILES IDX 9 22 8 23 7 24 6 25 5 26 4 27 3 28 2 29 1 30
REMARK H PARENT
REMARK Flexibility Score: inf
ROOT
ATOM      1  C   UNL     1       8.205  14.351  22.307  1.00  0.00     0.000 C 
ENDROOT
BRANCH   1   2
ATOM      2  C   UNL     1       7.407  13.113  21.861  1.00  0.00     0.000 C 
BRANCH   2   3
ATOM      3  C   UNL     1       6.592  12.483  23.003  1.00  0.00     0.000 C 
BRANCH   3   4
ATOM      4  C   UNL     1       6.233  11.003  22.751  1.00  0.00     0.000 C 
BRANCH   4   5
ATOM      5  C   UNL     1       7.429  10.116  22.354  1.00  0.00     0.000 C 
BRANCH   5   6
ATOM      6  C   UNL     1       8.571  10.038  23.382  1.00  0.00     0.000 C 
BRANCH   6   7
ATOM      7  C   UNL     1       9.951  10.314  22.761  1.00  0.00     0.000 C 
BRANCH   7   8
ATOM      8  C   UNL     1       9.978  10.115  21.238  1.00  0.00     0.000 C 
BRANCH   8   9
ATOM      9  C   UNL     1      10.348  11.400  20.473  1.00  0.00     0.000 C 
BRANCH   9  10
ATOM     10  C   UNL     1       9.548  11.570  19.174  1.00  0.00     0.000 C 
BRANCH  10  11
ATOM     11  C   UNL     1       9.044  10.230  18.609  1.00  0.00     0.000 C 
BRANCH  11  12
ATOM     12  C   UNL     1       9.447  10.024  17.140  1.00  0.00     0.006 C 
BRANCH  12  13
ATOM     13  C   UNL     1      10.452  11.076  16.649  1.00  0.00     0.053 C 
BRANCH  13  14
ATOM     14  C   UNL     1      10.137  11.486  15.246  1.00  0.00     0.041 C 
ATOM     15  O   UNL     1      10.108  12.706  14.934  1.00  0.00    -0.550 OA
ATOM     16  O   UNL     1       9.840  10.524  14.288  1.00  0.00    -0.550 OA
ENDBRANCH  13  14
ENDBRANCH  12  13
ENDBRANCH  11  12
ENDBRANCH  10  11
ENDBRANCH   9  10
ENDBRANCH   8   9
ENDBRANCH   7   8
ENDBRANCH   6   7
ENDBRANCH   5   6
ENDBRANCH   4   5
ENDBRANCH   3   4
ENDBRANCH   2   3
ENDBRANCH   1   2
BRANCH   1  17
ATOM     17  C   UNL     1       9.636  14.029  22.793  1.00  0.00     0.000 C 
BRANCH  17  18
ATOM     18  C   UNL     1      10.675  15.020  22.237  1.00  0.00     0.000 C 
BRANCH  18  19
ATOM     19  C   UNL     1      11.036  16.129  23.238  1.00  0.00     0.000 C 
BRANCH  19  20
ATOM     20  C   UNL     1      11.624  15.576  24.545  1.00  0.00     0.000 C 
BRANCH  20  21
ATOM     21  C   UNL     1      12.409  16.660  25.292  1.00  0.00     0.000 C 
BRANCH  21  22
ATOM     22  C   UNL     1      13.602  17.152  24.459  1.00  0.00    -0.000 C 
BRANCH  22  23
ATOM     23  C   UNL     1      13.757  18.679  24.495  1.00  0.00    -0.000 C 
BRANCH  23  24
ATOM     24  C   UNL     1      12.408  19.412  24.474  1.00  0.00    -0.000 C 
BRANCH  24  25
ATOM     25  C   UNL     1      12.218  20.177  23.158  1.00  0.00    -0.000 C 
BRANCH  25  26
ATOM     26  C   UNL     1      13.551  20.334  22.412  1.00  0.00    -0.000 C 
BRANCH  26  27
ATOM     27  C   UNL     1      13.498  19.772  20.982  1.00  0.00    -0.000 C 
BRANCH  27  28
ATOM     28  C   UNL     1      12.685  18.470  20.887  1.00  0.00    -0.000 C 
BRANCH  28  29
ATOM     29  C   UNL     1      13.577  17.225  20.759  1.00  0.00    -0.003 C 
ATOM     30  C   UNL     1      14.231  17.108  19.381  1.00  0.00     0.004 C 
ENDBRANCH  28  29
ENDBRANCH  27  28
ENDBRANCH  26  27
ENDBRANCH  25  26
ENDBRANCH  24  25
ENDBRANCH  23  24
ENDBRANCH  22  23
ENDBRANCH  21  22
ENDBRANCH  20  21
ENDBRANCH  19  20
ENDBRANCH  18  19
ENDBRANCH  17  18
ENDBRANCH   1  17
TORSDOF 26
ENDMDL
MODEL 5
REMARK VINA RESULT:    -4.578      1.136      2.128
REMARK INTER + INTRA:         -15.611
REMARK INTER:                 -11.387
REMARK INTRA:                  -4.224
REMARK UNBOUND:                -4.076
REMARK SMILES CCCCCCCCCCCCCCCCCCCCCCCCCCCC(=O)[O-]
REMARK SMILES IDX 15 1 16 2 17 3 18 4 19 5 20 6 21 7 22 8 23 9 24 10 25 11
REMARK SMILES IDX 26 12 27 13 28 14 29 15 30 16 14 17 13 18 12 19 11 20 10 21
REMARK SMILES IDX 9 22 8 23 7 24 6 25 5 26 4 27 3 28 2 29 1 30
REMARK H PARENT
REMARK Flexibility Score: inf
ROOT
ATOM      1  C   UNL     1      11.257  13.021  22.852  1.00  0.00     0.000 C 
ENDROOT
BRANCH   1   2
ATOM      2  C   UNL     1      10.194  13.580  21.888  1.00  0.00     0.000 C 
BRANCH   2   3
ATOM      3  C   UNL     1       9.142  14.450  22.597  1.00  0.00     0.000 C 
BRANCH   3   4
ATOM      4  C   UNL     1       7.695  14.123  22.173  1.00  0.00     0.000 C 
BRANCH   4   5
ATOM      5  C   UNL     1       6.860  13.411  23.256  1.00  0.00     0.000 C 
BRANCH   5   6
ATOM      6  C   UNL     1       6.449  11.964  22.938  1.00  0.00     0.000 C 
BRANCH   6   7
ATOM      7  C   UNL     1       6.796  11.549  21.497  1.00  0.00     0.000 C 
BRANCH   7   8
ATOM      8  C   UNL     1       7.975  10.566  21.420  1.00  0.00     0.000 C 
BRANCH   8   9
ATOM      9  C   UNL     1       8.552  10.436  19.998  1.00  0.00     0.000 C 
BRANCH   9  10
ATOM     10  C   UNL     1      10.087  10.428  19.978  1.00  0.00     0.000 C 
BRANCH  10  11
ATOM     11  C   UNL     1      10.661  10.270  18.559  1.00  0.00     0.000 C 
BRANCH  11  12
ATOM     12  C   UNL     1       9.564  10.234  17.483  1.00  0.00     0.006 C 
BRANCH  12  13
ATOM     13  C   UNL     1      10.134  10.160  16.059  1.00  0.00     0.053 C 
BRANCH  13  14
ATOM     14  C   UNL     1      10.919  11.393  15.743  1.00  0.00     0.041 C 
ATOM     15  O   UNL     1      12.117  11.302  15.367  1.00  0.00    -0.550 OA
ATOM     16  O   UNL     1      10.339  12.647  15.899  1.00  0.00    -0.550 OA
ENDBRANCH  13  14
ENDBRANCH  12  13
ENDBRANCH  11  12
ENDBRANCH  10  11
ENDBRANCH   9  10
ENDBRANCH   8   9
ENDBRANCH   7   8
ENDBRANCH   6   7
ENDBRANCH   5   6
ENDBRANCH   4   5
ENDBRANCH   3   4
ENDBRANCH   2   3
ENDBRANCH   1   2
BRANCH   1  17
ATOM     17  C   UNL     1      11.699  14.021  23.943  1.00  0.00     0.000 C 
BRANCH  17  18
ATOM     18  C   UNL     1      13.205  14.329  23.873  1.00  0.00     0.000 C 
BRANCH  18  19
ATOM     19  C   UNL     1      13.563  15.696  24.476  1.00  0.00     0.000 C 
BRANCH  19  20
ATOM     20  C   UNL     1      12.437  16.268  25.351  1.00  0.00     0.000 C 
BRANCH  20  21
ATOM     21  C   UNL     1      12.801  17.666  25.866  1.00  0.00     0.000 C 
BRANCH  21  22
ATOM     22  C   UNL     1      11.989  18.750  25.144  1.00  0.00    -0.000 C 
BRANCH  22  23
ATOM     23  C   UNL     1      10.896  18.164  24.238  1.00  0.00    -0.000 C 
BRANCH  23  24
ATOM     24  C   UNL     1      11.105  18.513  22.757  1.00  0.00    -0.000 C 
BRANCH  24  25
ATOM     25  C   UNL     1      11.165  17.245  21.896  1.00  0.00    -0.000 C 
BRANCH  25  26
ATOM     26  C   UNL     1      12.578  17.019  21.341  1.00  0.00    -0.000 C 
BRANCH  26  27
ATOM     27  C   UNL     1      13.341  18.335  21.115  1.00  0.00    -0.000 C 
BRANCH  27  28
ATOM     28  C   UNL     1      14.643  18.412  21.929  1.00  0.00    -0.000 C 
BRANCH  28  29
ATOM     29  C   UNL     1      14.749  19.708  22.750  1.00  0.00    -0.003 C 
ATOM     30  C   UNL     1      13.766  20.784  22.283  1.00  0.00     0.004 C 
ENDBRANCH  28  29
ENDBRANCH  27  28
ENDBRANCH  26  27
ENDBRANCH  25  26
ENDBRANCH  24  25
ENDBRANCH  23  24
ENDBRANCH  22  23
ENDBRANCH  21  22
ENDBRANCH  20  21
ENDBRANCH  19  20
ENDBRANCH  18  19
ENDBRANCH  17  18
ENDBRANCH   1  17
TORSDOF 26
ENDMDL
MODEL 6
REMARK VINA RESULT:    -4.558      1.198      1.963
REMARK INTER + INTRA:         -15.563
REMARK INTER:                 -11.950
REMARK INTRA:                  -3.613
REMARK UNBOUND:                -4.076
REMARK SMILES CCCCCCCCCCCCCCCCCCCCCCCCCCCC(=O)[O-]
REMARK SMILES IDX 15 1 16 2 17 3 18 4 19 5 20 6 21 7 22 8 23 9 24 10 25 11
REMARK SMILES IDX 26 12 27 13 28 14 29 15 30 16 14 17 13 18 12 19 11 20 10 21
REMARK SMILES IDX 9 22 8 23 7 24 6 25 5 26 4 27 3 28 2 29 1 30
REMARK H PARENT
REMARK Flexibility Score: inf
ROOT
ATOM      1  C   UNL     1       9.953  13.044  22.619  1.00  0.00     0.000 C 
ENDROOT
BRANCH   1   2
ATOM      2  C   UNL     1       9.192  14.324  22.228  1.00  0.00     0.000 C 
BRANCH   2   3
ATOM      3  C   UNL     1       7.670  14.114  22.152  1.00  0.00     0.000 C 
BRANCH   3   4
ATOM      4  C   UNL     1       7.174  12.929  23.007  1.00  0.00     0.000 C 
BRANCH   4   5
ATOM      5  C   UNL     1       6.581  11.762  22.193  1.00  0.00     0.000 C 
BRANCH   5   6
ATOM      6  C   UNL     1       7.065  10.357  22.593  1.00  0.00     0.000 C 
BRANCH   6   7
ATOM      7  C   UNL     1       8.269   9.883  21.761  1.00  0.00     0.000 C 
BRANCH   7   8
ATOM      8  C   UNL     1       8.320  10.513  20.360  1.00  0.00     0.000 C 
BRANCH   8   9
ATOM      9  C   UNL     1       9.757  10.684  19.833  1.00  0.00     0.000 C 
BRANCH   9  10
ATOM     10  C   UNL     1       9.900  11.873  18.872  1.00  0.00     0.000 C 
BRANCH  10  11
ATOM     11  C   UNL     1      10.024  11.436  17.402  1.00  0.00     0.000 C 
BRANCH  11  12
ATOM     12  C   UNL     1      10.725  12.492  16.533  1.00  0.00     0.006 C 
BRANCH  12  13
ATOM     13  C   UNL     1      10.179  12.536  15.099  1.00  0.00     0.053 C 
BRANCH  13  14
ATOM     14  C   UNL     1      11.302  12.555  14.110  1.00  0.00     0.041 C 
ATOM     15  O   UNL     1      12.496  12.529  14.508  1.00  0.00    -0.550 OA
ATOM     16  O   UNL     1      11.031  12.638  12.750  1.00  0.00    -0.550 OA
ENDBRANCH  13  14
ENDBRANCH  12  13
ENDBRANCH  11  12
ENDBRANCH  10  11
ENDBRANCH   9  10
ENDBRANCH   8   9
ENDBRANCH   7   8
ENDBRANCH   6   7
ENDBRANCH   5   6
ENDBRANCH   4   5
ENDBRANCH   3   4
ENDBRANCH   2   3
ENDBRANCH   1   2
BRANCH   1  17
ATOM     17  C   UNL     1      11.433  13.036  22.174  1.00  0.00     0.000 C 
BRANCH  17  18
ATOM     18  C   UNL     1      12.171  14.322  22.589  1.00  0.00     0.000 C 
BRANCH  18  19
ATOM     19  C   UNL     1      12.473  14.376  24.095  1.00  0.00     0.000 C 
BRANCH  19  20
ATOM     20  C   UNL     1      11.712  15.503  24.809  1.00  0.00     0.000 C 
BRANCH  20  21
ATOM     21  C   UNL     1      12.685  16.474  25.489  1.00  0.00     0.000 C 
BRANCH  21  22
ATOM     22  C   UNL     1      12.152  17.914  25.439  1.00  0.00    -0.000 C 
BRANCH  22  23
ATOM     23  C   UNL     1      13.208  18.917  24.949  1.00  0.00    -0.000 C 
BRANCH  23  24
ATOM     24  C   UNL     1      14.299  18.256  24.093  1.00  0.00    -0.000 C 
BRANCH  24  25
ATOM     25  C   UNL     1      15.083  19.307  23.297  1.00  0.00    -0.000 C 
BRANCH  25  26
ATOM     26  C   UNL     1      14.663  19.309  21.820  1.00  0.00    -0.000 C 
BRANCH  26  27
ATOM     27  C   UNL     1      13.627  20.399  21.502  1.00  0.00    -0.000 C 
BRANCH  27  28
ATOM     28  C   UNL     1      12.190  19.853  21.451  1.00  0.00    -0.000 C 
BRANCH  28  29
ATOM     29  C   UNL     1      12.141  18.352  21.124  1.00  0.00    -0.003 C 
ATOM     30  C   UNL     1      10.998  17.630  21.840  1.00  0.00     0.004 C 
ENDBRANCH  28  29
ENDBRANCH  27  28
ENDBRANCH  26  27
ENDBRANCH  25  26
ENDBRANCH  24  25
ENDBRANCH  23  24
ENDBRANCH  22  23
ENDBRANCH  21  22
ENDBRANCH  20  21
ENDBRANCH  19  20
ENDBRANCH  18  19
ENDBRANCH  17  18
ENDBRANCH   1  17
TORSDOF 26
ENDMDL
MODEL 7
REMARK VINA RESULT:    -4.538      3.159      8.747
REMARK INTER + INTRA:         -15.511
REMARK INTER:                 -12.091
REMARK INTRA:                  -3.420
REMARK UNBOUND:                -4.076
REMARK SMILES CCCCCCCCCCCCCCCCCCCCCCCCCCCC(=O)[O-]
REMARK SMILES IDX 15 1 16 2 17 3 18 4 19 5 20 6 21 7 22 8 23 9 24 10 25 11
REMARK SMILES IDX 26 12 27 13 28 14 29 15 30 16 14 17 13 18 12 19 11 20 10 21
REMARK SMILES IDX 9 22 8 23 7 24 6 25 5 26 4 27 3 28 2 29 1 30
REMARK H PARENT
REMARK Flexibility Score: inf
ROOT
ATOM      1  C   UNL     1      12.633  14.991  24.489  1.00  0.00     0.000 C 
ENDROOT
BRANCH   1   2
ATOM      2  C   UNL     1      13.252  16.186  23.742  1.00  0.00     0.000 C 
BRANCH   2   3
ATOM      3  C   UNL     1      13.666  17.330  24.683  1.00  0.00     0.000 C 
BRANCH   3   4
ATOM      4  C   UNL     1      12.718  17.501  25.889  1.00  0.00     0.000 C 
BRANCH   4   5
ATOM      5  C   UNL     1      12.063  18.892  25.991  1.00  0.00     0.000 C 
BRANCH   5   6
ATOM      6  C   UNL     1      11.025  19.222  24.906  1.00  0.00     0.000 C 
BRANCH   6   7
ATOM      7  C   UNL     1      11.475  20.364  23.978  1.00  0.00     0.000 C 
BRANCH   7   8
ATOM      8  C   UNL     1      12.211  19.867  22.724  1.00  0.00     0.000 C 
BRANCH   8   9
ATOM      9  C   UNL     1      13.418  20.748  22.350  1.00  0.00     0.000 C 
BRANCH   9  10
ATOM     10  C   UNL     1      14.710  19.939  22.165  1.00  0.00     0.000 C 
BRANCH  10  11
ATOM     11  C   UNL     1      14.503  18.679  21.306  1.00  0.00     0.000 C 
BRANCH  11  12
ATOM     12  C   UNL     1      15.169  18.794  19.926  1.00  0.00     0.006 C 
BRANCH  12  13
ATOM     13  C   UNL     1      14.334  19.616  18.933  1.00  0.00     0.053 C 
BRANCH  13  14
ATOM     14  C   UNL     1      14.831  21.025  18.871  1.00  0.00     0.041 C 
ATOM     15  O   UNL     1      14.014  21.982  18.810  1.00  0.00    -0.550 OA
ATOM     16  O   UNL     1      16.196  21.283  18.843  1.00  0.00    -0.550 OA
ENDBRANCH  13  14
ENDBRANCH  12  13
ENDBRANCH  11  12
ENDBRANCH  10  11
ENDBRANCH   9  10
ENDBRANCH   8   9
ENDBRANCH   7   8
ENDBRANCH   6   7
ENDBRANCH   5   6
ENDBRANCH   4   5
ENDBRANCH   3   4
ENDBRANCH   2   3
ENDBRANCH   1   2
BRANCH   1  17
ATOM     17  C   UNL     1      11.134  14.772  24.184  1.00  0.00     0.000 C 
BRANCH  17  18
ATOM     18  C   UNL     1      10.787  15.088  22.718  1.00  0.00     0.000 C 
BRANCH  18  19
ATOM     19  C   UNL     1      10.277  13.859  21.948  1.00  0.00     0.000 C 
BRANCH  19  20
ATOM     20  C   UNL     1      10.987  12.563  22.368  1.00  0.00     0.000 C 
BRANCH  20  21
ATOM     21  C   UNL     1      12.176  12.268  21.447  1.00  0.00     0.000 C 
BRANCH  21  22
ATOM     22  C   UNL     1      11.812  11.211  20.395  1.00  0.00    -0.000 C 
BRANCH  22  23
ATOM     23  C   UNL     1      11.560  11.821  19.008  1.00  0.00    -0.000 C 
BRANCH  23  24
ATOM     24  C   UNL     1      10.073  11.824  18.624  1.00  0.00    -0.000 C 
BRANCH  24  25
ATOM     25  C   UNL     1       9.285  10.814  19.468  1.00  0.00    -0.000 C 
BRANCH  25  26
ATOM     26  C   UNL     1       8.106  11.491  20.182  1.00  0.00    -0.000 C 
BRANCH  26  27
ATOM     27  C   UNL     1       7.599  10.679  21.385  1.00  0.00    -0.000 C 
BRANCH  27  28
ATOM     28  C   UNL     1       7.481  11.526  22.663  1.00  0.00    -0.000 C 
BRANCH  28  29
ATOM     29  C   UNL     1       6.024  11.865  23.014  1.00  0.00    -0.003 C 
ATOM     30  C   UNL     1       5.042  10.782  22.562  1.00  0.00     0.004 C 
ENDBRANCH  28  29
ENDBRANCH  27  28
ENDBRANCH  26  27
ENDBRANCH  25  26
ENDBRANCH  24  25
ENDBRANCH  23  24
ENDBRANCH  22  23
ENDBRANCH  21  22
ENDBRANCH  20  21
ENDBRANCH  19  20
ENDBRANCH  18  19
ENDBRANCH  17  18
ENDBRANCH   1  17
TORSDOF 26
ENDMDL
MODEL 8
REMARK VINA RESULT:    -4.515      5.042      9.175
REMARK INTER + INTRA:         -15.454
REMARK INTER:                 -10.674
REMARK INTRA:                  -4.780
REMARK UNBOUND:                -4.076
REMARK SMILES CCCCCCCCCCCCCCCCCCCCCCCCCCCC(=O)[O-]
REMARK SMILES IDX 15 1 16 2 17 3 18 4 19 5 20 6 21 7 22 8 23 9 24 10 25 11
REMARK SMILES IDX 26 12 27 13 28 14 29 15 30 16 14 17 13 18 12 19 11 20 10 21
REMARK SMILES IDX 9 22 8 23 7 24 6 25 5 26 4 27 3 28 2 29 1 30
REMARK H PARENT
REMARK Flexibility Score: inf
ROOT
ATOM      1  C   UNL     1      11.384  19.625  18.807  1.00  0.00     0.000 C 
ENDROOT
BRANCH   1   2
ATOM      2  C   UNL     1      10.976  21.104  18.675  1.00  0.00     0.000 C 
BRANCH   2   3
ATOM      3  C   UNL     1      12.159  22.070  18.858  1.00  0.00     0.000 C 
BRANCH   3   4
ATOM      4  C   UNL     1      11.993  23.014  20.067  1.00  0.00     0.000 C 
BRANCH   4   5
ATOM      5  C   UNL     1      10.888  22.594  21.056  1.00  0.00     0.000 C 
BRANCH   5   6
ATOM      6  C   UNL     1      11.053  23.104  22.497  1.00  0.00     0.000 C 
BRANCH   6   7
ATOM      7  C   UNL     1      10.346  24.450  22.737  1.00  0.00     0.000 C 
BRANCH   7   8
ATOM      8  C   UNL     1       8.914  24.291  23.272  1.00  0.00     0.000 C 
BRANCH   8   9
ATOM      9  C   UNL     1       7.844  24.477  22.179  1.00  0.00     0.000 C 
BRANCH   9  10
ATOM     10  C   UNL     1       8.310  25.399  21.043  1.00  0.00     0.000 C 
BRANCH  10  11
ATOM     11  C   UNL     1       7.466  25.239  19.765  1.00  0.00     0.000 C 
BRANCH  11  12
ATOM     12  C   UNL     1       6.931  23.809  19.592  1.00  0.00     0.006 C 
BRANCH  12  13
ATOM     13  C   UNL     1       7.797  22.965  18.645  1.00  0.00     0.053 C 
BRANCH  13  14
ATOM     14  C   UNL     1       7.040  21.763  18.174  1.00  0.00     0.041 C 
ATOM     15  O   UNL     1       7.620  20.876  17.495  1.00  0.00    -0.550 OA
ATOM     16  O   UNL     1       5.685  21.639  18.454  1.00  0.00    -0.550 OA
ENDBRANCH  13  14
ENDBRANCH  12  13
ENDBRANCH  11  12
ENDBRANCH  10  11
ENDBRANCH   9  10
ENDBRANCH   8   9
ENDBRANCH   7   8
ENDBRANCH   6   7
ENDBRANCH   5   6
ENDBRANCH   4   5
ENDBRANCH   3   4
ENDBRANCH   2   3
ENDBRANCH   1   2
BRANCH   1  17
ATOM     17  C   UNL     1      12.911  19.402  18.864  1.00  0.00     0.000 C 
BRANCH  17  18
ATOM     18  C   UNL     1      13.287  18.170  19.708  1.00  0.00     0.000 C 
BRANCH  18  19
ATOM     19  C   UNL     1      14.173  18.521  20.913  1.00  0.00     0.000 C 
BRANCH  19  20
ATOM     20  C   UNL     1      14.187  20.026  21.218  1.00  0.00     0.000 C 
BRANCH  20  21
ATOM     21  C   UNL     1      13.671  20.301  22.635  1.00  0.00     0.000 C 
BRANCH  21  22
ATOM     22  C   UNL     1      12.259  19.727  22.830  1.00  0.00    -0.000 C 
BRANCH  22  23
ATOM     23  C   UNL     1      11.642  20.124  24.180  1.00  0.00    -0.000 C 
BRANCH  23  24
ATOM     24  C   UNL     1      11.312  18.909  25.060  1.00  0.00    -0.000 C 
BRANCH  24  25
ATOM     25  C   UNL     1      12.559  18.416  25.805  1.00  0.00    -0.000 C 
BRANCH  25  26
ATOM     26  C   UNL     1      12.831  16.935  25.508  1.00  0.00    -0.000 C 
BRANCH  26  27
ATOM     27  C   UNL     1      13.690  16.734  24.248  1.00  0.00    -0.000 C 
BRANCH  27  28
ATOM     28  C   UNL     1      13.026  15.800  23.222  1.00  0.00    -0.000 C 
BRANCH  28  29
ATOM     29  C   UNL     1      11.505  15.697  23.416  1.00  0.00    -0.003 C 
ATOM     30  C   UNL     1      10.721  16.445  22.336  1.00  0.00     0.004 C 
ENDBRANCH  28  29
ENDBRANCH  27  28
ENDBRANCH  26  27
ENDBRANCH  25  26
ENDBRANCH  24  25
ENDBRANCH  23  24
ENDBRANCH  22  23
ENDBRANCH  21  22
ENDBRANCH  20  21
ENDBRANCH  19  20
ENDBRANCH  18  19
ENDBRANCH  17  18
ENDBRANCH   1  17
TORSDOF 26
ENDMDL
MODEL 9
REMARK VINA RESULT:    -4.481      1.400      2.862
REMARK INTER + INTRA:         -15.369
REMARK INTER:                 -11.873
REMARK INTRA:                  -3.496
REMARK UNBOUND:                -4.076
REMARK SMILES CCCCCCCCCCCCCCCCCCCCCCCCCCCC(=O)[O-]
REMARK SMILES IDX 15 1 16 2 17 3 18 4 19 5 20 6 21 7 22 8 23 9 24 10 25 11
REMARK SMILES IDX 26 12 27 13 28 14 29 15 30 16 14 17 13 18 12 19 11 20 10 21
REMARK SMILES IDX 9 22 8 23 7 24 6 25 5 26 4 27 3 28 2 29 1 30
REMARK H PARENT
REMARK Flexibility Score: inf
ROOT
ATOM      1  C   UNL     1      10.079  13.573  21.849  1.00  0.00     0.000 C 
ENDROOT
BRANCH   1   2
ATOM      2  C   UNL     1       9.021  14.347  22.656  1.00  0.00     0.000 C 
BRANCH   2   3
ATOM      3  C   UNL     1       7.583  14.050  22.195  1.00  0.00     0.000 C 
BRANCH   3   4
ATOM      4  C   UNL     1       6.733  13.340  23.269  1.00  0.00     0.000 C 
BRANCH   4   5
ATOM      5  C   UNL     1       6.345  11.890  22.918  1.00  0.00     0.000 C 
BRANCH   5   6
ATOM      6  C   UNL     1       6.797  11.396  21.533  1.00  0.00     0.000 C 
BRANCH   6   7
ATOM      7  C   UNL     1       7.784  10.218  21.615  1.00  0.00     0.000 C 
BRANCH   7   8
ATOM      8  C   UNL     1       8.819  10.219  20.479  1.00  0.00     0.000 C 
BRANCH   8   9
ATOM      9  C   UNL     1       8.760  11.495  19.618  1.00  0.00     0.000 C 
BRANCH   9  10
ATOM     10  C   UNL     1       9.785  11.488  18.475  1.00  0.00     0.000 C 
BRANCH  10  11
ATOM     11  C   UNL     1       9.635  10.267  17.550  1.00  0.00     0.000 C 
BRANCH  11  12
ATOM     12  C   UNL     1      10.626  10.294  16.377  1.00  0.00     0.006 C 
BRANCH  12  13
ATOM     13  C   UNL     1      10.585  11.616  15.597  1.00  0.00     0.053 C 
BRANCH  13  14
ATOM     14  C   UNL     1      10.350  11.359  14.142  1.00  0.00     0.041 C 
ATOM     15  O   UNL     1      10.292  12.320  13.331  1.00  0.00    -0.550 OA
ATOM     16  O   UNL     1      10.157  10.061  13.686  1.00  0.00    -0.550 OA
ENDBRANCH  13  14
ENDBRANCH  12  13
ENDBRANCH  11  12
ENDBRANCH  10  11
ENDBRANCH   9  10
ENDBRANCH   8   9
ENDBRANCH   7   8
ENDBRANCH   6   7
ENDBRANCH   5   6
ENDBRANCH   4   5
ENDBRANCH   3   4
ENDBRANCH   2   3
ENDBRANCH   1   2
BRANCH   1  17
ATOM     17  C   UNL     1      10.899  12.571  22.693  1.00  0.00     0.000 C 
BRANCH  17  18
ATOM     18  C   UNL     1      12.345  12.428  22.184  1.00  0.00     0.000 C 
BRANCH  18  19
ATOM     19  C   UNL     1      13.237  13.613  22.584  1.00  0.00     0.000 C 
BRANCH  19  20
ATOM     20  C   UNL     1      13.109  13.973  24.072  1.00  0.00     0.000 C 
BRANCH  20  21
ATOM     21  C   UNL     1      13.150  15.492  24.272  1.00  0.00     0.000 C 
BRANCH  21  22
ATOM     22  C   UNL     1      11.770  16.034  24.673  1.00  0.00    -0.000 C 
BRANCH  22  23
ATOM     23  C   UNL     1      11.297  17.178  23.763  1.00  0.00    -0.000 C 
BRANCH  23  24
ATOM     24  C   UNL     1      11.501  16.870  22.272  1.00  0.00    -0.000 C 
BRANCH  24  25
ATOM     25  C   UNL     1      11.151  18.088  21.408  1.00  0.00    -0.000 C 
BRANCH  25  26
ATOM     26  C   UNL     1      12.419  18.792  20.903  1.00  0.00    -0.000 C 
BRANCH  26  27
ATOM     27  C   UNL     1      12.526  20.243  21.398  1.00  0.00    -0.000 C 
BRANCH  27  28
ATOM     28  C   UNL     1      13.833  20.514  22.161  1.00  0.00    -0.000 C 
BRANCH  28  29
ATOM     29  C   UNL     1      14.810  19.329  22.097  1.00  0.00    -0.003 C 
ATOM     30  C   UNL     1      15.864  19.493  20.999  1.00  0.00     0.004 C 
ENDBRANCH  28  29
ENDBRANCH  27  28
ENDBRANCH  26  27
ENDBRANCH  25  26
ENDBRANCH  24  25
ENDBRANCH  23  24
ENDBRANCH  22  23
ENDBRANCH  21  22
ENDBRANCH  20  21
ENDBRANCH  19  20
ENDBRANCH  18  19
ENDBRANCH  17  18
ENDBRANCH   1  17
TORSDOF 26
ENDMDL
