MODEL 1
REMARK VINA RESULT:    -6.169      0.000      0.000
REMARK INTER + INTRA:         -12.438
REMARK INTER:                 -10.136
REMARK INTRA:                  -2.302
REMARK UNBOUND:                -2.302
REMARK SMILES C[C@@H]1O[C@H](OC[C@H]2O[C@@H](Oc3c(-c4ccc(O)c(O)c4)oc4cc(O)cc(O)c4c3=O)[C@@H](O)[C@H](O)[C@H]2O)[C@@H](O)[C@H](O)[C@H]1O
REMARK SMILES IDX 7 1 36 2 34 3 32 4 9 5 8 6 6 7 5 8 4 9 1 10 2 11 42 12 3 13
REMARK SMILES IDX 40 14 38 15 43 16 41 18 39 20 37 22 35 24 10 26 11 27 12 28
REMARK SMILES IDX 30 29 21 30 29 31 31 32 22 33 27 34 23 35 26 36 24 37 13 38
REMARK SMILES IDX 20 39 14 40 18 41 15 42 16 43 19 44 17 46 28 48 25 50 33 52
REMARK H PARENT 43 17 41 19 39 21 37 23 35 25 19 45 17 47 28 49 25 51 33 53
REMARK Flexibility Score: inf
ROOT
ATOM      1  C   UNL     1       6.233  -4.021   7.924  1.00  0.00     0.180 C 
ATOM      2  C   UNL     1       7.517  -4.584   8.653  1.00  0.00     0.177 C 
ATOM      3  C   UNL     1       7.178  -5.876   9.510  1.00  0.00     0.180 C 
ATOM      4  C   UNL     1       6.071  -5.391  10.547  1.00  0.00     0.214 C 
ATOM      5  C   UNL     1       4.828  -4.788   9.834  1.00  0.00     0.339 C 
ATOM      6  O   UNL     1       5.108  -3.795   8.869  1.00  0.00    -0.332 OA
ENDROOT
BRANCH   1   7
ATOM      7  C   UNL     1       5.656  -4.828   6.658  1.00  0.00     0.198 C 
BRANCH   7   8
ATOM      8  O   UNL     1       6.588  -5.721   6.139  1.00  0.00    -0.347 OA
BRANCH   8   9
ATOM      9  C   UNL     1       6.992  -5.403   4.874  1.00  0.00     0.281 C 
ATOM     10  C   UNL     1       5.496  -6.797   1.812  1.00  0.00     0.041 C 
ATOM     11  C   UNL     1       6.531  -6.136   2.768  1.00  0.00     0.150 C 
ATOM     12  C   UNL     1       6.944  -4.637   2.237  1.00  0.00     0.174 C 
ATOM     13  O   UNL     1       5.981  -5.996   4.033  1.00  0.00    -0.344 OA
ATOM     14  C   UNL     1       6.241  -3.620   3.226  1.00  0.00     0.179 C 
ATOM     15  C   UNL     1       6.725  -3.870   4.713  1.00  0.00     0.202 C 
BRANCH  12  16
ATOM     16  O   UNL     1       8.350  -4.402   2.219  1.00  0.00    -0.388 OA
ATOM     17  H   UNL     1       8.548  -3.453   2.528  1.00  0.00     0.211 HD
ENDBRANCH  12  16
BRANCH  14  18
ATOM     18  O   UNL     1       4.863  -3.820   3.133  1.00  0.00    -0.387 OA
ATOM     19  H   UNL     1       4.664  -4.625   2.589  1.00  0.00     0.211 HD
ENDBRANCH  14  18
BRANCH  15  20
ATOM     20  O   UNL     1       7.852  -3.123   5.011  1.00  0.00    -0.385 OA
ATOM     21  H   UNL     1       7.772  -2.915   5.995  1.00  0.00     0.211 HD
ENDBRANCH  15  20
ENDBRANCH   8   9
ENDBRANCH   7   8
ENDBRANCH   1   7
BRANCH   2  22
ATOM     22  O   UNL     1       8.506  -4.741   7.644  1.00  0.00    -0.387 OA
ATOM     23  H   UNL     1       8.055  -4.877   6.745  1.00  0.00     0.211 HD
ENDBRANCH   2  22
BRANCH   3  24
ATOM     24  O   UNL     1       8.296  -6.491  10.188  1.00  0.00    -0.387 OA
ATOM     25  H   UNL     1       8.670  -5.868  10.861  1.00  0.00     0.211 HD
ENDBRANCH   3  24
BRANCH   5  26
ATOM     26  O   UNL     1       4.182  -5.892   9.246  1.00  0.00    -0.454 OA
BRANCH  26  27
ATOM     27  C   UNL     1       3.218  -6.725   9.854  1.00  0.00     0.214 A 
ATOM     28  C   UNL     1       3.370  -8.128   9.703  1.00  0.00     0.180 A 
ATOM     29  C   UNL     1       2.047  -6.252  10.507  1.00  0.00     0.239 A 
ATOM     30  O   UNL     1       2.537  -8.954  10.381  1.00  0.00    -0.452 OA
ATOM     31  C   UNL     1       1.088  -7.176  11.009  1.00  0.00     0.111 A 
ATOM     32  O   UNL     1       1.847  -5.013  10.680  1.00  0.00    -0.285 OA
ATOM     33  C   UNL     1       1.467  -8.534  10.967  1.00  0.00     0.146 A 
ATOM     34  C   UNL     1      -0.186  -6.788  11.481  1.00  0.00     0.134 A 
ATOM     35  C   UNL     1       0.580  -9.509  11.524  1.00  0.00     0.094 A 
ATOM     36  C   UNL     1      -1.102  -7.760  11.894  1.00  0.00     0.093 A 
ATOM     37  C   UNL     1      -0.740  -9.129  11.809  1.00  0.00     0.123 A 
BRANCH  28  38
ATOM     38  C   UNL     1       4.414  -8.760   8.918  1.00  0.00     0.025 A 
ATOM     39  C   UNL     1       4.330  -8.687   7.510  1.00  0.00     0.062 A 
ATOM     40  C   UNL     1       5.566  -9.397   9.526  1.00  0.00     0.016 A 
ATOM     41  C   UNL     1       5.443  -9.071   6.713  1.00  0.00     0.158 A 
ATOM     42  C   UNL     1       6.509 -10.070   8.657  1.00  0.00     0.051 A 
ATOM     43  C   UNL     1       6.535  -9.774   7.313  1.00  0.00     0.157 A 
BRANCH  41  44
ATOM     44  O   UNL     1       5.516  -8.504   5.469  1.00  0.00    -0.504 OA
ATOM     45  H   UNL     1       5.936  -8.995   4.673  1.00  0.00     0.293 HD
ENDBRANCH  41  44
BRANCH  43  46
ATOM     46  O   UNL     1       7.619 -10.125   6.546  1.00  0.00    -0.504 OA
ATOM     47  H   UNL     1       7.530 -10.463   5.606  1.00  0.00     0.293 HD
ENDBRANCH  43  46
ENDBRANCH  28  38
BRANCH  34  48
ATOM     48  O   UNL     1      -0.525  -5.401  11.562  1.00  0.00    -0.507 OA
ATOM     49  H   UNL     1      -0.794  -4.958  12.431  1.00  0.00     0.293 HD
ENDBRANCH  34  48
BRANCH  37  50
ATOM     50  O   UNL     1      -1.694 -10.116  11.980  1.00  0.00    -0.508 OA
ATOM     51  H   UNL     1      -1.528 -11.067  11.683  1.00  0.00     0.293 HD
ENDBRANCH  37  50
ENDBRANCH  26  27
ENDBRANCH   5  26
BRANCH   4  52
ATOM     52  O   UNL     1       5.811  -6.421  11.477  1.00  0.00    -0.384 OA
ATOM     53  H   UNL     1       5.314  -6.111  12.316  1.00  0.00     0.211 HD
ENDBRANCH   4  52
TORSDOF 16
ENDMDL
MODEL 2
REMARK VINA RESULT:    -5.502      1.792      2.829
REMARK INTER + INTRA:         -11.343
REMARK INTER:                  -8.864
REMARK INTRA:                  -2.479
REMARK UNBOUND:                -2.302
REMARK SMILES C[C@@H]1O[C@H](OC[C@H]2O[C@@H](Oc3c(-c4ccc(O)c(O)c4)oc4cc(O)cc(O)c4c3=O)[C@@H](O)[C@H](O)[C@H]2O)[C@@H](O)[C@H](O)[C@H]1O
REMARK SMILES IDX 7 1 36 2 34 3 32 4 9 5 8 6 6 7 5 8 4 9 1 10 2 11 42 12 3 13
REMARK SMILES IDX 40 14 38 15 43 16 41 18 39 20 37 22 35 24 10 26 11 27 12 28
REMARK SMILES IDX 30 29 21 30 29 31 31 32 22 33 27 34 23 35 26 36 24 37 13 38
REMARK SMILES IDX 20 39 14 40 18 41 15 42 16 43 19 44 17 46 28 48 25 50 33 52
REMARK H PARENT 43 17 41 19 39 21 37 23 35 25 19 45 17 47 28 49 25 51 33 53
REMARK Flexibility Score: inf
ROOT
ATOM      1  C   UNL     1       6.638  -4.371   5.093  1.00  0.00     0.180 C 
ATOM      2  C   UNL     1       7.775  -3.400   5.601  1.00  0.00     0.177 C 
ATOM      3  C   UNL     1       8.071  -3.610   7.145  1.00  0.00     0.180 C 
ATOM      4  C   UNL     1       6.679  -3.322   7.864  1.00  0.00     0.214 C 
ATOM      5  C   UNL     1       5.546  -4.241   7.329  1.00  0.00     0.339 C 
ATOM      6  O   UNL     1       5.408  -4.274   5.923  1.00  0.00    -0.332 OA
ENDROOT
BRANCH   1   7
ATOM      7  C   UNL     1       6.987  -5.931   4.913  1.00  0.00     0.198 C 
BRANCH   7   8
ATOM      8  O   UNL     1       6.119  -6.561   4.028  1.00  0.00    -0.347 OA
BRANCH   8   9
ATOM      9  C   UNL     1       6.716  -6.924   2.854  1.00  0.00     0.281 C 
ATOM     10  C   UNL     1       5.510  -9.630   0.669  1.00  0.00     0.041 C 
ATOM     11  C   UNL     1       6.469  -8.600   1.333  1.00  0.00     0.150 C 
ATOM     12  C   UNL     1       7.092  -7.573   0.212  1.00  0.00     0.174 C 
ATOM     13  O   UNL     1       5.772  -7.838   2.258  1.00  0.00    -0.344 OA
ATOM     14  C   UNL     1       6.366  -6.186   0.447  1.00  0.00     0.179 C 
ATOM     15  C   UNL     1       6.622  -5.670   1.923  1.00  0.00     0.202 C 
BRANCH  12  16
ATOM     16  O   UNL     1       8.504  -7.404   0.311  1.00  0.00    -0.388 OA
ATOM     17  H   UNL     1       8.896  -8.109   0.930  1.00  0.00     0.211 HD
ENDBRANCH  12  16
BRANCH  14  18
ATOM     18  O   UNL     1       4.999  -6.379   0.241  1.00  0.00    -0.387 OA
ATOM     19  H   UNL     1       4.692  -5.872  -0.555  1.00  0.00     0.211 HD
ENDBRANCH  14  18
BRANCH  15  20
ATOM     20  O   UNL     1       7.767  -4.895   1.996  1.00  0.00    -0.385 OA
ATOM     21  H   UNL     1       7.590  -4.242   2.744  1.00  0.00     0.211 HD
ENDBRANCH  15  20
ENDBRANCH   8   9
ENDBRANCH   7   8
ENDBRANCH   1   7
BRANCH   2  22
ATOM     22  O   UNL     1       8.875  -3.585   4.720  1.00  0.00    -0.387 OA
ATOM     23  H   UNL     1       8.550  -4.011   3.857  1.00  0.00     0.211 HD
ENDBRANCH   2  22
BRANCH   3  24
ATOM     24  O   UNL     1       9.125  -2.792   7.701  1.00  0.00    -0.387 OA
ATOM     25  H   UNL     1       8.988  -2.676   8.674  1.00  0.00     0.211 HD
ENDBRANCH   3  24
BRANCH   5  26
ATOM     26  O   UNL     1       5.851  -5.518   7.835  1.00  0.00    -0.454 OA
BRANCH  26  27
ATOM     27  C   UNL     1       5.083  -6.265   8.755  1.00  0.00     0.214 A 
ATOM     28  C   UNL     1       5.118  -7.680   8.646  1.00  0.00     0.180 A 
ATOM     29  C   UNL     1       4.192  -5.695   9.705  1.00  0.00     0.239 A 
ATOM     30  O   UNL     1       4.497  -8.425   9.592  1.00  0.00    -0.452 OA
ATOM     31  C   UNL     1       3.394  -6.538  10.528  1.00  0.00     0.111 A 
ATOM     32  O   UNL     1       4.112  -4.440   9.860  1.00  0.00    -0.285 OA
ATOM     33  C   UNL     1       3.680  -7.917  10.452  1.00  0.00     0.146 A 
ATOM     34  C   UNL     1       2.345  -6.053  11.343  1.00  0.00     0.134 A 
ATOM     35  C   UNL     1       2.964  -8.812  11.307  1.00  0.00     0.094 A 
ATOM     36  C   UNL     1       1.557  -6.951  12.071  1.00  0.00     0.093 A 
ATOM     37  C   UNL     1       1.814  -8.341  11.959  1.00  0.00     0.123 A 
BRANCH  28  38
ATOM     38  C   UNL     1       5.840  -8.405   7.618  1.00  0.00     0.025 A 
ATOM     39  C   UNL     1       5.096  -9.042   6.601  1.00  0.00     0.062 A 
ATOM     40  C   UNL     1       7.289  -8.439   7.563  1.00  0.00     0.016 A 
ATOM     41  C   UNL     1       5.760  -9.550   5.450  1.00  0.00     0.158 A 
ATOM     42  C   UNL     1       7.912  -9.260   6.544  1.00  0.00     0.051 A 
ATOM     43  C   UNL     1       7.187  -9.655   5.444  1.00  0.00     0.157 A 
BRANCH  41  44
ATOM     44  O   UNL     1       5.001  -9.657   4.316  1.00  0.00    -0.504 OA
ATOM     45  H   UNL     1       4.326 -10.417   4.184  1.00  0.00     0.293 HD
ENDBRANCH  41  44
BRANCH  43  46
ATOM     46  O   UNL     1       7.827 -10.125   4.323  1.00  0.00    -0.504 OA
ATOM     47  H   UNL     1       7.418 -10.085   3.409  1.00  0.00     0.293 HD
ENDBRANCH  43  46
ENDBRANCH  28  38
BRANCH  34  48
ATOM     48  O   UNL     1       2.112  -4.646  11.443  1.00  0.00    -0.507 OA
ATOM     49  H   UNL     1       2.520  -4.080  12.175  1.00  0.00     0.293 HD
ENDBRANCH  34  48
BRANCH  37  50
ATOM     50  O   UNL     1       0.914  -9.261  12.469  1.00  0.00    -0.508 OA
ATOM     51  H   UNL     1       0.875 -10.208  12.123  1.00  0.00     0.293 HD
ENDBRANCH  37  50
ENDBRANCH  26  27
ENDBRANCH   5  26
BRANCH   4  52
ATOM     52  O   UNL     1       6.861  -3.317   9.264  1.00  0.00    -0.384 OA
ATOM     53  H   UNL     1       6.441  -2.514   9.738  1.00  0.00     0.211 HD
ENDBRANCH   4  52
TORSDOF 16
ENDMDL
MODEL 3
REMARK VINA RESULT:    -5.432      2.046      8.127
REMARK INTER + INTRA:         -11.227
REMARK INTER:                  -8.357
REMARK INTRA:                  -2.870
REMARK UNBOUND:                -2.302
REMARK SMILES C[C@@H]1O[C@H](OC[C@H]2O[C@@H](Oc3c(-c4ccc(O)c(O)c4)oc4cc(O)cc(O)c4c3=O)[C@@H](O)[C@H](O)[C@H]2O)[C@@H](O)[C@H](O)[C@H]1O
REMARK SMILES IDX 7 1 36 2 34 3 32 4 9 5 8 6 6 7 5 8 4 9 1 10 2 11 42 12 3 13
REMARK SMILES IDX 40 14 38 15 43 16 41 18 39 20 37 22 35 24 10 26 11 27 12 28
REMARK SMILES IDX 30 29 21 30 29 31 31 32 22 33 27 34 23 35 26 36 24 37 13 38
REMARK SMILES IDX 20 39 14 40 18 41 15 42 16 43 19 44 17 46 28 48 25 50 33 52
REMARK H PARENT 43 17 41 19 39 21 37 23 35 25 19 45 17 47 28 49 25 51 33 53
REMARK Flexibility Score: inf
ROOT
ATOM      1  C   UNL     1       6.431  -9.926   8.577  1.00  0.00     0.180 C 
ATOM      2  C   UNL     1       7.070  -9.241   9.849  1.00  0.00     0.177 C 
ATOM      3  C   UNL     1       7.501  -7.744   9.548  1.00  0.00     0.180 C 
ATOM      4  C   UNL     1       8.544  -7.860   8.350  1.00  0.00     0.214 C 
ATOM      5  C   UNL     1       7.935  -8.581   7.114  1.00  0.00     0.339 C 
ATOM      6  O   UNL     1       7.312  -9.820   7.384  1.00  0.00    -0.332 OA
ENDROOT
BRANCH   1   7
ATOM      7  C   UNL     1       4.949  -9.485   8.133  1.00  0.00     0.198 C 
BRANCH   7   8
ATOM      8  O   UNL     1       3.977  -9.989   8.991  1.00  0.00    -0.347 OA
BRANCH   8   9
ATOM      9  C   UNL     1       3.039  -9.061   9.346  1.00  0.00     0.281 C 
ATOM     10  C   UNL     1       3.477  -6.611  12.058  1.00  0.00     0.041 C 
ATOM     11  C   UNL     1       2.783  -7.541  11.022  1.00  0.00     0.150 C 
ATOM     12  C   UNL     1       1.849  -6.671   9.987  1.00  0.00     0.174 C 
ATOM     13  O   UNL     1       3.741  -8.201  10.267  1.00  0.00    -0.344 OA
ATOM     14  C   UNL     1       2.624  -6.666   8.607  1.00  0.00     0.179 C 
ATOM     15  C   UNL     1       2.846  -8.147   8.092  1.00  0.00     0.202 C 
BRANCH  12  16
ATOM     16  O   UNL     1       0.541  -7.207   9.807  1.00  0.00    -0.388 OA
ATOM     17  H   UNL     1       0.463  -8.101  10.287  1.00  0.00     0.211 HD
ENDBRANCH  12  16
BRANCH  14  18
ATOM     18  O   UNL     1       3.855  -6.042   8.811  1.00  0.00    -0.387 OA
ATOM     19  H   UNL     1       3.726  -5.137   9.198  1.00  0.00     0.211 HD
ENDBRANCH  14  18
BRANCH  15  20
ATOM     20  O   UNL     1       1.788  -8.575   7.308  1.00  0.00    -0.385 OA
ATOM     21  H   UNL     1       2.155  -8.599   6.369  1.00  0.00     0.211 HD
ENDBRANCH  15  20
ENDBRANCH   8   9
ENDBRANCH   7   8
ENDBRANCH   1   7
BRANCH   2  22
ATOM     22  O   UNL     1       6.137  -9.425  10.906  1.00  0.00    -0.387 OA
ATOM     23  H   UNL     1       5.527  -8.615  10.964  1.00  0.00     0.211 HD
ENDBRANCH   2  22
BRANCH   3  24
ATOM     24  O   UNL     1       8.064  -7.016  10.662  1.00  0.00    -0.387 OA
ATOM     25  H   UNL     1       9.041  -7.164  10.705  1.00  0.00     0.211 HD
ENDBRANCH   3  24
BRANCH   5  26
ATOM     26  O   UNL     1       7.013  -7.660   6.581  1.00  0.00    -0.454 OA
BRANCH  26  27
ATOM     27  C   UNL     1       6.861  -7.313   5.222  1.00  0.00     0.214 A 
ATOM     28  C   UNL     1       7.010  -5.945   4.870  1.00  0.00     0.180 A 
ATOM     29  C   UNL     1       6.458  -8.218   4.202  1.00  0.00     0.239 A 
ATOM     30  O   UNL     1       6.999  -5.600   3.561  1.00  0.00    -0.452 OA
ATOM     31  C   UNL     1       6.246  -7.749   2.875  1.00  0.00     0.111 A 
ATOM     32  O   UNL     1       6.310  -9.454   4.442  1.00  0.00    -0.285 OA
ATOM     33  C   UNL     1       6.625  -6.413   2.631  1.00  0.00     0.146 A 
ATOM     34  C   UNL     1       5.651  -8.537   1.863  1.00  0.00     0.134 A 
ATOM     35  C   UNL     1       6.506  -5.901   1.300  1.00  0.00     0.094 A 
ATOM     36  C   UNL     1       5.410  -7.984   0.602  1.00  0.00     0.093 A 
ATOM     37  C   UNL     1       5.748  -6.626   0.368  1.00  0.00     0.123 A 
BRANCH  28  38
ATOM     38  C   UNL     1       7.247  -4.876   5.822  1.00  0.00     0.025 A 
ATOM     39  C   UNL     1       6.141  -4.340   6.516  1.00  0.00     0.062 A 
ATOM     40  C   UNL     1       8.579  -4.393   6.131  1.00  0.00     0.016 A 
ATOM     41  C   UNL     1       6.352  -3.473   7.624  1.00  0.00     0.158 A 
ATOM     42  C   UNL     1       8.702  -3.266   7.034  1.00  0.00     0.051 A 
ATOM     43  C   UNL     1       7.656  -2.937   7.866  1.00  0.00     0.157 A 
BRANCH  41  44
ATOM     44  O   UNL     1       5.342  -3.420   8.547  1.00  0.00    -0.504 OA
ATOM     45  H   UNL     1       4.620  -2.692   8.521  1.00  0.00     0.293 HD
ENDBRANCH  41  44
BRANCH  43  46
ATOM     46  O   UNL     1       7.862  -2.118   8.949  1.00  0.00    -0.504 OA
ATOM     47  H   UNL     1       8.165  -1.166   8.859  1.00  0.00     0.293 HD
ENDBRANCH  43  46
ENDBRANCH  28  38
BRANCH  34  48
ATOM     48  O   UNL     1       5.326  -9.904   2.123  1.00  0.00    -0.507 OA
ATOM     49  H   UNL     1       5.975 -10.660   1.946  1.00  0.00     0.293 HD
ENDBRANCH  34  48
BRANCH  37  50
ATOM     50  O   UNL     1       5.310  -5.984  -0.777  1.00  0.00    -0.508 OA
ATOM     51  H   UNL     1       5.074  -5.002  -0.773  1.00  0.00     0.293 HD
ENDBRANCH  37  50
ENDBRANCH  26  27
ENDBRANCH   5  26
BRANCH   4  52
ATOM     52  O   UNL     1       9.125  -6.598   8.104  1.00  0.00    -0.384 OA
ATOM     53  H   UNL     1       9.380  -6.438   7.126  1.00  0.00     0.211 HD
ENDBRANCH   4  52
TORSDOF 16
ENDMDL
MODEL 4
REMARK VINA RESULT:    -5.232      1.906      8.208
REMARK INTER + INTRA:         -10.898
REMARK INTER:                  -8.900
REMARK INTRA:                  -1.999
REMARK UNBOUND:                -2.302
REMARK SMILES C[C@@H]1O[C@H](OC[C@H]2O[C@@H](Oc3c(-c4ccc(O)c(O)c4)oc4cc(O)cc(O)c4c3=O)[C@@H](O)[C@H](O)[C@H]2O)[C@@H](O)[C@H](O)[C@H]1O
REMARK SMILES IDX 7 1 36 2 34 3 32 4 9 5 8 6 6 7 5 8 4 9 1 10 2 11 42 12 3 13
REMARK SMILES IDX 40 14 38 15 43 16 41 18 39 20 37 22 35 24 10 26 11 27 12 28
REMARK SMILES IDX 30 29 21 30 29 31 31 32 22 33 27 34 23 35 26 36 24 37 13 38
REMARK SMILES IDX 20 39 14 40 18 41 15 42 16 43 19 44 17 46 28 48 25 50 33 52
REMARK H PARENT 43 17 41 19 39 21 37 23 35 25 19 45 17 47 28 49 25 51 33 53
REMARK Flexibility Score: inf
ROOT
ATOM      1  C   UNL     1       5.302  -8.604   8.769  1.00  0.00     0.180 C 
ATOM      2  C   UNL     1       6.484  -9.028   9.726  1.00  0.00     0.177 C 
ATOM      3  C   UNL     1       7.897  -8.797   9.040  1.00  0.00     0.180 C 
ATOM      4  C   UNL     1       7.853  -9.689   7.721  1.00  0.00     0.214 C 
ATOM      5  C   UNL     1       6.658  -9.309   6.801  1.00  0.00     0.339 C 
ATOM      6  O   UNL     1       5.397  -9.259   7.438  1.00  0.00    -0.332 OA
ENDROOT
BRANCH   1   7
ATOM      7  C   UNL     1       5.037  -7.036   8.526  1.00  0.00     0.198 C 
BRANCH   7   8
ATOM      8  O   UNL     1       3.732  -6.785   8.114  1.00  0.00    -0.347 OA
BRANCH   8   9
ATOM      9  C   UNL     1       2.912  -6.391   9.133  1.00  0.00     0.281 C 
ATOM     10  C   UNL     1       0.620  -8.639  10.933  1.00  0.00     0.041 C 
ATOM     11  C   UNL     1       1.239  -7.334  10.356  1.00  0.00     0.150 C 
ATOM     12  C   UNL     1       1.635  -6.291  11.562  1.00  0.00     0.174 C 
ATOM     13  O   UNL     1       2.402  -7.632   9.662  1.00  0.00    -0.344 OA
ATOM     14  C   UNL     1       3.215  -6.318  11.655  1.00  0.00     0.179 C 
ATOM     15  C   UNL     1       3.859  -5.889  10.273  1.00  0.00     0.202 C 
BRANCH  12  16
ATOM     16  O   UNL     1       1.186  -4.957  11.337  1.00  0.00    -0.388 OA
ATOM     17  H   UNL     1       0.173  -4.942  11.244  1.00  0.00     0.211 HD
ENDBRANCH  12  16
BRANCH  14  18
ATOM     18  O   UNL     1       3.601  -7.621  11.976  1.00  0.00    -0.387 OA
ATOM     19  H   UNL     1       3.181  -8.271  11.355  1.00  0.00     0.211 HD
ENDBRANCH  14  18
BRANCH  15  20
ATOM     20  O   UNL     1       4.051  -4.519  10.208  1.00  0.00    -0.385 OA
ATOM     21  H   UNL     1       3.789  -4.178  11.120  1.00  0.00     0.211 HD
ENDBRANCH  15  20
ENDBRANCH   8   9
ENDBRANCH   7   8
ENDBRANCH   1   7
BRANCH   2  22
ATOM     22  O   UNL     1       6.263  -8.344  10.953  1.00  0.00    -0.387 OA
ATOM     23  H   UNL     1       6.863  -8.736  11.672  1.00  0.00     0.211 HD
ENDBRANCH   2  22
BRANCH   3  24
ATOM     24  O   UNL     1       9.049  -9.120   9.850  1.00  0.00    -0.387 OA
ATOM     25  H   UNL     1       9.553  -8.297  10.069  1.00  0.00     0.211 HD
ENDBRANCH   3  24
BRANCH   5  26
ATOM     26  O   UNL     1       7.002  -8.053   6.267  1.00  0.00    -0.454 OA
BRANCH  26  27
ATOM     27  C   UNL     1       6.794  -7.617   4.941  1.00  0.00     0.214 A 
ATOM     28  C   UNL     1       6.951  -6.232   4.670  1.00  0.00     0.180 A 
ATOM     29  C   UNL     1       6.328  -8.449   3.886  1.00  0.00     0.239 A 
ATOM     30  O   UNL     1       6.885  -5.804   3.387  1.00  0.00    -0.452 OA
ATOM     31  C   UNL     1       6.063  -7.893   2.603  1.00  0.00     0.111 A 
ATOM     32  O   UNL     1       6.169  -9.695   4.054  1.00  0.00    -0.285 OA
ATOM     33  C   UNL     1       6.455  -6.549   2.426  1.00  0.00     0.146 A 
ATOM     34  C   UNL     1       5.409  -8.605   1.572  1.00  0.00     0.134 A 
ATOM     35  C   UNL     1       6.284  -5.951   1.138  1.00  0.00     0.094 A 
ATOM     36  C   UNL     1       5.120  -7.968   0.361  1.00  0.00     0.093 A 
ATOM     37  C   UNL     1       5.471  -6.604   0.198  1.00  0.00     0.123 A 
BRANCH  28  38
ATOM     38  C   UNL     1       7.251  -5.230   5.676  1.00  0.00     0.025 A 
ATOM     39  C   UNL     1       6.186  -4.460   6.193  1.00  0.00     0.062 A 
ATOM     40  C   UNL     1       8.585  -5.043   6.212  1.00  0.00     0.016 A 
ATOM     41  C   UNL     1       6.391  -3.648   7.342  1.00  0.00     0.158 A 
ATOM     42  C   UNL     1       8.795  -3.960   7.152  1.00  0.00     0.051 A 
ATOM     43  C   UNL     1       7.721  -3.404   7.809  1.00  0.00     0.157 A 
BRANCH  41  44
ATOM     44  O   UNL     1       5.277  -3.370   8.088  1.00  0.00    -0.504 OA
ATOM     45  H   UNL     1       4.399  -3.061   7.657  1.00  0.00     0.293 HD
ENDBRANCH  41  44
BRANCH  43  46
ATOM     46  O   UNL     1       7.915  -2.638   8.932  1.00  0.00    -0.504 OA
ATOM     47  H   UNL     1       7.355  -2.736   9.758  1.00  0.00     0.293 HD
ENDBRANCH  43  46
ENDBRANCH  28  38
BRANCH  34  48
ATOM     48  O   UNL     1       5.071  -9.982   1.760  1.00  0.00    -0.507 OA
ATOM     49  H   UNL     1       5.690 -10.633   2.224  1.00  0.00     0.293 HD
ENDBRANCH  34  48
BRANCH  37  50
ATOM     50  O   UNL     1       4.992  -5.883  -0.882  1.00  0.00    -0.508 OA
ATOM     51  H   UNL     1       5.588  -5.642  -1.660  1.00  0.00     0.293 HD
ENDBRANCH  37  50
ENDBRANCH  26  27
ENDBRANCH   5  26
BRANCH   4  52
ATOM     52  O   UNL     1       9.125  -9.693   7.110  1.00  0.00    -0.384 OA
ATOM     53  H   UNL     1       9.309 -10.517   6.532  1.00  0.00     0.211 HD
ENDBRANCH   4  52
TORSDOF 16
ENDMDL
MODEL 5
REMARK VINA RESULT:    -5.003      2.129      6.220
REMARK INTER + INTRA:         -10.523
REMARK INTER:                  -7.946
REMARK INTRA:                  -2.577
REMARK UNBOUND:                -2.302
REMARK SMILES C[C@@H]1O[C@H](OC[C@H]2O[C@@H](Oc3c(-c4ccc(O)c(O)c4)oc4cc(O)cc(O)c4c3=O)[C@@H](O)[C@H](O)[C@H]2O)[C@@H](O)[C@H](O)[C@H]1O
REMARK SMILES IDX 7 1 36 2 34 3 32 4 9 5 8 6 6 7 5 8 4 9 1 10 2 11 42 12 3 13
REMARK SMILES IDX 40 14 38 15 43 16 41 18 39 20 37 22 35 24 10 26 11 27 12 28
REMARK SMILES IDX 30 29 21 30 29 31 31 32 22 33 27 34 23 35 26 36 24 37 13 38
REMARK SMILES IDX 20 39 14 40 18 41 15 42 16 43 19 44 17 46 28 48 25 50 33 52
REMARK H PARENT 43 17 41 19 39 21 37 23 35 25 19 45 17 47 28 49 25 51 33 53
REMARK Flexibility Score: inf
ROOT
ATOM      1  C   UNL     1       2.658  -6.054   9.385  1.00  0.00     0.180 C 
ATOM      2  C   UNL     1       2.184  -6.483  10.829  1.00  0.00     0.177 C 
ATOM      3  C   UNL     1       3.012  -7.724  11.367  1.00  0.00     0.180 C 
ATOM      4  C   UNL     1       2.758  -8.873  10.293  1.00  0.00     0.214 C 
ATOM      5  C   UNL     1       3.175  -8.434   8.861  1.00  0.00     0.339 C 
ATOM      6  O   UNL     1       2.650  -7.195   8.432  1.00  0.00    -0.332 OA
ENDROOT
BRANCH   1   7
ATOM      7  C   UNL     1       4.071  -5.299   9.235  1.00  0.00     0.198 C 
BRANCH   7   8
ATOM      8  O   UNL     1       4.370  -5.009   7.908  1.00  0.00    -0.347 OA
BRANCH   8   9
ATOM      9  C   UNL     1       5.705  -4.834   7.683  1.00  0.00     0.281 C 
ATOM     10  C   UNL     1       7.564  -6.419   4.929  1.00  0.00     0.041 C 
ATOM     11  C   UNL     1       7.270  -5.732   6.294  1.00  0.00     0.150 C 
ATOM     12  C   UNL     1       8.091  -4.315   6.425  1.00  0.00     0.174 C 
ATOM     13  O   UNL     1       5.918  -5.443   6.393  1.00  0.00    -0.344 OA
ATOM     14  C   UNL     1       7.007  -3.172   6.267  1.00  0.00     0.179 C 
ATOM     15  C   UNL     1       5.891  -3.309   7.383  1.00  0.00     0.202 C 
BRANCH  12  16
ATOM     16  O   UNL     1       8.778  -4.163   7.665  1.00  0.00    -0.388 OA
ATOM     17  H   UNL     1       8.311  -3.466   8.238  1.00  0.00     0.211 HD
ENDBRANCH  12  16
BRANCH  14  18
ATOM     18  O   UNL     1       6.433  -3.300   5.002  1.00  0.00    -0.387 OA
ATOM     19  H   UNL     1       7.065  -2.993   4.301  1.00  0.00     0.211 HD
ENDBRANCH  14  18
BRANCH  15  20
ATOM     20  O   UNL     1       6.228  -2.604   8.526  1.00  0.00    -0.385 OA
ATOM     21  H   UNL     1       6.113  -1.634   8.274  1.00  0.00     0.211 HD
ENDBRANCH  15  20
ENDBRANCH   8   9
ENDBRANCH   7   8
ENDBRANCH   1   7
BRANCH   2  22
ATOM     22  O   UNL     1       2.229  -5.306  11.625  1.00  0.00    -0.387 OA
ATOM     23  H   UNL     1       3.153  -4.890  11.563  1.00  0.00     0.211 HD
ENDBRANCH   2  22
BRANCH   3  24
ATOM     24  O   UNL     1       2.679  -8.172  12.700  1.00  0.00    -0.387 OA
ATOM     25  H   UNL     1       3.368  -7.869  13.343  1.00  0.00     0.211 HD
ENDBRANCH   3  24
BRANCH   5  26
ATOM     26  O   UNL     1       4.582  -8.401   8.892  1.00  0.00    -0.454 OA
BRANCH  26  27
ATOM     27  C   UNL     1       5.457  -8.849   7.879  1.00  0.00     0.214 A 
ATOM     28  C   UNL     1       6.849  -8.835   8.157  1.00  0.00     0.180 A 
ATOM     29  C   UNL     1       5.048  -9.204   6.565  1.00  0.00     0.239 A 
ATOM     30  O   UNL     1       7.703  -9.378   7.257  1.00  0.00    -0.452 OA
ATOM     31  C   UNL     1       6.020  -9.557   5.587  1.00  0.00     0.111 A 
ATOM     32  O   UNL     1       3.822  -9.243   6.246  1.00  0.00    -0.285 OA
ATOM     33  C   UNL     1       7.342  -9.694   6.059  1.00  0.00     0.146 A 
ATOM     34  C   UNL     1       5.714  -9.720   4.217  1.00  0.00     0.134 A 
ATOM     35  C   UNL     1       8.355 -10.118   5.143  1.00  0.00     0.094 A 
ATOM     36  C   UNL     1       6.735  -9.998   3.303  1.00  0.00     0.093 A 
ATOM     37  C   UNL     1       8.071 -10.089   3.769  1.00  0.00     0.123 A 
BRANCH  28  38
ATOM     38  C   UNL     1       7.434  -8.335   9.388  1.00  0.00     0.025 A 
ATOM     39  C   UNL     1       7.503  -6.938   9.577  1.00  0.00     0.062 A 
ATOM     40  C   UNL     1       7.881  -9.217  10.449  1.00  0.00     0.016 A 
ATOM     41  C   UNL     1       7.837  -6.412  10.856  1.00  0.00     0.158 A 
ATOM     42  C   UNL     1       8.525  -8.621  11.602  1.00  0.00     0.051 A 
ATOM     43  C   UNL     1       8.357  -7.281  11.866  1.00  0.00     0.157 A 
BRANCH  41  44
ATOM     44  O   UNL     1       7.385  -5.147  11.122  1.00  0.00    -0.504 OA
ATOM     45  H   UNL     1       7.228  -4.817  12.080  1.00  0.00     0.293 HD
ENDBRANCH  41  44
BRANCH  43  46
ATOM     46  O   UNL     1       8.657  -6.774  13.107  1.00  0.00    -0.504 OA
ATOM     47  H   UNL     1       8.001  -6.244  13.649  1.00  0.00     0.293 HD
ENDBRANCH  43  46
ENDBRANCH  28  38
BRANCH  34  48
ATOM     48  O   UNL     1       4.357  -9.628   3.773  1.00  0.00    -0.507 OA
ATOM     49  H   UNL     1       4.026 -10.097   2.940  1.00  0.00     0.293 HD
ENDBRANCH  34  48
BRANCH  37  50
ATOM     50  O   UNL     1       9.124 -10.125   2.871  1.00  0.00    -0.508 OA
ATOM     51  H   UNL     1       9.831  -9.405   2.860  1.00  0.00     0.293 HD
ENDBRANCH  37  50
ENDBRANCH  26  27
ENDBRANCH   5  26
BRANCH   4  52
ATOM     52  O   UNL     1       3.315 -10.085  10.755  1.00  0.00    -0.384 OA
ATOM     53  H   UNL     1       3.117 -10.891  10.157  1.00  0.00     0.211 HD
ENDBRANCH   4  52
TORSDOF 16
ENDMDL
MODEL 6
REMARK VINA RESULT:    -4.953      3.175      5.218
REMARK INTER + INTRA:         -10.441
REMARK INTER:                  -8.692
REMARK INTRA:                  -1.749
REMARK UNBOUND:                -2.302
REMARK SMILES C[C@@H]1O[C@H](OC[C@H]2O[C@@H](Oc3c(-c4ccc(O)c(O)c4)oc4cc(O)cc(O)c4c3=O)[C@@H](O)[C@H](O)[C@H]2O)[C@@H](O)[C@H](O)[C@H]1O
REMARK SMILES IDX 7 1 36 2 34 3 32 4 9 5 8 6 6 7 5 8 4 9 1 10 2 11 42 12 3 13
REMARK SMILES IDX 40 14 38 15 43 16 41 18 39 20 37 22 35 24 10 26 11 27 12 28
REMARK SMILES IDX 30 29 21 30 29 31 31 32 22 33 27 34 23 35 26 36 24 37 13 38
REMARK SMILES IDX 20 39 14 40 18 41 15 42 16 43 19 44 17 46 28 48 25 50 33 52
REMARK H PARENT 43 17 41 19 39 21 37 23 35 25 19 45 17 47 28 49 25 51 33 53
REMARK Flexibility Score: inf
ROOT
ATOM      1  C   UNL     1       5.855  -3.914   3.320  1.00  0.00     0.180 C 
ATOM      2  C   UNL     1       7.199  -3.167   3.684  1.00  0.00     0.177 C 
ATOM      3  C   UNL     1       7.798  -3.687   5.058  1.00  0.00     0.180 C 
ATOM      4  C   UNL     1       6.653  -3.402   6.128  1.00  0.00     0.214 C 
ATOM      5  C   UNL     1       5.314  -4.093   5.745  1.00  0.00     0.339 C 
ATOM      6  O   UNL     1       4.865  -3.853   4.427  1.00  0.00    -0.332 OA
ENDROOT
BRANCH   1   7
ATOM      7  C   UNL     1       5.938  -5.440   2.818  1.00  0.00     0.198 C 
BRANCH   7   8
ATOM      8  O   UNL     1       6.866  -5.603   1.795  1.00  0.00    -0.347 OA
BRANCH   8   9
ATOM      9  C   UNL     1       6.303  -6.011   0.619  1.00  0.00     0.281 C 
ATOM     10  C   UNL     1       8.144  -7.722  -2.071  1.00  0.00     0.041 C 
ATOM     11  C   UNL     1       7.053  -6.883  -1.347  1.00  0.00     0.150 C 
ATOM     12  C   UNL     1       5.572  -7.575  -1.517  1.00  0.00     0.174 C 
ATOM     13  O   UNL     1       7.332  -6.819   0.010  1.00  0.00    -0.344 OA
ATOM     14  C   UNL     1       5.220  -8.194  -0.103  1.00  0.00     0.179 C 
ATOM     15  C   UNL     1       5.216  -7.066   1.009  1.00  0.00     0.202 C 
BRANCH  12  16
ATOM     16  O   UNL     1       4.554  -6.659  -1.913  1.00  0.00    -0.388 OA
ATOM     17  H   UNL     1       3.887  -7.124  -2.524  1.00  0.00     0.211 HD
ENDBRANCH  12  16
BRANCH  14  18
ATOM     18  O   UNL     1       6.188  -9.154   0.195  1.00  0.00    -0.387 OA
ATOM     19  H   UNL     1       6.956  -8.739   0.665  1.00  0.00     0.211 HD
ENDBRANCH  14  18
BRANCH  15  20
ATOM     20  O   UNL     1       3.966  -6.484   1.136  1.00  0.00    -0.385 OA
ATOM     21  H   UNL     1       4.117  -5.670   1.712  1.00  0.00     0.211 HD
ENDBRANCH  15  20
ENDBRANCH   8   9
ENDBRANCH   7   8
ENDBRANCH   1   7
BRANCH   2  22
ATOM     22  O   UNL     1       8.041  -3.293   2.545  1.00  0.00    -0.387 OA
ATOM     23  H   UNL     1       9.006  -3.136   2.818  1.00  0.00     0.211 HD
ENDBRANCH   2  22
BRANCH   3  24
ATOM     24  O   UNL     1       9.051  -3.091   5.463  1.00  0.00    -0.387 OA
ATOM     25  H   UNL     1       9.655  -3.008   4.684  1.00  0.00     0.211 HD
ENDBRANCH   3  24
BRANCH   5  26
ATOM     26  O   UNL     1       5.545  -5.465   5.956  1.00  0.00    -0.454 OA
BRANCH  26  27
ATOM     27  C   UNL     1       6.012  -6.067   7.145  1.00  0.00     0.214 A 
ATOM     28  C   UNL     1       6.970  -7.108   7.024  1.00  0.00     0.180 A 
ATOM     29  C   UNL     1       5.505  -5.781   8.442  1.00  0.00     0.239 A 
ATOM     30  O   UNL     1       7.531  -7.615   8.147  1.00  0.00    -0.452 OA
ATOM     31  C   UNL     1       5.980  -6.509   9.569  1.00  0.00     0.111 A 
ATOM     32  O   UNL     1       4.652  -4.863   8.626  1.00  0.00    -0.285 OA
ATOM     33  C   UNL     1       7.072  -7.369   9.327  1.00  0.00     0.146 A 
ATOM     34  C   UNL     1       5.384  -6.428  10.848  1.00  0.00     0.134 A 
ATOM     35  C   UNL     1       7.645  -8.074  10.431  1.00  0.00     0.094 A 
ATOM     36  C   UNL     1       5.862  -7.227  11.891  1.00  0.00     0.093 A 
ATOM     37  C   UNL     1       6.930  -8.126  11.638  1.00  0.00     0.123 A 
BRANCH  28  38
ATOM     38  C   UNL     1       7.454  -7.633   5.760  1.00  0.00     0.025 A 
ATOM     39  C   UNL     1       6.723  -8.671   5.143  1.00  0.00     0.062 A 
ATOM     40  C   UNL     1       8.614  -7.084   5.085  1.00  0.00     0.016 A 
ATOM     41  C   UNL     1       7.017  -9.044   3.802  1.00  0.00     0.158 A 
ATOM     42  C   UNL     1       9.063  -7.734   3.869  1.00  0.00     0.051 A 
ATOM     43  C   UNL     1       8.209  -8.560   3.177  1.00  0.00     0.157 A 
BRANCH  41  44
ATOM     44  O   UNL     1       5.995  -9.630   3.104  1.00  0.00    -0.504 OA
ATOM     45  H   UNL     1       5.026  -9.611   3.440  1.00  0.00     0.293 HD
ENDBRANCH  41  44
BRANCH  43  46
ATOM     46  O   UNL     1       8.479  -8.904   1.875  1.00  0.00    -0.504 OA
ATOM     47  H   UNL     1       7.886  -8.638   1.111  1.00  0.00     0.293 HD
ENDBRANCH  43  46
ENDBRANCH  28  38
BRANCH  34  48
ATOM     48  O   UNL     1       4.313  -5.509  11.079  1.00  0.00    -0.507 OA
ATOM     49  H   UNL     1       3.366  -5.691  10.771  1.00  0.00     0.293 HD
ENDBRANCH  34  48
BRANCH  37  50
ATOM     50  O   UNL     1       7.266  -9.092  12.570  1.00  0.00    -0.508 OA
ATOM     51  H   UNL     1       6.929  -9.047  13.520  1.00  0.00     0.293 HD
ENDBRANCH  37  50
ENDBRANCH  26  27
ENDBRANCH   5  26
BRANCH   4  52
ATOM     52  O   UNL     1       7.139  -3.674   7.425  1.00  0.00    -0.384 OA
ATOM     53  H   UNL     1       7.414  -4.649   7.573  1.00  0.00     0.211 HD
ENDBRANCH   4  52
TORSDOF 16
ENDMDL
MODEL 7
REMARK VINA RESULT:    -4.640      2.167      4.818
REMARK INTER + INTRA:          -9.926
REMARK INTER:                  -7.720
REMARK INTRA:                  -2.206
REMARK UNBOUND:                -2.302
REMARK SMILES C[C@@H]1O[C@H](OC[C@H]2O[C@@H](Oc3c(-c4ccc(O)c(O)c4)oc4cc(O)cc(O)c4c3=O)[C@@H](O)[C@H](O)[C@H]2O)[C@@H](O)[C@H](O)[C@H]1O
REMARK SMILES IDX 7 1 36 2 34 3 32 4 9 5 8 6 6 7 5 8 4 9 1 10 2 11 42 12 3 13
REMARK SMILES IDX 40 14 38 15 43 16 41 18 39 20 37 22 35 24 10 26 11 27 12 28
REMARK SMILES IDX 30 29 21 30 29 31 31 32 22 33 27 34 23 35 26 36 24 37 13 38
REMARK SMILES IDX 20 39 14 40 18 41 15 42 16 43 19 44 17 46 28 48 25 50 33 52
REMARK H PARENT 43 17 41 19 39 21 37 23 35 25 19 45 17 47 28 49 25 51 33 53
REMARK Flexibility Score: inf
ROOT
ATOM      1  C   UNL     1       8.010  -6.186   4.756  1.00  0.00     0.180 C 
ATOM      2  C   UNL     1       8.582  -7.648   4.580  1.00  0.00     0.177 C 
ATOM      3  C   UNL     1       7.608  -8.731   5.207  1.00  0.00     0.180 C 
ATOM      4  C   UNL     1       7.486  -8.322   6.741  1.00  0.00     0.214 C 
ATOM      5  C   UNL     1       6.973  -6.865   6.916  1.00  0.00     0.339 C 
ATOM      6  O   UNL     1       7.667  -5.886   6.170  1.00  0.00    -0.332 OA
ENDROOT
BRANCH   1   7
ATOM      7  C   UNL     1       6.765  -5.736   3.842  1.00  0.00     0.198 C 
BRANCH   7   8
ATOM      8  O   UNL     1       7.168  -4.984   2.744  1.00  0.00    -0.347 OA
BRANCH   8   9
ATOM      9  C   UNL     1       6.786  -5.525   1.550  1.00  0.00     0.281 C 
ATOM     10  C   UNL     1       9.044  -7.356  -0.709  1.00  0.00     0.041 C 
ATOM     11  C   UNL     1       7.829  -6.521  -0.213  1.00  0.00     0.150 C 
ATOM     12  C   UNL     1       6.417  -7.310  -0.505  1.00  0.00     0.174 C 
ATOM     13  O   UNL     1       7.922  -6.322   1.156  1.00  0.00    -0.344 OA
ATOM     14  C   UNL     1       5.909  -7.822   0.905  1.00  0.00     0.179 C 
ATOM     15  C   UNL     1       5.706  -6.603   1.896  1.00  0.00     0.202 C 
BRANCH  12  16
ATOM     16  O   UNL     1       5.419  -6.493  -1.112  1.00  0.00    -0.388 OA
ATOM     17  H   UNL     1       5.774  -6.098  -1.980  1.00  0.00     0.211 HD
ENDBRANCH  12  16
BRANCH  14  18
ATOM     18  O   UNL     1       6.872  -8.694   1.413  1.00  0.00    -0.387 OA
ATOM     19  H   UNL     1       7.286  -8.317   2.232  1.00  0.00     0.211 HD
ENDBRANCH  14  18
BRANCH  15  20
ATOM     20  O   UNL     1       4.425  -6.086   1.807  1.00  0.00    -0.385 OA
ATOM     21  H   UNL     1       4.425  -5.539   0.959  1.00  0.00     0.211 HD
ENDBRANCH  15  20
ENDBRANCH   8   9
ENDBRANCH   7   8
ENDBRANCH   1   7
BRANCH   2  22
ATOM     22  O   UNL     1       8.876  -7.793   3.196  1.00  0.00    -0.387 OA
ATOM     23  H   UNL     1       8.047  -7.581   2.650  1.00  0.00     0.211 HD
ENDBRANCH   2  22
BRANCH   3  24
ATOM     24  O   UNL     1       8.024 -10.108   5.065  1.00  0.00    -0.387 OA
ATOM     25  H   UNL     1       8.951 -10.219   5.394  1.00  0.00     0.211 HD
ENDBRANCH   3  24
BRANCH   5  26
ATOM     26  O   UNL     1       5.617  -6.915   6.542  1.00  0.00    -0.454 OA
BRANCH  26  27
ATOM     27  C   UNL     1       4.502  -6.844   7.405  1.00  0.00     0.214 A 
ATOM     28  C   UNL     1       4.354  -5.674   8.195  1.00  0.00     0.180 A 
ATOM     29  C   UNL     1       3.584  -7.908   7.620  1.00  0.00     0.239 A 
ATOM     30  O   UNL     1       3.229  -5.520   8.934  1.00  0.00    -0.452 OA
ATOM     31  C   UNL     1       2.543  -7.769   8.581  1.00  0.00     0.111 A 
ATOM     32  O   UNL     1       3.653  -8.981   6.948  1.00  0.00    -0.285 OA
ATOM     33  C   UNL     1       2.397  -6.483   9.142  1.00  0.00     0.146 A 
ATOM     34  C   UNL     1       1.726  -8.845   8.996  1.00  0.00     0.134 A 
ATOM     35  C   UNL     1       1.323  -6.256  10.059  1.00  0.00     0.094 A 
ATOM     36  C   UNL     1       0.769  -8.647   9.996  1.00  0.00     0.093 A 
ATOM     37  C   UNL     1       0.652  -7.366  10.595  1.00  0.00     0.123 A 
BRANCH  28  38
ATOM     38  C   UNL     1       5.302  -4.576   8.219  1.00  0.00     0.025 A 
ATOM     39  C   UNL     1       6.143  -4.441   9.345  1.00  0.00     0.062 A 
ATOM     40  C   UNL     1       5.461  -3.663   7.103  1.00  0.00     0.016 A 
ATOM     41  C   UNL     1       7.242  -3.540   9.305  1.00  0.00     0.158 A 
ATOM     42  C   UNL     1       6.377  -2.550   7.260  1.00  0.00     0.051 A 
ATOM     43  C   UNL     1       7.340  -2.588   8.241  1.00  0.00     0.157 A 
BRANCH  41  44
ATOM     44  O   UNL     1       8.283  -3.823  10.148  1.00  0.00    -0.504 OA
ATOM     45  H   UNL     1       9.086  -4.387   9.848  1.00  0.00     0.293 HD
ENDBRANCH  41  44
BRANCH  43  46
ATOM     46  O   UNL     1       8.414  -1.734   8.193  1.00  0.00    -0.504 OA
ATOM     47  H   UNL     1       8.897  -1.518   7.341  1.00  0.00     0.293 HD
ENDBRANCH  43  46
ENDBRANCH  28  38
BRANCH  34  48
ATOM     48  O   UNL     1       1.860 -10.125   8.372  1.00  0.00    -0.507 OA
ATOM     49  H   UNL     1       1.264 -10.421   7.610  1.00  0.00     0.293 HD
ENDBRANCH  34  48
BRANCH  37  50
ATOM     50  O   UNL     1      -0.108  -7.196  11.739  1.00  0.00    -0.508 OA
ATOM     51  H   UNL     1      -0.069  -7.858  12.500  1.00  0.00     0.293 HD
ENDBRANCH  37  50
ENDBRANCH  26  27
ENDBRANCH   5  26
BRANCH   4  52
ATOM     52  O   UNL     1       6.770  -9.317   7.441  1.00  0.00    -0.384 OA
ATOM     53  H   UNL     1       5.762  -9.308   7.267  1.00  0.00     0.211 HD
ENDBRANCH   4  52
TORSDOF 16
ENDMDL
MODEL 8
REMARK VINA RESULT:    -4.031      1.639      8.589
REMARK INTER + INTRA:          -8.926
REMARK INTER:                  -6.642
REMARK INTRA:                  -2.284
REMARK UNBOUND:                -2.302
REMARK SMILES C[C@@H]1O[C@H](OC[C@H]2O[C@@H](Oc3c(-c4ccc(O)c(O)c4)oc4cc(O)cc(O)c4c3=O)[C@@H](O)[C@H](O)[C@H]2O)[C@@H](O)[C@H](O)[C@H]1O
REMARK SMILES IDX 7 1 36 2 34 3 32 4 9 5 8 6 6 7 5 8 4 9 1 10 2 11 42 12 3 13
REMARK SMILES IDX 40 14 38 15 43 16 41 18 39 20 37 22 35 24 10 26 11 27 12 28
REMARK SMILES IDX 30 29 21 30 29 31 31 32 22 33 27 34 23 35 26 36 24 37 13 38
REMARK SMILES IDX 20 39 14 40 18 41 15 42 16 43 19 44 17 46 28 48 25 50 33 52
REMARK H PARENT 43 17 41 19 39 21 37 23 35 25 19 45 17 47 28 49 25 51 33 53
REMARK Flexibility Score: inf
ROOT
ATOM      1  C   UNL     1       3.682  -9.344   7.559  1.00  0.00     0.180 C 
ATOM      2  C   UNL     1       4.761  -9.912   8.564  1.00  0.00     0.177 C 
ATOM      3  C   UNL     1       6.046  -8.984   8.621  1.00  0.00     0.180 C 
ATOM      4  C   UNL     1       6.587  -8.954   7.124  1.00  0.00     0.214 C 
ATOM      5  C   UNL     1       5.510  -8.445   6.125  1.00  0.00     0.339 C 
ATOM      6  O   UNL     1       4.254  -9.087   6.211  1.00  0.00    -0.332 OA
ENDROOT
BRANCH   1   7
ATOM      7  C   UNL     1       2.842  -8.043   7.992  1.00  0.00     0.198 C 
BRANCH   7   8
ATOM      8  O   UNL     1       1.776  -8.364   8.826  1.00  0.00    -0.347 OA
BRANCH   8   9
ATOM      9  C   UNL     1       1.638  -7.506   9.879  1.00  0.00     0.281 C 
ATOM     10  C   UNL     1      -1.598  -6.339  11.189  1.00  0.00     0.041 C 
ATOM     11  C   UNL     1      -0.076  -6.383  10.872  1.00  0.00     0.150 C 
ATOM     12  C   UNL     1       0.810  -6.407  12.256  1.00  0.00     0.174 C 
ATOM     13  O   UNL     1       0.224  -7.536  10.163  1.00  0.00    -0.344 OA
ATOM     14  C   UNL     1       1.377  -7.880  12.380  1.00  0.00     0.179 C 
ATOM     15  C   UNL     1       2.257  -8.242  11.113  1.00  0.00     0.202 C 
BRANCH  12  16
ATOM     16  O   UNL     1       1.885  -5.471  12.265  1.00  0.00    -0.388 OA
ATOM     17  H   UNL     1       2.392  -5.516  11.385  1.00  0.00     0.211 HD
ENDBRANCH  12  16
BRANCH  14  18
ATOM     18  O   UNL     1       0.289  -8.750  12.469  1.00  0.00    -0.387 OA
ATOM     19  H   UNL     1      -0.384  -8.401  13.109  1.00  0.00     0.211 HD
ENDBRANCH  14  18
BRANCH  15  20
ATOM     20  O   UNL     1       3.583  -7.893  11.302  1.00  0.00    -0.385 OA
ATOM     21  H   UNL     1       3.717  -7.914  12.301  1.00  0.00     0.211 HD
ENDBRANCH  15  20
ENDBRANCH   8   9
ENDBRANCH   7   8
ENDBRANCH   1   7
BRANCH   2  22
ATOM     22  O   UNL     1       4.081 -10.121   9.795  1.00  0.00    -0.387 OA
ATOM     23  H   UNL     1       3.515 -10.962   9.731  1.00  0.00     0.211 HD
ENDBRANCH   2  22
BRANCH   3  24
ATOM     24  O   UNL     1       7.079  -9.397   9.542  1.00  0.00    -0.387 OA
ATOM     25  H   UNL     1       7.779  -8.700   9.605  1.00  0.00     0.211 HD
ENDBRANCH   3  24
BRANCH   5  26
ATOM     26  O   UNL     1       5.392  -7.069   6.396  1.00  0.00    -0.454 OA
BRANCH  26  27
ATOM     27  C   UNL     1       6.212  -6.038   5.890  1.00  0.00     0.214 A 
ATOM     28  C   UNL     1       6.876  -5.204   6.827  1.00  0.00     0.180 A 
ATOM     29  C   UNL     1       6.326  -5.707   4.512  1.00  0.00     0.239 A 
ATOM     30  O   UNL     1       7.769  -4.291   6.374  1.00  0.00    -0.452 OA
ATOM     31  C   UNL     1       7.110  -4.589   4.109  1.00  0.00     0.111 A 
ATOM     32  O   UNL     1       5.764  -6.409   3.619  1.00  0.00    -0.285 OA
ATOM     33  C   UNL     1       7.872  -3.978   5.127  1.00  0.00     0.146 A 
ATOM     34  C   UNL     1       7.106  -4.077   2.792  1.00  0.00     0.134 A 
ATOM     35  C   UNL     1       8.739  -2.895   4.776  1.00  0.00     0.094 A 
ATOM     36  C   UNL     1       7.849  -2.932   2.488  1.00  0.00     0.093 A 
ATOM     37  C   UNL     1       8.579  -2.289   3.521  1.00  0.00     0.123 A 
BRANCH  28  38
ATOM     38  C   UNL     1       6.722  -5.304   8.266  1.00  0.00     0.025 A 
ATOM     39  C   UNL     1       5.547  -4.782   8.851  1.00  0.00     0.062 A 
ATOM     40  C   UNL     1       7.693  -5.977   9.107  1.00  0.00     0.016 A 
ATOM     41  C   UNL     1       5.243  -5.073  10.209  1.00  0.00     0.158 A 
ATOM     42  C   UNL     1       7.486  -5.950  10.541  1.00  0.00     0.051 A 
ATOM     43  C   UNL     1       6.240  -5.661  11.049  1.00  0.00     0.157 A 
BRANCH  41  44
ATOM     44  O   UNL     1       3.919  -5.015  10.554  1.00  0.00    -0.504 OA
ATOM     45  H   UNL     1       3.176  -4.956   9.849  1.00  0.00     0.293 HD
ENDBRANCH  41  44
BRANCH  43  46
ATOM     46  O   UNL     1       5.936  -5.962  12.354  1.00  0.00    -0.504 OA
ATOM     47  H   UNL     1       5.003  -5.914  12.718  1.00  0.00     0.293 HD
ENDBRANCH  43  46
ENDBRANCH  28  38
BRANCH  34  48
ATOM     48  O   UNL     1       6.367  -4.747   1.768  1.00  0.00    -0.507 OA
ATOM     49  H   UNL     1       5.370  -4.903   1.833  1.00  0.00     0.293 HD
ENDBRANCH  34  48
BRANCH  37  50
ATOM     50  O   UNL     1       9.125  -1.034   3.314  1.00  0.00    -0.508 OA
ATOM     51  H   UNL     1       9.903  -0.895   2.687  1.00  0.00     0.293 HD
ENDBRANCH  37  50
ENDBRANCH  26  27
ENDBRANCH   5  26
BRANCH   4  52
ATOM     52  O   UNL     1       7.831  -8.288   7.083  1.00  0.00    -0.384 OA
ATOM     53  H   UNL     1       7.775  -7.316   6.768  1.00  0.00     0.211 HD
ENDBRANCH   4  52
TORSDOF 16
ENDMDL
