MODEL 1
REMARK VINA RESULT:    -6.804      0.000      0.000
REMARK INTER + INTRA:         -11.079
REMARK INTER:                  -9.987
REMARK INTRA:                  -1.093
REMARK UNBOUND:                -1.093
REMARK SMILES O=c1c(O[C@H]2O[C@H](CO)[C@H](O)[C@H](O)[C@H]2O)c(-c2ccc(O)c(O)c2)oc2cc(O)cc(O)c12
REMARK SMILES IDX 4 1 3 2 16 3 25 4 2 5 26 6 1 7 33 8 27 9 31 10 28 11 30 12
REMARK SMILES IDX 17 13 18 14 19 15 20 16 24 17 22 18 21 19 23 21 32 23 29 25
REMARK SMILES IDX 5 27 14 28 6 29 12 30 7 31 10 32 15 33 13 35 8 37 9 38 11 40
REMARK H PARENT 21 20 23 22 32 24 29 26 15 34 13 36 9 39 11 41
REMARK Flexibility Score: inf
ROOT
ATOM      1  O   UNL     1       5.120  30.704  69.396  1.00  0.00    -0.454 OA
ENDROOT
BRANCH   1   2
ATOM      2  C   UNL     1       4.116  31.649  69.712  1.00  0.00     0.214 A 
ATOM      3  C   UNL     1       4.447  32.666  70.612  1.00  0.00     0.180 A 
ATOM      4  O   UNL     1       3.708  33.760  70.689  1.00  0.00    -0.452 OA
ATOM      5  C   UNL     1       2.842  31.685  69.102  1.00  0.00     0.239 A 
ATOM      6  C   UNL     1       2.595  33.928  69.993  1.00  0.00     0.146 A 
ATOM      7  O   UNL     1       2.440  30.695  68.435  1.00  0.00    -0.285 OA
ATOM      8  C   UNL     1       2.057  32.862  69.220  1.00  0.00     0.111 A 
ATOM      9  C   UNL     1       1.968  35.176  70.024  1.00  0.00     0.094 A 
ATOM     10  C   UNL     1       0.810  33.066  68.558  1.00  0.00     0.134 A 
ATOM     11  C   UNL     1       0.795  35.397  69.301  1.00  0.00     0.123 A 
ATOM     12  C   UNL     1       0.225  34.341  68.583  1.00  0.00     0.093 A 
BRANCH   3  13
ATOM     13  C   UNL     1       5.645  32.564  71.470  1.00  0.00     0.025 A 
ATOM     14  C   UNL     1       6.710  33.468  71.332  1.00  0.00     0.016 A 
ATOM     15  C   UNL     1       7.781  33.426  72.246  1.00  0.00     0.051 A 
ATOM     16  C   UNL     1       7.760  32.514  73.311  1.00  0.00     0.157 A 
ATOM     17  C   UNL     1       5.660  31.614  72.495  1.00  0.00     0.062 A 
ATOM     18  C   UNL     1       6.698  31.588  73.429  1.00  0.00     0.158 A 
BRANCH  16  19
ATOM     19  O   UNL     1       8.812  32.552  74.229  1.00  0.00    -0.504 OA
ATOM     20  H   UNL     1       9.763  32.801  73.973  1.00  0.00     0.293 HD
ENDBRANCH  16  19
BRANCH  18  21
ATOM     21  O   UNL     1       6.608  30.668  74.483  1.00  0.00    -0.504 OA
ATOM     22  H   UNL     1       7.382  30.399  75.077  1.00  0.00     0.293 HD
ENDBRANCH  18  21
ENDBRANCH   3  13
BRANCH  10  23
ATOM     23  O   UNL     1       0.094  32.043  67.911  1.00  0.00    -0.507 OA
ATOM     24  H   UNL     1       0.305  31.058  67.988  1.00  0.00     0.293 HD
ENDBRANCH  10  23
BRANCH  11  25
ATOM     25  O   UNL     1       0.181  36.644  69.288  1.00  0.00    -0.508 OA
ATOM     26  H   UNL     1      -0.466  36.911  70.033  1.00  0.00     0.293 HD
ENDBRANCH  11  25
ENDBRANCH   1   2
BRANCH   1  27
ATOM     27  C   UNL     1       5.800  30.550  68.134  1.00  0.00     0.339 C 
ATOM     28  C   UNL     1       7.318  30.217  68.328  1.00  0.00     0.214 C 
ATOM     29  O   UNL     1       5.620  31.662  67.275  1.00  0.00    -0.332 OA
ATOM     30  C   UNL     1       8.214  31.234  67.594  1.00  0.00     0.180 C 
ATOM     31  C   UNL     1       6.207  32.849  67.775  1.00  0.00     0.179 C 
ATOM     32  C   UNL     1       7.749  32.673  67.939  1.00  0.00     0.177 C 
BRANCH  28  33
ATOM     33  O   UNL     1       7.641  30.220  69.694  1.00  0.00    -0.384 OA
ATOM     34  H   UNL     1       8.519  30.672  69.787  1.00  0.00     0.211 HD
ENDBRANCH  28  33
BRANCH  30  35
ATOM     35  O   UNL     1       8.130  31.009  66.207  1.00  0.00    -0.387 OA
ATOM     36  H   UNL     1       8.777  31.633  65.773  1.00  0.00     0.211 HD
ENDBRANCH  30  35
BRANCH  31  37
ATOM     37  C   UNL     1       5.772  34.006  66.850  1.00  0.00     0.191 C 
BRANCH  37  38
ATOM     38  O   UNL     1       4.393  34.291  66.893  1.00  0.00    -0.394 OA
ATOM     39  H   UNL     1       4.108  34.781  66.085  1.00  0.00     0.210 HD
ENDBRANCH  37  38
ENDBRANCH  31  37
BRANCH  32  40
ATOM     40  O   UNL     1       8.487  33.614  67.200  1.00  0.00    -0.387 OA
ATOM     41  H   UNL     1       9.072  34.085  67.853  1.00  0.00     0.211 HD
ENDBRANCH  32  40
ENDBRANCH   1  27
TORSDOF 12
ENDMDL
MODEL 2
REMARK VINA RESULT:    -6.618     15.542     18.474
REMARK INTER + INTRA:         -10.806
REMARK INTER:                  -9.992
REMARK INTRA:                  -0.814
REMARK UNBOUND:                -1.093
REMARK SMILES O=c1c(O[C@H]2O[C@H](CO)[C@H](O)[C@H](O)[C@H]2O)c(-c2ccc(O)c(O)c2)oc2cc(O)cc(O)c12
REMARK SMILES IDX 4 1 3 2 16 3 25 4 2 5 26 6 1 7 33 8 27 9 31 10 28 11 30 12
REMARK SMILES IDX 17 13 18 14 19 15 20 16 24 17 22 18 21 19 23 21 32 23 29 25
REMARK SMILES IDX 5 27 14 28 6 29 12 30 7 31 10 32 15 33 13 35 8 37 9 38 11 40
REMARK H PARENT 21 20 23 22 32 24 29 26 15 34 13 36 9 39 11 41
REMARK Flexibility Score: inf
ROOT
ATOM      1  O   UNL     1      17.594  42.282  76.241  1.00  0.00    -0.454 OA
ENDROOT
BRANCH   1   2
ATOM      2  C   UNL     1      18.365  41.152  76.597  1.00  0.00     0.214 A 
ATOM      3  C   UNL     1      18.950  41.142  77.867  1.00  0.00     0.180 A 
ATOM      4  O   UNL     1      19.377  40.010  78.399  1.00  0.00    -0.452 OA
ATOM      5  C   UNL     1      18.495  39.997  75.793  1.00  0.00     0.239 A 
ATOM      6  C   UNL     1      19.350  38.854  77.755  1.00  0.00     0.146 A 
ATOM      7  O   UNL     1      18.147  40.035  74.583  1.00  0.00    -0.285 OA
ATOM      8  C   UNL     1      18.981  38.799  76.383  1.00  0.00     0.111 A 
ATOM      9  C   UNL     1      19.677  37.690  78.455  1.00  0.00     0.094 A 
ATOM     10  C   UNL     1      19.050  37.543  75.711  1.00  0.00     0.134 A 
ATOM     11  C   UNL     1      19.656  36.450  77.814  1.00  0.00     0.123 A 
ATOM     12  C   UNL     1      19.352  36.390  76.451  1.00  0.00     0.093 A 
BRANCH   3  13
ATOM     13  C   UNL     1      19.072  42.383  78.658  1.00  0.00     0.025 A 
ATOM     14  C   UNL     1      20.080  43.319  78.380  1.00  0.00     0.016 A 
ATOM     15  C   UNL     1      20.095  44.550  79.066  1.00  0.00     0.051 A 
ATOM     16  C   UNL     1      19.083  44.851  79.990  1.00  0.00     0.157 A 
ATOM     17  C   UNL     1      18.104  42.662  79.626  1.00  0.00     0.062 A 
ATOM     18  C   UNL     1      18.086  43.893  80.285  1.00  0.00     0.158 A 
BRANCH  16  19
ATOM     19  O   UNL     1      19.102  46.109  80.598  1.00  0.00    -0.504 OA
ATOM     20  H   UNL     1      19.960  46.603  80.823  1.00  0.00     0.293 HD
ENDBRANCH  16  19
BRANCH  18  21
ATOM     21  O   UNL     1      17.036  44.143  81.179  1.00  0.00    -0.504 OA
ATOM     22  H   UNL     1      17.044  43.888  82.159  1.00  0.00     0.293 HD
ENDBRANCH  18  21
ENDBRANCH   3  13
BRANCH  10  23
ATOM     23  O   UNL     1      18.881  37.390  74.323  1.00  0.00    -0.507 OA
ATOM     24  H   UNL     1      19.634  37.250  73.665  1.00  0.00     0.293 HD
ENDBRANCH  10  23
BRANCH  11  25
ATOM     25  O   UNL     1      19.940  35.278  78.506  1.00  0.00    -0.508 OA
ATOM     26  H   UNL     1      20.836  34.804  78.376  1.00  0.00     0.293 HD
ENDBRANCH  11  25
ENDBRANCH   1   2
BRANCH   1  27
ATOM     27  C   UNL     1      17.345  42.779  74.911  1.00  0.00     0.339 C 
ATOM     28  C   UNL     1      18.122  44.110  74.631  1.00  0.00     0.214 C 
ATOM     29  O   UNL     1      15.963  42.916  74.627  1.00  0.00    -0.332 OA
ATOM     30  C   UNL     1      17.164  45.237  74.195  1.00  0.00     0.180 C 
ATOM     31  C   UNL     1      15.330  43.899  75.425  1.00  0.00     0.179 C 
ATOM     32  C   UNL     1      15.965  45.302  75.176  1.00  0.00     0.177 C 
BRANCH  28  33
ATOM     33  O   UNL     1      18.815  44.514  75.783  1.00  0.00    -0.384 OA
ATOM     34  H   UNL     1      18.137  44.704  76.481  1.00  0.00     0.211 HD
ENDBRANCH  28  33
BRANCH  30  35
ATOM     35  O   UNL     1      16.716  44.982  72.885  1.00  0.00    -0.387 OA
ATOM     36  H   UNL     1      17.501  44.639  72.373  1.00  0.00     0.211 HD
ENDBRANCH  30  35
BRANCH  31  37
ATOM     37  C   UNL     1      13.813  43.808  75.154  1.00  0.00     0.191 C 
BRANCH  37  38
ATOM     38  O   UNL     1      13.011  44.346  76.181  1.00  0.00    -0.394 OA
ATOM     39  H   UNL     1      12.931  43.713  76.935  1.00  0.00     0.210 HD
ENDBRANCH  37  38
ENDBRANCH  31  37
BRANCH  32  40
ATOM     40  O   UNL     1      15.029  46.255  74.738  1.00  0.00    -0.387 OA
ATOM     41  H   UNL     1      15.438  47.147  74.908  1.00  0.00     0.211 HD
ENDBRANCH  32  40
ENDBRANCH   1  27
TORSDOF 12
ENDMDL
MODEL 3
REMARK VINA RESULT:    -5.812      1.578      2.871
REMARK INTER + INTRA:          -9.623
REMARK INTER:                  -9.315
REMARK INTRA:                  -0.308
REMARK UNBOUND:                -1.093
REMARK SMILES O=c1c(O[C@H]2O[C@H](CO)[C@H](O)[C@H](O)[C@H]2O)c(-c2ccc(O)c(O)c2)oc2cc(O)cc(O)c12
REMARK SMILES IDX 4 1 3 2 16 3 25 4 2 5 26 6 1 7 33 8 27 9 31 10 28 11 30 12
REMARK SMILES IDX 17 13 18 14 19 15 20 16 24 17 22 18 21 19 23 21 32 23 29 25
REMARK SMILES IDX 5 27 14 28 6 29 12 30 7 31 10 32 15 33 13 35 8 37 9 38 11 40
REMARK H PARENT 21 20 23 22 32 24 29 26 15 34 13 36 9 39 11 41
REMARK Flexibility Score: inf
ROOT
ATOM      1  O   UNL     1       7.493  33.631  69.743  1.00  0.00    -0.454 OA
ENDROOT
BRANCH   1   2
ATOM      2  C   UNL     1       6.087  33.494  69.700  1.00  0.00     0.214 A 
ATOM      3  C   UNL     1       5.460  32.915  70.808  1.00  0.00     0.180 A 
ATOM      4  O   UNL     1       4.161  33.067  70.998  1.00  0.00    -0.452 OA
ATOM      5  C   UNL     1       5.274  33.995  68.658  1.00  0.00     0.239 A 
ATOM      6  C   UNL     1       3.374  33.696  70.139  1.00  0.00     0.146 A 
ATOM      7  O   UNL     1       5.800  34.351  67.571  1.00  0.00    -0.285 OA
ATOM      8  C   UNL     1       3.876  34.124  68.879  1.00  0.00     0.111 A 
ATOM      9  C   UNL     1       2.047  33.940  70.501  1.00  0.00     0.094 A 
ATOM     10  C   UNL     1       2.969  34.720  67.954  1.00  0.00     0.134 A 
ATOM     11  C   UNL     1       1.186  34.605  69.625  1.00  0.00     0.123 A 
ATOM     12  C   UNL     1       1.652  34.980  68.362  1.00  0.00     0.093 A 
BRANCH   3  13
ATOM     13  C   UNL     1       6.234  32.154  71.809  1.00  0.00     0.025 A 
ATOM     14  C   UNL     1       6.179  30.752  71.849  1.00  0.00     0.016 A 
ATOM     15  C   UNL     1       7.024  30.048  72.730  1.00  0.00     0.051 A 
ATOM     16  C   UNL     1       7.943  30.744  73.529  1.00  0.00     0.157 A 
ATOM     17  C   UNL     1       7.105  32.846  72.655  1.00  0.00     0.062 A 
ATOM     18  C   UNL     1       7.973  32.157  73.504  1.00  0.00     0.158 A 
BRANCH  16  19
ATOM     19  O   UNL     1       8.804  30.001  74.339  1.00  0.00    -0.504 OA
ATOM     20  H   UNL     1       9.110  30.313  75.256  1.00  0.00     0.293 HD
ENDBRANCH  16  19
BRANCH  18  21
ATOM     21  O   UNL     1       8.883  32.909  74.261  1.00  0.00    -0.504 OA
ATOM     22  H   UNL     1       9.301  32.599  75.129  1.00  0.00     0.293 HD
ENDBRANCH  18  21
ENDBRANCH   3  13
BRANCH  10  23
ATOM     23  O   UNL     1       3.301  35.024  66.621  1.00  0.00    -0.507 OA
ATOM     24  H   UNL     1       3.182  35.931  66.193  1.00  0.00     0.293 HD
ENDBRANCH  10  23
BRANCH  11  25
ATOM     25  O   UNL     1      -0.125  34.891  69.986  1.00  0.00    -0.508 OA
ATOM     26  H   UNL     1      -0.888  34.749  69.322  1.00  0.00     0.293 HD
ENDBRANCH  11  25
ENDBRANCH   1   2
BRANCH   1  27
ATOM     27  C   UNL     1       8.473  32.676  69.287  1.00  0.00     0.339 C 
ATOM     28  C   UNL     1       9.184  33.153  67.976  1.00  0.00     0.214 C 
ATOM     29  O   UNL     1       7.940  31.371  69.142  1.00  0.00    -0.332 OA
ATOM     30  C   UNL     1       9.049  32.107  66.851  1.00  0.00     0.180 C 
ATOM     31  C   UNL     1       6.958  31.284  68.126  1.00  0.00     0.179 C 
ATOM     32  C   UNL     1       7.567  31.661  66.739  1.00  0.00     0.177 C 
BRANCH  28  33
ATOM     33  O   UNL     1       8.631  34.369  67.543  1.00  0.00    -0.384 OA
ATOM     34  H   UNL     1       9.358  35.042  67.555  1.00  0.00     0.211 HD
ENDBRANCH  28  33
BRANCH  30  35
ATOM     35  O   UNL     1       9.874  31.005  67.143  1.00  0.00    -0.387 OA
ATOM     36  H   UNL     1       9.978  30.977  68.136  1.00  0.00     0.211 HD
ENDBRANCH  30  35
BRANCH  31  37
ATOM     37  C   UNL     1       6.331  29.876  68.207  1.00  0.00     0.191 C 
BRANCH  37  38
ATOM     38  O   UNL     1       4.955  29.875  68.510  1.00  0.00    -0.394 OA
ATOM     39  H   UNL     1       4.771  30.405  69.323  1.00  0.00     0.210 HD
ENDBRANCH  37  38
ENDBRANCH  31  37
BRANCH  32  40
ATOM     40  O   UNL     1       7.439  30.633  65.790  1.00  0.00    -0.387 OA
ATOM     41  H   UNL     1       6.588  30.806  65.303  1.00  0.00     0.211 HD
ENDBRANCH  32  40
ENDBRANCH   1  27
TORSDOF 12
ENDMDL
MODEL 4
REMARK VINA RESULT:    -5.563      2.259      6.391
REMARK INTER + INTRA:          -9.257
REMARK INTER:                  -8.046
REMARK INTRA:                  -1.211
REMARK UNBOUND:                -1.093
REMARK SMILES O=c1c(O[C@H]2O[C@H](CO)[C@H](O)[C@H](O)[C@H]2O)c(-c2ccc(O)c(O)c2)oc2cc(O)cc(O)c12
REMARK SMILES IDX 4 1 3 2 16 3 25 4 2 5 26 6 1 7 33 8 27 9 31 10 28 11 30 12
REMARK SMILES IDX 17 13 18 14 19 15 20 16 24 17 22 18 21 19 23 21 32 23 29 25
REMARK SMILES IDX 5 27 14 28 6 29 12 30 7 31 10 32 15 33 13 35 8 37 9 38 11 40
REMARK H PARENT 21 20 23 22 32 24 29 26 15 34 13 36 9 39 11 41
REMARK Flexibility Score: inf
ROOT
ATOM      1  O   UNL     1       4.335  33.766  70.939  1.00  0.00    -0.454 OA
ENDROOT
BRANCH   1   2
ATOM      2  C   UNL     1       5.131  32.871  70.187  1.00  0.00     0.214 A 
ATOM      3  C   UNL     1       4.641  31.576  69.996  1.00  0.00     0.180 A 
ATOM      4  O   UNL     1       5.134  30.808  69.039  1.00  0.00    -0.452 OA
ATOM      5  C   UNL     1       6.332  33.234  69.538  1.00  0.00     0.239 A 
ATOM      6  C   UNL     1       6.146  31.174  68.269  1.00  0.00     0.146 A 
ATOM      7  O   UNL     1       6.899  34.320  69.832  1.00  0.00    -0.285 OA
ATOM      8  C   UNL     1       6.855  32.378  68.531  1.00  0.00     0.111 A 
ATOM      9  C   UNL     1       6.493  30.360  67.188  1.00  0.00     0.094 A 
ATOM     10  C   UNL     1       7.992  32.686  67.727  1.00  0.00     0.134 A 
ATOM     11  C   UNL     1       7.552  30.713  66.349  1.00  0.00     0.123 A 
ATOM     12  C   UNL     1       8.293  31.864  66.630  1.00  0.00     0.093 A 
BRANCH   3  13
ATOM     13  C   UNL     1       3.541  31.048  70.827  1.00  0.00     0.025 A 
ATOM     14  C   UNL     1       3.807  30.333  72.006  1.00  0.00     0.016 A 
ATOM     15  C   UNL     1       2.740  29.952  72.843  1.00  0.00     0.051 A 
ATOM     16  C   UNL     1       1.426  30.321  72.520  1.00  0.00     0.157 A 
ATOM     17  C   UNL     1       2.224  31.357  70.476  1.00  0.00     0.062 A 
ATOM     18  C   UNL     1       1.162  31.017  71.318  1.00  0.00     0.158 A 
BRANCH  16  19
ATOM     19  O   UNL     1       0.408  29.977  73.413  1.00  0.00    -0.504 OA
ATOM     20  H   UNL     1      -0.523  30.380  73.374  1.00  0.00     0.293 HD
ENDBRANCH  16  19
BRANCH  18  21
ATOM     21  O   UNL     1      -0.125  31.435  70.951  1.00  0.00    -0.504 OA
ATOM     22  H   UNL     1      -0.980  30.971  71.230  1.00  0.00     0.293 HD
ENDBRANCH  18  21
ENDBRANCH   3  13
BRANCH  10  23
ATOM     23  O   UNL     1       8.873  33.749  67.995  1.00  0.00    -0.507 OA
ATOM     24  H   UNL     1       9.250  33.966  68.906  1.00  0.00     0.293 HD
ENDBRANCH  10  23
BRANCH  11  25
ATOM     25  O   UNL     1       7.884  29.935  65.246  1.00  0.00    -0.508 OA
ATOM     26  H   UNL     1       7.167  29.397  64.756  1.00  0.00     0.293 HD
ENDBRANCH  11  25
ENDBRANCH   1   2
BRANCH   1  27
ATOM     27  C   UNL     1       3.857  35.062  70.524  1.00  0.00     0.339 C 
ATOM     28  C   UNL     1       2.520  35.447  71.242  1.00  0.00     0.214 C 
ATOM     29  O   UNL     1       3.741  35.178  69.116  1.00  0.00    -0.332 OA
ATOM     30  C   UNL     1       1.410  35.776  70.223  1.00  0.00     0.180 C 
ATOM     31  C   UNL     1       2.757  34.320  68.569  1.00  0.00     0.179 C 
ATOM     32  C   UNL     1       1.349  34.658  69.150  1.00  0.00     0.177 C 
BRANCH  28  33
ATOM     33  O   UNL     1       2.093  34.391  72.063  1.00  0.00    -0.384 OA
ATOM     34  H   UNL     1       1.132  34.243  71.873  1.00  0.00     0.211 HD
ENDBRANCH  28  33
BRANCH  30  35
ATOM     35  O   UNL     1       1.687  37.019  69.623  1.00  0.00    -0.387 OA
ATOM     36  H   UNL     1       1.282  37.719  70.210  1.00  0.00     0.211 HD
ENDBRANCH  30  35
BRANCH  31  37
ATOM     37  C   UNL     1       2.872  34.405  67.032  1.00  0.00     0.191 C 
BRANCH  37  38
ATOM     38  O   UNL     1       2.593  35.681  66.504  1.00  0.00    -0.394 OA
ATOM     39  H   UNL     1       1.773  36.059  66.906  1.00  0.00     0.210 HD
ENDBRANCH  37  38
ENDBRANCH  31  37
BRANCH  32  40
ATOM     40  O   UNL     1       0.414  34.990  68.155  1.00  0.00    -0.387 OA
ATOM     41  H   UNL     1      -0.437  35.198  68.629  1.00  0.00     0.211 HD
ENDBRANCH  32  40
ENDBRANCH   1  27
TORSDOF 12
ENDMDL
MODEL 5
REMARK VINA RESULT:    -5.466     15.458     19.085
REMARK INTER + INTRA:          -9.115
REMARK INTER:                  -8.587
REMARK INTRA:                  -0.528
REMARK UNBOUND:                -1.093
REMARK SMILES O=c1c(O[C@H]2O[C@H](CO)[C@H](O)[C@H](O)[C@H]2O)c(-c2ccc(O)c(O)c2)oc2cc(O)cc(O)c12
REMARK SMILES IDX 4 1 3 2 16 3 25 4 2 5 26 6 1 7 33 8 27 9 31 10 28 11 30 12
REMARK SMILES IDX 17 13 18 14 19 15 20 16 24 17 22 18 21 19 23 21 32 23 29 25
REMARK SMILES IDX 5 27 14 28 6 29 12 30 7 31 10 32 15 33 13 35 8 37 9 38 11 40
REMARK H PARENT 21 20 23 22 32 24 29 26 15 34 13 36 9 39 11 41
REMARK Flexibility Score: inf
ROOT
ATOM      1  O   UNL     1      17.071  45.845  75.539  1.00  0.00    -0.454 OA
ENDROOT
BRANCH   1   2
ATOM      2  C   UNL     1      16.872  44.446  75.490  1.00  0.00     0.214 A 
ATOM      3  C   UNL     1      15.695  43.981  74.896  1.00  0.00     0.180 A 
ATOM      4  O   UNL     1      15.595  42.723  74.501  1.00  0.00    -0.452 OA
ATOM      5  C   UNL     1      17.829  43.494  75.911  1.00  0.00     0.239 A 
ATOM      6  C   UNL     1      16.547  41.825  74.703  1.00  0.00     0.146 A 
ATOM      7  O   UNL     1      18.809  43.861  76.612  1.00  0.00    -0.285 OA
ATOM      8  C   UNL     1      17.685  42.144  75.494  1.00  0.00     0.111 A 
ATOM      9  C   UNL     1      16.414  40.566  74.114  1.00  0.00     0.094 A 
ATOM     10  C   UNL     1      18.640  41.117  75.754  1.00  0.00     0.134 A 
ATOM     11  C   UNL     1      17.398  39.592  74.298  1.00  0.00     0.123 A 
ATOM     12  C   UNL     1      18.493  39.873  75.120  1.00  0.00     0.093 A 
BRANCH   3  13
ATOM     13  C   UNL     1      14.552  44.886  74.661  1.00  0.00     0.025 A 
ATOM     14  C   UNL     1      13.267  44.559  75.119  1.00  0.00     0.016 A 
ATOM     15  C   UNL     1      12.224  45.497  74.993  1.00  0.00     0.051 A 
ATOM     16  C   UNL     1      12.480  46.765  74.450  1.00  0.00     0.157 A 
ATOM     17  C   UNL     1      14.788  46.126  74.061  1.00  0.00     0.062 A 
ATOM     18  C   UNL     1      13.771  47.078  73.965  1.00  0.00     0.158 A 
BRANCH  16  19
ATOM     19  O   UNL     1      11.430  47.684  74.404  1.00  0.00    -0.504 OA
ATOM     20  H   UNL     1      10.906  47.969  75.226  1.00  0.00     0.293 HD
ENDBRANCH  16  19
BRANCH  18  21
ATOM     21  O   UNL     1      14.096  48.334  73.434  1.00  0.00    -0.504 OA
ATOM     22  H   UNL     1      14.086  48.560  72.448  1.00  0.00     0.293 HD
ENDBRANCH  18  21
ENDBRANCH   3  13
BRANCH  10  23
ATOM     23  O   UNL     1      19.709  41.256  76.657  1.00  0.00    -0.507 OA
ATOM     24  H   UNL     1      20.248  40.488  77.031  1.00  0.00     0.293 HD
ENDBRANCH  10  23
BRANCH  11  25
ATOM     25  O   UNL     1      17.301  38.348  73.686  1.00  0.00    -0.508 OA
ATOM     26  H   UNL     1      16.390  37.906  73.551  1.00  0.00     0.293 HD
ENDBRANCH  11  25
ENDBRANCH   1   2
BRANCH   1  27
ATOM     27  C   UNL     1      18.332  46.539  75.625  1.00  0.00     0.339 C 
ATOM     28  C   UNL     1      18.173  47.953  76.281  1.00  0.00     0.214 C 
ATOM     29  O   UNL     1      19.001  46.619  74.378  1.00  0.00    -0.332 OA
ATOM     30  C   UNL     1      18.719  49.063  75.360  1.00  0.00     0.180 C 
ATOM     31  C   UNL     1      18.305  47.402  73.426  1.00  0.00     0.179 C 
ATOM     32  C   UNL     1      18.150  48.871  73.930  1.00  0.00     0.177 C 
BRANCH  28  33
ATOM     33  O   UNL     1      16.821  48.207  76.557  1.00  0.00    -0.384 OA
ATOM     34  H   UNL     1      16.292  47.820  75.813  1.00  0.00     0.211 HD
ENDBRANCH  28  33
BRANCH  30  35
ATOM     35  O   UNL     1      20.125  49.001  75.343  1.00  0.00    -0.387 OA
ATOM     36  H   UNL     1      20.376  48.067  75.594  1.00  0.00     0.211 HD
ENDBRANCH  30  35
BRANCH  31  37
ATOM     37  C   UNL     1      19.035  47.245  72.075  1.00  0.00     0.191 C 
BRANCH  37  38
ATOM     38  O   UNL     1      18.372  47.851  70.989  1.00  0.00    -0.394 OA
ATOM     39  H   UNL     1      18.026  48.741  71.239  1.00  0.00     0.210 HD
ENDBRANCH  37  38
ENDBRANCH  31  37
BRANCH  32  40
ATOM     40  O   UNL     1      18.715  49.811  73.052  1.00  0.00    -0.387 OA
ATOM     41  H   UNL     1      19.428  50.281  73.565  1.00  0.00     0.211 HD
ENDBRANCH  32  40
ENDBRANCH   1  27
TORSDOF 12
ENDMDL
MODEL 6
REMARK VINA RESULT:    -5.449     15.216     18.717
REMARK INTER + INTRA:          -9.090
REMARK INTER:                  -7.638
REMARK INTRA:                  -1.452
REMARK UNBOUND:                -1.093
REMARK SMILES O=c1c(O[C@H]2O[C@H](CO)[C@H](O)[C@H](O)[C@H]2O)c(-c2ccc(O)c(O)c2)oc2cc(O)cc(O)c12
REMARK SMILES IDX 4 1 3 2 16 3 25 4 2 5 26 6 1 7 33 8 27 9 31 10 28 11 30 12
REMARK SMILES IDX 17 13 18 14 19 15 20 16 24 17 22 18 21 19 23 21 32 23 29 25
REMARK SMILES IDX 5 27 14 28 6 29 12 30 7 31 10 32 15 33 13 35 8 37 9 38 11 40
REMARK H PARENT 21 20 23 22 32 24 29 26 15 34 13 36 9 39 11 41
REMARK Flexibility Score: inf
ROOT
ATOM      1  O   UNL     1      15.721  45.459  74.968  1.00  0.00    -0.454 OA
ENDROOT
BRANCH   1   2
ATOM      2  C   UNL     1      16.533  44.315  74.788  1.00  0.00     0.214 A 
ATOM      3  C   UNL     1      17.885  44.424  75.128  1.00  0.00     0.180 A 
ATOM      4  O   UNL     1      18.616  43.339  75.322  1.00  0.00    -0.452 OA
ATOM      5  C   UNL     1      16.044  43.052  74.386  1.00  0.00     0.239 A 
ATOM      6  C   UNL     1      18.151  42.113  75.141  1.00  0.00     0.146 A 
ATOM      7  O   UNL     1      14.888  42.956  73.898  1.00  0.00    -0.285 OA
ATOM      8  C   UNL     1      16.860  41.905  74.582  1.00  0.00     0.111 A 
ATOM      9  C   UNL     1      18.950  41.031  75.519  1.00  0.00     0.094 A 
ATOM     10  C   UNL     1      16.439  40.567  74.326  1.00  0.00     0.134 A 
ATOM     11  C   UNL     1      18.495  39.722  75.349  1.00  0.00     0.123 A 
ATOM     12  C   UNL     1      17.251  39.503  74.748  1.00  0.00     0.093 A 
BRANCH   3  13
ATOM     13  C   UNL     1      18.520  45.743  75.315  1.00  0.00     0.025 A 
ATOM     14  C   UNL     1      18.894  46.527  74.211  1.00  0.00     0.016 A 
ATOM     15  C   UNL     1      19.380  47.832  74.418  1.00  0.00     0.051 A 
ATOM     16  C   UNL     1      19.449  48.359  75.716  1.00  0.00     0.157 A 
ATOM     17  C   UNL     1      18.653  46.249  76.611  1.00  0.00     0.062 A 
ATOM     18  C   UNL     1      19.097  47.556  76.825  1.00  0.00     0.158 A 
BRANCH  16  19
ATOM     19  O   UNL     1      19.876  49.681  75.867  1.00  0.00    -0.504 OA
ATOM     20  H   UNL     1      20.125  50.276  75.083  1.00  0.00     0.293 HD
ENDBRANCH  16  19
BRANCH  18  21
ATOM     21  O   UNL     1      19.122  48.031  78.144  1.00  0.00    -0.504 OA
ATOM     22  H   UNL     1      19.103  47.442  78.966  1.00  0.00     0.293 HD
ENDBRANCH  18  21
ENDBRANCH   3  13
BRANCH  10  23
ATOM     23  O   UNL     1      15.266  40.239  73.622  1.00  0.00    -0.507 OA
ATOM     24  H   UNL     1      15.245  39.883  72.677  1.00  0.00     0.293 HD
ENDBRANCH  10  23
BRANCH  11  25
ATOM     25  O   UNL     1      19.260  38.636  75.758  1.00  0.00    -0.508 OA
ATOM     26  H   UNL     1      19.843  38.699  76.594  1.00  0.00     0.293 HD
ENDBRANCH  11  25
ENDBRANCH   1   2
BRANCH   1  27
ATOM     27  C   UNL     1      14.956  46.147  73.958  1.00  0.00     0.339 C 
ATOM     28  C   UNL     1      15.092  47.702  74.083  1.00  0.00     0.214 C 
ATOM     29  O   UNL     1      13.596  45.746  73.932  1.00  0.00    -0.332 OA
ATOM     30  C   UNL     1      13.713  48.377  74.222  1.00  0.00     0.180 C 
ATOM     31  C   UNL     1      12.895  46.094  75.112  1.00  0.00     0.179 C 
ATOM     32  C   UNL     1      12.888  47.642  75.311  1.00  0.00     0.177 C 
BRANCH  28  33
ATOM     33  O   UNL     1      15.880  48.028  75.199  1.00  0.00    -0.384 OA
ATOM     34  H   UNL     1      15.611  48.936  75.491  1.00  0.00     0.211 HD
ENDBRANCH  28  33
BRANCH  30  35
ATOM     35  O   UNL     1      13.047  48.328  72.984  1.00  0.00    -0.387 OA
ATOM     36  H   UNL     1      13.415  49.072  72.428  1.00  0.00     0.211 HD
ENDBRANCH  30  35
BRANCH  31  37
ATOM     37  C   UNL     1      11.502  45.436  75.032  1.00  0.00     0.191 C 
BRANCH  37  38
ATOM     38  O   UNL     1      10.753  45.526  76.223  1.00  0.00    -0.394 OA
ATOM     39  H   UNL     1       9.828  45.816  76.038  1.00  0.00     0.210 HD
ENDBRANCH  37  38
ENDBRANCH  31  37
BRANCH  32  40
ATOM     40  O   UNL     1      11.590  48.177  75.382  1.00  0.00    -0.387 OA
ATOM     41  H   UNL     1      11.454  48.455  76.328  1.00  0.00     0.211 HD
ENDBRANCH  32  40
ENDBRANCH   1  27
TORSDOF 12
ENDMDL
MODEL 7
REMARK VINA RESULT:    -5.143      1.928      5.267
REMARK INTER + INTRA:          -8.641
REMARK INTER:                  -8.119
REMARK INTRA:                  -0.522
REMARK UNBOUND:                -1.093
REMARK SMILES O=c1c(O[C@H]2O[C@H](CO)[C@H](O)[C@H](O)[C@H]2O)c(-c2ccc(O)c(O)c2)oc2cc(O)cc(O)c12
REMARK SMILES IDX 4 1 3 2 16 3 25 4 2 5 26 6 1 7 33 8 27 9 31 10 28 11 30 12
REMARK SMILES IDX 17 13 18 14 19 15 20 16 24 17 22 18 21 19 23 21 32 23 29 25
REMARK SMILES IDX 5 27 14 28 6 29 12 30 7 31 10 32 15 33 13 35 8 37 9 38 11 40
REMARK H PARENT 21 20 23 22 32 24 29 26 15 34 13 36 9 39 11 41
REMARK Flexibility Score: inf
ROOT
ATOM      1  O   UNL     1       5.371  32.856  70.894  1.00  0.00    -0.454 OA
ENDROOT
BRANCH   1   2
ATOM      2  C   UNL     1       4.644  33.724  70.046  1.00  0.00     0.214 A 
ATOM      3  C   UNL     1       4.839  33.592  68.668  1.00  0.00     0.180 A 
ATOM      4  O   UNL     1       3.965  34.101  67.816  1.00  0.00    -0.452 OA
ATOM      5  C   UNL     1       3.667  34.639  70.499  1.00  0.00     0.239 A 
ATOM      6  C   UNL     1       2.917  34.815  68.197  1.00  0.00     0.146 A 
ATOM      7  O   UNL     1       3.594  34.920  71.724  1.00  0.00    -0.285 OA
ATOM      8  C   UNL     1       2.756  35.192  69.559  1.00  0.00     0.111 A 
ATOM      9  C   UNL     1       1.969  35.178  67.237  1.00  0.00     0.094 A 
ATOM     10  C   UNL     1       1.658  36.033  69.905  1.00  0.00     0.134 A 
ATOM     11  C   UNL     1       0.848  35.926  67.599  1.00  0.00     0.123 A 
ATOM     12  C   UNL     1       0.707  36.352  68.923  1.00  0.00     0.093 A 
BRANCH   3  13
ATOM     13  C   UNL     1       5.998  32.852  68.130  1.00  0.00     0.025 A 
ATOM     14  C   UNL     1       5.825  31.633  67.456  1.00  0.00     0.016 A 
ATOM     15  C   UNL     1       6.933  31.014  66.843  1.00  0.00     0.051 A 
ATOM     16  C   UNL     1       8.190  31.636  66.872  1.00  0.00     0.157 A 
ATOM     17  C   UNL     1       7.265  33.435  68.212  1.00  0.00     0.062 A 
ATOM     18  C   UNL     1       8.363  32.850  67.576  1.00  0.00     0.158 A 
BRANCH  16  19
ATOM     19  O   UNL     1       9.245  31.017  66.197  1.00  0.00    -0.504 OA
ATOM     20  H   UNL     1       9.176  30.087  65.795  1.00  0.00     0.293 HD
ENDBRANCH  16  19
BRANCH  18  21
ATOM     21  O   UNL     1       9.587  33.532  67.623  1.00  0.00    -0.504 OA
ATOM     22  H   UNL     1       9.683  34.527  67.778  1.00  0.00     0.293 HD
ENDBRANCH  18  21
ENDBRANCH   3  13
BRANCH  10  23
ATOM     23  O   UNL     1       1.489  36.613  71.176  1.00  0.00    -0.507 OA
ATOM     24  H   UNL     1       2.216  37.090  71.690  1.00  0.00     0.293 HD
ENDBRANCH  10  23
BRANCH  11  25
ATOM     25  O   UNL     1      -0.125  36.261  66.664  1.00  0.00    -0.508 OA
ATOM     26  H   UNL     1      -1.076  36.484  66.963  1.00  0.00     0.293 HD
ENDBRANCH  11  25
ENDBRANCH   1   2
BRANCH   1  27
ATOM     27  C   UNL     1       5.861  33.147  72.219  1.00  0.00     0.339 C 
ATOM     28  C   UNL     1       7.403  33.418  72.222  1.00  0.00     0.214 C 
ATOM     29  O   UNL     1       5.508  32.152  73.164  1.00  0.00    -0.332 OA
ATOM     30  C   UNL     1       8.137  32.477  73.199  1.00  0.00     0.180 C 
ATOM     31  C   UNL     1       6.113  30.900  72.902  1.00  0.00     0.179 C 
ATOM     32  C   UNL     1       7.668  31.018  72.957  1.00  0.00     0.177 C 
BRANCH  28  33
ATOM     33  O   UNL     1       7.926  33.241  70.931  1.00  0.00    -0.384 OA
ATOM     34  H   UNL     1       8.825  32.835  71.032  1.00  0.00     0.211 HD
ENDBRANCH  28  33
BRANCH  30  35
ATOM     35  O   UNL     1       7.856  32.872  74.520  1.00  0.00    -0.387 OA
ATOM     36  H   UNL     1       8.694  32.739  75.046  1.00  0.00     0.211 HD
ENDBRANCH  30  35
BRANCH  31  37
ATOM     37  C   UNL     1       5.497  29.875  73.878  1.00  0.00     0.191 C 
BRANCH  37  38
ATOM     38  O   UNL     1       5.590  30.245  75.235  1.00  0.00    -0.394 OA
ATOM     39  H   UNL     1       5.361  31.198  75.358  1.00  0.00     0.210 HD
ENDBRANCH  37  38
ENDBRANCH  31  37
BRANCH  32  40
ATOM     40  O   UNL     1       8.247  30.158  73.905  1.00  0.00    -0.387 OA
ATOM     41  H   UNL     1       9.229  30.319  73.866  1.00  0.00     0.211 HD
ENDBRANCH  32  40
ENDBRANCH   1  27
TORSDOF 12
ENDMDL
MODEL 8
REMARK VINA RESULT:    -5.051      1.730      4.676
REMARK INTER + INTRA:          -8.506
REMARK INTER:                  -7.617
REMARK INTRA:                  -0.888
REMARK UNBOUND:                -1.093
REMARK SMILES O=c1c(O[C@H]2O[C@H](CO)[C@H](O)[C@H](O)[C@H]2O)c(-c2ccc(O)c(O)c2)oc2cc(O)cc(O)c12
REMARK SMILES IDX 4 1 3 2 16 3 25 4 2 5 26 6 1 7 33 8 27 9 31 10 28 11 30 12
REMARK SMILES IDX 17 13 18 14 19 15 20 16 24 17 22 18 21 19 23 21 32 23 29 25
REMARK SMILES IDX 5 27 14 28 6 29 12 30 7 31 10 32 15 33 13 35 8 37 9 38 11 40
REMARK H PARENT 21 20 23 22 32 24 29 26 15 34 13 36 9 39 11 41
REMARK Flexibility Score: inf
ROOT
ATOM      1  O   UNL     1       5.312  34.025  70.422  1.00  0.00    -0.454 OA
ENDROOT
BRANCH   1   2
ATOM      2  C   UNL     1       4.372  33.535  69.486  1.00  0.00     0.214 A 
ATOM      3  C   UNL     1       4.862  32.796  68.405  1.00  0.00     0.180 A 
ATOM      4  O   UNL     1       4.052  32.025  67.699  1.00  0.00    -0.452 OA
ATOM      5  C   UNL     1       2.972  33.661  69.630  1.00  0.00     0.239 A 
ATOM      6  C   UNL     1       2.748  31.960  67.914  1.00  0.00     0.146 A 
ATOM      7  O   UNL     1       2.500  34.466  70.476  1.00  0.00    -0.285 OA
ATOM      8  C   UNL     1       2.123  32.839  68.841  1.00  0.00     0.111 A 
ATOM      9  C   UNL     1       2.002  31.003  67.222  1.00  0.00     0.094 A 
ATOM     10  C   UNL     1       0.704  32.788  68.974  1.00  0.00     0.134 A 
ATOM     11  C   UNL     1       0.625  30.898  67.423  1.00  0.00     0.123 A 
ATOM     12  C   UNL     1      -0.010  31.793  68.288  1.00  0.00     0.093 A 
BRANCH   3  13
ATOM     13  C   UNL     1       6.294  32.828  68.048  1.00  0.00     0.025 A 
ATOM     14  C   UNL     1       6.913  34.024  67.654  1.00  0.00     0.016 A 
ATOM     15  C   UNL     1       8.305  34.050  67.442  1.00  0.00     0.051 A 
ATOM     16  C   UNL     1       9.072  32.896  67.665  1.00  0.00     0.157 A 
ATOM     17  C   UNL     1       7.052  31.664  68.205  1.00  0.00     0.062 A 
ATOM     18  C   UNL     1       8.438  31.687  68.034  1.00  0.00     0.158 A 
BRANCH  16  19
ATOM     19  O   UNL     1      10.456  32.986  67.504  1.00  0.00    -0.504 OA
ATOM     20  H   UNL     1      11.056  33.500  68.142  1.00  0.00     0.293 HD
ENDBRANCH  16  19
BRANCH  18  21
ATOM     21  O   UNL     1       9.150  30.508  68.294  1.00  0.00    -0.504 OA
ATOM     22  H   UNL     1       8.750  29.579  68.267  1.00  0.00     0.293 HD
ENDBRANCH  18  21
ENDBRANCH   3  13
BRANCH  10  23
ATOM     23  O   UNL     1      -0.043  33.716  69.723  1.00  0.00    -0.507 OA
ATOM     24  H   UNL     1      -0.155  34.690  69.481  1.00  0.00     0.293 HD
ENDBRANCH  10  23
BRANCH  11  25
ATOM     25  O   UNL     1      -0.125  29.925  66.772  1.00  0.00    -0.508 OA
ATOM     26  H   UNL     1       0.327  29.091  66.391  1.00  0.00     0.293 HD
ENDBRANCH  11  25
ENDBRANCH   1   2
BRANCH   1  27
ATOM     27  C   UNL     1       5.535  33.541  71.762  1.00  0.00     0.339 C 
ATOM     28  C   UNL     1       7.048  33.606  72.160  1.00  0.00     0.214 C 
ATOM     29  O   UNL     1       4.999  32.246  71.974  1.00  0.00    -0.332 OA
ATOM     30  C   UNL     1       7.572  32.225  72.603  1.00  0.00     0.180 C 
ATOM     31  C   UNL     1       5.638  31.249  71.197  1.00  0.00     0.179 C 
ATOM     32  C   UNL     1       7.152  31.156  71.560  1.00  0.00     0.177 C 
BRANCH  28  33
ATOM     33  O   UNL     1       7.813  34.061  71.074  1.00  0.00    -0.384 OA
ATOM     34  H   UNL     1       7.190  34.196  70.314  1.00  0.00     0.211 HD
ENDBRANCH  28  33
BRANCH  30  35
ATOM     35  O   UNL     1       7.040  31.913  73.868  1.00  0.00    -0.387 OA
ATOM     36  H   UNL     1       7.205  30.940  74.019  1.00  0.00     0.211 HD
ENDBRANCH  30  35
BRANCH  31  37
ATOM     37  C   UNL     1       4.838  29.941  71.376  1.00  0.00     0.191 C 
BRANCH  37  38
ATOM     38  O   UNL     1       3.655  29.880  70.612  1.00  0.00    -0.394 OA
ATOM     39  H   UNL     1       3.593  29.025  70.124  1.00  0.00     0.210 HD
ENDBRANCH  37  38
ENDBRANCH  31  37
BRANCH  32  40
ATOM     40  O   UNL     1       7.531  29.875  71.997  1.00  0.00    -0.387 OA
ATOM     41  H   UNL     1       8.316  29.612  71.443  1.00  0.00     0.211 HD
ENDBRANCH  32  40
ENDBRANCH   1  27
TORSDOF 12
ENDMDL
MODEL 9
REMARK VINA RESULT:    -4.058     15.983     18.485
REMARK INTER + INTRA:          -7.049
REMARK INTER:                  -6.354
REMARK INTRA:                  -0.694
REMARK UNBOUND:                -1.093
REMARK SMILES O=c1c(O[C@H]2O[C@H](CO)[C@H](O)[C@H](O)[C@H]2O)c(-c2ccc(O)c(O)c2)oc2cc(O)cc(O)c12
REMARK SMILES IDX 4 1 3 2 16 3 25 4 2 5 26 6 1 7 33 8 27 9 31 10 28 11 30 12
REMARK SMILES IDX 17 13 18 14 19 15 20 16 24 17 22 18 21 19 23 21 32 23 29 25
REMARK SMILES IDX 5 27 14 28 6 29 12 30 7 31 10 32 15 33 13 35 8 37 9 38 11 40
REMARK H PARENT 21 20 23 22 32 24 29 26 15 34 13 36 9 39 11 41
REMARK Flexibility Score: inf
ROOT
ATOM      1  O   UNL     1      17.125  45.750  73.627  1.00  0.00    -0.454 OA
ENDROOT
BRANCH   1   2
ATOM      2  C   UNL     1      15.745  45.616  73.902  1.00  0.00     0.214 A 
ATOM      3  C   UNL     1      15.346  44.535  74.694  1.00  0.00     0.180 A 
ATOM      4  O   UNL     1      14.159  44.533  75.277  1.00  0.00    -0.452 OA
ATOM      5  C   UNL     1      14.764  46.556  73.512  1.00  0.00     0.239 A 
ATOM      6  C   UNL     1      13.264  45.491  75.095  1.00  0.00     0.146 A 
ATOM      7  O   UNL     1      15.045  47.432  72.652  1.00  0.00    -0.285 OA
ATOM      8  C   UNL     1      13.488  46.516  74.135  1.00  0.00     0.111 A 
ATOM      9  C   UNL     1      12.104  45.479  75.872  1.00  0.00     0.094 A 
ATOM     10  C   UNL     1      12.456  47.476  73.914  1.00  0.00     0.134 A 
ATOM     11  C   UNL     1      11.137  46.474  75.714  1.00  0.00     0.123 A 
ATOM     12  C   UNL     1      11.318  47.455  74.735  1.00  0.00     0.093 A 
BRANCH   3  13
ATOM     13  C   UNL     1      16.249  43.391  74.931  1.00  0.00     0.025 A 
ATOM     14  C   UNL     1      16.209  42.257  74.104  1.00  0.00     0.016 A 
ATOM     15  C   UNL     1      17.166  41.238  74.275  1.00  0.00     0.051 A 
ATOM     16  C   UNL     1      18.177  41.376  75.238  1.00  0.00     0.157 A 
ATOM     17  C   UNL     1      17.218  43.494  75.933  1.00  0.00     0.062 A 
ATOM     18  C   UNL     1      18.195  42.508  76.086  1.00  0.00     0.158 A 
BRANCH  16  19
ATOM     19  O   UNL     1      19.141  40.370  75.328  1.00  0.00    -0.504 OA
ATOM     20  H   UNL     1      19.017  39.532  75.887  1.00  0.00     0.293 HD
ENDBRANCH  16  19
BRANCH  18  21
ATOM     21  O   UNL     1      19.191  42.716  77.051  1.00  0.00    -0.504 OA
ATOM     22  H   UNL     1      20.067  42.211  77.088  1.00  0.00     0.293 HD
ENDBRANCH  18  21
ENDBRANCH   3  13
BRANCH  10  23
ATOM     23  O   UNL     1      12.484  48.427  72.878  1.00  0.00    -0.507 OA
ATOM     24  H   UNL     1      11.697  48.995  72.599  1.00  0.00     0.293 HD
ENDBRANCH  10  23
BRANCH  11  25
ATOM     25  O   UNL     1       9.996  46.500  76.508  1.00  0.00    -0.508 OA
ATOM     26  H   UNL     1       9.483  45.638  76.707  1.00  0.00     0.293 HD
ENDBRANCH  11  25
ENDBRANCH   1   2
BRANCH   1  27
ATOM     27  C   UNL     1      17.872  46.978  73.515  1.00  0.00     0.339 C 
ATOM     28  C   UNL     1      19.417  46.723  73.537  1.00  0.00     0.214 C 
ATOM     29  O   UNL     1      17.492  47.941  74.484  1.00  0.00    -0.332 OA
ATOM     30  C   UNL     1      20.104  47.530  74.658  1.00  0.00     0.180 C 
ATOM     31  C   UNL     1      17.791  47.540  75.808  1.00  0.00     0.179 C 
ATOM     32  C   UNL     1      19.327  47.329  75.985  1.00  0.00     0.177 C 
BRANCH  28  33
ATOM     33  O   UNL     1      19.677  45.357  73.728  1.00  0.00    -0.384 OA
ATOM     34  H   UNL     1      18.830  44.936  74.024  1.00  0.00     0.211 HD
ENDBRANCH  28  33
BRANCH  30  35
ATOM     35  O   UNL     1      20.125  48.891  74.301  1.00  0.00    -0.387 OA
ATOM     36  H   UNL     1      20.981  49.048  73.812  1.00  0.00     0.211 HD
ENDBRANCH  30  35
BRANCH  31  37
ATOM     37  C   UNL     1      17.157  48.577  76.760  1.00  0.00     0.191 C 
BRANCH  37  38
ATOM     38  O   UNL     1      15.854  48.972  76.395  1.00  0.00    -0.394 OA
ATOM     39  H   UNL     1      15.791  49.954  76.316  1.00  0.00     0.210 HD
ENDBRANCH  37  38
ENDBRANCH  31  37
BRANCH  32  40
ATOM     40  O   UNL     1      19.876  48.137  76.997  1.00  0.00    -0.387 OA
ATOM     41  H   UNL     1      19.107  48.577  77.451  1.00  0.00     0.211 HD
ENDBRANCH  32  40
ENDBRANCH   1  27
TORSDOF 12
ENDMDL
