MODEL 1
REMARK VINA RESULT:    -4.301      0.000      0.000
REMARK INTER + INTRA:         -14.506
REMARK INTER:                 -10.838
REMARK INTRA:                  -3.668
REMARK UNBOUND:                -3.668
REMARK SMILES CCCCCCCCCCCCCCCCCCCCCCCCCCCC(=O)[O-]
REMARK SMILES IDX 15 1 16 2 17 3 18 4 19 5 20 6 21 7 22 8 23 9 24 10 25 11
REMARK SMILES IDX 26 12 27 13 28 14 29 15 30 16 14 17 13 18 12 19 11 20 10 21
REMARK SMILES IDX 9 22 8 23 7 24 6 25 5 26 4 27 3 28 2 29 1 30
REMARK H PARENT
REMARK Flexibility Score: inf
ROOT
ATOM      1  C   UNL     1     129.540 131.606 134.714  1.00  0.00     0.000 C 
ENDROOT
BRANCH   1   2
ATOM      2  C   UNL     1     130.343 132.869 134.361  1.00  0.00     0.000 C 
BRANCH   2   3
ATOM      3  C   UNL     1     130.915 133.525 135.628  1.00  0.00     0.000 C 
BRANCH   3   4
ATOM      4  C   UNL     1     132.410 133.861 135.510  1.00  0.00     0.000 C 
BRANCH   4   5
ATOM      5  C   UNL     1     132.961 133.852 134.073  1.00  0.00     0.000 C 
BRANCH   5   6
ATOM      6  C   UNL     1     133.162 135.261 133.496  1.00  0.00     0.000 C 
BRANCH   6   7
ATOM      7  C   UNL     1     133.097 135.231 131.962  1.00  0.00     0.000 C 
BRANCH   7   8
ATOM      8  C   UNL     1     131.768 135.771 131.412  1.00  0.00     0.000 C 
BRANCH   8   9
ATOM      9  C   UNL     1     130.993 134.720 130.597  1.00  0.00     0.000 C 
BRANCH   9  10
ATOM     10  C   UNL     1     131.628 133.317 130.696  1.00  0.00     0.000 C 
BRANCH  10  11
ATOM     11  C   UNL     1     131.357 132.433 129.467  1.00  0.00     0.000 C 
BRANCH  11  12
ATOM     12  C   UNL     1     130.654 133.190 128.328  1.00  0.00     0.006 C 
BRANCH  12  13
ATOM     13  C   UNL     1     129.205 132.723 128.130  1.00  0.00     0.053 C 
BRANCH  13  14
ATOM     14  C   UNL     1     129.146 131.321 127.611  1.00  0.00     0.041 C 
ATOM     15  O   UNL     1     129.004 130.355 128.407  1.00  0.00    -0.550 OA
ATOM     16  O   UNL     1     129.179 131.084 126.242  1.00  0.00    -0.550 OA
ENDBRANCH  13  14
ENDBRANCH  12  13
ENDBRANCH  11  12
ENDBRANCH  10  11
ENDBRANCH   9  10
ENDBRANCH   8   9
ENDBRANCH   7   8
ENDBRANCH   6   7
ENDBRANCH   5   6
ENDBRANCH   4   5
ENDBRANCH   3   4
ENDBRANCH   2   3
ENDBRANCH   1   2
BRANCH   1  17
ATOM     17  C   UNL     1     130.023 130.357 133.958  1.00  0.00     0.000 C 
BRANCH  17  18
ATOM     18  C   UNL     1     130.489 129.233 134.902  1.00  0.00     0.000 C 
BRANCH  18  19
ATOM     19  C   UNL     1     131.498 129.731 135.958  1.00  0.00     0.000 C 
BRANCH  19  20
ATOM     20  C   UNL     1     130.990 129.697 137.416  1.00  0.00     0.000 C 
BRANCH  20  21
ATOM     21  C   UNL     1     130.916 131.065 138.126  1.00  0.00     0.000 C 
BRANCH  21  22
ATOM     22  C   UNL     1     129.642 131.283 138.964  1.00  0.00    -0.000 C 
BRANCH  22  23
ATOM     23  C   UNL     1     128.359 131.057 138.149  1.00  0.00    -0.000 C 
BRANCH  23  24
ATOM     24  C   UNL     1     127.414 130.036 138.809  1.00  0.00    -0.000 C 
BRANCH  24  25
ATOM     25  C   UNL     1     126.975 128.882 137.882  1.00  0.00    -0.000 C 
BRANCH  25  26
ATOM     26  C   UNL     1     127.513 128.952 136.437  1.00  0.00    -0.000 C 
BRANCH  26  27
ATOM     27  C   UNL     1     126.572 128.390 135.352  1.00  0.00    -0.000 C 
BRANCH  27  28
ATOM     28  C   UNL     1     126.991 127.023 134.781  1.00  0.00    -0.000 C 
BRANCH  28  29
ATOM     29  C   UNL     1     128.183 126.412 135.531  1.00  0.00    -0.003 C 
ATOM     30  C   UNL     1     127.906 124.957 135.899  1.00  0.00     0.004 C 
ENDBRANCH  28  29
ENDBRANCH  27  28
ENDBRANCH  26  27
ENDBRANCH  25  26
ENDBRANCH  24  25
ENDBRANCH  23  24
ENDBRANCH  22  23
ENDBRANCH  21  22
ENDBRANCH  20  21
ENDBRANCH  19  20
ENDBRANCH  18  19
ENDBRANCH  17  18
ENDBRANCH   1  17
TORSDOF 26
ENDMDL
MODEL 2
REMARK VINA RESULT:    -4.246      2.306      8.696
REMARK INTER + INTRA:         -14.369
REMARK INTER:                 -11.961
REMARK INTRA:                  -2.408
REMARK UNBOUND:                -3.668
REMARK SMILES CCCCCCCCCCCCCCCCCCCCCCCCCCCC(=O)[O-]
REMARK SMILES IDX 15 1 16 2 17 3 18 4 19 5 20 6 21 7 22 8 23 9 24 10 25 11
REMARK SMILES IDX 26 12 27 13 28 14 29 15 30 16 14 17 13 18 12 19 11 20 10 21
REMARK SMILES IDX 9 22 8 23 7 24 6 25 5 26 4 27 3 28 2 29 1 30
REMARK H PARENT
REMARK Flexibility Score: inf
ROOT
ATOM      1  C   UNL     1     131.481 133.383 134.676  1.00  0.00     0.000 C 
ENDROOT
BRANCH   1   2
ATOM      2  C   UNL     1     130.628 132.178 134.250  1.00  0.00     0.000 C 
BRANCH   2   3
ATOM      3  C   UNL     1     129.371 132.061 135.127  1.00  0.00     0.000 C 
BRANCH   3   4
ATOM      4  C   UNL     1     129.475 130.949 136.184  1.00  0.00     0.000 C 
BRANCH   4   5
ATOM      5  C   UNL     1     128.938 131.328 137.575  1.00  0.00     0.000 C 
BRANCH   5   6
ATOM      6  C   UNL     1     128.240 130.163 138.291  1.00  0.00     0.000 C 
BRANCH   6   7
ATOM      7  C   UNL     1     127.295 129.427 137.330  1.00  0.00     0.000 C 
BRANCH   7   8
ATOM      8  C   UNL     1     127.004 127.984 137.771  1.00  0.00     0.000 C 
BRANCH   8   9
ATOM      9  C   UNL     1     128.248 127.081 137.704  1.00  0.00     0.000 C 
BRANCH   9  10
ATOM     10  C   UNL     1     128.435 126.445 136.310  1.00  0.00     0.000 C 
BRANCH  10  11
ATOM     11  C   UNL     1     127.697 125.106 136.143  1.00  0.00     0.000 C 
BRANCH  11  12
ATOM     12  C   UNL     1     126.835 125.052 134.872  1.00  0.00     0.006 C 
BRANCH  12  13
ATOM     13  C   UNL     1     125.631 126.002 134.949  1.00  0.00     0.053 C 
BRANCH  13  14
ATOM     14  C   UNL     1     125.753 127.122 133.964  1.00  0.00     0.041 C 
ATOM     15  O   UNL     1     126.613 127.068 133.045  1.00  0.00    -0.550 OA
ATOM     16  O   UNL     1     124.871 128.195 134.017  1.00  0.00    -0.550 OA
ENDBRANCH  13  14
ENDBRANCH  12  13
ENDBRANCH  11  12
ENDBRANCH  10  11
ENDBRANCH   9  10
ENDBRANCH   8   9
ENDBRANCH   7   8
ENDBRANCH   6   7
ENDBRANCH   5   6
ENDBRANCH   4   5
ENDBRANCH   3   4
ENDBRANCH   2   3
ENDBRANCH   1   2
BRANCH   1  17
ATOM     17  C   UNL     1     132.274 134.000 133.512  1.00  0.00     0.000 C 
BRANCH  17  18
ATOM     18  C   UNL     1     133.276 135.073 133.977  1.00  0.00     0.000 C 
BRANCH  18  19
ATOM     19  C   UNL     1     133.510 136.163 132.910  1.00  0.00     0.000 C 
BRANCH  19  20
ATOM     20  C   UNL     1     132.660 137.442 133.084  1.00  0.00     0.000 C 
BRANCH  20  21
ATOM     21  C   UNL     1     132.143 138.078 131.777  1.00  0.00     0.000 C 
BRANCH  21  22
ATOM     22  C   UNL     1     130.675 137.752 131.443  1.00  0.00    -0.000 C 
BRANCH  22  23
ATOM     23  C   UNL     1     130.534 136.959 130.135  1.00  0.00    -0.000 C 
BRANCH  23  24
ATOM     24  C   UNL     1     130.217 135.472 130.379  1.00  0.00    -0.000 C 
BRANCH  24  25
ATOM     25  C   UNL     1     131.405 134.518 130.125  1.00  0.00    -0.000 C 
BRANCH  25  26
ATOM     26  C   UNL     1     131.026 133.104 129.635  1.00  0.00    -0.000 C 
BRANCH  26  27
ATOM     27  C   UNL     1     130.272 133.049 128.291  1.00  0.00    -0.000 C 
BRANCH  27  28
ATOM     28  C   UNL     1     129.527 131.728 128.023  1.00  0.00    -0.000 C 
BRANCH  28  29
ATOM     29  C   UNL     1     128.020 131.934 127.819  1.00  0.00    -0.003 C 
ATOM     30  C   UNL     1     127.641 133.400 128.012  1.00  0.00     0.004 C 
ENDBRANCH  28  29
ENDBRANCH  27  28
ENDBRANCH  26  27
ENDBRANCH  25  26
ENDBRANCH  24  25
ENDBRANCH  23  24
ENDBRANCH  22  23
ENDBRANCH  21  22
ENDBRANCH  20  21
ENDBRANCH  19  20
ENDBRANCH  18  19
ENDBRANCH  17  18
ENDBRANCH   1  17
TORSDOF 26
ENDMDL
MODEL 3
REMARK VINA RESULT:    -4.127      5.976     11.577
REMARK INTER + INTRA:         -14.067
REMARK INTER:                 -10.308
REMARK INTRA:                  -3.759
REMARK UNBOUND:                -3.668
REMARK SMILES CCCCCCCCCCCCCCCCCCCCCCCCCCCC(=O)[O-]
REMARK SMILES IDX 15 1 16 2 17 3 18 4 19 5 20 6 21 7 22 8 23 9 24 10 25 11
REMARK SMILES IDX 26 12 27 13 28 14 29 15 30 16 14 17 13 18 12 19 11 20 10 21
REMARK SMILES IDX 9 22 8 23 7 24 6 25 5 26 4 27 3 28 2 29 1 30
REMARK H PARENT
REMARK Flexibility Score: inf
ROOT
ATOM      1  C   UNL     1     125.008 122.700 135.186  1.00  0.00     0.000 C 
ENDROOT
BRANCH   1   2
ATOM      2  C   UNL     1     124.607 121.994 136.491  1.00  0.00     0.000 C 
BRANCH   2   3
ATOM      3  C   UNL     1     123.479 122.760 137.201  1.00  0.00     0.000 C 
BRANCH   3   4
ATOM      4  C   UNL     1     123.998 123.819 138.188  1.00  0.00     0.000 C 
BRANCH   4   5
ATOM      5  C   UNL     1     123.932 125.268 137.674  1.00  0.00     0.000 C 
BRANCH   5   6
ATOM      6  C   UNL     1     125.050 126.159 138.234  1.00  0.00     0.000 C 
BRANCH   6   7
ATOM      7  C   UNL     1     126.247 125.308 138.680  1.00  0.00     0.000 C 
BRANCH   7   8
ATOM      8  C   UNL     1     127.498 125.542 137.819  1.00  0.00     0.000 C 
BRANCH   8   9
ATOM      9  C   UNL     1     127.522 124.660 136.557  1.00  0.00     0.000 C 
BRANCH   9  10
ATOM     10  C   UNL     1     127.638 125.494 135.263  1.00  0.00     0.000 C 
BRANCH  10  11
ATOM     11  C   UNL     1     126.281 125.974 134.720  1.00  0.00     0.000 C 
BRANCH  11  12
ATOM     12  C   UNL     1     126.073 127.488 134.886  1.00  0.00     0.006 C 
BRANCH  12  13
ATOM     13  C   UNL     1     127.403 128.252 134.954  1.00  0.00     0.053 C 
BRANCH  13  14
ATOM     14  C   UNL     1     127.367 129.325 135.997  1.00  0.00     0.041 C 
ATOM     15  O   UNL     1     127.158 129.029 137.204  1.00  0.00    -0.550 OA
ATOM     16  O   UNL     1     127.632 130.644 135.648  1.00  0.00    -0.550 OA
ENDBRANCH  13  14
ENDBRANCH  12  13
ENDBRANCH  11  12
ENDBRANCH  10  11
ENDBRANCH   9  10
ENDBRANCH   8   9
ENDBRANCH   7   8
ENDBRANCH   6   7
ENDBRANCH   5   6
ENDBRANCH   4   5
ENDBRANCH   3   4
ENDBRANCH   2   3
ENDBRANCH   1   2
BRANCH   1  17
ATOM     17  C   UNL     1     123.808 123.006 134.275  1.00  0.00     0.000 C 
BRANCH  17  18
ATOM     18  C   UNL     1     123.904 122.302 132.908  1.00  0.00     0.000 C 
BRANCH  18  19
ATOM     19  C   UNL     1     122.518 121.944 132.331  1.00  0.00     0.000 C 
BRANCH  19  20
ATOM     20  C   UNL     1     122.092 120.471 132.520  1.00  0.00     0.000 C 
BRANCH  20  21
ATOM     21  C   UNL     1     123.233 119.487 132.850  1.00  0.00     0.000 C 
BRANCH  21  22
ATOM     22  C   UNL     1     123.497 118.426 131.764  1.00  0.00    -0.000 C 
BRANCH  22  23
ATOM     23  C   UNL     1     124.995 118.254 131.467  1.00  0.00    -0.000 C 
BRANCH  23  24
ATOM     24  C   UNL     1     125.408 118.902 130.133  1.00  0.00    -0.000 C 
BRANCH  24  25
ATOM     25  C   UNL     1     125.708 120.414 130.226  1.00  0.00    -0.000 C 
BRANCH  25  26
ATOM     26  C   UNL     1     124.670 121.337 129.553  1.00  0.00    -0.000 C 
BRANCH  26  27
ATOM     27  C   UNL     1     125.183 122.741 129.170  1.00  0.00    -0.000 C 
BRANCH  27  28
ATOM     28  C   UNL     1     126.269 122.754 128.077  1.00  0.00    -0.000 C 
BRANCH  28  29
ATOM     29  C   UNL     1     127.054 124.072 128.045  1.00  0.00    -0.003 C 
ATOM     30  C   UNL     1     126.938 124.741 126.678  1.00  0.00     0.004 C 
ENDBRANCH  28  29
ENDBRANCH  27  28
ENDBRANCH  26  27
ENDBRANCH  25  26
ENDBRANCH  24  25
ENDBRANCH  23  24
ENDBRANCH  22  23
ENDBRANCH  21  22
ENDBRANCH  20  21
ENDBRANCH  19  20
ENDBRANCH  18  19
ENDBRANCH  17  18
ENDBRANCH   1  17
TORSDOF 26
ENDMDL
MODEL 4
REMARK VINA RESULT:    -4.126      6.383     11.898
REMARK INTER + INTRA:         -14.065
REMARK INTER:                  -9.991
REMARK INTRA:                  -4.075
REMARK UNBOUND:                -3.668
REMARK SMILES CCCCCCCCCCCCCCCCCCCCCCCCCCCC(=O)[O-]
REMARK SMILES IDX 15 1 16 2 17 3 18 4 19 5 20 6 21 7 22 8 23 9 24 10 25 11
REMARK SMILES IDX 26 12 27 13 28 14 29 15 30 16 14 17 13 18 12 19 11 20 10 21
REMARK SMILES IDX 9 22 8 23 7 24 6 25 5 26 4 27 3 28 2 29 1 30
REMARK H PARENT
REMARK Flexibility Score: inf
ROOT
ATOM      1  C   UNL     1     121.697 122.705 133.999  1.00  0.00     0.000 C 
ENDROOT
BRANCH   1   2
ATOM      2  C   UNL     1     120.668 122.121 133.018  1.00  0.00     0.000 C 
BRANCH   2   3
ATOM      3  C   UNL     1     121.341 121.146 132.038  1.00  0.00     0.000 C 
BRANCH   3   4
ATOM      4  C   UNL     1     120.727 119.737 132.072  1.00  0.00     0.000 C 
BRANCH   4   5
ATOM      5  C   UNL     1     121.683 118.627 132.541  1.00  0.00     0.000 C 
BRANCH   5   6
ATOM      6  C   UNL     1     123.161 119.039 132.480  1.00  0.00     0.000 C 
BRANCH   6   7
ATOM      7  C   UNL     1     123.991 117.970 131.753  1.00  0.00     0.000 C 
BRANCH   7   8
ATOM      8  C   UNL     1     125.340 118.504 131.248  1.00  0.00     0.000 C 
BRANCH   8   9
ATOM      9  C   UNL     1     125.199 119.368 129.982  1.00  0.00     0.000 C 
BRANCH   9  10
ATOM     10  C   UNL     1     125.699 120.812 130.199  1.00  0.00     0.000 C 
BRANCH  10  11
ATOM     11  C   UNL     1     124.564 121.837 130.359  1.00  0.00     0.000 C 
BRANCH  11  12
ATOM     12  C   UNL     1     124.735 123.065 129.450  1.00  0.00     0.006 C 
BRANCH  12  13
ATOM     13  C   UNL     1     125.658 122.778 128.257  1.00  0.00     0.053 C 
BRANCH  13  14
ATOM     14  C   UNL     1     126.674 123.862 128.077  1.00  0.00     0.041 C 
ATOM     15  O   UNL     1     127.887 123.571 127.903  1.00  0.00    -0.550 OA
ATOM     16  O   UNL     1     126.273 125.192 128.031  1.00  0.00    -0.550 OA
ENDBRANCH  13  14
ENDBRANCH  12  13
ENDBRANCH  11  12
ENDBRANCH  10  11
ENDBRANCH   9  10
ENDBRANCH   8   9
ENDBRANCH   7   8
ENDBRANCH   6   7
ENDBRANCH   5   6
ENDBRANCH   4   5
ENDBRANCH   3   4
ENDBRANCH   2   3
ENDBRANCH   1   2
BRANCH   1  17
ATOM     17  C   UNL     1     123.121 122.749 133.422  1.00  0.00     0.000 C 
BRANCH  17  18
ATOM     18  C   UNL     1     124.160 122.087 134.347  1.00  0.00     0.000 C 
BRANCH  18  19
ATOM     19  C   UNL     1     123.508 121.373 135.550  1.00  0.00     0.000 C 
BRANCH  19  20
ATOM     20  C   UNL     1     124.197 121.622 136.910  1.00  0.00     0.000 C 
BRANCH  20  21
ATOM     21  C   UNL     1     123.503 122.650 137.828  1.00  0.00     0.000 C 
BRANCH  21  22
ATOM     22  C   UNL     1     124.089 124.072 137.753  1.00  0.00    -0.000 C 
BRANCH  22  23
ATOM     23  C   UNL     1     123.455 124.908 136.629  1.00  0.00    -0.000 C 
BRANCH  23  24
ATOM     24  C   UNL     1     124.408 125.991 136.092  1.00  0.00    -0.000 C 
BRANCH  24  25
ATOM     25  C   UNL     1     125.201 125.574 134.834  1.00  0.00    -0.000 C 
BRANCH  25  26
ATOM     26  C   UNL     1     126.653 125.116 135.088  1.00  0.00    -0.000 C 
BRANCH  26  27
ATOM     27  C   UNL     1     127.657 126.242 135.409  1.00  0.00    -0.000 C 
BRANCH  27  28
ATOM     28  C   UNL     1     127.481 127.520 134.567  1.00  0.00    -0.000 C 
BRANCH  28  29
ATOM     29  C   UNL     1     127.286 128.772 135.433  1.00  0.00    -0.003 C 
ATOM     30  C   UNL     1     127.087 128.394 136.898  1.00  0.00     0.004 C 
ENDBRANCH  28  29
ENDBRANCH  27  28
ENDBRANCH  26  27
ENDBRANCH  25  26
ENDBRANCH  24  25
ENDBRANCH  23  24
ENDBRANCH  22  23
ENDBRANCH  21  22
ENDBRANCH  20  21
ENDBRANCH  19  20
ENDBRANCH  18  19
ENDBRANCH  17  18
ENDBRANCH   1  17
TORSDOF 26
ENDMDL
MODEL 5
REMARK VINA RESULT:    -4.094      2.598      8.033
REMARK INTER + INTRA:         -13.985
REMARK INTER:                 -10.482
REMARK INTRA:                  -3.504
REMARK UNBOUND:                -3.668
REMARK SMILES CCCCCCCCCCCCCCCCCCCCCCCCCCCC(=O)[O-]
REMARK SMILES IDX 15 1 16 2 17 3 18 4 19 5 20 6 21 7 22 8 23 9 24 10 25 11
REMARK SMILES IDX 26 12 27 13 28 14 29 15 30 16 14 17 13 18 12 19 11 20 10 21
REMARK SMILES IDX 9 22 8 23 7 24 6 25 5 26 4 27 3 28 2 29 1 30
REMARK H PARENT
REMARK Flexibility Score: inf
ROOT
ATOM      1  C   UNL     1     131.355 132.884 133.599  1.00  0.00     0.000 C 
ENDROOT
BRANCH   1   2
ATOM      2  C   UNL     1     132.197 132.662 134.866  1.00  0.00     0.000 C 
BRANCH   2   3
ATOM      3  C   UNL     1     131.353 132.013 135.975  1.00  0.00     0.000 C 
BRANCH   3   4
ATOM      4  C   UNL     1     130.216 132.918 136.475  1.00  0.00     0.000 C 
BRANCH   4   5
ATOM      5  C   UNL     1     130.148 133.084 138.003  1.00  0.00     0.000 C 
BRANCH   5   6
ATOM      6  C   UNL     1     130.421 131.779 138.764  1.00  0.00     0.000 C 
BRANCH   6   7
ATOM      7  C   UNL     1     129.109 131.030 139.041  1.00  0.00     0.000 C 
BRANCH   7   8
ATOM      8  C   UNL     1     128.889 129.843 138.091  1.00  0.00     0.000 C 
BRANCH   8   9
ATOM      9  C   UNL     1     127.597 129.976 137.265  1.00  0.00     0.000 C 
BRANCH   9  10
ATOM     10  C   UNL     1     127.880 130.101 135.753  1.00  0.00     0.000 C 
BRANCH  10  11
ATOM     11  C   UNL     1     129.146 129.353 135.303  1.00  0.00     0.000 C 
BRANCH  11  12
ATOM     12  C   UNL     1     128.852 127.938 134.781  1.00  0.00     0.006 C 
BRANCH  12  13
ATOM     13  C   UNL     1     127.691 127.921 133.776  1.00  0.00     0.053 C 
BRANCH  13  14
ATOM     14  C   UNL     1     126.599 126.996 134.215  1.00  0.00     0.041 C 
ATOM     15  O   UNL     1     126.052 127.148 135.340  1.00  0.00    -0.550 OA
ATOM     16  O   UNL     1     126.136 126.008 133.354  1.00  0.00    -0.550 OA
ENDBRANCH  13  14
ENDBRANCH  12  13
ENDBRANCH  11  12
ENDBRANCH  10  11
ENDBRANCH   9  10
ENDBRANCH   8   9
ENDBRANCH   7   8
ENDBRANCH   6   7
ENDBRANCH   5   6
ENDBRANCH   4   5
ENDBRANCH   3   4
ENDBRANCH   2   3
ENDBRANCH   1   2
BRANCH   1  17
ATOM     17  C   UNL     1     131.699 134.193 132.870  1.00  0.00     0.000 C 
BRANCH  17  18
ATOM     18  C   UNL     1     133.137 134.208 132.318  1.00  0.00     0.000 C 
BRANCH  18  19
ATOM     19  C   UNL     1     133.894 135.503 132.680  1.00  0.00     0.000 C 
BRANCH  19  20
ATOM     20  C   UNL     1     133.276 136.322 133.834  1.00  0.00     0.000 C 
BRANCH  20  21
ATOM     21  C   UNL     1     132.920 137.784 133.495  1.00  0.00     0.000 C 
BRANCH  21  22
ATOM     22  C   UNL     1     132.656 138.048 132.000  1.00  0.00    -0.000 C 
BRANCH  22  23
ATOM     23  C   UNL     1     131.180 137.848 131.622  1.00  0.00    -0.000 C 
BRANCH  23  24
ATOM     24  C   UNL     1     131.005 136.916 130.409  1.00  0.00    -0.000 C 
BRANCH  24  25
ATOM     25  C   UNL     1     129.622 136.234 130.324  1.00  0.00    -0.000 C 
BRANCH  25  26
ATOM     26  C   UNL     1     129.621 134.811 129.727  1.00  0.00    -0.000 C 
BRANCH  26  27
ATOM     27  C   UNL     1     131.010 134.238 129.379  1.00  0.00    -0.000 C 
BRANCH  27  28
ATOM     28  C   UNL     1     130.983 132.951 128.533  1.00  0.00    -0.000 C 
BRANCH  28  29
ATOM     29  C   UNL     1     129.561 132.552 128.115  1.00  0.00    -0.003 C 
ATOM     30  C   UNL     1     129.387 131.036 128.155  1.00  0.00     0.004 C 
ENDBRANCH  28  29
ENDBRANCH  27  28
ENDBRANCH  26  27
ENDBRANCH  25  26
ENDBRANCH  24  25
ENDBRANCH  23  24
ENDBRANCH  22  23
ENDBRANCH  21  22
ENDBRANCH  20  21
ENDBRANCH  19  20
ENDBRANCH  18  19
ENDBRANCH  17  18
ENDBRANCH   1  17
TORSDOF 26
ENDMDL
MODEL 6
REMARK VINA RESULT:    -4.091      1.825      3.866
REMARK INTER + INTRA:         -13.978
REMARK INTER:                 -10.323
REMARK INTRA:                  -3.655
REMARK UNBOUND:                -3.668
REMARK SMILES CCCCCCCCCCCCCCCCCCCCCCCCCCCC(=O)[O-]
REMARK SMILES IDX 15 1 16 2 17 3 18 4 19 5 20 6 21 7 22 8 23 9 24 10 25 11
REMARK SMILES IDX 26 12 27 13 28 14 29 15 30 16 14 17 13 18 12 19 11 20 10 21
REMARK SMILES IDX 9 22 8 23 7 24 6 25 5 26 4 27 3 28 2 29 1 30
REMARK H PARENT
REMARK Flexibility Score: inf
ROOT
ATOM      1  C   UNL     1     128.371 131.307 136.594  1.00  0.00     0.000 C 
ENDROOT
BRANCH   1   2
ATOM      2  C   UNL     1     129.735 131.993 136.771  1.00  0.00     0.000 C 
BRANCH   2   3
ATOM      3  C   UNL     1     130.832 131.232 136.009  1.00  0.00     0.000 C 
BRANCH   3   4
ATOM      4  C   UNL     1     130.721 131.384 134.483  1.00  0.00     0.000 C 
BRANCH   4   5
ATOM      5  C   UNL     1     130.746 132.837 133.975  1.00  0.00     0.000 C 
BRANCH   5   6
ATOM      6  C   UNL     1     132.159 133.331 133.634  1.00  0.00     0.000 C 
BRANCH   6   7
ATOM      7  C   UNL     1     132.562 134.494 134.552  1.00  0.00     0.000 C 
BRANCH   7   8
ATOM      8  C   UNL     1     132.946 135.762 133.775  1.00  0.00     0.000 C 
BRANCH   8   9
ATOM      9  C   UNL     1     132.719 135.620 132.259  1.00  0.00     0.000 C 
BRANCH   9  10
ATOM     10  C   UNL     1     132.087 136.886 131.642  1.00  0.00     0.000 C 
BRANCH  10  11
ATOM     11  C   UNL     1     130.793 136.605 130.858  1.00  0.00     0.000 C 
BRANCH  11  12
ATOM     12  C   UNL     1     130.418 135.115 130.837  1.00  0.00     0.006 C 
BRANCH  12  13
ATOM     13  C   UNL     1     130.286 134.572 129.407  1.00  0.00     0.053 C 
BRANCH  13  14
ATOM     14  C   UNL     1     130.864 133.197 129.286  1.00  0.00     0.041 C 
ATOM     15  O   UNL     1     131.505 132.692 130.246  1.00  0.00    -0.550 OA
ATOM     16  O   UNL     1     130.638 132.445 128.139  1.00  0.00    -0.550 OA
ENDBRANCH  13  14
ENDBRANCH  12  13
ENDBRANCH  11  12
ENDBRANCH  10  11
ENDBRANCH   9  10
ENDBRANCH   8   9
ENDBRANCH   7   8
ENDBRANCH   6   7
ENDBRANCH   5   6
ENDBRANCH   4   5
ENDBRANCH   3   4
ENDBRANCH   2   3
ENDBRANCH   1   2
BRANCH   1  17
ATOM     17  C   UNL     1     128.048 130.311 137.720  1.00  0.00     0.000 C 
BRANCH  17  18
ATOM     18  C   UNL     1     127.806 128.882 137.200  1.00  0.00     0.000 C 
BRANCH  18  19
ATOM     19  C   UNL     1     129.112 128.180 136.775  1.00  0.00     0.000 C 
BRANCH  19  20
ATOM     20  C   UNL     1     129.090 127.557 135.361  1.00  0.00     0.000 C 
BRANCH  20  21
ATOM     21  C   UNL     1     128.314 128.359 134.295  1.00  0.00     0.000 C 
BRANCH  21  22
ATOM     22  C   UNL     1     127.138 127.598 133.654  1.00  0.00    -0.000 C 
BRANCH  22  23
ATOM     23  C   UNL     1     125.871 127.640 134.524  1.00  0.00    -0.000 C 
BRANCH  23  24
ATOM     24  C   UNL     1     125.450 126.243 135.017  1.00  0.00    -0.000 C 
BRANCH  24  25
ATOM     25  C   UNL     1     126.273 125.082 134.418  1.00  0.00    -0.000 C 
BRANCH  25  26
ATOM     26  C   UNL     1     127.058 124.230 135.438  1.00  0.00    -0.000 C 
BRANCH  26  27
ATOM     27  C   UNL     1     126.630 124.400 136.910  1.00  0.00    -0.000 C 
BRANCH  27  28
ATOM     28  C   UNL     1     127.646 125.149 137.794  1.00  0.00    -0.000 C 
BRANCH  28  29
ATOM     29  C   UNL     1     127.587 124.705 139.262  1.00  0.00    -0.003 C 
ATOM     30  C   UNL     1     126.604 123.552 139.443  1.00  0.00     0.004 C 
ENDBRANCH  28  29
ENDBRANCH  27  28
ENDBRANCH  26  27
ENDBRANCH  25  26
ENDBRANCH  24  25
ENDBRANCH  23  24
ENDBRANCH  22  23
ENDBRANCH  21  22
ENDBRANCH  20  21
ENDBRANCH  19  20
ENDBRANCH  18  19
ENDBRANCH  17  18
ENDBRANCH   1  17
TORSDOF 26
ENDMDL
MODEL 7
REMARK VINA RESULT:    -4.075      1.547      2.925
REMARK INTER + INTRA:         -13.936
REMARK INTER:                 -10.963
REMARK INTRA:                  -2.973
REMARK UNBOUND:                -3.668
REMARK SMILES CCCCCCCCCCCCCCCCCCCCCCCCCCCC(=O)[O-]
REMARK SMILES IDX 15 1 16 2 17 3 18 4 19 5 20 6 21 7 22 8 23 9 24 10 25 11
REMARK SMILES IDX 26 12 27 13 28 14 29 15 30 16 14 17 13 18 12 19 11 20 10 21
REMARK SMILES IDX 9 22 8 23 7 24 6 25 5 26 4 27 3 28 2 29 1 30
REMARK H PARENT
REMARK Flexibility Score: inf
ROOT
ATOM      1  C   UNL     1     132.080 134.386 134.459  1.00  0.00     0.000 C 
ENDROOT
BRANCH   1   2
ATOM      2  C   UNL     1     133.429 135.032 134.105  1.00  0.00     0.000 C 
BRANCH   2   3
ATOM      3  C   UNL     1     133.660 135.015 132.586  1.00  0.00     0.000 C 
BRANCH   3   4
ATOM      4  C   UNL     1     133.751 136.423 131.974  1.00  0.00     0.000 C 
BRANCH   4   5
ATOM      5  C   UNL     1     133.130 137.539 132.832  1.00  0.00     0.000 C 
BRANCH   5   6
ATOM      6  C   UNL     1     131.705 137.912 132.398  1.00  0.00     0.000 C 
BRANCH   6   7
ATOM      7  C   UNL     1     131.499 137.612 130.906  1.00  0.00     0.000 C 
BRANCH   7   8
ATOM      8  C   UNL     1     130.195 136.848 130.627  1.00  0.00     0.000 C 
BRANCH   8   9
ATOM      9  C   UNL     1     130.319 135.340 130.911  1.00  0.00     0.000 C 
BRANCH   9  10
ATOM     10  C   UNL     1     131.254 134.631 129.909  1.00  0.00     0.000 C 
BRANCH  10  11
ATOM     11  C   UNL     1     131.343 133.111 130.123  1.00  0.00     0.000 C 
BRANCH  11  12
ATOM     12  C   UNL     1     131.225 132.314 128.814  1.00  0.00     0.006 C 
BRANCH  12  13
ATOM     13  C   UNL     1     129.919 131.510 128.741  1.00  0.00     0.053 C 
BRANCH  13  14
ATOM     14  C   UNL     1     128.932 132.149 127.815  1.00  0.00     0.041 C 
ATOM     15  O   UNL     1     128.457 133.286 128.081  1.00  0.00    -0.550 OA
ATOM     16  O   UNL     1     128.586 131.522 126.625  1.00  0.00    -0.550 OA
ENDBRANCH  13  14
ENDBRANCH  12  13
ENDBRANCH  11  12
ENDBRANCH  10  11
ENDBRANCH   9  10
ENDBRANCH   8   9
ENDBRANCH   7   8
ENDBRANCH   6   7
ENDBRANCH   5   6
ENDBRANCH   4   5
ENDBRANCH   3   4
ENDBRANCH   2   3
ENDBRANCH   1   2
BRANCH   1  17
ATOM     17  C   UNL     1     131.908 132.984 133.852  1.00  0.00     0.000 C 
BRANCH  17  18
ATOM     18  C   UNL     1     131.343 131.964 134.858  1.00  0.00     0.000 C 
BRANCH  18  19
ATOM     19  C   UNL     1     129.848 132.197 135.159  1.00  0.00     0.000 C 
BRANCH  19  20
ATOM     20  C   UNL     1     129.467 132.156 136.655  1.00  0.00     0.000 C 
BRANCH  20  21
ATOM     21  C   UNL     1     128.713 130.890 137.114  1.00  0.00     0.000 C 
BRANCH  21  22
ATOM     22  C   UNL     1     127.838 130.238 136.027  1.00  0.00    -0.000 C 
BRANCH  22  23
ATOM     23  C   UNL     1     128.621 129.229 135.173  1.00  0.00    -0.000 C 
BRANCH  23  24
ATOM     24  C   UNL     1     129.158 128.048 136.002  1.00  0.00    -0.000 C 
BRANCH  24  25
ATOM     25  C   UNL     1     128.200 127.562 137.111  1.00  0.00    -0.000 C 
BRANCH  25  26
ATOM     26  C   UNL     1     127.666 126.123 136.942  1.00  0.00    -0.000 C 
BRANCH  26  27
ATOM     27  C   UNL     1     127.860 125.505 135.543  1.00  0.00    -0.000 C 
BRANCH  27  28
ATOM     28  C   UNL     1     126.553 125.174 134.798  1.00  0.00    -0.000 C 
BRANCH  28  29
ATOM     29  C   UNL     1     126.303 126.105 133.605  1.00  0.00    -0.003 C 
ATOM     30  C   UNL     1     125.643 127.404 134.058  1.00  0.00     0.004 C 
ENDBRANCH  28  29
ENDBRANCH  27  28
ENDBRANCH  26  27
ENDBRANCH  25  26
ENDBRANCH  24  25
ENDBRANCH  23  24
ENDBRANCH  22  23
ENDBRANCH  21  22
ENDBRANCH  20  21
ENDBRANCH  19  20
ENDBRANCH  18  19
ENDBRANCH  17  18
ENDBRANCH   1  17
TORSDOF 26
ENDMDL
MODEL 8
REMARK VINA RESULT:    -4.059      5.414     10.786
REMARK INTER + INTRA:         -13.897
REMARK INTER:                 -10.460
REMARK INTRA:                  -3.438
REMARK UNBOUND:                -3.668
REMARK SMILES CCCCCCCCCCCCCCCCCCCCCCCCCCCC(=O)[O-]
REMARK SMILES IDX 15 1 16 2 17 3 18 4 19 5 20 6 21 7 22 8 23 9 24 10 25 11
REMARK SMILES IDX 26 12 27 13 28 14 29 15 30 16 14 17 13 18 12 19 11 20 10 21
REMARK SMILES IDX 9 22 8 23 7 24 6 25 5 26 4 27 3 28 2 29 1 30
REMARK H PARENT
REMARK Flexibility Score: inf
ROOT
ATOM      1  C   UNL     1     124.882 122.965 135.418  1.00  0.00     0.000 C 
ENDROOT
BRANCH   1   2
ATOM      2  C   UNL     1     123.660 122.643 134.543  1.00  0.00     0.000 C 
BRANCH   2   3
ATOM      3  C   UNL     1     124.098 122.139 133.158  1.00  0.00     0.000 C 
BRANCH   3   4
ATOM      4  C   UNL     1     123.090 121.166 132.525  1.00  0.00     0.000 C 
BRANCH   4   5
ATOM      5  C   UNL     1     123.143 119.732 133.079  1.00  0.00     0.000 C 
BRANCH   5   6
ATOM      6  C   UNL     1     123.179 118.661 131.979  1.00  0.00     0.000 C 
BRANCH   6   7
ATOM      7  C   UNL     1     124.629 118.296 131.627  1.00  0.00     0.000 C 
BRANCH   7   8
ATOM      8  C   UNL     1     125.023 118.722 130.205  1.00  0.00     0.000 C 
BRANCH   8   9
ATOM      9  C   UNL     1     126.317 119.554 130.172  1.00  0.00     0.000 C 
BRANCH   9  10
ATOM     10  C   UNL     1     126.037 121.072 130.200  1.00  0.00     0.000 C 
BRANCH  10  11
ATOM     11  C   UNL     1     124.746 121.472 129.466  1.00  0.00     0.000 C 
BRANCH  11  12
ATOM     12  C   UNL     1     124.979 122.539 128.384  1.00  0.00     0.006 C 
BRANCH  12  13
ATOM     13  C   UNL     1     125.217 123.931 128.987  1.00  0.00     0.053 C 
BRANCH  13  14
ATOM     14  C   UNL     1     126.227 124.705 128.199  1.00  0.00     0.041 C 
ATOM     15  O   UNL     1     126.391 124.468 126.972  1.00  0.00    -0.550 OA
ATOM     16  O   UNL     1     126.939 125.736 128.800  1.00  0.00    -0.550 OA
ENDBRANCH  13  14
ENDBRANCH  12  13
ENDBRANCH  11  12
ENDBRANCH  10  11
ENDBRANCH   9  10
ENDBRANCH   8   9
ENDBRANCH   7   8
ENDBRANCH   6   7
ENDBRANCH   5   6
ENDBRANCH   4   5
ENDBRANCH   3   4
ENDBRANCH   2   3
ENDBRANCH   1   2
BRANCH   1  17
ATOM     17  C   UNL     1     126.109 123.401 134.600  1.00  0.00     0.000 C 
BRANCH  17  18
ATOM     18  C   UNL     1     127.184 124.091 135.460  1.00  0.00     0.000 C 
BRANCH  18  19
ATOM     19  C   UNL     1     126.828 124.089 136.962  1.00  0.00     0.000 C 
BRANCH  19  20
ATOM     20  C   UNL     1     127.039 125.437 137.686  1.00  0.00     0.000 C 
BRANCH  20  21
ATOM     21  C   UNL     1     125.758 126.255 137.953  1.00  0.00     0.000 C 
BRANCH  21  22
ATOM     22  C   UNL     1     124.473 125.640 137.366  1.00  0.00    -0.000 C 
BRANCH  22  23
ATOM     23  C   UNL     1     123.825 126.542 136.304  1.00  0.00    -0.000 C 
BRANCH  23  24
ATOM     24  C   UNL     1     124.583 126.511 134.964  1.00  0.00    -0.000 C 
BRANCH  24  25
ATOM     25  C   UNL     1     125.256 127.847 134.582  1.00  0.00    -0.000 C 
BRANCH  25  26
ATOM     26  C   UNL     1     126.770 127.934 134.873  1.00  0.00    -0.000 C 
BRANCH  26  27
ATOM     27  C   UNL     1     127.169 128.880 136.024  1.00  0.00    -0.000 C 
BRANCH  27  28
ATOM     28  C   UNL     1     128.119 130.024 135.618  1.00  0.00    -0.000 C 
BRANCH  28  29
ATOM     29  C   UNL     1     129.118 129.601 134.533  1.00  0.00    -0.003 C 
ATOM     30  C   UNL     1     130.425 130.377 134.665  1.00  0.00     0.004 C 
ENDBRANCH  28  29
ENDBRANCH  27  28
ENDBRANCH  26  27
ENDBRANCH  25  26
ENDBRANCH  24  25
ENDBRANCH  23  24
ENDBRANCH  22  23
ENDBRANCH  21  22
ENDBRANCH  20  21
ENDBRANCH  19  20
ENDBRANCH  18  19
ENDBRANCH  17  18
ENDBRANCH   1  17
TORSDOF 26
ENDMDL
MODEL 9
REMARK VINA RESULT:    -3.989      1.423      3.719
REMARK INTER + INTRA:         -13.721
REMARK INTER:                  -9.827
REMARK INTRA:                  -3.893
REMARK UNBOUND:                -3.668
REMARK SMILES CCCCCCCCCCCCCCCCCCCCCCCCCCCC(=O)[O-]
REMARK SMILES IDX 15 1 16 2 17 3 18 4 19 5 20 6 21 7 22 8 23 9 24 10 25 11
REMARK SMILES IDX 26 12 27 13 28 14 29 15 30 16 14 17 13 18 12 19 11 20 10 21
REMARK SMILES IDX 9 22 8 23 7 24 6 25 5 26 4 27 3 28 2 29 1 30
REMARK H PARENT
REMARK Flexibility Score: inf
ROOT
ATOM      1  C   UNL     1     128.546 130.106 139.660  1.00  0.00     0.000 C 
ENDROOT
BRANCH   1   2
ATOM      2  C   UNL     1     129.521 131.265 139.924  1.00  0.00     0.000 C 
BRANCH   2   3
ATOM      3  C   UNL     1     129.785 132.060 138.635  1.00  0.00     0.000 C 
BRANCH   3   4
ATOM      4  C   UNL     1     131.247 131.977 138.165  1.00  0.00     0.000 C 
BRANCH   4   5
ATOM      5  C   UNL     1     131.448 132.165 136.651  1.00  0.00     0.000 C 
BRANCH   5   6
ATOM      6  C   UNL     1     130.209 132.730 135.943  1.00  0.00     0.000 C 
BRANCH   6   7
ATOM      7  C   UNL     1     130.341 132.580 134.420  1.00  0.00     0.000 C 
BRANCH   7   8
ATOM      8  C   UNL     1     131.766 132.849 133.916  1.00  0.00     0.000 C 
BRANCH   8   9
ATOM      9  C   UNL     1     131.812 133.917 132.808  1.00  0.00     0.000 C 
BRANCH   9  10
ATOM     10  C   UNL     1     131.701 133.302 131.397  1.00  0.00     0.000 C 
BRANCH  10  11
ATOM     11  C   UNL     1     131.037 134.236 130.371  1.00  0.00     0.000 C 
BRANCH  11  12
ATOM     12  C   UNL     1     131.036 133.656 128.948  1.00  0.00     0.006 C 
BRANCH  12  13
ATOM     13  C   UNL     1     130.660 132.168 128.928  1.00  0.00     0.053 C 
BRANCH  13  14
ATOM     14  C   UNL     1     129.454 131.917 128.080  1.00  0.00     0.041 C 
ATOM     15  O   UNL     1     129.227 130.764 127.624  1.00  0.00    -0.550 OA
ATOM     16  O   UNL     1     128.540 132.939 127.848  1.00  0.00    -0.550 OA
ENDBRANCH  13  14
ENDBRANCH  12  13
ENDBRANCH  11  12
ENDBRANCH  10  11
ENDBRANCH   9  10
ENDBRANCH   8   9
ENDBRANCH   7   8
ENDBRANCH   6   7
ENDBRANCH   5   6
ENDBRANCH   4   5
ENDBRANCH   3   4
ENDBRANCH   2   3
ENDBRANCH   1   2
BRANCH   1  17
ATOM     17  C   UNL     1     127.538 130.412 138.541  1.00  0.00     0.000 C 
BRANCH  17  18
ATOM     18  C   UNL     1     127.470 129.299 137.479  1.00  0.00     0.000 C 
BRANCH  18  19
ATOM     19  C   UNL     1     128.424 129.555 136.293  1.00  0.00     0.000 C 
BRANCH  19  20
ATOM     20  C   UNL     1     129.777 128.815 136.370  1.00  0.00     0.000 C 
BRANCH  20  21
ATOM     21  C   UNL     1     130.651 128.896 135.101  1.00  0.00     0.000 C 
BRANCH  21  22
ATOM     22  C   UNL     1     130.149 128.041 133.923  1.00  0.00    -0.000 C 
BRANCH  22  23
ATOM     23  C   UNL     1     129.069 128.759 133.098  1.00  0.00    -0.000 C 
BRANCH  23  24
ATOM     24  C   UNL     1     128.070 127.779 132.456  1.00  0.00    -0.000 C 
BRANCH  24  25
ATOM     25  C   UNL     1     126.746 127.620 133.234  1.00  0.00    -0.000 C 
BRANCH  25  26
ATOM     26  C   UNL     1     126.521 126.238 133.884  1.00  0.00    -0.000 C 
BRANCH  26  27
ATOM     27  C   UNL     1     125.479 126.202 135.021  1.00  0.00    -0.000 C 
BRANCH  27  28
ATOM     28  C   UNL     1     126.075 126.128 136.439  1.00  0.00    -0.000 C 
BRANCH  28  29
ATOM     29  C   UNL     1     127.575 125.805 136.430  1.00  0.00    -0.003 C 
ATOM     30  C   UNL     1     128.102 125.630 137.851  1.00  0.00     0.004 C 
ENDBRANCH  28  29
ENDBRANCH  27  28
ENDBRANCH  26  27
ENDBRANCH  25  26
ENDBRANCH  24  25
ENDBRANCH  23  24
ENDBRANCH  22  23
ENDBRANCH  21  22
ENDBRANCH  20  21
ENDBRANCH  19  20
ENDBRANCH  18  19
ENDBRANCH  17  18
ENDBRANCH   1  17
TORSDOF 26
ENDMDL
