MODEL 1
REMARK VINA RESULT:    -3.280      0.000      0.000
REMARK INTER + INTRA:          -3.280
REMARK INTER:                  -3.280
REMARK INTRA:                   0.000
REMARK UNBOUND:                 0.000
REMARK SMILES CC1(C)O[C@]2(C)CC[C@H]1CC2
REMARK SMILES IDX 1 1 2 2 9 3 10 4 11 5 5 6 4 7 7 8 8 9 6 10 3 11
REMARK H PARENT
REMARK Flexibility Score: inf
ROOT
ATOM      1  C   UNL     1     236.286 226.096 236.580  1.00  0.00     0.042 C 
ATOM      2  C   UNL     1     236.342 227.457 235.852  1.00  0.00     0.066 C 
ATOM      3  C   UNL     1     236.329 227.254 234.288  1.00  0.00     0.021 C 
ATOM      4  C   UNL     1     236.438 228.643 233.613  1.00  0.00     0.009 C 
ATOM      5  C   UNL     1     237.645 229.406 234.211  1.00  0.00     0.035 C 
ATOM      6  C   UNL     1     238.399 228.492 235.219  1.00  0.00     0.066 C 
ATOM      7  O   UNL     1     237.519 228.150 236.290  1.00  0.00    -0.369 OA
ATOM      8  C   UNL     1     238.844 227.192 234.489  1.00  0.00     0.035 C 
ATOM      9  C   UNL     1     237.608 226.481 233.885  1.00  0.00     0.009 C 
ATOM     10  C   UNL     1     239.617 229.223 235.793  1.00  0.00     0.042 C 
ATOM     11  C   UNL     1     235.109 228.271 236.307  1.00  0.00     0.042 C 
ENDROOT
TORSDOF 0
ENDMDL
MODEL 2
REMARK VINA RESULT:    -3.280      8.482     10.234
REMARK INTER + INTRA:          -3.280
REMARK INTER:                  -3.280
REMARK INTRA:                   0.000
REMARK UNBOUND:                 0.000
REMARK SMILES CC1(C)O[C@]2(C)CC[C@H]1CC2
REMARK SMILES IDX 1 1 2 2 9 3 10 4 11 5 5 6 4 7 7 8 8 9 6 10 3 11
REMARK H PARENT
REMARK Flexibility Score: inf
ROOT
ATOM      1  C   UNL     1     226.066 232.145 236.525  1.00  0.00     0.042 C 
ATOM      2  C   UNL     1     227.429 232.086 235.801  1.00  0.00     0.066 C 
ATOM      3  C   UNL     1     227.228 232.069 234.236  1.00  0.00     0.021 C 
ATOM      4  C   UNL     1     228.619 231.959 233.566  1.00  0.00     0.009 C 
ATOM      5  C   UNL     1     229.388 230.767 234.185  1.00  0.00     0.035 C 
ATOM      6  C   UNL     1     228.478 230.024 235.205  1.00  0.00     0.066 C 
ATOM      7  O   UNL     1     228.129 230.921 236.261  1.00  0.00    -0.369 OA
ATOM      8  C   UNL     1     227.183 229.559 234.481  1.00  0.00     0.035 C 
ATOM      9  C   UNL     1     226.464 230.778 233.855  1.00  0.00     0.009 C 
ATOM     10  C   UNL     1     229.217 228.822 235.802  1.00  0.00     0.042 C 
ATOM     11  C   UNL     1     228.233 233.332 236.235  1.00  0.00     0.042 C 
ENDROOT
TORSDOF 0
ENDMDL
MODEL 3
REMARK VINA RESULT:    -3.277     13.139     14.529
REMARK INTER + INTRA:          -3.277
REMARK INTER:                  -3.277
REMARK INTRA:                   0.000
REMARK UNBOUND:                 0.000
REMARK SMILES CC1(C)O[C@]2(C)CC[C@H]1CC2
REMARK SMILES IDX 1 1 2 2 9 3 10 4 11 5 5 6 4 7 7 8 8 9 6 10 3 11
REMARK H PARENT
REMARK Flexibility Score: inf
ROOT
ATOM      1  C   UNL     1     232.144 242.464 236.539  1.00  0.00     0.042 C 
ATOM      2  C   UNL     1     232.104 241.089 235.837  1.00  0.00     0.066 C 
ATOM      3  C   UNL     1     232.140 241.262 234.269  1.00  0.00     0.021 C 
ATOM      4  C   UNL     1     232.046 239.860 233.620  1.00  0.00     0.009 C 
ATOM      5  C   UNL     1     230.832 239.105 234.214  1.00  0.00     0.035 C 
ATOM      6  C   UNL     1     230.060 240.036 235.192  1.00  0.00     0.066 C 
ATOM      7  O   UNL     1     230.922 240.401 236.270  1.00  0.00    -0.369 OA
ATOM      8  C   UNL     1     229.623 241.320 234.430  1.00  0.00     0.035 C 
ATOM      9  C   UNL     1     230.865 242.023 233.832  1.00  0.00     0.009 C 
ATOM     10  C   UNL     1     228.835 239.311 235.762  1.00  0.00     0.042 C 
ATOM     11  C   UNL     1     233.332 240.289 236.326  1.00  0.00     0.042 C 
ENDROOT
TORSDOF 0
ENDMDL
MODEL 4
REMARK VINA RESULT:    -3.271      8.454     10.198
REMARK INTER + INTRA:          -3.271
REMARK INTER:                  -3.271
REMARK INTRA:                   0.000
REMARK UNBOUND:                 0.000
REMARK SMILES CC1(C)O[C@]2(C)CC[C@H]1CC2
REMARK SMILES IDX 1 1 2 2 9 3 10 4 11 5 5 6 4 7 7 8 8 9 6 10 3 11
REMARK H PARENT
REMARK Flexibility Score: inf
ROOT
ATOM      1  C   UNL     1     242.350 236.258 236.528  1.00  0.00     0.042 C 
ATOM      2  C   UNL     1     240.977 236.323 235.823  1.00  0.00     0.066 C 
ATOM      3  C   UNL     1     241.152 236.287 234.256  1.00  0.00     0.021 C 
ATOM      4  C   UNL     1     239.753 236.407 233.604  1.00  0.00     0.009 C 
ATOM      5  C   UNL     1     239.019 237.634 234.198  1.00  0.00     0.035 C 
ATOM      6  C   UNL     1     239.962 238.388 235.179  1.00  0.00     0.066 C 
ATOM      7  O   UNL     1     240.309 237.517 236.257  1.00  0.00    -0.369 OA
ATOM      8  C   UNL     1     241.255 238.802 234.421  1.00  0.00     0.035 C 
ATOM      9  C   UNL     1     241.937 237.548 233.822  1.00  0.00     0.009 C 
ATOM     10  C   UNL     1     239.258 239.624 235.749  1.00  0.00     0.042 C 
ATOM     11  C   UNL     1     240.154 235.110 236.309  1.00  0.00     0.042 C 
ENDROOT
TORSDOF 0
ENDMDL
MODEL 5
REMARK VINA RESULT:    -3.088      8.157     10.128
REMARK INTER + INTRA:          -3.088
REMARK INTER:                  -3.088
REMARK INTRA:                   0.000
REMARK UNBOUND:                 0.000
REMARK SMILES CC1(C)O[C@]2(C)CC[C@H]1CC2
REMARK SMILES IDX 1 1 2 2 9 3 10 4 11 5 5 6 4 7 7 8 8 9 6 10 3 11
REMARK H PARENT
REMARK Flexibility Score: inf
ROOT
ATOM      1  C   UNL     1     230.525 231.795 235.738  1.00  0.00     0.042 C 
ATOM      2  C   UNL     1     229.439 231.506 234.679  1.00  0.00     0.066 C 
ATOM      3  C   UNL     1     228.232 232.511 234.829  1.00  0.00     0.021 C 
ATOM      4  C   UNL     1     227.155 232.143 233.780  1.00  0.00     0.009 C 
ATOM      5  C   UNL     1     226.827 230.634 233.896  1.00  0.00     0.035 C 
ATOM      6  C   UNL     1     227.618 230.013 235.083  1.00  0.00     0.066 C 
ATOM      7  O   UNL     1     229.018 230.142 234.832  1.00  0.00    -0.369 OA
ATOM      8  C   UNL     1     227.260 230.781 236.387  1.00  0.00     0.035 C 
ATOM      9  C   UNL     1     227.577 232.286 236.214  1.00  0.00     0.009 C 
ATOM     10  C   UNL     1     227.277 228.526 235.230  1.00  0.00     0.042 C 
ATOM     11  C   UNL     1     230.101 231.651 233.291  1.00  0.00     0.042 C 
ENDROOT
TORSDOF 0
ENDMDL
MODEL 6
REMARK VINA RESULT:    -3.084      1.275      2.603
REMARK INTER + INTRA:          -3.084
REMARK INTER:                  -3.084
REMARK INTRA:                   0.000
REMARK UNBOUND:                 0.000
REMARK SMILES CC1(C)O[C@]2(C)CC[C@H]1CC2
REMARK SMILES IDX 1 1 2 2 9 3 10 4 11 5 5 6 4 7 7 8 8 9 6 10 3 11
REMARK H PARENT
REMARK Flexibility Score: inf
ROOT
ATOM      1  C   UNL     1     236.587 230.590 235.679  1.00  0.00     0.042 C 
ATOM      2  C   UNL     1     236.932 229.497 234.644  1.00  0.00     0.066 C 
ATOM      3  C   UNL     1     235.949 228.270 234.780  1.00  0.00     0.021 C 
ATOM      4  C   UNL     1     236.373 227.189 233.757  1.00  0.00     0.009 C 
ATOM      5  C   UNL     1     237.884 226.897 233.922  1.00  0.00     0.035 C 
ATOM      6  C   UNL     1     238.452 227.716 235.116  1.00  0.00     0.066 C 
ATOM      7  O   UNL     1     238.299 229.110 234.843  1.00  0.00    -0.369 OA
ATOM      8  C   UNL     1     237.653 227.357 236.401  1.00  0.00     0.035 C 
ATOM      9  C   UNL     1     236.147 227.638 236.179  1.00  0.00     0.009 C 
ATOM     10  C   UNL     1     239.941 227.411 235.311  1.00  0.00     0.042 C 
ATOM     11  C   UNL     1     236.813 230.139 233.244  1.00  0.00     0.042 C 
ENDROOT
TORSDOF 0
ENDMDL
MODEL 7
REMARK VINA RESULT:    -3.080      8.268      9.550
REMARK INTER + INTRA:          -3.080
REMARK INTER:                  -3.080
REMARK INTRA:                   0.000
REMARK UNBOUND:                 0.000
REMARK SMILES CC1(C)O[C@]2(C)CC[C@H]1CC2
REMARK SMILES IDX 1 1 2 2 9 3 10 4 11 5 5 6 4 7 7 8 8 9 6 10 3 11
REMARK H PARENT
REMARK Flexibility Score: inf
ROOT
ATOM      1  C   UNL     1     227.480 229.222 234.935  1.00  0.00     0.042 C 
ATOM      2  C   UNL     1     228.471 230.312 235.399  1.00  0.00     0.066 C 
ATOM      3  C   UNL     1     227.706 231.644 235.759  1.00  0.00     0.021 C 
ATOM      4  C   UNL     1     228.749 232.713 236.167  1.00  0.00     0.009 C 
ATOM      5  C   UNL     1     229.837 232.805 235.070  1.00  0.00     0.035 C 
ATOM      6  C   UNL     1     229.474 231.864 233.886  1.00  0.00     0.066 C 
ATOM      7  O   UNL     1     229.433 230.516 234.355  1.00  0.00    -0.369 OA
ATOM      8  C   UNL     1     228.072 232.258 233.339  1.00  0.00     0.035 C 
ATOM      9  C   UNL     1     227.024 232.178 234.476  1.00  0.00     0.009 C 
ATOM     10  C   UNL     1     230.527 231.971 232.777  1.00  0.00     0.042 C 
ATOM     11  C   UNL     1     229.215 229.759 236.635  1.00  0.00     0.042 C 
ENDROOT
TORSDOF 0
ENDMDL
MODEL 8
REMARK VINA RESULT:    -3.062     12.928     14.223
REMARK INTER + INTRA:          -3.062
REMARK INTER:                  -3.062
REMARK INTRA:                   0.000
REMARK UNBOUND:                 0.000
REMARK SMILES CC1(C)O[C@]2(C)CC[C@H]1CC2
REMARK SMILES IDX 1 1 2 2 9 3 10 4 11 5 5 6 4 7 7 8 8 9 6 10 3 11
REMARK H PARENT
REMARK Flexibility Score: inf
ROOT
ATOM      1  C   UNL     1     231.717 238.100 235.860  1.00  0.00     0.042 C 
ATOM      2  C   UNL     1     231.443 239.146 234.757  1.00  0.00     0.066 C 
ATOM      3  C   UNL     1     232.467 240.341 234.855  1.00  0.00     0.021 C 
ATOM      4  C   UNL     1     232.114 241.380 233.762  1.00  0.00     0.009 C 
ATOM      5  C   UNL     1     230.611 241.736 233.867  1.00  0.00     0.035 C 
ATOM      6  C   UNL     1     229.980 241.005 235.087  1.00  0.00     0.066 C 
ATOM      7  O   UNL     1     230.087 239.594 234.894  1.00  0.00    -0.369 OA
ATOM      8  C   UNL     1     230.756 241.405 236.374  1.00  0.00     0.035 C 
ATOM      9  C   UNL     1     232.256 241.057 236.211  1.00  0.00     0.009 C 
ATOM     10  C   UNL     1     228.499 241.375 235.221  1.00  0.00     0.042 C 
ATOM     11  C   UNL     1     231.574 238.424 233.397  1.00  0.00     0.042 C 
ENDROOT
TORSDOF 0
ENDMDL
MODEL 9
REMARK VINA RESULT:    -3.045      8.492     10.121
REMARK INTER + INTRA:          -3.045
REMARK INTER:                  -3.045
REMARK INTRA:                   0.000
REMARK UNBOUND:                 0.000
REMARK SMILES CC1(C)O[C@]2(C)CC[C@H]1CC2
REMARK SMILES IDX 1 1 2 2 9 3 10 4 11 5 5 6 4 7 7 8 8 9 6 10 3 11
REMARK H PARENT
REMARK Flexibility Score: inf
ROOT
ATOM      1  C   UNL     1     241.179 239.260 234.885  1.00  0.00     0.042 C 
ATOM      2  C   UNL     1     240.171 238.212 235.405  1.00  0.00     0.066 C 
ATOM      3  C   UNL     1     240.892 236.840 235.698  1.00  0.00     0.021 C 
ATOM      4  C   UNL     1     239.828 235.818 236.166  1.00  0.00     0.009 C 
ATOM      5  C   UNL     1     238.664 235.793 235.145  1.00  0.00     0.035 C 
ATOM      6  C   UNL     1     238.992 236.731 233.948  1.00  0.00     0.066 C 
ATOM      7  O   UNL     1     239.131 238.069 234.427  1.00  0.00    -0.369 OA
ATOM      8  C   UNL     1     240.333 236.277 233.303  1.00  0.00     0.035 C 
ATOM      9  C   UNL     1     241.458 236.291 234.366  1.00  0.00     0.009 C 
ATOM     10  C   UNL     1     237.862 236.689 232.914  1.00  0.00     0.042 C 
ATOM     11  C   UNL     1     239.540 238.784 236.695  1.00  0.00     0.042 C 
ENDROOT
TORSDOF 0
ENDMDL
