MODEL 1
REMARK VINA RESULT:    -5.383      0.000      0.000
REMARK INTER + INTRA:          -6.783
REMARK INTER:                  -6.484
REMARK INTRA:                  -0.299
REMARK UNBOUND:                -0.299
REMARK SMILES O=c1c(O)c(-c2ccc(O)c(O)c2)oc2cc(O)cc(O)c12
REMARK SMILES IDX 5 1 3 2 2 3 1 4 22 5 20 6 19 7 17 8 16 9 15 10 14 11 6 12
REMARK SMILES IDX 7 13 8 14 9 15 13 16 11 17 10 18 12 20 4 22 21 24 18 26
REMARK H PARENT 10 19 12 21 4 23 21 25 18 27
REMARK Flexibility Score: inf
ROOT
ATOM      1  C   UNL     1       4.527  33.323  87.131  1.00  0.00     0.180 A 
ATOM      2  C   UNL     1       5.083  32.788  85.952  1.00  0.00     0.208 A 
ATOM      3  C   UNL     1       6.412  33.100  85.627  1.00  0.00     0.238 A 
ATOM      4  O   UNL     1       6.925  32.618  84.580  1.00  0.00    -0.285 OA
ATOM      5  C   UNL     1       7.154  33.954  86.470  1.00  0.00     0.111 A 
ATOM      6  C   UNL     1       8.497  34.320  86.211  1.00  0.00     0.134 A 
ATOM      7  C   UNL     1       9.164  35.182  87.094  1.00  0.00     0.093 A 
ATOM      8  C   UNL     1       8.517  35.685  88.226  1.00  0.00     0.123 A 
ATOM      9  C   UNL     1       7.191  35.326  88.486  1.00  0.00     0.094 A 
ATOM     10  C   UNL     1       6.510  34.466  87.619  1.00  0.00     0.146 A 
ATOM     11  O   UNL     1       5.252  34.137  87.893  1.00  0.00    -0.452 OA
ENDROOT
BRANCH   1  12
ATOM     12  C   UNL     1       3.138  33.026  87.551  1.00  0.00     0.025 A 
ATOM     13  C   UNL     1       2.864  32.078  88.551  1.00  0.00     0.016 A 
ATOM     14  C   UNL     1       1.548  31.831  88.949  1.00  0.00     0.051 A 
ATOM     15  C   UNL     1       0.488  32.538  88.365  1.00  0.00     0.157 A 
ATOM     16  C   UNL     1       2.075  33.746  86.983  1.00  0.00     0.062 A 
ATOM     17  C   UNL     1       0.755  33.502  87.379  1.00  0.00     0.158 A 
BRANCH  15  18
ATOM     18  O   UNL     1      -0.824  32.288  88.762  1.00  0.00    -0.504 OA
ATOM     19  H   UNL     1      -1.467  31.771  88.175  1.00  0.00     0.293 HD
ENDBRANCH  15  18
BRANCH  17  20
ATOM     20  O   UNL     1      -0.275  34.228  86.782  1.00  0.00    -0.504 OA
ATOM     21  H   UNL     1      -0.109  34.862  86.010  1.00  0.00     0.293 HD
ENDBRANCH  17  20
ENDBRANCH   1  12
BRANCH   2  22
ATOM     22  O   UNL     1       4.311  31.985  85.109  1.00  0.00    -0.502 OA
ATOM     23  H   UNL     1       3.394  31.645  85.373  1.00  0.00     0.293 HD
ENDBRANCH   2  22
BRANCH   6  24
ATOM     24  O   UNL     1       9.171  33.838  85.089  1.00  0.00    -0.507 OA
ATOM     25  H   UNL     1       9.058  32.884  84.768  1.00  0.00     0.293 HD
ENDBRANCH   6  24
BRANCH   8  26
ATOM     26  O   UNL     1       9.203  36.540  89.086  1.00  0.00    -0.508 OA
ATOM     27  H   UNL     1       8.795  36.851  89.960  1.00  0.00     0.293 HD
ENDBRANCH   8  26
TORSDOF 6
ENDMDL
MODEL 2
REMARK VINA RESULT:    -5.087      1.810      6.656
REMARK INTER + INTRA:          -6.427
REMARK INTER:                  -6.102
REMARK INTRA:                  -0.325
REMARK UNBOUND:                -0.299
REMARK SMILES O=c1c(O)c(-c2ccc(O)c(O)c2)oc2cc(O)cc(O)c12
REMARK SMILES IDX 5 1 3 2 2 3 1 4 22 5 20 6 19 7 17 8 16 9 15 10 14 11 6 12
REMARK SMILES IDX 7 13 8 14 9 15 13 16 11 17 10 18 12 20 4 22 21 24 18 26
REMARK H PARENT 10 19 12 21 4 23 21 25 18 27
REMARK Flexibility Score: inf
ROOT
ATOM      1  C   UNL     1       4.818  33.082  86.447  1.00  0.00     0.180 A 
ATOM      2  C   UNL     1       4.696  32.186  85.367  1.00  0.00     0.208 A 
ATOM      3  C   UNL     1       3.419  31.730  85.005  1.00  0.00     0.238 A 
ATOM      4  O   UNL     1       3.296  30.935  84.033  1.00  0.00    -0.285 OA
ATOM      5  C   UNL     1       2.292  32.159  85.738  1.00  0.00     0.111 A 
ATOM      6  C   UNL     1       0.972  31.743  85.441  1.00  0.00     0.134 A 
ATOM      7  C   UNL     1      -0.095  32.207  86.223  1.00  0.00     0.093 A 
ATOM      8  C   UNL     1       0.130  33.076  87.294  1.00  0.00     0.123 A 
ATOM      9  C   UNL     1       1.432  33.489  87.591  1.00  0.00     0.094 A 
ATOM     10  C   UNL     1       2.509  33.039  86.822  1.00  0.00     0.146 A 
ATOM     11  O   UNL     1       3.735  33.452  87.124  1.00  0.00    -0.452 OA
ENDROOT
BRANCH   1  12
ATOM     12  C   UNL     1       6.129  33.622  86.877  1.00  0.00     0.025 A 
ATOM     13  C   UNL     1       6.934  32.936  87.803  1.00  0.00     0.016 A 
ATOM     14  C   UNL     1       8.177  33.452  88.177  1.00  0.00     0.051 A 
ATOM     15  C   UNL     1       8.641  34.652  87.620  1.00  0.00     0.157 A 
ATOM     16  C   UNL     1       6.607  34.812  86.307  1.00  0.00     0.062 A 
ATOM     17  C   UNL     1       7.852  35.333  86.679  1.00  0.00     0.158 A 
BRANCH  15  18
ATOM     18  O   UNL     1       9.881  35.165  87.996  1.00  0.00    -0.504 OA
ATOM     19  H   UNL     1      10.040  36.162  88.077  1.00  0.00     0.293 HD
ENDBRANCH  15  18
BRANCH  17  20
ATOM     20  O   UNL     1       8.287  36.525  86.101  1.00  0.00    -0.504 OA
ATOM     21  H   UNL     1       7.694  37.074  85.490  1.00  0.00     0.293 HD
ENDBRANCH  17  20
ENDBRANCH   1  12
BRANCH   2  22
ATOM     22  O   UNL     1       5.833  31.738  84.689  1.00  0.00    -0.502 OA
ATOM     23  H   UNL     1       6.609  31.295  85.166  1.00  0.00     0.293 HD
ENDBRANCH   2  22
BRANCH   6  24
ATOM     24  O   UNL     1       0.713  30.875  84.379  1.00  0.00    -0.507 OA
ATOM     25  H   UNL     1       0.519  29.892  84.529  1.00  0.00     0.293 HD
ENDBRANCH   6  24
BRANCH   8  26
ATOM     26  O   UNL     1      -0.948  33.521  88.056  1.00  0.00    -0.508 OA
ATOM     27  H   UNL     1      -1.296  32.988  88.844  1.00  0.00     0.293 HD
ENDBRANCH   8  26
TORSDOF 6
ENDMDL
MODEL 3
REMARK VINA RESULT:    -4.786      2.082      2.693
REMARK INTER + INTRA:          -6.065
REMARK INTER:                  -5.750
REMARK INTRA:                  -0.315
REMARK UNBOUND:                -0.299
REMARK SMILES O=c1c(O)c(-c2ccc(O)c(O)c2)oc2cc(O)cc(O)c12
REMARK SMILES IDX 5 1 3 2 2 3 1 4 22 5 20 6 19 7 17 8 16 9 15 10 14 11 6 12
REMARK SMILES IDX 7 13 8 14 9 15 13 16 11 17 10 18 12 20 4 22 21 24 18 26
REMARK H PARENT 10 19 12 21 4 23 21 25 18 27
REMARK Flexibility Score: inf
ROOT
ATOM      1  C   UNL     1       3.768  32.853  86.604  1.00  0.00     0.180 A 
ATOM      2  C   UNL     1       4.260  31.908  87.525  1.00  0.00     0.208 A 
ATOM      3  C   UNL     1       5.594  32.005  87.949  1.00  0.00     0.238 A 
ATOM      4  O   UNL     1       6.044  31.170  88.782  1.00  0.00    -0.285 OA
ATOM      5  C   UNL     1       6.417  33.027  87.433  1.00  0.00     0.111 A 
ATOM      6  C   UNL     1       7.773  33.191  87.805  1.00  0.00     0.134 A 
ATOM      7  C   UNL     1       8.529  34.229  87.239  1.00  0.00     0.093 A 
ATOM      8  C   UNL     1       7.957  35.102  86.310  1.00  0.00     0.123 A 
ATOM      9  C   UNL     1       6.618  34.944  85.939  1.00  0.00     0.094 A 
ATOM     10  C   UNL     1       5.848  33.918  86.493  1.00  0.00     0.146 A 
ATOM     11  O   UNL     1       4.578  33.794  86.127  1.00  0.00    -0.452 OA
ENDROOT
BRANCH   1  12
ATOM     12  C   UNL     1       2.367  32.828  86.124  1.00  0.00     0.025 A 
ATOM     13  C   UNL     1       1.975  32.002  85.056  1.00  0.00     0.016 A 
ATOM     14  C   UNL     1       0.643  31.976  84.635  1.00  0.00     0.051 A 
ATOM     15  C   UNL     1      -0.319  32.764  85.282  1.00  0.00     0.157 A 
ATOM     16  C   UNL     1       1.397  33.600  86.782  1.00  0.00     0.062 A 
ATOM     17  C   UNL     1       0.062  33.577  86.363  1.00  0.00     0.158 A 
BRANCH  15  18
ATOM     18  O   UNL     1      -1.646  32.738  84.859  1.00  0.00    -0.504 OA
ATOM     19  H   UNL     1      -1.892  32.800  83.878  1.00  0.00     0.293 HD
ENDBRANCH  15  18
BRANCH  17  20
ATOM     20  O   UNL     1      -0.871  34.368  87.033  1.00  0.00    -0.504 OA
ATOM     21  H   UNL     1      -0.697  34.737  87.960  1.00  0.00     0.293 HD
ENDBRANCH  17  20
ENDBRANCH   1  12
BRANCH   2  22
ATOM     22  O   UNL     1       3.438  30.875  87.984  1.00  0.00    -0.502 OA
ATOM     23  H   UNL     1       3.018  30.198  87.359  1.00  0.00     0.293 HD
ENDBRANCH   2  22
BRANCH   6  24
ATOM     24  O   UNL     1       8.374  32.336  88.728  1.00  0.00    -0.507 OA
ATOM     25  H   UNL     1       7.850  31.613  89.207  1.00  0.00     0.293 HD
ENDBRANCH   6  24
BRANCH   8  26
ATOM     26  O   UNL     1       8.730  36.124  85.762  1.00  0.00    -0.508 OA
ATOM     27  H   UNL     1       9.069  36.893  86.328  1.00  0.00     0.293 HD
ENDBRANCH   8  26
TORSDOF 6
ENDMDL
MODEL 4
REMARK VINA RESULT:    -4.640     12.684     14.524
REMARK INTER + INTRA:          -5.888
REMARK INTER:                  -5.828
REMARK INTRA:                  -0.060
REMARK UNBOUND:                -0.299
REMARK SMILES O=c1c(O)c(-c2ccc(O)c(O)c2)oc2cc(O)cc(O)c12
REMARK SMILES IDX 5 1 3 2 2 3 1 4 22 5 20 6 19 7 17 8 16 9 15 10 14 11 6 12
REMARK SMILES IDX 7 13 8 14 9 15 13 16 11 17 10 18 12 20 4 22 21 24 18 26
REMARK H PARENT 10 19 12 21 4 23 21 25 18 27
REMARK Flexibility Score: inf
ROOT
ATOM      1  C   UNL     1      -4.063  36.031  77.847  1.00  0.00     0.180 A 
ATOM      2  C   UNL     1      -4.514  35.017  78.715  1.00  0.00     0.208 A 
ATOM      3  C   UNL     1      -4.520  33.689  78.261  1.00  0.00     0.238 A 
ATOM      4  O   UNL     1      -4.912  32.771  79.032  1.00  0.00    -0.285 OA
ATOM      5  C   UNL     1      -4.097  33.399  76.947  1.00  0.00     0.111 A 
ATOM      6  C   UNL     1      -4.077  32.089  76.411  1.00  0.00     0.134 A 
ATOM      7  C   UNL     1      -3.651  31.884  75.091  1.00  0.00     0.093 A 
ATOM      8  C   UNL     1      -3.247  32.961  74.297  1.00  0.00     0.123 A 
ATOM      9  C   UNL     1      -3.264  34.257  74.821  1.00  0.00     0.094 A 
ATOM     10  C   UNL     1      -3.684  34.481  76.136  1.00  0.00     0.146 A 
ATOM     11  O   UNL     1      -3.686  35.722  76.610  1.00  0.00    -0.452 OA
ENDROOT
BRANCH   1  12
ATOM     12  C   UNL     1      -4.010  37.452  78.259  1.00  0.00     0.025 A 
ATOM     13  C   UNL     1      -3.342  37.850  79.430  1.00  0.00     0.016 A 
ATOM     14  C   UNL     1      -3.283  39.199  79.786  1.00  0.00     0.051 A 
ATOM     15  C   UNL     1      -3.878  40.173  78.971  1.00  0.00     0.157 A 
ATOM     16  C   UNL     1      -4.586  38.433  77.435  1.00  0.00     0.062 A 
ATOM     17  C   UNL     1      -4.529  39.786  77.789  1.00  0.00     0.158 A 
BRANCH  15  18
ATOM     18  O   UNL     1      -3.820  41.518  79.330  1.00  0.00    -0.504 OA
ATOM     19  H   UNL     1      -3.294  41.830  80.138  1.00  0.00     0.293 HD
ENDBRANCH  15  18
BRANCH  17  20
ATOM     20  O   UNL     1      -5.125  40.729  76.952  1.00  0.00    -0.504 OA
ATOM     21  H   UNL     1      -4.583  41.302  76.315  1.00  0.00     0.293 HD
ENDBRANCH  17  20
ENDBRANCH   1  12
BRANCH   2  22
ATOM     22  O   UNL     1      -4.974  35.336  79.995  1.00  0.00    -0.502 OA
ATOM     23  H   UNL     1      -4.419  35.177  80.827  1.00  0.00     0.293 HD
ENDBRANCH   2  22
BRANCH   6  24
ATOM     24  O   UNL     1      -4.475  30.993  77.177  1.00  0.00    -0.507 OA
ATOM     25  H   UNL     1      -4.462  30.050  76.806  1.00  0.00     0.293 HD
ENDBRANCH   6  24
BRANCH   8  26
ATOM     26  O   UNL     1      -2.828  32.730  72.988  1.00  0.00    -0.508 OA
ATOM     27  H   UNL     1      -2.562  33.491  72.375  1.00  0.00     0.293 HD
ENDBRANCH   8  26
TORSDOF 6
ENDMDL
MODEL 5
REMARK VINA RESULT:    -4.512      2.269      7.384
REMARK INTER + INTRA:          -5.734
REMARK INTER:                  -5.422
REMARK INTRA:                  -0.312
REMARK UNBOUND:                -0.299
REMARK SMILES O=c1c(O)c(-c2ccc(O)c(O)c2)oc2cc(O)cc(O)c12
REMARK SMILES IDX 5 1 3 2 2 3 1 4 22 5 20 6 19 7 17 8 16 9 15 10 14 11 6 12
REMARK SMILES IDX 7 13 8 14 9 15 13 16 11 17 10 18 12 20 4 22 21 24 18 26
REMARK H PARENT 10 19 12 21 4 23 21 25 18 27
REMARK Flexibility Score: inf
ROOT
ATOM      1  C   UNL     1       3.735  32.838  86.615  1.00  0.00     0.180 A 
ATOM      2  C   UNL     1       2.909  33.127  87.718  1.00  0.00     0.208 A 
ATOM      3  C   UNL     1       1.530  32.880  87.617  1.00  0.00     0.238 A 
ATOM      4  O   UNL     1       0.781  33.125  88.602  1.00  0.00    -0.285 OA
ATOM      5  C   UNL     1       1.000  32.370  86.413  1.00  0.00     0.111 A 
ATOM      6  C   UNL     1      -0.376  32.099  86.228  1.00  0.00     0.134 A 
ATOM      7  C   UNL     1      -0.827  31.601  84.996  1.00  0.00     0.093 A 
ATOM      8  C   UNL     1       0.069  31.371  83.949  1.00  0.00     0.123 A 
ATOM      9  C   UNL     1       1.430  31.638  84.127  1.00  0.00     0.094 A 
ATOM     10  C   UNL     1       1.899  32.132  85.347  1.00  0.00     0.146 A 
ATOM     11  O   UNL     1       3.197  32.372  85.491  1.00  0.00    -0.452 OA
ENDROOT
BRANCH   1  12
ATOM     12  C   UNL     1       5.200  33.053  86.651  1.00  0.00     0.025 A 
ATOM     13  C   UNL     1       6.061  32.126  87.263  1.00  0.00     0.016 A 
ATOM     14  C   UNL     1       7.441  32.338  87.264  1.00  0.00     0.051 A 
ATOM     15  C   UNL     1       7.984  33.470  86.642  1.00  0.00     0.157 A 
ATOM     16  C   UNL     1       5.749  34.176  86.011  1.00  0.00     0.062 A 
ATOM     17  C   UNL     1       7.132  34.391  86.010  1.00  0.00     0.158 A 
BRANCH  15  18
ATOM     18  O   UNL     1       9.361  33.680  86.646  1.00  0.00    -0.504 OA
ATOM     19  H   UNL     1       9.757  34.604  86.772  1.00  0.00     0.293 HD
ENDBRANCH  15  18
BRANCH  17  20
ATOM     20  O   UNL     1       7.640  35.525  85.376  1.00  0.00    -0.504 OA
ATOM     21  H   UNL     1       8.635  35.682  85.272  1.00  0.00     0.293 HD
ENDBRANCH  17  20
ENDBRANCH   1  12
BRANCH   2  22
ATOM     22  O   UNL     1       3.451  33.678  88.882  1.00  0.00    -0.502 OA
ATOM     23  H   UNL     1       4.228  33.252  89.373  1.00  0.00     0.293 HD
ENDBRANCH   2  22
BRANCH   6  24
ATOM     24  O   UNL     1      -1.297  32.318  87.252  1.00  0.00    -0.507 OA
ATOM     25  H   UNL     1      -1.083  32.913  88.044  1.00  0.00     0.293 HD
ENDBRANCH   6  24
BRANCH   8  26
ATOM     26  O   UNL     1      -0.405  30.876  82.735  1.00  0.00    -0.508 OA
ATOM     27  H   UNL     1      -0.575  29.887  82.597  1.00  0.00     0.293 HD
ENDBRANCH   8  26
TORSDOF 6
ENDMDL
MODEL 6
REMARK VINA RESULT:    -4.457      2.379      7.536
REMARK INTER + INTRA:          -5.668
REMARK INTER:                  -5.346
REMARK INTRA:                  -0.322
REMARK UNBOUND:                -0.299
REMARK SMILES O=c1c(O)c(-c2ccc(O)c(O)c2)oc2cc(O)cc(O)c12
REMARK SMILES IDX 5 1 3 2 2 3 1 4 22 5 20 6 19 7 17 8 16 9 15 10 14 11 6 12
REMARK SMILES IDX 7 13 8 14 9 15 13 16 11 17 10 18 12 20 4 22 21 24 18 26
REMARK H PARENT 10 19 12 21 4 23 21 25 18 27
REMARK Flexibility Score: inf
ROOT
ATOM      1  C   UNL     1       3.613  32.808  86.520  1.00  0.00     0.180 A 
ATOM      2  C   UNL     1       2.800  33.117  87.627  1.00  0.00     0.208 A 
ATOM      3  C   UNL     1       1.418  32.889  87.539  1.00  0.00     0.238 A 
ATOM      4  O   UNL     1       0.681  33.151  88.529  1.00  0.00    -0.285 OA
ATOM      5  C   UNL     1       0.871  32.377  86.344  1.00  0.00     0.111 A 
ATOM      6  C   UNL     1      -0.511  32.123  86.172  1.00  0.00     0.134 A 
ATOM      7  C   UNL     1      -0.979  31.622  84.949  1.00  0.00     0.093 A 
ATOM      8  C   UNL     1      -0.095  31.372  83.895  1.00  0.00     0.123 A 
ATOM      9  C   UNL     1       1.271  31.621  84.060  1.00  0.00     0.094 A 
ATOM     10  C   UNL     1       1.757  32.119  85.273  1.00  0.00     0.146 A 
ATOM     11  O   UNL     1       3.060  32.342  85.404  1.00  0.00    -0.452 OA
ENDROOT
BRANCH   1  12
ATOM     12  C   UNL     1       5.081  33.004  86.542  1.00  0.00     0.025 A 
ATOM     13  C   UNL     1       5.666  34.205  86.104  1.00  0.00     0.016 A 
ATOM     14  C   UNL     1       7.051  34.377  86.157  1.00  0.00     0.051 A 
ATOM     15  C   UNL     1       7.872  33.358  86.660  1.00  0.00     0.157 A 
ATOM     16  C   UNL     1       5.905  31.995  87.064  1.00  0.00     0.062 A 
ATOM     17  C   UNL     1       7.293  32.163  87.119  1.00  0.00     0.158 A 
BRANCH  15  18
ATOM     18  O   UNL     1       9.253  33.531  86.709  1.00  0.00    -0.504 OA
ATOM     19  H   UNL     1       9.674  34.453  86.689  1.00  0.00     0.293 HD
ENDBRANCH  15  18
BRANCH  17  20
ATOM     20  O   UNL     1       8.080  31.132  87.632  1.00  0.00    -0.504 OA
ATOM     21  H   UNL     1       8.588  31.226  88.504  1.00  0.00     0.293 HD
ENDBRANCH  17  20
ENDBRANCH   1  12
BRANCH   2  22
ATOM     22  O   UNL     1       3.360  33.669  88.782  1.00  0.00    -0.502 OA
ATOM     23  H   UNL     1       3.418  33.158  89.655  1.00  0.00     0.293 HD
ENDBRANCH   2  22
BRANCH   6  24
ATOM     24  O   UNL     1      -1.420  32.362  87.203  1.00  0.00    -0.507 OA
ATOM     25  H   UNL     1      -1.643  33.302  87.510  1.00  0.00     0.293 HD
ENDBRANCH   6  24
BRANCH   8  26
ATOM     26  O   UNL     1      -0.586  30.875  82.690  1.00  0.00    -0.508 OA
ATOM     27  H   UNL     1      -0.020  30.286  82.090  1.00  0.00     0.293 HD
ENDBRANCH   8  26
TORSDOF 6
ENDMDL
MODEL 7
REMARK VINA RESULT:    -4.440      1.897      7.202
REMARK INTER + INTRA:          -5.647
REMARK INTER:                  -5.360
REMARK INTRA:                  -0.287
REMARK UNBOUND:                -0.299
REMARK SMILES O=c1c(O)c(-c2ccc(O)c(O)c2)oc2cc(O)cc(O)c12
REMARK SMILES IDX 5 1 3 2 2 3 1 4 22 5 20 6 19 7 17 8 16 9 15 10 14 11 6 12
REMARK SMILES IDX 7 13 8 14 9 15 13 16 11 17 10 18 12 20 4 22 21 24 18 26
REMARK H PARENT 10 19 12 21 4 23 21 25 18 27
REMARK Flexibility Score: inf
ROOT
ATOM      1  C   UNL     1       3.899  32.957  86.631  1.00  0.00     0.180 A 
ATOM      2  C   UNL     1       3.794  32.076  87.724  1.00  0.00     0.208 A 
ATOM      3  C   UNL     1       2.519  31.673  88.150  1.00  0.00     0.238 A 
ATOM      4  O   UNL     1       2.412  30.875  89.122  1.00  0.00    -0.285 OA
ATOM      5  C   UNL     1       1.374  32.170  87.493  1.00  0.00     0.111 A 
ATOM      6  C   UNL     1       0.055  31.817  87.862  1.00  0.00     0.134 A 
ATOM      7  C   UNL     1      -1.033  32.361  87.164  1.00  0.00     0.093 A 
ATOM      8  C   UNL     1      -0.827  33.252  86.106  1.00  0.00     0.123 A 
ATOM      9  C   UNL     1       0.475  33.604  85.737  1.00  0.00     0.094 A 
ATOM     10  C   UNL     1       1.571  33.070  86.420  1.00  0.00     0.146 A 
ATOM     11  O   UNL     1       2.797  33.417  86.045  1.00  0.00    -0.452 OA
ENDROOT
BRANCH   1  12
ATOM     12  C   UNL     1       5.209  33.413  86.111  1.00  0.00     0.025 A 
ATOM     13  C   UNL     1       6.018  32.572  85.328  1.00  0.00     0.016 A 
ATOM     14  C   UNL     1       7.239  33.032  84.828  1.00  0.00     0.051 A 
ATOM     15  C   UNL     1       7.662  34.343  85.090  1.00  0.00     0.157 A 
ATOM     16  C   UNL     1       5.627  34.731  86.354  1.00  0.00     0.062 A 
ATOM     17  C   UNL     1       6.850  35.196  85.855  1.00  0.00     0.158 A 
BRANCH  15  18
ATOM     18  O   UNL     1       8.881  34.798  84.592  1.00  0.00    -0.504 OA
ATOM     19  H   UNL     1       8.995  35.745  84.251  1.00  0.00     0.293 HD
ENDBRANCH  15  18
BRANCH  17  20
ATOM     20  O   UNL     1       7.238  36.507  86.128  1.00  0.00    -0.504 OA
ATOM     21  H   UNL     1       8.168  36.848  85.916  1.00  0.00     0.293 HD
ENDBRANCH  17  20
ENDBRANCH   1  12
BRANCH   2  22
ATOM     22  O   UNL     1       4.941  31.637  88.390  1.00  0.00    -0.502 OA
ATOM     23  H   UNL     1       5.172  30.655  88.483  1.00  0.00     0.293 HD
ENDBRANCH   2  22
BRANCH   6  24
ATOM     24  O   UNL     1      -0.186  30.932  88.914  1.00  0.00    -0.507 OA
ATOM     25  H   UNL     1      -0.151  31.231  89.881  1.00  0.00     0.293 HD
ENDBRANCH   6  24
BRANCH   8  26
ATOM     26  O   UNL     1      -1.925  33.779  85.429  1.00  0.00    -0.508 OA
ATOM     27  H   UNL     1      -2.025  34.776  85.279  1.00  0.00     0.293 HD
ENDBRANCH   8  26
TORSDOF 6
ENDMDL
MODEL 8
REMARK VINA RESULT:    -4.356      2.278      7.056
REMARK INTER + INTRA:          -5.547
REMARK INTER:                  -5.215
REMARK INTRA:                  -0.332
REMARK UNBOUND:                -0.299
REMARK SMILES O=c1c(O)c(-c2ccc(O)c(O)c2)oc2cc(O)cc(O)c12
REMARK SMILES IDX 5 1 3 2 2 3 1 4 22 5 20 6 19 7 17 8 16 9 15 10 14 11 6 12
REMARK SMILES IDX 7 13 8 14 9 15 13 16 11 17 10 18 12 20 4 22 21 24 18 26
REMARK H PARENT 10 19 12 21 4 23 21 25 18 27
REMARK Flexibility Score: inf
ROOT
ATOM      1  C   UNL     1       4.134  32.280  85.831  1.00  0.00     0.180 A 
ATOM      2  C   UNL     1       3.781  31.674  84.610  1.00  0.00     0.208 A 
ATOM      3  C   UNL     1       2.427  31.410  84.350  1.00  0.00     0.238 A 
ATOM      4  O   UNL     1       2.098  30.877  83.255  1.00  0.00    -0.285 OA
ATOM      5  C   UNL     1       1.455  31.736  85.318  1.00  0.00     0.111 A 
ATOM      6  C   UNL     1       0.071  31.499  85.135  1.00  0.00     0.134 A 
ATOM      7  C   UNL     1      -0.833  31.843  86.150  1.00  0.00     0.093 A 
ATOM      8  C   UNL     1      -0.383  32.417  87.342  1.00  0.00     0.123 A 
ATOM      9  C   UNL     1       0.983  32.653  87.527  1.00  0.00     0.094 A 
ATOM     10  C   UNL     1       1.900  32.319  86.527  1.00  0.00     0.146 A 
ATOM     11  O   UNL     1       3.191  32.559  86.727  1.00  0.00    -0.452 OA
ENDROOT
BRANCH   1  12
ATOM     12  C   UNL     1       5.538  32.606  86.172  1.00  0.00     0.025 A 
ATOM     13  C   UNL     1       6.112  33.836  85.807  1.00  0.00     0.016 A 
ATOM     14  C   UNL     1       7.430  34.133  86.160  1.00  0.00     0.051 A 
ATOM     15  C   UNL     1       8.191  33.212  86.893  1.00  0.00     0.157 A 
ATOM     16  C   UNL     1       6.296  31.695  86.924  1.00  0.00     0.062 A 
ATOM     17  C   UNL     1       7.618  31.988  87.279  1.00  0.00     0.158 A 
BRANCH  15  18
ATOM     18  O   UNL     1       9.507  33.509  87.242  1.00  0.00    -0.504 OA
ATOM     19  H   UNL     1       9.762  34.407  87.636  1.00  0.00     0.293 HD
ENDBRANCH  15  18
BRANCH  17  20
ATOM     20  O   UNL     1       8.344  31.053  88.015  1.00  0.00    -0.504 OA
ATOM     21  H   UNL     1       8.500  31.155  89.011  1.00  0.00     0.293 HD
ENDBRANCH  17  20
ENDBRANCH   1  12
BRANCH   2  22
ATOM     22  O   UNL     1       4.768  31.315  83.689  1.00  0.00    -0.502 OA
ATOM     23  H   UNL     1       5.743  31.221  83.947  1.00  0.00     0.293 HD
ENDBRANCH   2  22
BRANCH   6  24
ATOM     24  O   UNL     1      -0.411  30.926  83.958  1.00  0.00    -0.507 OA
ATOM     25  H   UNL     1      -1.403  30.853  83.768  1.00  0.00     0.293 HD
ENDBRANCH   6  24
BRANCH   8  26
ATOM     26  O   UNL     1      -1.302  32.750  88.335  1.00  0.00    -0.508 OA
ATOM     27  H   UNL     1      -2.291  32.557  88.227  1.00  0.00     0.293 HD
ENDBRANCH   8  26
TORSDOF 6
ENDMDL
MODEL 9
REMARK VINA RESULT:    -4.105      2.465      7.992
REMARK INTER + INTRA:          -5.244
REMARK INTER:                  -5.091
REMARK INTRA:                  -0.153
REMARK UNBOUND:                -0.299
REMARK SMILES O=c1c(O)c(-c2ccc(O)c(O)c2)oc2cc(O)cc(O)c12
REMARK SMILES IDX 5 1 3 2 2 3 1 4 22 5 20 6 19 7 17 8 16 9 15 10 14 11 6 12
REMARK SMILES IDX 7 13 8 14 9 15 13 16 11 17 10 18 12 20 4 22 21 24 18 26
REMARK H PARENT 10 19 12 21 4 23 21 25 18 27
REMARK Flexibility Score: inf
ROOT
ATOM      1  C   UNL     1       2.180  32.226  86.343  1.00  0.00     0.180 A 
ATOM      2  C   UNL     1       1.737  32.162  87.678  1.00  0.00     0.208 A 
ATOM      3  C   UNL     1       0.360  32.073  87.933  1.00  0.00     0.238 A 
ATOM      4  O   UNL     1      -0.048  32.004  89.125  1.00  0.00    -0.285 OA
ATOM      5  C   UNL     1      -0.550  32.069  86.855  1.00  0.00     0.111 A 
ATOM      6  C   UNL     1      -1.952  31.987  87.026  1.00  0.00     0.134 A 
ATOM      7  C   UNL     1      -2.792  31.998  85.902  1.00  0.00     0.093 A 
ATOM      8  C   UNL     1      -2.258  32.092  84.614  1.00  0.00     0.123 A 
ATOM      9  C   UNL     1      -0.873  32.174  84.440  1.00  0.00     0.094 A 
ATOM     10  C   UNL     1      -0.020  32.162  85.547  1.00  0.00     0.146 A 
ATOM     11  O   UNL     1       1.292  32.236  85.352  1.00  0.00    -0.452 OA
ENDROOT
BRANCH   1  12
ATOM     12  C   UNL     1       3.617  32.303  85.993  1.00  0.00     0.025 A 
ATOM     13  C   UNL     1       4.245  31.286  85.253  1.00  0.00     0.016 A 
ATOM     14  C   UNL     1       5.595  31.391  84.913  1.00  0.00     0.051 A 
ATOM     15  C   UNL     1       6.335  32.519  85.294  1.00  0.00     0.157 A 
ATOM     16  C   UNL     1       4.356  33.440  86.355  1.00  0.00     0.062 A 
ATOM     17  C   UNL     1       5.710  33.549  86.017  1.00  0.00     0.158 A 
BRANCH  15  18
ATOM     18  O   UNL     1       7.683  32.620  84.956  1.00  0.00    -0.504 OA
ATOM     19  H   UNL     1       8.029  33.373  84.372  1.00  0.00     0.293 HD
ENDBRANCH  15  18
BRANCH  17  20
ATOM     20  O   UNL     1       6.415  34.687  86.405  1.00  0.00    -0.504 OA
ATOM     21  H   UNL     1       6.097  35.286  87.159  1.00  0.00     0.293 HD
ENDBRANCH  17  20
ENDBRANCH   1  12
BRANCH   2  22
ATOM     22  O   UNL     1       2.655  32.217  88.730  1.00  0.00    -0.502 OA
ATOM     23  H   UNL     1       2.436  32.646  89.620  1.00  0.00     0.293 HD
ENDBRANCH   2  22
BRANCH   6  24
ATOM     24  O   UNL     1      -2.518  31.893  88.298  1.00  0.00    -0.507 OA
ATOM     25  H   UNL     1      -3.384  32.362  88.533  1.00  0.00     0.293 HD
ENDBRANCH   6  24
BRANCH   8  26
ATOM     26  O   UNL     1      -3.114  32.103  83.515  1.00  0.00    -0.508 OA
ATOM     27  H   UNL     1      -4.116  31.995  83.623  1.00  0.00     0.293 HD
ENDBRANCH   8  26
TORSDOF 6
ENDMDL
