MODEL 1
REMARK VINA RESULT:    -3.782      0.000      0.000
REMARK INTER + INTRA:          -4.474
REMARK INTER:                  -4.335
REMARK INTRA:                  -0.139
REMARK UNBOUND:                -0.139
REMARK SMILES O=C([O-])C=Cc1ccc(O)cc1
REMARK SMILES IDX 6 1 7 2 12 3 8 4 11 5 9 6 5 7 4 8 2 9 1 10 3 11 10 12
REMARK H PARENT 10 13
REMARK Flexibility Score: inf
ROOT
ATOM      1  C   UNL     1      25.880 -39.724   0.358  1.00  0.00    -0.025 A 
ATOM      2  C   UNL     1      25.914 -38.521   1.092  1.00  0.00     0.012 A 
ATOM      3  C   UNL     1      25.875 -40.943   1.057  1.00  0.00     0.012 A 
ATOM      4  C   UNL     1      25.917 -38.545   2.490  1.00  0.00     0.047 A 
ATOM      5  C   UNL     1      25.878 -40.963   2.454  1.00  0.00     0.047 A 
ATOM      6  C   UNL     1      25.897 -39.766   3.175  1.00  0.00     0.115 A 
ENDROOT
BRANCH   1   7
ATOM      7  C   UNL     1      25.886 -39.755  -1.125  1.00  0.00     0.010 C 
ATOM      8  C   UNL     1      26.855 -40.326  -1.855  1.00  0.00     0.025 C 
BRANCH   8   9
ATOM      9  C   UNL     1      26.834 -40.326  -3.328  1.00  0.00     0.064 C 
ATOM     10  O   UNL     1      27.341 -39.381  -3.987  1.00  0.00    -0.545 OA
ATOM     11  O   UNL     1      26.241 -41.386  -4.001  1.00  0.00    -0.545 OA
ENDBRANCH   8   9
ENDBRANCH   1   7
BRANCH   6  12
ATOM     12  O   UNL     1      25.899 -39.801   4.568  1.00  0.00    -0.508 OA
ATOM     13  H   UNL     1      26.744 -39.632   5.100  1.00  0.00     0.293 HD
ENDBRANCH   6  12
TORSDOF 3
ENDMDL
MODEL 2
REMARK VINA RESULT:    -3.711     12.195     14.200
REMARK INTER + INTRA:          -4.393
REMARK INTER:                  -4.254
REMARK INTRA:                  -0.139
REMARK UNBOUND:                -0.139
REMARK SMILES O=C([O-])C=Cc1ccc(O)cc1
REMARK SMILES IDX 6 1 7 2 12 3 8 4 11 5 9 6 5 7 4 8 2 9 1 10 3 11 10 12
REMARK H PARENT 10 13
REMARK Flexibility Score: inf
ROOT
ATOM      1  C   UNL     1      29.149 -34.934  12.907  1.00  0.00    -0.025 A 
ATOM      2  C   UNL     1      28.893 -33.548  12.888  1.00  0.00     0.012 A 
ATOM      3  C   UNL     1      30.483 -35.377  12.870  1.00  0.00     0.012 A 
ATOM      4  C   UNL     1      29.951 -32.634  12.859  1.00  0.00     0.047 A 
ATOM      5  C   UNL     1      31.537 -34.460  12.841  1.00  0.00     0.047 A 
ATOM      6  C   UNL     1      31.276 -33.088  12.838  1.00  0.00     0.115 A 
ENDROOT
BRANCH   1   7
ATOM      7  C   UNL     1      28.064 -35.947  12.927  1.00  0.00     0.010 C 
ATOM      8  C   UNL     1      27.795 -36.772  11.905  1.00  0.00     0.025 C 
BRANCH   8   9
ATOM      9  C   UNL     1      26.702 -37.756  11.957  1.00  0.00     0.064 C 
ATOM     10  O   UNL     1      25.925 -37.920  10.979  1.00  0.00    -0.545 OA
ATOM     11  O   UNL     1      26.521 -38.517  13.105  1.00  0.00    -0.545 OA
ENDBRANCH   8   9
ENDBRANCH   1   7
BRANCH   6  12
ATOM     12  O   UNL     1      32.336 -32.185  12.809  1.00  0.00    -0.508 OA
ATOM     13  H   UNL     1      32.857 -32.007  11.959  1.00  0.00     0.293 HD
ENDBRANCH   6  12
TORSDOF 3
ENDMDL
MODEL 3
REMARK VINA RESULT:    -3.560     21.576     22.708
REMARK INTER + INTRA:          -4.220
REMARK INTER:                  -4.085
REMARK INTRA:                  -0.135
REMARK UNBOUND:                -0.139
REMARK SMILES O=C([O-])C=Cc1ccc(O)cc1
REMARK SMILES IDX 6 1 7 2 12 3 8 4 11 5 9 6 5 7 4 8 2 9 1 10 3 11 10 12
REMARK H PARENT 10 13
REMARK Flexibility Score: inf
ROOT
ATOM      1  C   UNL     1      43.930 -32.389  12.063  1.00  0.00    -0.025 A 
ATOM      2  C   UNL     1      43.208 -33.583  12.264  1.00  0.00     0.012 A 
ATOM      3  C   UNL     1      45.323 -32.402  12.246  1.00  0.00     0.012 A 
ATOM      4  C   UNL     1      43.874 -34.762  12.613  1.00  0.00     0.047 A 
ATOM      5  C   UNL     1      45.985 -33.582  12.595  1.00  0.00     0.047 A 
ATOM      6  C   UNL     1      45.264 -34.765  12.777  1.00  0.00     0.115 A 
ENDROOT
BRANCH   1   7
ATOM      7  C   UNL     1      43.272 -31.109  11.702  1.00  0.00     0.010 C 
ATOM      8  C   UNL     1      42.615 -30.906  10.551  1.00  0.00     0.025 C 
BRANCH   8   9
ATOM      9  C   UNL     1      41.984 -29.617  10.223  1.00  0.00     0.064 C 
ATOM     10  O   UNL     1      41.165 -29.072  11.010  1.00  0.00    -0.545 OA
ATOM     11  O   UNL     1      42.295 -28.992   9.022  1.00  0.00    -0.545 OA
ENDBRANCH   8   9
ENDBRANCH   1   7
BRANCH   6  12
ATOM     12  O   UNL     1      45.937 -35.935  13.125  1.00  0.00    -0.508 OA
ATOM     13  H   UNL     1      46.114 -36.665  12.446  1.00  0.00     0.293 HD
ENDBRANCH   6  12
TORSDOF 3
ENDMDL
MODEL 4
REMARK VINA RESULT:    -3.463     19.881     21.501
REMARK INTER + INTRA:          -4.109
REMARK INTER:                  -3.972
REMARK INTRA:                  -0.137
REMARK UNBOUND:                -0.139
REMARK SMILES O=C([O-])C=Cc1ccc(O)cc1
REMARK SMILES IDX 6 1 7 2 12 3 8 4 11 5 9 6 5 7 4 8 2 9 1 10 3 11 10 12
REMARK H PARENT 10 13
REMARK Flexibility Score: inf
ROOT
ATOM      1  C   UNL     1      42.929 -32.566  11.606  1.00  0.00    -0.025 A 
ATOM      2  C   UNL     1      44.119 -32.734  10.869  1.00  0.00     0.012 A 
ATOM      3  C   UNL     1      42.707 -33.381  12.729  1.00  0.00     0.012 A 
ATOM      4  C   UNL     1      45.070 -33.677  11.268  1.00  0.00     0.047 A 
ATOM      5  C   UNL     1      43.661 -34.323  13.125  1.00  0.00     0.047 A 
ATOM      6  C   UNL     1      44.845 -34.472  12.399  1.00  0.00     0.115 A 
ENDROOT
BRANCH   1   7
ATOM      7  C   UNL     1      41.881 -31.588  11.220  1.00  0.00     0.010 C 
ATOM      8  C   UNL     1      40.816 -31.894  10.467  1.00  0.00     0.025 C 
BRANCH   8   9
ATOM      9  C   UNL     1      39.803 -30.893  10.094  1.00  0.00     0.064 C 
ATOM     10  O   UNL     1      38.605 -31.224   9.884  1.00  0.00    -0.545 OA
ATOM     11  O   UNL     1      40.174 -29.561   9.968  1.00  0.00    -0.545 OA
ENDBRANCH   8   9
ENDBRANCH   1   7
BRANCH   6  12
ATOM     12  O   UNL     1      45.788 -35.415  12.804  1.00  0.00    -0.508 OA
ATOM     13  H   UNL     1      46.511 -35.185  13.475  1.00  0.00     0.293 HD
ENDBRANCH   6  12
TORSDOF 3
ENDMDL
MODEL 5
REMARK VINA RESULT:    -3.294      1.884      5.596
REMARK INTER + INTRA:          -3.915
REMARK INTER:                  -3.762
REMARK INTRA:                  -0.152
REMARK UNBOUND:                -0.139
REMARK SMILES O=C([O-])C=Cc1ccc(O)cc1
REMARK SMILES IDX 6 1 7 2 12 3 8 4 11 5 9 6 5 7 4 8 2 9 1 10 3 11 10 12
REMARK H PARENT 10 13
REMARK Flexibility Score: inf
ROOT
ATOM      1  C   UNL     1      26.252 -40.742  -0.427  1.00  0.00    -0.025 A 
ATOM      2  C   UNL     1      26.094 -39.389  -0.793  1.00  0.00     0.012 A 
ATOM      3  C   UNL     1      26.656 -41.665  -1.407  1.00  0.00     0.012 A 
ATOM      4  C   UNL     1      26.361 -38.975  -2.101  1.00  0.00     0.047 A 
ATOM      5  C   UNL     1      26.922 -41.247  -2.714  1.00  0.00     0.047 A 
ATOM      6  C   UNL     1      26.778 -39.902  -3.065  1.00  0.00     0.115 A 
ENDROOT
BRANCH   1   7
ATOM      7  C   UNL     1      25.973 -41.237   0.944  1.00  0.00     0.010 C 
ATOM      8  C   UNL     1      26.318 -42.455   1.382  1.00  0.00     0.025 C 
BRANCH   8   9
ATOM      9  C   UNL     1      26.012 -42.916   2.746  1.00  0.00     0.064 C 
ATOM     10  O   UNL     1      25.875 -42.098   3.695  1.00  0.00    -0.545 OA
ATOM     11  O   UNL     1      25.876 -44.276   2.993  1.00  0.00    -0.545 OA
ENDBRANCH   8   9
ENDBRANCH   1   7
BRANCH   6  12
ATOM     12  O   UNL     1      27.046 -39.499  -4.371  1.00  0.00    -0.508 OA
ATOM     13  H   UNL     1      27.825 -38.888  -4.587  1.00  0.00     0.293 HD
ENDBRANCH   6  12
TORSDOF 3
ENDMDL
MODEL 6
REMARK VINA RESULT:    -3.118     19.116     20.893
REMARK INTER + INTRA:          -3.713
REMARK INTER:                  -3.568
REMARK INTRA:                  -0.144
REMARK UNBOUND:                -0.139
REMARK SMILES O=C([O-])C=Cc1ccc(O)cc1
REMARK SMILES IDX 6 1 7 2 12 3 8 4 11 5 9 6 5 7 4 8 2 9 1 10 3 11 10 12
REMARK H PARENT 10 13
REMARK Flexibility Score: inf
ROOT
ATOM      1  C   UNL     1      41.589 -31.333  10.235  1.00  0.00    -0.025 A 
ATOM      2  C   UNL     1      41.695 -29.944  10.020  1.00  0.00     0.012 A 
ATOM      3  C   UNL     1      40.313 -31.923  10.234  1.00  0.00     0.012 A 
ATOM      4  C   UNL     1      40.550 -29.175   9.786  1.00  0.00     0.047 A 
ATOM      5  C   UNL     1      39.172 -31.151  10.000  1.00  0.00     0.047 A 
ATOM      6  C   UNL     1      39.286 -29.777   9.773  1.00  0.00     0.115 A 
ENDROOT
BRANCH   1   7
ATOM      7  C   UNL     1      42.769 -32.193  10.498  1.00  0.00     0.010 C 
ATOM      8  C   UNL     1      42.869 -33.023  11.546  1.00  0.00     0.025 C 
BRANCH   8   9
ATOM      9  C   UNL     1      44.062 -33.852  11.782  1.00  0.00     0.064 C 
ATOM     10  O   UNL     1      45.159 -33.590  11.221  1.00  0.00    -0.545 OA
ATOM     11  O   UNL     1      43.976 -34.944  12.635  1.00  0.00    -0.545 OA
ENDBRANCH   8   9
ENDBRANCH   1   7
BRANCH   6  12
ATOM     12  O   UNL     1      38.140 -29.020   9.540  1.00  0.00    -0.508 OA
ATOM     13  H   UNL     1      37.270 -29.452   9.253  1.00  0.00     0.293 HD
ENDBRANCH   6  12
TORSDOF 3
ENDMDL
MODEL 7
REMARK VINA RESULT:    -3.097     18.765     20.517
REMARK INTER + INTRA:          -3.688
REMARK INTER:                  -3.539
REMARK INTRA:                  -0.149
REMARK UNBOUND:                -0.139
REMARK SMILES O=C([O-])C=Cc1ccc(O)cc1
REMARK SMILES IDX 6 1 7 2 12 3 8 4 11 5 9 6 5 7 4 8 2 9 1 10 3 11 10 12
REMARK H PARENT 10 13
REMARK Flexibility Score: inf
ROOT
ATOM      1  C   UNL     1      41.385 -30.478  10.080  1.00  0.00    -0.025 A 
ATOM      2  C   UNL     1      42.455 -29.631   9.724  1.00  0.00     0.012 A 
ATOM      3  C   UNL     1      41.664 -31.812  10.426  1.00  0.00     0.012 A 
ATOM      4  C   UNL     1      43.769 -30.106   9.744  1.00  0.00     0.047 A 
ATOM      5  C   UNL     1      42.979 -32.283  10.443  1.00  0.00     0.047 A 
ATOM      6  C   UNL     1      44.035 -31.433  10.105  1.00  0.00     0.115 A 
ENDROOT
BRANCH   1   7
ATOM      7  C   UNL     1      39.971 -30.028  10.066  1.00  0.00     0.010 C 
ATOM      8  C   UNL     1      38.924 -30.859   9.968  1.00  0.00     0.025 C 
BRANCH   8   9
ATOM      9  C   UNL     1      37.534 -30.375   9.945  1.00  0.00     0.064 C 
ATOM     10  O   UNL     1      37.027 -29.899   8.895  1.00  0.00    -0.545 OA
ATOM     11  O   UNL     1      36.770 -30.440  11.103  1.00  0.00    -0.545 OA
ENDBRANCH   8   9
ENDBRANCH   1   7
BRANCH   6  12
ATOM     12  O   UNL     1      45.342 -31.916  10.127  1.00  0.00    -0.508 OA
ATOM     13  H   UNL     1      46.019 -31.580  10.802  1.00  0.00     0.293 HD
ENDBRANCH   6  12
TORSDOF 3
ENDMDL
