MODEL 1
REMARK VINA RESULT:    -4.545      0.000      0.000
REMARK INTER + INTRA:         -15.206
REMARK INTER:                 -11.984
REMARK INTRA:                  -3.222
REMARK UNBOUND:                -3.222
REMARK SMILES CCCCCCCCCCCCCCCCCCCCCCCCCCCCCC(=O)[O-]
REMARK SMILES IDX 16 1 17 2 18 3 19 4 20 5 21 6 22 7 23 8 24 9 25 10 26 11
REMARK SMILES IDX 27 12 28 13 29 14 30 15 31 16 32 17 15 18 14 19 13 20 12 21
REMARK SMILES IDX 11 22 10 23 9 24 8 25 7 26 6 27 5 28 4 29 3 30 2 31 1 32
REMARK H PARENT
REMARK Flexibility Score: inf
ROOT
ATOM      1  C   UNL     1      -7.684   5.623  -7.612  1.00  0.00     0.000 C 
ENDROOT
BRANCH   1   2
ATOM      2  C   UNL     1      -7.746   5.744  -6.081  1.00  0.00     0.000 C 
BRANCH   2   3
ATOM      3  C   UNL     1      -9.189   5.801  -5.547  1.00  0.00     0.000 C 
BRANCH   3   4
ATOM      4  C   UNL     1      -9.487   6.980  -4.595  1.00  0.00     0.000 C 
BRANCH   4   5
ATOM      5  C   UNL     1      -8.290   7.901  -4.292  1.00  0.00     0.000 C 
BRANCH   5   6
ATOM      6  C   UNL     1      -8.543   8.977  -3.217  1.00  0.00     0.000 C 
BRANCH   6   7
ATOM      7  C   UNL     1      -9.971   8.955  -2.631  1.00  0.00     0.000 C 
BRANCH   7   8
ATOM      8  C   UNL     1     -10.003   8.480  -1.168  1.00  0.00     0.000 C 
BRANCH   8   9
ATOM      9  C   UNL     1     -10.554   7.049  -1.009  1.00  0.00     0.000 C 
BRANCH   9  10
ATOM     10  C   UNL     1      -9.488   5.937  -0.987  1.00  0.00     0.000 C 
BRANCH  10  11
ATOM     11  C   UNL     1      -8.059   6.399  -0.639  1.00  0.00     0.000 C 
BRANCH  11  12
ATOM     12  C   UNL     1      -6.950   5.497  -1.222  1.00  0.00     0.000 C 
BRANCH  12  13
ATOM     13  C   UNL     1      -7.408   4.731  -2.478  1.00  0.00     0.006 C 
BRANCH  13  14
ATOM     14  C   UNL     1      -6.236   4.059  -3.204  1.00  0.00     0.053 C 
BRANCH  14  15
ATOM     15  C   UNL     1      -5.026   4.945  -3.253  1.00  0.00     0.041 C 
ATOM     16  O   UNL     1      -5.008   5.952  -4.009  1.00  0.00    -0.550 OA
ATOM     17  O   UNL     1      -3.917   4.649  -2.470  1.00  0.00    -0.550 OA
ENDBRANCH  14  15
ENDBRANCH  13  14
ENDBRANCH  12  13
ENDBRANCH  11  12
ENDBRANCH  10  11
ENDBRANCH   9  10
ENDBRANCH   8   9
ENDBRANCH   7   8
ENDBRANCH   6   7
ENDBRANCH   5   6
ENDBRANCH   4   5
ENDBRANCH   3   4
ENDBRANCH   2   3
ENDBRANCH   1   2
BRANCH   1  18
ATOM     18  C   UNL     1      -9.075   5.608  -8.271  1.00  0.00     0.000 C 
BRANCH  18  19
ATOM     19  C   UNL     1      -9.281   4.522  -9.341  1.00  0.00     0.000 C 
BRANCH  19  20
ATOM     20  C   UNL     1      -9.551   5.099 -10.738  1.00  0.00     0.000 C 
BRANCH  20  21
ATOM     21  C   UNL     1      -8.335   4.909 -11.653  1.00  0.00     0.000 C 
BRANCH  21  22
ATOM     22  C   UNL     1      -8.766   4.500 -13.068  1.00  0.00     0.000 C 
BRANCH  22  23
ATOM     23  C   UNL     1      -8.039   5.298 -14.163  1.00  0.00     0.000 C 
BRANCH  23  24
ATOM     24  C   UNL     1      -6.516   5.298 -13.980  1.00  0.00    -0.000 C 
BRANCH  24  25
ATOM     25  C   UNL     1      -5.824   4.508 -15.097  1.00  0.00    -0.000 C 
BRANCH  25  26
ATOM     26  C   UNL     1      -5.978   5.222 -16.449  1.00  0.00    -0.000 C 
BRANCH  26  27
ATOM     27  C   UNL     1      -5.812   6.751 -16.329  1.00  0.00    -0.000 C 
BRANCH  27  28
ATOM     28  C   UNL     1      -6.626   7.541 -17.366  1.00  0.00    -0.000 C 
BRANCH  28  29
ATOM     29  C   UNL     1      -8.144   7.404 -17.170  1.00  0.00    -0.000 C 
BRANCH  29  30
ATOM     30  C   UNL     1      -8.916   7.563 -18.496  1.00  0.00    -0.000 C 
BRANCH  30  31
ATOM     31  C   UNL     1      -9.580   6.264 -18.987  1.00  0.00    -0.003 C 
ATOM     32  C   UNL     1      -8.614   5.084 -19.069  1.00  0.00     0.004 C 
ENDBRANCH  30  31
ENDBRANCH  29  30
ENDBRANCH  28  29
ENDBRANCH  27  28
ENDBRANCH  26  27
ENDBRANCH  25  26
ENDBRANCH  24  25
ENDBRANCH  23  24
ENDBRANCH  22  23
ENDBRANCH  21  22
ENDBRANCH  20  21
ENDBRANCH  19  20
ENDBRANCH  18  19
ENDBRANCH   1  18
TORSDOF 28
ENDMDL
MODEL 2
REMARK VINA RESULT:    -4.522      4.452     13.221
REMARK INTER + INTRA:         -15.145
REMARK INTER:                 -12.465
REMARK INTRA:                  -2.681
REMARK UNBOUND:                -3.222
REMARK SMILES CCCCCCCCCCCCCCCCCCCCCCCCCCCCCC(=O)[O-]
REMARK SMILES IDX 16 1 17 2 18 3 19 4 20 5 21 6 22 7 23 8 24 9 25 10 26 11
REMARK SMILES IDX 27 12 28 13 29 14 30 15 31 16 32 17 15 18 14 19 13 20 12 21
REMARK SMILES IDX 11 22 10 23 9 24 8 25 7 26 6 27 5 28 4 29 3 30 2 31 1 32
REMARK H PARENT
REMARK Flexibility Score: inf
ROOT
ATOM      1  C   UNL     1      -9.098   5.566  -8.156  1.00  0.00     0.000 C 
ENDROOT
BRANCH   1   2
ATOM      2  C   UNL     1      -9.339   4.499  -9.237  1.00  0.00     0.000 C 
BRANCH   2   3
ATOM      3  C   UNL     1      -9.506   5.105 -10.642  1.00  0.00     0.000 C 
BRANCH   3   4
ATOM      4  C   UNL     1      -8.332   4.843 -11.610  1.00  0.00     0.000 C 
BRANCH   4   5
ATOM      5  C   UNL     1      -8.725   4.664 -13.089  1.00  0.00     0.000 C 
BRANCH   5   6
ATOM      6  C   UNL     1      -7.654   5.093 -14.112  1.00  0.00     0.000 C 
BRANCH   6   7
ATOM      7  C   UNL     1      -6.515   4.068 -14.295  1.00  0.00     0.000 C 
BRANCH   7   8
ATOM      8  C   UNL     1      -5.471   4.522 -15.330  1.00  0.00     0.000 C 
BRANCH   8   9
ATOM      9  C   UNL     1      -5.062   5.999 -15.171  1.00  0.00     0.000 C 
BRANCH   9  10
ATOM     10  C   UNL     1      -4.570   6.684 -16.461  1.00  0.00     0.000 C 
BRANCH  10  11
ATOM     11  C   UNL     1      -5.676   7.096 -17.452  1.00  0.00     0.000 C 
BRANCH  11  12
ATOM     12  C   UNL     1      -6.823   7.905 -16.810  1.00  0.00     0.000 C 
BRANCH  12  13
ATOM     13  C   UNL     1      -8.214   7.358 -17.181  1.00  0.00     0.006 C 
BRANCH  13  14
ATOM     14  C   UNL     1      -8.140   5.946 -17.775  1.00  0.00     0.053 C 
BRANCH  14  15
ATOM     15  C   UNL     1      -9.153   5.743 -18.863  1.00  0.00     0.041 C 
ATOM     16  O   UNL     1      -9.971   6.659 -19.147  1.00  0.00    -0.550 OA
ATOM     17  O   UNL     1      -9.199   4.538 -19.554  1.00  0.00    -0.550 OA
ENDBRANCH  14  15
ENDBRANCH  13  14
ENDBRANCH  12  13
ENDBRANCH  11  12
ENDBRANCH  10  11
ENDBRANCH   9  10
ENDBRANCH   8   9
ENDBRANCH   7   8
ENDBRANCH   6   7
ENDBRANCH   5   6
ENDBRANCH   4   5
ENDBRANCH   3   4
ENDBRANCH   2   3
ENDBRANCH   1   2
BRANCH   1  18
ATOM     18  C   UNL     1      -7.780   5.355  -7.388  1.00  0.00     0.000 C 
BRANCH  18  19
ATOM     19  C   UNL     1      -6.796   6.536  -7.440  1.00  0.00     0.000 C 
BRANCH  19  20
ATOM     20  C   UNL     1      -6.579   7.198  -6.072  1.00  0.00     0.000 C 
BRANCH  20  21
ATOM     21  C   UNL     1      -5.133   7.015  -5.598  1.00  0.00     0.000 C 
BRANCH  21  22
ATOM     22  C   UNL     1      -5.075   6.189  -4.305  1.00  0.00     0.000 C 
BRANCH  22  23
ATOM     23  C   UNL     1      -6.468   5.758  -3.815  1.00  0.00     0.000 C 
BRANCH  23  24
ATOM     24  C   UNL     1      -6.802   4.308  -4.190  1.00  0.00    -0.000 C 
BRANCH  24  25
ATOM     25  C   UNL     1      -6.166   3.320  -3.204  1.00  0.00    -0.000 C 
BRANCH  25  26
ATOM     26  C   UNL     1      -6.347   3.800  -1.756  1.00  0.00    -0.000 C 
BRANCH  26  27
ATOM     27  C   UNL     1      -7.466   3.036  -1.018  1.00  0.00    -0.000 C 
BRANCH  27  28
ATOM     28  C   UNL     1      -8.703   3.898  -0.717  1.00  0.00    -0.000 C 
BRANCH  28  29
ATOM     29  C   UNL     1      -8.412   5.405  -0.772  1.00  0.00    -0.000 C 
BRANCH  29  30
ATOM     30  C   UNL     1      -9.532   6.185  -1.490  1.00  0.00    -0.000 C 
BRANCH  30  31
ATOM     31  C   UNL     1     -10.495   6.910  -0.533  1.00  0.00    -0.003 C 
ATOM     32  C   UNL     1     -11.205   8.100  -1.176  1.00  0.00     0.004 C 
ENDBRANCH  30  31
ENDBRANCH  29  30
ENDBRANCH  28  29
ENDBRANCH  27  28
ENDBRANCH  26  27
ENDBRANCH  25  26
ENDBRANCH  24  25
ENDBRANCH  23  24
ENDBRANCH  22  23
ENDBRANCH  21  22
ENDBRANCH  20  21
ENDBRANCH  19  20
ENDBRANCH  18  19
ENDBRANCH   1  18
TORSDOF 28
ENDMDL
MODEL 3
REMARK VINA RESULT:    -4.502      2.044      3.349
REMARK INTER + INTRA:         -15.093
REMARK INTER:                 -12.144
REMARK INTRA:                  -2.949
REMARK UNBOUND:                -3.222
REMARK SMILES CCCCCCCCCCCCCCCCCCCCCCCCCCCCCC(=O)[O-]
REMARK SMILES IDX 16 1 17 2 18 3 19 4 20 5 21 6 22 7 23 8 24 9 25 10 26 11
REMARK SMILES IDX 27 12 28 13 29 14 30 15 31 16 32 17 15 18 14 19 13 20 12 21
REMARK SMILES IDX 11 22 10 23 9 24 8 25 7 26 6 27 5 28 4 29 3 30 2 31 1 32
REMARK H PARENT
REMARK Flexibility Score: inf
ROOT
ATOM      1  C   UNL     1      -9.114   5.589  -8.131  1.00  0.00     0.000 C 
ENDROOT
BRANCH   1   2
ATOM      2  C   UNL     1      -7.888   5.326  -7.242  1.00  0.00     0.000 C 
BRANCH   2   3
ATOM      3  C   UNL     1      -6.822   6.430  -7.358  1.00  0.00     0.000 C 
BRANCH   3   4
ATOM      4  C   UNL     1      -6.829   7.469  -6.216  1.00  0.00     0.000 C 
BRANCH   4   5
ATOM      5  C   UNL     1      -5.529   7.552  -5.392  1.00  0.00     0.000 C 
BRANCH   5   6
ATOM      6  C   UNL     1      -5.230   6.323  -4.511  1.00  0.00     0.000 C 
BRANCH   6   7
ATOM      7  C   UNL     1      -6.438   5.834  -3.684  1.00  0.00     0.000 C 
BRANCH   7   8
ATOM      8  C   UNL     1      -6.897   4.422  -4.085  1.00  0.00     0.000 C 
BRANCH   8   9
ATOM      9  C   UNL     1      -6.138   3.304  -3.343  1.00  0.00     0.000 C 
BRANCH   9  10
ATOM     10  C   UNL     1      -6.259   3.338  -1.808  1.00  0.00     0.000 C 
BRANCH  10  11
ATOM     11  C   UNL     1      -7.309   2.382  -1.208  1.00  0.00     0.000 C 
BRANCH  11  12
ATOM     12  C   UNL     1      -8.510   3.099  -0.557  1.00  0.00     0.000 C 
BRANCH  12  13
ATOM     13  C   UNL     1      -8.394   4.633  -0.627  1.00  0.00     0.006 C 
BRANCH  13  14
ATOM     14  C   UNL     1      -9.449   5.251  -1.553  1.00  0.00     0.053 C 
BRANCH  14  15
ATOM     15  C   UNL     1      -9.437   6.750  -1.494  1.00  0.00     0.041 C 
ATOM     16  O   UNL     1      -9.167   7.340  -0.414  1.00  0.00    -0.550 OA
ATOM     17  O   UNL     1      -9.735   7.491  -2.631  1.00  0.00    -0.550 OA
ENDBRANCH  14  15
ENDBRANCH  13  14
ENDBRANCH  12  13
ENDBRANCH  11  12
ENDBRANCH  10  11
ENDBRANCH   9  10
ENDBRANCH   8   9
ENDBRANCH   7   8
ENDBRANCH   6   7
ENDBRANCH   5   6
ENDBRANCH   4   5
ENDBRANCH   3   4
ENDBRANCH   2   3
ENDBRANCH   1   2
BRANCH   1  18
ATOM     18  C   UNL     1      -9.269   4.555  -9.262  1.00  0.00     0.000 C 
BRANCH  18  19
ATOM     19  C   UNL     1      -9.554   5.145 -10.654  1.00  0.00     0.000 C 
BRANCH  19  20
ATOM     20  C   UNL     1      -8.342   5.083 -11.594  1.00  0.00     0.000 C 
BRANCH  20  21
ATOM     21  C   UNL     1      -8.703   4.380 -12.908  1.00  0.00     0.000 C 
BRANCH  21  22
ATOM     22  C   UNL     1      -7.475   4.248 -13.820  1.00  0.00     0.000 C 
BRANCH  22  23
ATOM     23  C   UNL     1      -6.356   5.238 -13.453  1.00  0.00     0.000 C 
BRANCH  23  24
ATOM     24  C   UNL     1      -5.164   5.162 -14.417  1.00  0.00    -0.000 C 
BRANCH  24  25
ATOM     25  C   UNL     1      -5.138   3.821 -15.160  1.00  0.00    -0.000 C 
BRANCH  25  26
ATOM     26  C   UNL     1      -4.661   4.007 -16.609  1.00  0.00    -0.000 C 
BRANCH  26  27
ATOM     27  C   UNL     1      -5.833   4.217 -17.591  1.00  0.00    -0.000 C 
BRANCH  27  28
ATOM     28  C   UNL     1      -5.848   5.610 -18.241  1.00  0.00    -0.000 C 
BRANCH  28  29
ATOM     29  C   UNL     1      -6.589   6.658 -17.396  1.00  0.00    -0.000 C 
BRANCH  29  30
ATOM     30  C   UNL     1      -8.023   6.211 -17.046  1.00  0.00    -0.000 C 
BRANCH  30  31
ATOM     31  C   UNL     1      -8.917   5.974 -18.276  1.00  0.00    -0.003 C 
ATOM     32  C   UNL     1      -9.527   7.257 -18.837  1.00  0.00     0.004 C 
ENDBRANCH  30  31
ENDBRANCH  29  30
ENDBRANCH  28  29
ENDBRANCH  27  28
ENDBRANCH  26  27
ENDBRANCH  25  26
ENDBRANCH  24  25
ENDBRANCH  23  24
ENDBRANCH  22  23
ENDBRANCH  21  22
ENDBRANCH  20  21
ENDBRANCH  19  20
ENDBRANCH  18  19
ENDBRANCH   1  18
TORSDOF 28
ENDMDL
MODEL 4
REMARK VINA RESULT:    -4.475      2.344      3.743
REMARK INTER + INTRA:         -15.023
REMARK INTER:                 -11.548
REMARK INTRA:                  -3.475
REMARK UNBOUND:                -3.222
REMARK SMILES CCCCCCCCCCCCCCCCCCCCCCCCCCCCCC(=O)[O-]
REMARK SMILES IDX 16 1 17 2 18 3 19 4 20 5 21 6 22 7 23 8 24 9 25 10 26 11
REMARK SMILES IDX 27 12 28 13 29 14 30 15 31 16 32 17 15 18 14 19 13 20 12 21
REMARK SMILES IDX 11 22 10 23 9 24 8 25 7 26 6 27 5 28 4 29 3 30 2 31 1 32
REMARK H PARENT
REMARK Flexibility Score: inf
ROOT
ATOM      1  C   UNL     1      -7.869   5.606  -7.257  1.00  0.00     0.000 C 
ENDROOT
BRANCH   1   2
ATOM      2  C   UNL     1      -6.626   5.980  -8.080  1.00  0.00     0.000 C 
BRANCH   2   3
ATOM      3  C   UNL     1      -5.773   7.070  -7.407  1.00  0.00     0.000 C 
BRANCH   3   4
ATOM      4  C   UNL     1      -6.437   7.768  -6.200  1.00  0.00     0.000 C 
BRANCH   4   5
ATOM      5  C   UNL     1      -5.566   7.860  -4.932  1.00  0.00     0.000 C 
BRANCH   5   6
ATOM      6  C   UNL     1      -4.720   6.609  -4.623  1.00  0.00     0.000 C 
BRANCH   6   7
ATOM      7  C   UNL     1      -5.260   5.759  -3.453  1.00  0.00     0.000 C 
BRANCH   7   8
ATOM      8  C   UNL     1      -6.445   4.869  -3.866  1.00  0.00     0.000 C 
BRANCH   8   9
ATOM      9  C   UNL     1      -7.759   5.241  -3.153  1.00  0.00     0.000 C 
BRANCH   9  10
ATOM     10  C   UNL     1      -8.852   5.835  -4.062  1.00  0.00     0.000 C 
BRANCH  10  11
ATOM     11  C   UNL     1      -9.184   7.319  -3.811  1.00  0.00     0.000 C 
BRANCH  11  12
ATOM     12  C   UNL     1      -8.514   7.906  -2.551  1.00  0.00     0.000 C 
BRANCH  12  13
ATOM     13  C   UNL     1      -8.178   9.402  -2.700  1.00  0.00     0.006 C 
BRANCH  13  14
ATOM     14  C   UNL     1      -9.437  10.262  -2.871  1.00  0.00     0.053 C 
BRANCH  14  15
ATOM     15  C   UNL     1     -10.427  10.030  -1.768  1.00  0.00     0.041 C 
ATOM     16  O   UNL     1     -11.592   9.631  -2.036  1.00  0.00    -0.550 OA
ATOM     17  O   UNL     1     -10.064  10.264  -0.448  1.00  0.00    -0.550 OA
ENDBRANCH  14  15
ENDBRANCH  13  14
ENDBRANCH  12  13
ENDBRANCH  11  12
ENDBRANCH  10  11
ENDBRANCH   9  10
ENDBRANCH   8   9
ENDBRANCH   7   8
ENDBRANCH   6   7
ENDBRANCH   5   6
ENDBRANCH   4   5
ENDBRANCH   3   4
ENDBRANCH   2   3
ENDBRANCH   1   2
BRANCH   1  18
ATOM     18  C   UNL     1      -9.159   5.579  -8.097  1.00  0.00     0.000 C 
BRANCH  18  19
ATOM     19  C   UNL     1      -9.187   4.529  -9.221  1.00  0.00     0.000 C 
BRANCH  19  20
ATOM     20  C   UNL     1      -9.556   5.122 -10.588  1.00  0.00     0.000 C 
BRANCH  20  21
ATOM     21  C   UNL     1      -8.333   5.168 -11.513  1.00  0.00     0.000 C 
BRANCH  21  22
ATOM     22  C   UNL     1      -8.618   4.455 -12.842  1.00  0.00     0.000 C 
BRANCH  22  23
ATOM     23  C   UNL     1      -7.710   4.943 -13.983  1.00  0.00     0.000 C 
BRANCH  23  24
ATOM     24  C   UNL     1      -6.638   3.914 -14.365  1.00  0.00    -0.000 C 
BRANCH  24  25
ATOM     25  C   UNL     1      -5.633   4.505 -15.361  1.00  0.00    -0.000 C 
BRANCH  25  26
ATOM     26  C   UNL     1      -5.602   6.038 -15.262  1.00  0.00    -0.000 C 
BRANCH  26  27
ATOM     27  C   UNL     1      -5.267   6.707 -16.612  1.00  0.00    -0.000 C 
BRANCH  27  28
ATOM     28  C   UNL     1      -6.340   7.698 -17.090  1.00  0.00    -0.000 C 
BRANCH  28  29
ATOM     29  C   UNL     1      -7.772   7.203 -16.833  1.00  0.00    -0.000 C 
BRANCH  29  30
ATOM     30  C   UNL     1      -8.620   7.191 -18.121  1.00  0.00    -0.000 C 
BRANCH  30  31
ATOM     31  C   UNL     1      -9.173   5.802 -18.486  1.00  0.00    -0.003 C 
ATOM     32  C   UNL     1      -8.227   4.987 -19.367  1.00  0.00     0.004 C 
ENDBRANCH  30  31
ENDBRANCH  29  30
ENDBRANCH  28  29
ENDBRANCH  27  28
ENDBRANCH  26  27
ENDBRANCH  25  26
ENDBRANCH  24  25
ENDBRANCH  23  24
ENDBRANCH  22  23
ENDBRANCH  21  22
ENDBRANCH  20  21
ENDBRANCH  19  20
ENDBRANCH  18  19
ENDBRANCH   1  18
TORSDOF 28
ENDMDL
MODEL 5
REMARK VINA RESULT:    -4.469      4.472     13.331
REMARK INTER + INTRA:         -15.007
REMARK INTER:                 -12.732
REMARK INTRA:                  -2.275
REMARK UNBOUND:                -3.222
REMARK SMILES CCCCCCCCCCCCCCCCCCCCCCCCCCCCCC(=O)[O-]
REMARK SMILES IDX 16 1 17 2 18 3 19 4 20 5 21 6 22 7 23 8 24 9 25 10 26 11
REMARK SMILES IDX 27 12 28 13 29 14 30 15 31 16 32 17 15 18 14 19 13 20 12 21
REMARK SMILES IDX 11 22 10 23 9 24 8 25 7 26 6 27 5 28 4 29 3 30 2 31 1 32
REMARK H PARENT
REMARK Flexibility Score: inf
ROOT
ATOM      1  C   UNL     1      -9.135   5.582  -8.132  1.00  0.00     0.000 C 
ENDROOT
BRANCH   1   2
ATOM      2  C   UNL     1      -9.183   4.498  -9.222  1.00  0.00     0.000 C 
BRANCH   2   3
ATOM      3  C   UNL     1      -9.549   5.063 -10.606  1.00  0.00     0.000 C 
BRANCH   3   4
ATOM      4  C   UNL     1      -8.378   5.148 -11.608  1.00  0.00     0.000 C 
BRANCH   4   5
ATOM      5  C   UNL     1      -8.583   4.381 -12.929  1.00  0.00     0.000 C 
BRANCH   5   6
ATOM      6  C   UNL     1      -7.293   4.046 -13.703  1.00  0.00     0.000 C 
BRANCH   6   7
ATOM      7  C   UNL     1      -6.860   5.138 -14.704  1.00  0.00     0.000 C 
BRANCH   7   8
ATOM      8  C   UNL     1      -5.395   5.566 -14.516  1.00  0.00     0.000 C 
BRANCH   8   9
ATOM      9  C   UNL     1      -4.839   6.368 -15.709  1.00  0.00     0.000 C 
BRANCH   9  10
ATOM     10  C   UNL     1      -5.251   5.843 -17.098  1.00  0.00     0.000 C 
BRANCH  10  11
ATOM     11  C   UNL     1      -6.029   6.842 -17.977  1.00  0.00     0.000 C 
BRANCH  11  12
ATOM     12  C   UNL     1      -6.895   7.837 -17.177  1.00  0.00     0.000 C 
BRANCH  12  13
ATOM     13  C   UNL     1      -8.383   7.442 -17.151  1.00  0.00     0.006 C 
BRANCH  13  14
ATOM     14  C   UNL     1      -8.760   6.535 -18.329  1.00  0.00     0.053 C 
BRANCH  14  15
ATOM     15  C   UNL     1      -9.815   7.154 -19.198  1.00  0.00     0.041 C 
ATOM     16  O   UNL     1     -10.077   8.383 -19.097  1.00  0.00    -0.550 OA
ATOM     17  O   UNL     1     -10.512   6.371 -20.109  1.00  0.00    -0.550 OA
ENDBRANCH  14  15
ENDBRANCH  13  14
ENDBRANCH  12  13
ENDBRANCH  11  12
ENDBRANCH  10  11
ENDBRANCH   9  10
ENDBRANCH   8   9
ENDBRANCH   7   8
ENDBRANCH   6   7
ENDBRANCH   5   6
ENDBRANCH   4   5
ENDBRANCH   3   4
ENDBRANCH   2   3
ENDBRANCH   1   2
BRANCH   1  18
ATOM     18  C   UNL     1      -7.957   5.401  -7.157  1.00  0.00     0.000 C 
BRANCH  18  19
ATOM     19  C   UNL     1      -7.028   6.619  -7.018  1.00  0.00     0.000 C 
BRANCH  19  20
ATOM     20  C   UNL     1      -7.267   7.414  -5.727  1.00  0.00     0.000 C 
BRANCH  20  21
ATOM     21  C   UNL     1      -6.283   6.987  -4.631  1.00  0.00     0.000 C 
BRANCH  21  22
ATOM     22  C   UNL     1      -6.871   5.863  -3.767  1.00  0.00     0.000 C 
BRANCH  22  23
ATOM     23  C   UNL     1      -8.303   6.166  -3.293  1.00  0.00     0.000 C 
BRANCH  23  24
ATOM     24  C   UNL     1      -8.770   5.215  -2.184  1.00  0.00    -0.000 C 
BRANCH  24  25
ATOM     25  C   UNL     1      -9.356   5.992  -0.998  1.00  0.00    -0.000 C 
BRANCH  25  26
ATOM     26  C   UNL     1      -8.805   7.427  -0.959  1.00  0.00    -0.000 C 
BRANCH  26  27
ATOM     27  C   UNL     1      -9.917   8.478  -0.764  1.00  0.00    -0.000 C 
BRANCH  27  28
ATOM     28  C   UNL     1     -11.169   8.214  -1.616  1.00  0.00    -0.000 C 
BRANCH  28  29
ATOM     29  C   UNL     1     -11.150   8.960  -2.959  1.00  0.00    -0.000 C 
BRANCH  29  30
ATOM     30  C   UNL     1     -11.606  10.426  -2.812  1.00  0.00    -0.000 C 
BRANCH  30  31
ATOM     31  C   UNL     1     -13.113  10.583  -2.538  1.00  0.00    -0.003 C 
ATOM     32  C   UNL     1     -13.937  10.818  -3.802  1.00  0.00     0.004 C 
ENDBRANCH  30  31
ENDBRANCH  29  30
ENDBRANCH  28  29
ENDBRANCH  27  28
ENDBRANCH  26  27
ENDBRANCH  25  26
ENDBRANCH  24  25
ENDBRANCH  23  24
ENDBRANCH  22  23
ENDBRANCH  21  22
ENDBRANCH  20  21
ENDBRANCH  19  20
ENDBRANCH  18  19
ENDBRANCH   1  18
TORSDOF 28
ENDMDL
MODEL 6
REMARK VINA RESULT:    -4.415      4.130     12.706
REMARK INTER + INTRA:         -14.863
REMARK INTER:                 -11.206
REMARK INTRA:                  -3.656
REMARK UNBOUND:                -3.222
REMARK SMILES CCCCCCCCCCCCCCCCCCCCCCCCCCCCCC(=O)[O-]
REMARK SMILES IDX 16 1 17 2 18 3 19 4 20 5 21 6 22 7 23 8 24 9 25 10 26 11
REMARK SMILES IDX 27 12 28 13 29 14 30 15 31 16 32 17 15 18 14 19 13 20 12 21
REMARK SMILES IDX 11 22 10 23 9 24 8 25 7 26 6 27 5 28 4 29 3 30 2 31 1 32
REMARK H PARENT
REMARK Flexibility Score: inf
ROOT
ATOM      1  C   UNL     1      -9.463   4.546  -9.347  1.00  0.00     0.000 C 
ENDROOT
BRANCH   1   2
ATOM      2  C   UNL     1      -9.544   5.218 -10.727  1.00  0.00     0.000 C 
BRANCH   2   3
ATOM      3  C   UNL     1      -8.219   5.136 -11.507  1.00  0.00     0.000 C 
BRANCH   3   4
ATOM      4  C   UNL     1      -8.307   4.421 -12.872  1.00  0.00     0.000 C 
BRANCH   4   5
ATOM      5  C   UNL     1      -8.369   5.350 -14.100  1.00  0.00     0.000 C 
BRANCH   5   6
ATOM      6  C   UNL     1      -7.130   5.312 -15.017  1.00  0.00     0.000 C 
BRANCH   6   7
ATOM      7  C   UNL     1      -5.798   5.107 -14.265  1.00  0.00     0.000 C 
BRANCH   7   8
ATOM      8  C   UNL     1      -4.577   5.163 -15.198  1.00  0.00     0.000 C 
BRANCH   8   9
ATOM      9  C   UNL     1      -4.956   5.207 -16.691  1.00  0.00     0.000 C 
BRANCH   9  10
ATOM     10  C   UNL     1      -4.539   6.491 -17.434  1.00  0.00     0.000 C 
BRANCH  10  11
ATOM     11  C   UNL     1      -5.037   7.807 -16.807  1.00  0.00     0.000 C 
BRANCH  11  12
ATOM     12  C   UNL     1      -6.455   8.218 -17.256  1.00  0.00     0.000 C 
BRANCH  12  13
ATOM     13  C   UNL     1      -6.789   7.735 -18.680  1.00  0.00     0.006 C 
BRANCH  13  14
ATOM     14  C   UNL     1      -8.292   7.811 -18.977  1.00  0.00     0.053 C 
BRANCH  14  15
ATOM     15  C   UNL     1      -8.961   6.478 -18.823  1.00  0.00     0.041 C 
ATOM     16  O   UNL     1      -8.339   5.513 -18.303  1.00  0.00    -0.550 OA
ATOM     17  O   UNL     1     -10.267   6.301 -19.262  1.00  0.00    -0.550 OA
ENDBRANCH  14  15
ENDBRANCH  13  14
ENDBRANCH  12  13
ENDBRANCH  11  12
ENDBRANCH  10  11
ENDBRANCH   9  10
ENDBRANCH   8   9
ENDBRANCH   7   8
ENDBRANCH   6   7
ENDBRANCH   5   6
ENDBRANCH   4   5
ENDBRANCH   3   4
ENDBRANCH   2   3
ENDBRANCH   1   2
BRANCH   1  18
ATOM     18  C   UNL     1      -9.065   5.523  -8.225  1.00  0.00     0.000 C 
BRANCH  18  19
ATOM     19  C   UNL     1      -7.606   5.414  -7.749  1.00  0.00     0.000 C 
BRANCH  19  20
ATOM     20  C   UNL     1      -7.090   6.703  -7.093  1.00  0.00     0.000 C 
BRANCH  20  21
ATOM     21  C   UNL     1      -5.675   7.037  -7.581  1.00  0.00     0.000 C 
BRANCH  21  22
ATOM     22  C   UNL     1      -4.818   7.604  -6.440  1.00  0.00     0.000 C 
BRANCH  22  23
ATOM     23  C   UNL     1      -5.657   8.035  -5.226  1.00  0.00     0.000 C 
BRANCH  23  24
ATOM     24  C   UNL     1      -5.097   7.495  -3.902  1.00  0.00    -0.000 C 
BRANCH  24  25
ATOM     25  C   UNL     1      -4.740   6.008  -4.018  1.00  0.00    -0.000 C 
BRANCH  25  26
ATOM     26  C   UNL     1      -5.708   5.147  -3.191  1.00  0.00    -0.000 C 
BRANCH  26  27
ATOM     27  C   UNL     1      -6.959   4.734  -3.994  1.00  0.00    -0.000 C 
BRANCH  27  28
ATOM     28  C   UNL     1      -8.269   5.307  -3.427  1.00  0.00    -0.000 C 
BRANCH  28  29
ATOM     29  C   UNL     1      -9.113   6.035  -4.484  1.00  0.00    -0.000 C 
BRANCH  29  30
ATOM     30  C   UNL     1      -9.337   7.518  -4.125  1.00  0.00    -0.000 C 
BRANCH  30  31
ATOM     31  C   UNL     1      -8.613   7.962  -2.841  1.00  0.00    -0.003 C 
ATOM     32  C   UNL     1      -8.194   9.431  -2.861  1.00  0.00     0.004 C 
ENDBRANCH  30  31
ENDBRANCH  29  30
ENDBRANCH  28  29
ENDBRANCH  27  28
ENDBRANCH  26  27
ENDBRANCH  25  26
ENDBRANCH  24  25
ENDBRANCH  23  24
ENDBRANCH  22  23
ENDBRANCH  21  22
ENDBRANCH  20  21
ENDBRANCH  19  20
ENDBRANCH  18  19
ENDBRANCH   1  18
TORSDOF 28
ENDMDL
MODEL 7
REMARK VINA RESULT:    -4.405      4.262     13.273
REMARK INTER + INTRA:         -14.836
REMARK INTER:                 -11.656
REMARK INTRA:                  -3.180
REMARK UNBOUND:                -3.222
REMARK SMILES CCCCCCCCCCCCCCCCCCCCCCCCCCCCCC(=O)[O-]
REMARK SMILES IDX 16 1 17 2 18 3 19 4 20 5 21 6 22 7 23 8 24 9 25 10 26 11
REMARK SMILES IDX 27 12 28 13 29 14 30 15 31 16 32 17 15 18 14 19 13 20 12 21
REMARK SMILES IDX 11 22 10 23 9 24 8 25 7 26 6 27 5 28 4 29 3 30 2 31 1 32
REMARK H PARENT
REMARK Flexibility Score: inf
ROOT
ATOM      1  C   UNL     1      -9.476   5.362  -8.679  1.00  0.00     0.000 C 
ENDROOT
BRANCH   1   2
ATOM      2  C   UNL     1      -9.437   4.542  -9.979  1.00  0.00     0.000 C 
BRANCH   2   3
ATOM      3  C   UNL     1      -8.678   5.257 -11.111  1.00  0.00     0.000 C 
BRANCH   3   4
ATOM      4  C   UNL     1      -8.664   4.512 -12.463  1.00  0.00     0.000 C 
BRANCH   4   5
ATOM      5  C   UNL     1      -7.911   5.226 -13.601  1.00  0.00     0.000 C 
BRANCH   5   6
ATOM      6  C   UNL     1      -6.383   5.022 -13.609  1.00  0.00     0.000 C 
BRANCH   6   7
ATOM      7  C   UNL     1      -5.875   4.122 -14.756  1.00  0.00     0.000 C 
BRANCH   7   8
ATOM      8  C   UNL     1      -4.625   4.692 -15.447  1.00  0.00     0.000 C 
BRANCH   8   9
ATOM      9  C   UNL     1      -4.317   6.146 -15.039  1.00  0.00     0.000 C 
BRANCH   9  10
ATOM     10  C   UNL     1      -4.344   7.169 -16.191  1.00  0.00     0.000 C 
BRANCH  10  11
ATOM     11  C   UNL     1      -5.497   6.997 -17.199  1.00  0.00     0.000 C 
BRANCH  11  12
ATOM     12  C   UNL     1      -6.646   8.010 -17.014  1.00  0.00     0.000 C 
BRANCH  12  13
ATOM     13  C   UNL     1      -7.995   7.329 -16.718  1.00  0.00     0.006 C 
BRANCH  13  14
ATOM     14  C   UNL     1      -8.087   5.933 -17.346  1.00  0.00     0.053 C 
BRANCH  14  15
ATOM     15  C   UNL     1      -8.698   5.974 -18.716  1.00  0.00     0.041 C 
ATOM     16  O   UNL     1      -9.891   6.350 -18.867  1.00  0.00    -0.550 OA
ATOM     17  O   UNL     1      -7.951   5.586 -19.821  1.00  0.00    -0.550 OA
ENDBRANCH  14  15
ENDBRANCH  13  14
ENDBRANCH  12  13
ENDBRANCH  11  12
ENDBRANCH  10  11
ENDBRANCH   9  10
ENDBRANCH   8   9
ENDBRANCH   7   8
ENDBRANCH   6   7
ENDBRANCH   5   6
ENDBRANCH   4   5
ENDBRANCH   3   4
ENDBRANCH   2   3
ENDBRANCH   1   2
BRANCH   1  18
ATOM     18  C   UNL     1      -8.120   5.402  -7.953  1.00  0.00     0.000 C 
BRANCH  18  19
ATOM     19  C   UNL     1      -8.200   5.439  -6.417  1.00  0.00     0.000 C 
BRANCH  19  20
ATOM     20  C   UNL     1      -9.528   6.009  -5.898  1.00  0.00     0.000 C 
BRANCH  20  21
ATOM     21  C   UNL     1      -9.294   6.945  -4.707  1.00  0.00     0.000 C 
BRANCH  21  22
ATOM     22  C   UNL     1      -7.826   7.390  -4.633  1.00  0.00     0.000 C 
BRANCH  22  23
ATOM     23  C   UNL     1      -7.672   8.852  -4.181  1.00  0.00     0.000 C 
BRANCH  23  24
ATOM     24  C   UNL     1      -8.097   9.065  -2.722  1.00  0.00    -0.000 C 
BRANCH  24  25
ATOM     25  C   UNL     1      -9.215  10.109  -2.617  1.00  0.00    -0.000 C 
BRANCH  25  26
ATOM     26  C   UNL     1     -10.571   9.435  -2.356  1.00  0.00    -0.000 C 
BRANCH  26  27
ATOM     27  C   UNL     1     -10.633   8.757  -0.971  1.00  0.00    -0.000 C 
BRANCH  27  28
ATOM     28  C   UNL     1     -10.853   7.237  -1.041  1.00  0.00    -0.000 C 
BRANCH  28  29
ATOM     29  C   UNL     1      -9.610   6.432  -0.632  1.00  0.00    -0.000 C 
BRANCH  29  30
ATOM     30  C   UNL     1      -9.253   5.351  -1.672  1.00  0.00    -0.000 C 
BRANCH  30  31
ATOM     31  C   UNL     1      -8.222   4.323  -1.171  1.00  0.00    -0.003 C 
ATOM     32  C   UNL     1      -6.953   4.277  -2.020  1.00  0.00     0.004 C 
ENDBRANCH  30  31
ENDBRANCH  29  30
ENDBRANCH  28  29
ENDBRANCH  27  28
ENDBRANCH  26  27
ENDBRANCH  25  26
ENDBRANCH  24  25
ENDBRANCH  23  24
ENDBRANCH  22  23
ENDBRANCH  21  22
ENDBRANCH  20  21
ENDBRANCH  19  20
ENDBRANCH  18  19
ENDBRANCH   1  18
TORSDOF 28
ENDMDL
MODEL 8
REMARK VINA RESULT:    -4.390      2.674      4.000
REMARK INTER + INTRA:         -14.799
REMARK INTER:                 -11.772
REMARK INTRA:                  -3.027
REMARK UNBOUND:                -3.222
REMARK SMILES CCCCCCCCCCCCCCCCCCCCCCCCCCCCCC(=O)[O-]
REMARK SMILES IDX 16 1 17 2 18 3 19 4 20 5 21 6 22 7 23 8 24 9 25 10 26 11
REMARK SMILES IDX 27 12 28 13 29 14 30 15 31 16 32 17 15 18 14 19 13 20 12 21
REMARK SMILES IDX 11 22 10 23 9 24 8 25 7 26 6 27 5 28 4 29 3 30 2 31 1 32
REMARK H PARENT
REMARK Flexibility Score: inf
ROOT
ATOM      1  C   UNL     1      -9.297   4.969  -8.899  1.00  0.00     0.000 C 
ENDROOT
BRANCH   1   2
ATOM      2  C   UNL     1      -7.946   5.529  -8.424  1.00  0.00     0.000 C 
BRANCH   2   3
ATOM      3  C   UNL     1      -7.837   5.598  -6.890  1.00  0.00     0.000 C 
BRANCH   3   4
ATOM      4  C   UNL     1      -9.186   5.628  -6.140  1.00  0.00     0.000 C 
BRANCH   4   5
ATOM      5  C   UNL     1      -9.336   6.757  -5.102  1.00  0.00     0.000 C 
BRANCH   5   6
ATOM      6  C   UNL     1      -8.039   7.520  -4.765  1.00  0.00     0.000 C 
BRANCH   6   7
ATOM      7  C   UNL     1      -7.079   6.745  -3.838  1.00  0.00     0.000 C 
BRANCH   7   8
ATOM      8  C   UNL     1      -7.370   6.988  -2.348  1.00  0.00     0.000 C 
BRANCH   8   9
ATOM      9  C   UNL     1      -7.980   5.762  -1.641  1.00  0.00     0.000 C 
BRANCH   9  10
ATOM     10  C   UNL     1      -9.510   5.801  -1.467  1.00  0.00     0.000 C 
BRANCH  10  11
ATOM     11  C   UNL     1     -10.044   6.938  -0.575  1.00  0.00     0.000 C 
BRANCH  11  12
ATOM     12  C   UNL     1     -11.110   7.821  -1.257  1.00  0.00     0.000 C 
BRANCH  12  13
ATOM     13  C   UNL     1     -10.496   8.850  -2.225  1.00  0.00     0.006 C 
BRANCH  13  14
ATOM     14  C   UNL     1     -11.488   9.286  -3.310  1.00  0.00     0.053 C 
BRANCH  14  15
ATOM     15  C   UNL     1     -12.285  10.486  -2.891  1.00  0.00     0.041 C 
ATOM     16  O   UNL     1     -11.755  11.384  -2.183  1.00  0.00    -0.550 OA
ATOM     17  O   UNL     1     -13.616  10.605  -3.274  1.00  0.00    -0.550 OA
ENDBRANCH  14  15
ENDBRANCH  13  14
ENDBRANCH  12  13
ENDBRANCH  11  12
ENDBRANCH  10  11
ENDBRANCH   9  10
ENDBRANCH   8   9
ENDBRANCH   7   8
ENDBRANCH   6   7
ENDBRANCH   5   6
ENDBRANCH   4   5
ENDBRANCH   3   4
ENDBRANCH   2   3
ENDBRANCH   1   2
BRANCH   1  18
ATOM     18  C   UNL     1      -9.593   5.286 -10.376  1.00  0.00     0.000 C 
BRANCH  18  19
ATOM     19  C   UNL     1      -8.781   4.470 -11.397  1.00  0.00     0.000 C 
BRANCH  19  20
ATOM     20  C   UNL     1      -8.187   5.332 -12.520  1.00  0.00     0.000 C 
BRANCH  20  21
ATOM     21  C   UNL     1      -6.701   5.610 -12.269  1.00  0.00     0.000 C 
BRANCH  21  22
ATOM     22  C   UNL     1      -5.853   5.233 -13.492  1.00  0.00     0.000 C 
BRANCH  22  23
ATOM     23  C   UNL     1      -6.587   4.281 -14.451  1.00  0.00     0.000 C 
BRANCH  23  24
ATOM     24  C   UNL     1      -5.644   3.266 -15.111  1.00  0.00    -0.000 C 
BRANCH  24  25
ATOM     25  C   UNL     1      -4.519   3.973 -15.877  1.00  0.00    -0.000 C 
BRANCH  25  26
ATOM     26  C   UNL     1      -5.076   4.732 -17.091  1.00  0.00    -0.000 C 
BRANCH  26  27
ATOM     27  C   UNL     1      -4.578   6.191 -17.151  1.00  0.00    -0.000 C 
BRANCH  27  28
ATOM     28  C   UNL     1      -5.590   7.209 -16.600  1.00  0.00    -0.000 C 
BRANCH  28  29
ATOM     29  C   UNL     1      -6.745   7.494 -17.572  1.00  0.00    -0.000 C 
BRANCH  29  30
ATOM     30  C   UNL     1      -8.035   6.750 -17.171  1.00  0.00    -0.000 C 
BRANCH  30  31
ATOM     31  C   UNL     1      -8.861   6.250 -18.370  1.00  0.00    -0.003 C 
ATOM     32  C   UNL     1      -8.213   5.079 -19.105  1.00  0.00     0.004 C 
ENDBRANCH  30  31
ENDBRANCH  29  30
ENDBRANCH  28  29
ENDBRANCH  27  28
ENDBRANCH  26  27
ENDBRANCH  25  26
ENDBRANCH  24  25
ENDBRANCH  23  24
ENDBRANCH  22  23
ENDBRANCH  21  22
ENDBRANCH  20  21
ENDBRANCH  19  20
ENDBRANCH  18  19
ENDBRANCH   1  18
TORSDOF 28
ENDMDL
MODEL 9
REMARK VINA RESULT:    -4.355      3.959     13.045
REMARK INTER + INTRA:         -14.706
REMARK INTER:                 -10.998
REMARK INTRA:                  -3.709
REMARK UNBOUND:                -3.222
REMARK SMILES CCCCCCCCCCCCCCCCCCCCCCCCCCCCCC(=O)[O-]
REMARK SMILES IDX 16 1 17 2 18 3 19 4 20 5 21 6 22 7 23 8 24 9 25 10 26 11
REMARK SMILES IDX 27 12 28 13 29 14 30 15 31 16 32 17 15 18 14 19 13 20 12 21
REMARK SMILES IDX 11 22 10 23 9 24 8 25 7 26 6 27 5 28 4 29 3 30 2 31 1 32
REMARK H PARENT
REMARK Flexibility Score: inf
ROOT
ATOM      1  C   UNL     1      -7.712   5.743  -7.681  1.00  0.00     0.000 C 
ENDROOT
BRANCH   1   2
ATOM      2  C   UNL     1      -9.127   5.594  -8.264  1.00  0.00     0.000 C 
BRANCH   2   3
ATOM      3  C   UNL     1      -9.216   4.492  -9.335  1.00  0.00     0.000 C 
BRANCH   3   4
ATOM      4  C   UNL     1      -9.446   4.998 -10.776  1.00  0.00     0.000 C 
BRANCH   4   5
ATOM      5  C   UNL     1      -8.183   5.073 -11.656  1.00  0.00     0.000 C 
BRANCH   5   6
ATOM      6  C   UNL     1      -8.341   4.513 -13.083  1.00  0.00     0.000 C 
BRANCH   6   7
ATOM      7  C   UNL     1      -8.112   5.557 -14.197  1.00  0.00     0.000 C 
BRANCH   7   8
ATOM      8  C   UNL     1      -6.801   5.322 -14.968  1.00  0.00     0.000 C 
BRANCH   8   9
ATOM      9  C   UNL     1      -6.044   4.062 -14.506  1.00  0.00     0.000 C 
BRANCH   9  10
ATOM     10  C   UNL     1      -5.119   3.430 -15.564  1.00  0.00     0.000 C 
BRANCH  10  11
ATOM     11  C   UNL     1      -5.596   3.565 -17.023  1.00  0.00     0.000 C 
BRANCH  11  12
ATOM     12  C   UNL     1      -4.872   4.671 -17.818  1.00  0.00     0.000 C 
BRANCH  12  13
ATOM     13  C   UNL     1      -5.820   5.450 -18.749  1.00  0.00     0.006 C 
BRANCH  13  14
ATOM     14  C   UNL     1      -7.272   4.972 -18.626  1.00  0.00     0.053 C 
BRANCH  14  15
ATOM     15  C   UNL     1      -8.239   6.119 -18.600  1.00  0.00     0.041 C 
ATOM     16  O   UNL     1      -8.185   6.972 -17.674  1.00  0.00    -0.550 OA
ATOM     17  O   UNL     1      -9.204   6.237 -19.592  1.00  0.00    -0.550 OA
ENDBRANCH  14  15
ENDBRANCH  13  14
ENDBRANCH  12  13
ENDBRANCH  11  12
ENDBRANCH  10  11
ENDBRANCH   9  10
ENDBRANCH   8   9
ENDBRANCH   7   8
ENDBRANCH   6   7
ENDBRANCH   5   6
ENDBRANCH   4   5
ENDBRANCH   3   4
ENDBRANCH   2   3
ENDBRANCH   1   2
BRANCH   1  18
ATOM     18  C   UNL     1      -7.699   6.431  -6.304  1.00  0.00     0.000 C 
BRANCH  18  19
ATOM     19  C   UNL     1      -8.903   6.111  -5.401  1.00  0.00     0.000 C 
BRANCH  19  20
ATOM     20  C   UNL     1      -9.100   7.137  -4.276  1.00  0.00     0.000 C 
BRANCH  20  21
ATOM     21  C   UNL     1      -8.009   8.214  -4.320  1.00  0.00     0.000 C 
BRANCH  21  22
ATOM     22  C   UNL     1      -7.345   8.384  -2.946  1.00  0.00     0.000 C 
BRANCH  22  23
ATOM     23  C   UNL     1      -5.814   8.499  -3.037  1.00  0.00     0.000 C 
BRANCH  23  24
ATOM     24  C   UNL     1      -5.175   7.299  -3.747  1.00  0.00    -0.000 C 
BRANCH  24  25
ATOM     25  C   UNL     1      -5.190   6.053  -2.853  1.00  0.00    -0.000 C 
BRANCH  25  26
ATOM     26  C   UNL     1      -5.811   4.857  -3.591  1.00  0.00    -0.000 C 
BRANCH  26  27
ATOM     27  C   UNL     1      -6.934   4.182  -2.776  1.00  0.00    -0.000 C 
BRANCH  27  28
ATOM     28  C   UNL     1      -7.439   5.035  -1.601  1.00  0.00    -0.000 C 
BRANCH  28  29
ATOM     29  C   UNL     1      -8.948   4.889  -1.357  1.00  0.00    -0.000 C 
BRANCH  29  30
ATOM     30  C   UNL     1      -9.414   5.677  -0.117  1.00  0.00    -0.000 C 
BRANCH  30  31
ATOM     31  C   UNL     1      -9.631   7.178  -0.381  1.00  0.00    -0.003 C 
ATOM     32  C   UNL     1     -10.990   7.492  -1.005  1.00  0.00     0.004 C 
ENDBRANCH  30  31
ENDBRANCH  29  30
ENDBRANCH  28  29
ENDBRANCH  27  28
ENDBRANCH  26  27
ENDBRANCH  25  26
ENDBRANCH  24  25
ENDBRANCH  23  24
ENDBRANCH  22  23
ENDBRANCH  21  22
ENDBRANCH  20  21
ENDBRANCH  19  20
ENDBRANCH  18  19
ENDBRANCH   1  18
TORSDOF 28
ENDMDL
