MODEL 1
REMARK VINA RESULT:    -3.331      0.000      0.000
REMARK INTER + INTRA:          -5.234
REMARK INTER:                  -4.500
REMARK INTRA:                  -0.734
REMARK UNBOUND:                -0.734
REMARK SMILES C=C[C@@](C)(CCC=C(C)C)OC(C)=O
REMARK SMILES IDX 3 1 4 2 5 3 6 4 7 5 9 6 8 7 10 8 2 9 1 10 11 11 12 12 14 13
REMARK SMILES IDX 13 14
REMARK H PARENT
REMARK Flexibility Score: inf
ROOT
ATOM      1  C   UNL     1      21.457  33.277  39.847  1.00  0.00     0.127 C 
ATOM      2  C   UNL     1      21.006  31.875  39.391  1.00  0.00     0.061 C 
ENDROOT
BRANCH   1   3
ATOM      3  C   UNL     1      22.933  33.250  40.352  1.00  0.00     0.057 C 
BRANCH   3   4
ATOM      4  C   UNL     1      23.172  33.764  41.785  1.00  0.00     0.032 C 
BRANCH   4   5
ATOM      5  C   UNL     1      23.671  35.188  41.759  1.00  0.00    -0.028 C 
ATOM      6  C   UNL     1      23.747  37.568  42.367  1.00  0.00     0.039 C 
ATOM      7  C   UNL     1      23.175  36.183  42.528  1.00  0.00    -0.080 C 
ATOM      8  C   UNL     1      22.085  35.941  43.546  1.00  0.00     0.039 C 
ENDBRANCH   4   5
ENDBRANCH   3   4
ENDBRANCH   1   3
BRANCH   1   9
ATOM      9  C   UNL     1      21.234  34.294  38.730  1.00  0.00     0.013 C 
ATOM     10  C   UNL     1      21.294  35.623  38.894  1.00  0.00     0.008 C 
ENDBRANCH   1   9
BRANCH   1  11
ATOM     11  O   UNL     1      20.603  33.609  40.956  1.00  0.00    -0.455 OA
BRANCH  11  12
ATOM     12  C   UNL     1      19.416  32.952  41.320  1.00  0.00     0.303 C 
ATOM     13  O   UNL     1      19.397  32.093  42.241  1.00  0.00    -0.253 OA
ATOM     14  C   UNL     1      18.143  33.328  40.642  1.00  0.00     0.139 C 
ENDBRANCH  11  12
ENDBRANCH   1  11
TORSDOF 6
ENDMDL
MODEL 2
REMARK VINA RESULT:    -3.238      1.590      1.750
REMARK INTER + INTRA:          -5.108
REMARK INTER:                  -4.517
REMARK INTRA:                  -0.591
REMARK UNBOUND:                -0.734
REMARK SMILES C=C[C@@](C)(CCC=C(C)C)OC(C)=O
REMARK SMILES IDX 3 1 4 2 5 3 6 4 7 5 9 6 8 7 10 8 2 9 1 10 11 11 12 12 14 13
REMARK SMILES IDX 13 14
REMARK H PARENT
REMARK Flexibility Score: inf
ROOT
ATOM      1  C   UNL     1      20.641  33.138  39.701  1.00  0.00     0.127 C 
ATOM      2  C   UNL     1      21.791  32.441  38.947  1.00  0.00     0.061 C 
ENDROOT
BRANCH   1   3
ATOM      3  C   UNL     1      21.001  33.334  41.207  1.00  0.00     0.057 C 
BRANCH   3   4
ATOM      4  C   UNL     1      22.449  33.763  41.510  1.00  0.00     0.032 C 
BRANCH   4   5
ATOM      5  C   UNL     1      22.546  35.266  41.606  1.00  0.00    -0.028 C 
ATOM      6  C   UNL     1      23.100  37.436  42.618  1.00  0.00     0.039 C 
ATOM      7  C   UNL     1      23.110  35.929  42.640  1.00  0.00    -0.080 C 
ATOM      8  C   UNL     1      23.756  35.205  43.798  1.00  0.00     0.039 C 
ENDBRANCH   4   5
ENDBRANCH   3   4
ENDBRANCH   1   3
BRANCH   1   9
ATOM      9  C   UNL     1      20.270  34.447  39.008  1.00  0.00     0.013 C 
ATOM     10  C   UNL     1      21.065  35.099  38.149  1.00  0.00     0.008 C 
ENDBRANCH   1   9
BRANCH   1  11
ATOM     11  O   UNL     1      19.527  32.233  39.615  1.00  0.00    -0.455 OA
BRANCH  11  12
ATOM     12  C   UNL     1      18.172  32.586  39.511  1.00  0.00     0.303 C 
ATOM     13  O   UNL     1      17.569  32.560  38.405  1.00  0.00    -0.253 OA
ATOM     14  C   UNL     1      17.417  32.939  40.747  1.00  0.00     0.139 C 
ENDBRANCH  11  12
ENDBRANCH   1  11
TORSDOF 6
ENDMDL
MODEL 3
REMARK VINA RESULT:    -3.234      1.875      4.979
REMARK INTER + INTRA:          -5.102
REMARK INTER:                  -4.402
REMARK INTRA:                  -0.700
REMARK UNBOUND:                -0.734
REMARK SMILES C=C[C@@](C)(CCC=C(C)C)OC(C)=O
REMARK SMILES IDX 3 1 4 2 5 3 6 4 7 5 9 6 8 7 10 8 2 9 1 10 11 11 12 12 14 13
REMARK SMILES IDX 13 14
REMARK H PARENT
REMARK Flexibility Score: inf
ROOT
ATOM      1  C   UNL     1      22.530  34.131  41.628  1.00  0.00     0.127 C 
ATOM      2  C   UNL     1      23.236  32.761  41.610  1.00  0.00     0.061 C 
ENDROOT
BRANCH   1   3
ATOM      3  C   UNL     1      20.985  33.959  41.766  1.00  0.00     0.057 C 
BRANCH   3   4
ATOM      4  C   UNL     1      20.392  32.654  41.203  1.00  0.00     0.032 C 
BRANCH   4   5
ATOM      5  C   UNL     1      18.916  32.570  41.507  1.00  0.00    -0.028 C 
ATOM      6  C   UNL     1      16.506  32.552  41.024  1.00  0.00     0.039 C 
ATOM      7  C   UNL     1      17.942  32.607  40.570  1.00  0.00    -0.080 C 
ATOM      8  C   UNL     1      18.254  32.686  39.093  1.00  0.00     0.039 C 
ENDBRANCH   4   5
ENDBRANCH   3   4
ENDBRANCH   1   3
BRANCH   1   9
ATOM      9  C   UNL     1      23.125  35.020  42.717  1.00  0.00     0.013 C 
ATOM     10  C   UNL     1      22.428  35.926  43.418  1.00  0.00     0.008 C 
ENDBRANCH   1   9
BRANCH   1  11
ATOM     11  O   UNL     1      22.807  34.718  40.344  1.00  0.00    -0.455 OA
BRANCH  11  12
ATOM     12  C   UNL     1      22.023  35.674  39.678  1.00  0.00     0.303 C 
ATOM     13  O   UNL     1      22.072  36.895  39.988  1.00  0.00    -0.253 OA
ATOM     14  C   UNL     1      21.164  35.241  38.540  1.00  0.00     0.139 C 
ENDBRANCH  11  12
ENDBRANCH   1  11
TORSDOF 6
ENDMDL
MODEL 4
REMARK VINA RESULT:    -3.203      2.443      5.153
REMARK INTER + INTRA:          -5.061
REMARK INTER:                  -4.582
REMARK INTRA:                  -0.479
REMARK UNBOUND:                -0.734
REMARK SMILES C=C[C@@](C)(CCC=C(C)C)OC(C)=O
REMARK SMILES IDX 3 1 4 2 5 3 6 4 7 5 9 6 8 7 10 8 2 9 1 10 11 11 12 12 14 13
REMARK SMILES IDX 13 14
REMARK H PARENT
REMARK Flexibility Score: inf
ROOT
ATOM      1  C   UNL     1      23.602  34.493  41.760  1.00  0.00     0.127 C 
ATOM      2  C   UNL     1      24.155  33.722  40.544  1.00  0.00     0.061 C 
ENDROOT
BRANCH   1   3
ATOM      3  C   UNL     1      22.053  34.330  41.865  1.00  0.00     0.057 C 
BRANCH   3   4
ATOM      4  C   UNL     1      21.449  33.100  41.160  1.00  0.00     0.032 C 
BRANCH   4   5
ATOM      5  C   UNL     1      19.965  33.019  41.420  1.00  0.00    -0.028 C 
ATOM      6  C   UNL     1      17.570  33.009  40.867  1.00  0.00     0.039 C 
ATOM      7  C   UNL     1      19.019  33.061  40.455  1.00  0.00    -0.080 C 
ATOM      8  C   UNL     1      19.375  33.143  38.989  1.00  0.00     0.039 C 
ENDBRANCH   4   5
ENDBRANCH   3   4
ENDBRANCH   1   3
BRANCH   1   9
ATOM      9  C   UNL     1      24.328  34.064  43.033  1.00  0.00     0.013 C 
ATOM     10  C   UNL     1      24.585  34.877  44.067  1.00  0.00     0.008 C 
ENDBRANCH   1   9
BRANCH   1  11
ATOM     11  O   UNL     1      23.896  35.876  41.499  1.00  0.00    -0.455 OA
BRANCH  11  12
ATOM     12  C   UNL     1      22.963  36.919  41.386  1.00  0.00     0.303 C 
ATOM     13  O   UNL     1      22.383  37.165  40.294  1.00  0.00    -0.253 OA
ATOM     14  C   UNL     1      22.607  37.709  42.598  1.00  0.00     0.139 C 
ENDBRANCH  11  12
ENDBRANCH   1  11
TORSDOF 6
ENDMDL
MODEL 5
REMARK VINA RESULT:    -3.178      2.021      4.793
REMARK INTER + INTRA:          -5.027
REMARK INTER:                  -4.291
REMARK INTRA:                  -0.735
REMARK UNBOUND:                -0.734
REMARK SMILES C=C[C@@](C)(CCC=C(C)C)OC(C)=O
REMARK SMILES IDX 3 1 4 2 5 3 6 4 7 5 9 6 8 7 10 8 2 9 1 10 11 11 12 12 14 13
REMARK SMILES IDX 13 14
REMARK H PARENT
REMARK Flexibility Score: inf
ROOT
ATOM      1  C   UNL     1      22.440  34.474  40.596  1.00  0.00     0.127 C 
ATOM      2  C   UNL     1      21.741  35.402  39.583  1.00  0.00     0.061 C 
ENDROOT
BRANCH   1   3
ATOM      3  C   UNL     1      21.431  33.962  41.671  1.00  0.00     0.057 C 
BRANCH   3   4
ATOM      4  C   UNL     1      20.849  32.554  41.441  1.00  0.00     0.032 C 
BRANCH   4   5
ATOM      5  C   UNL     1      19.351  32.565  41.622  1.00  0.00    -0.028 C 
ATOM      6  C   UNL     1      16.996  32.792  40.959  1.00  0.00     0.039 C 
ATOM      7  C   UNL     1      18.464  32.768  40.622  1.00  0.00    -0.080 C 
ATOM      8  C   UNL     1      18.904  32.954  39.188  1.00  0.00     0.039 C 
ENDBRANCH   4   5
ENDBRANCH   3   4
ENDBRANCH   1   3
BRANCH   1   9
ATOM      9  C   UNL     1      23.155  33.338  39.869  1.00  0.00     0.013 C 
ATOM     10  C   UNL     1      23.044  33.093  38.556  1.00  0.00     0.008 C 
ENDBRANCH   1   9
BRANCH   1  11
ATOM     11  O   UNL     1      23.421  35.298  41.251  1.00  0.00    -0.455 OA
BRANCH  11  12
ATOM     12  C   UNL     1      23.283  35.923  42.501  1.00  0.00     0.303 C 
ATOM     13  O   UNL     1      23.660  35.358  43.563  1.00  0.00    -0.253 OA
ATOM     14  C   UNL     1      22.736  37.308  42.563  1.00  0.00     0.139 C 
ENDBRANCH  11  12
ENDBRANCH   1  11
TORSDOF 6
ENDMDL
MODEL 6
REMARK VINA RESULT:    -3.018      2.165      3.097
REMARK INTER + INTRA:          -4.811
REMARK INTER:                  -4.138
REMARK INTRA:                  -0.673
REMARK UNBOUND:                -0.734
REMARK SMILES C=C[C@@](C)(CCC=C(C)C)OC(C)=O
REMARK SMILES IDX 3 1 4 2 5 3 6 4 7 5 9 6 8 7 10 8 2 9 1 10 11 11 12 12 14 13
REMARK SMILES IDX 13 14
REMARK H PARENT
REMARK Flexibility Score: inf
ROOT
ATOM      1  C   UNL     1      20.343  33.406  39.151  1.00  0.00     0.127 C 
ATOM      2  C   UNL     1      20.745  34.715  38.444  1.00  0.00     0.061 C 
ENDROOT
BRANCH   1   3
ATOM      3  C   UNL     1      21.571  32.760  39.867  1.00  0.00     0.057 C 
BRANCH   3   4
ATOM      4  C   UNL     1      22.693  33.725  40.295  1.00  0.00     0.032 C 
BRANCH   4   5
ATOM      5  C   UNL     1      22.471  34.199  41.710  1.00  0.00    -0.028 C 
ATOM      6  C   UNL     1      22.367  35.808  43.565  1.00  0.00     0.039 C 
ATOM      7  C   UNL     1      22.580  35.486  42.108  1.00  0.00    -0.080 C 
ATOM      8  C   UNL     1      22.892  36.601  41.137  1.00  0.00     0.039 C 
ENDBRANCH   4   5
ENDBRANCH   3   4
ENDBRANCH   1   3
BRANCH   1   9
ATOM      9  C   UNL     1      19.171  33.652  40.097  1.00  0.00     0.013 C 
ATOM     10  C   UNL     1      18.916  32.921  41.191  1.00  0.00     0.008 C 
ENDBRANCH   1   9
BRANCH   1  11
ATOM     11  O   UNL     1      19.916  32.522  38.099  1.00  0.00    -0.455 OA
BRANCH  11  12
ATOM     12  C   UNL     1      18.840  32.731  37.221  1.00  0.00     0.303 C 
ATOM     13  O   UNL     1      19.001  33.300  36.108  1.00  0.00    -0.253 OA
ATOM     14  C   UNL     1      17.492  32.213  37.590  1.00  0.00     0.139 C 
ENDBRANCH  11  12
ENDBRANCH   1  11
TORSDOF 6
ENDMDL
MODEL 7
REMARK VINA RESULT:    -2.945      2.324      5.134
REMARK INTER + INTRA:          -4.713
REMARK INTER:                  -4.104
REMARK INTRA:                  -0.609
REMARK UNBOUND:                -0.734
REMARK SMILES C=C[C@@](C)(CCC=C(C)C)OC(C)=O
REMARK SMILES IDX 3 1 4 2 5 3 6 4 7 5 9 6 8 7 10 8 2 9 1 10 11 11 12 12 14 13
REMARK SMILES IDX 13 14
REMARK H PARENT
REMARK Flexibility Score: inf
ROOT
ATOM      1  C   UNL     1      23.223  36.165  42.236  1.00  0.00     0.127 C 
ATOM      2  C   UNL     1      22.237  35.685  43.319  1.00  0.00     0.061 C 
ENDROOT
BRANCH   1   3
ATOM      3  C   UNL     1      22.614  35.985  40.810  1.00  0.00     0.057 C 
BRANCH   3   4
ATOM      4  C   UNL     1      22.566  34.544  40.267  1.00  0.00     0.032 C 
BRANCH   4   5
ATOM      5  C   UNL     1      21.207  34.245  39.682  1.00  0.00    -0.028 C 
ATOM      6  C   UNL     1      18.994  33.188  39.533  1.00  0.00     0.039 C 
ATOM      7  C   UNL     1      20.297  33.424  40.252  1.00  0.00    -0.080 C 
ATOM      8  C   UNL     1      20.544  32.757  41.585  1.00  0.00     0.039 C 
ENDBRANCH   4   5
ENDBRANCH   3   4
ENDBRANCH   1   3
BRANCH   1   9
ATOM      9  C   UNL     1      23.658  37.603  42.514  1.00  0.00     0.013 C 
ATOM     10  C   UNL     1      24.883  38.084  42.263  1.00  0.00     0.008 C 
ENDBRANCH   1   9
BRANCH   1  11
ATOM     11  O   UNL     1      24.367  35.301  42.353  1.00  0.00    -0.455 OA
BRANCH  11  12
ATOM     12  C   UNL     1      24.710  34.520  43.468  1.00  0.00     0.303 C 
ATOM     13  O   UNL     1      25.089  35.048  44.548  1.00  0.00    -0.253 OA
ATOM     14  C   UNL     1      24.562  33.039  43.389  1.00  0.00     0.139 C 
ENDBRANCH  11  12
ENDBRANCH   1  11
TORSDOF 6
ENDMDL
MODEL 8
REMARK VINA RESULT:    -2.934      1.596      2.641
REMARK INTER + INTRA:          -4.697
REMARK INTER:                  -3.952
REMARK INTRA:                  -0.745
REMARK UNBOUND:                -0.734
REMARK SMILES C=C[C@@](C)(CCC=C(C)C)OC(C)=O
REMARK SMILES IDX 3 1 4 2 5 3 6 4 7 5 9 6 8 7 10 8 2 9 1 10 11 11 12 12 14 13
REMARK SMILES IDX 13 14
REMARK H PARENT
REMARK Flexibility Score: inf
ROOT
ATOM      1  C   UNL     1      21.673  33.717  39.873  1.00  0.00     0.127 C 
ATOM      2  C   UNL     1      21.408  35.105  39.257  1.00  0.00     0.061 C 
ENDROOT
BRANCH   1   3
ATOM      3  C   UNL     1      23.185  33.542  40.220  1.00  0.00     0.057 C 
BRANCH   3   4
ATOM      4  C   UNL     1      23.598  33.896  41.661  1.00  0.00     0.032 C 
BRANCH   4   5
ATOM      5  C   UNL     1      24.039  35.336  41.746  1.00  0.00    -0.028 C 
ATOM      6  C   UNL     1      23.982  37.677  42.492  1.00  0.00     0.039 C 
ATOM      7  C   UNL     1      23.460  36.265  42.540  1.00  0.00    -0.080 C 
ATOM      8  C   UNL     1      22.325  35.921  43.476  1.00  0.00     0.039 C 
ENDBRANCH   4   5
ENDBRANCH   3   4
ENDBRANCH   1   3
BRANCH   1   9
ATOM      9  C   UNL     1      20.762  33.487  41.076  1.00  0.00     0.013 C 
ATOM     10  C   UNL     1      20.332  32.284  41.480  1.00  0.00     0.008 C 
ENDBRANCH   1   9
BRANCH   1  11
ATOM     11  O   UNL     1      21.332  32.773  38.843  1.00  0.00    -0.455 OA
BRANCH  11  12
ATOM     12  C   UNL     1      20.355  32.941  37.848  1.00  0.00     0.303 C 
ATOM     13  O   UNL     1      19.126  32.913  38.124  1.00  0.00    -0.253 OA
ATOM     14  C   UNL     1      20.785  33.222  36.449  1.00  0.00     0.139 C 
ENDBRANCH  11  12
ENDBRANCH   1  11
TORSDOF 6
ENDMDL
MODEL 9
REMARK VINA RESULT:    -2.933      2.526      5.415
REMARK INTER + INTRA:          -4.696
REMARK INTER:                  -4.059
REMARK INTRA:                  -0.637
REMARK UNBOUND:                -0.734
REMARK SMILES C=C[C@@](C)(CCC=C(C)C)OC(C)=O
REMARK SMILES IDX 3 1 4 2 5 3 6 4 7 5 9 6 8 7 10 8 2 9 1 10 11 11 12 12 14 13
REMARK SMILES IDX 13 14
REMARK H PARENT
REMARK Flexibility Score: inf
ROOT
ATOM      1  C   UNL     1      23.638  35.006  42.090  1.00  0.00     0.127 C 
ATOM      2  C   UNL     1      24.571  34.144  41.217  1.00  0.00     0.061 C 
ENDROOT
BRANCH   1   3
ATOM      3  C   UNL     1      22.159  34.523  41.970  1.00  0.00     0.057 C 
BRANCH   3   4
ATOM      4  C   UNL     1      21.896  33.375  40.976  1.00  0.00     0.032 C 
BRANCH   4   5
ATOM      5  C   UNL     1      21.123  33.876  39.781  1.00  0.00    -0.028 C 
ATOM      6  C   UNL     1      20.666  34.314  37.407  1.00  0.00     0.039 C 
ATOM      7  C   UNL     1      21.522  33.726  38.498  1.00  0.00    -0.080 C 
ATOM      8  C   UNL     1      22.784  32.979  38.135  1.00  0.00     0.039 C 
ENDBRANCH   4   5
ENDBRANCH   3   4
ENDBRANCH   1   3
BRANCH   1   9
ATOM      9  C   UNL     1      24.135  35.028  43.534  1.00  0.00     0.013 C 
ATOM     10  C   UNL     1      24.870  34.058  44.095  1.00  0.00     0.008 C 
ENDBRANCH   1   9
BRANCH   1  11
ATOM     11  O   UNL     1      23.727  36.334  41.546  1.00  0.00    -0.455 OA
BRANCH  11  12
ATOM     12  C   UNL     1      23.616  37.537  42.262  1.00  0.00     0.303 C 
ATOM     13  O   UNL     1      22.508  37.929  42.719  1.00  0.00    -0.253 OA
ATOM     14  C   UNL     1      24.845  38.333  42.539  1.00  0.00     0.139 C 
ENDBRANCH  11  12
ENDBRANCH   1  11
TORSDOF 6
ENDMDL
