MODEL 1
REMARK VINA RESULT:    -3.307      0.000      0.000
REMARK INTER + INTRA:          -7.240
REMARK INTER:                  -5.626
REMARK INTRA:                  -1.614
REMARK UNBOUND:                -1.614
REMARK SMILES CCCCCCCCCCCCCC(=O)[O-]
REMARK SMILES IDX 8 1 9 2 10 3 11 4 12 5 13 6 14 7 15 8 16 9 7 10 6 11 5 12
REMARK SMILES IDX 4 13 3 14 2 15 1 16
REMARK H PARENT
REMARK Flexibility Score: inf
ROOT
ATOM      1  C   UNL     1      16.418   0.547  33.243  1.00  0.00     0.000 C 
ENDROOT
BRANCH   1   2
ATOM      2  C   UNL     1      16.295   2.035  32.886  1.00  0.00     0.000 C 
BRANCH   2   3
ATOM      3  C   UNL     1      17.054   2.948  33.864  1.00  0.00     0.000 C 
BRANCH   3   4
ATOM      4  C   UNL     1      16.219   3.456  35.056  1.00  0.00     0.000 C 
BRANCH   4   5
ATOM      5  C   UNL     1      15.680   4.891  34.871  1.00  0.00     0.006 C 
BRANCH   5   6
ATOM      6  C   UNL     1      15.551   5.641  36.204  1.00  0.00     0.053 C 
BRANCH   6   7
ATOM      7  C   UNL     1      16.796   6.421  36.486  1.00  0.00     0.041 C 
ATOM      8  O   UNL     1      16.934   7.015  37.588  1.00  0.00    -0.550 OA
ATOM      9  O   UNL     1      17.783   6.532  35.515  1.00  0.00    -0.550 OA
ENDBRANCH   6   7
ENDBRANCH   5   6
ENDBRANCH   4   5
ENDBRANCH   3   4
ENDBRANCH   2   3
ENDBRANCH   1   2
BRANCH   1  10
ATOM     10  C   UNL     1      15.041  -0.066  33.523  1.00  0.00     0.000 C 
BRANCH  10  11
ATOM     11  C   UNL     1      14.739  -0.074  35.030  1.00  0.00    -0.000 C 
BRANCH  11  12
ATOM     12  C   UNL     1      16.003  -0.245  35.888  1.00  0.00    -0.000 C 
BRANCH  12  13
ATOM     13  C   UNL     1      15.876   0.425  37.267  1.00  0.00    -0.000 C 
BRANCH  13  14
ATOM     14  C   UNL     1      14.431   0.840  37.590  1.00  0.00    -0.000 C 
BRANCH  14  15
ATOM     15  C   UNL     1      14.325   2.296  38.066  1.00  0.00    -0.003 C 
ATOM     16  C   UNL     1      15.605   2.740  38.768  1.00  0.00     0.004 C 
ENDBRANCH  14  15
ENDBRANCH  13  14
ENDBRANCH  12  13
ENDBRANCH  11  12
ENDBRANCH  10  11
ENDBRANCH   1  10
TORSDOF 12
ENDMDL
MODEL 2
REMARK VINA RESULT:    -3.194      5.229      7.345
REMARK INTER + INTRA:          -7.048
REMARK INTER:                  -5.315
REMARK INTRA:                  -1.733
REMARK UNBOUND:                -1.614
REMARK SMILES CCCCCCCCCCCCCC(=O)[O-]
REMARK SMILES IDX 8 1 9 2 10 3 11 4 12 5 13 6 14 7 15 8 16 9 7 10 6 11 5 12
REMARK SMILES IDX 4 13 3 14 2 15 1 16
REMARK H PARENT
REMARK Flexibility Score: inf
ROOT
ATOM      1  C   UNL     1      20.451   1.584  40.346  1.00  0.00     0.000 C 
ENDROOT
BRANCH   1   2
ATOM      2  C   UNL     1      19.327   2.524  39.885  1.00  0.00     0.000 C 
BRANCH   2   3
ATOM      3  C   UNL     1      18.636   3.244  41.055  1.00  0.00     0.000 C 
BRANCH   3   4
ATOM      4  C   UNL     1      17.100   3.121  41.075  1.00  0.00     0.000 C 
BRANCH   4   5
ATOM      5  C   UNL     1      16.566   1.869  40.346  1.00  0.00     0.006 C 
BRANCH   5   6
ATOM      6  C   UNL     1      15.583   2.224  39.222  1.00  0.00     0.053 C 
BRANCH   6   7
ATOM      7  C   UNL     1      15.155   0.990  38.492  1.00  0.00     0.041 C 
ATOM      8  O   UNL     1      16.017   0.213  38.003  1.00  0.00    -0.550 OA
ATOM      9  O   UNL     1      13.804   0.723  38.311  1.00  0.00    -0.550 OA
ENDBRANCH   6   7
ENDBRANCH   5   6
ENDBRANCH   4   5
ENDBRANCH   3   4
ENDBRANCH   2   3
ENDBRANCH   1   2
BRANCH   1  10
ATOM     10  C   UNL     1      20.365   1.324  41.854  1.00  0.00     0.000 C 
BRANCH  10  11
ATOM     11  C   UNL     1      19.858  -0.098  42.140  1.00  0.00    -0.000 C 
BRANCH  11  12
ATOM     12  C   UNL     1      18.975  -0.173  43.396  1.00  0.00    -0.000 C 
BRANCH  12  13
ATOM     13  C   UNL     1      19.043   1.110  44.243  1.00  0.00    -0.000 C 
BRANCH  13  14
ATOM     14  C   UNL     1      17.657   1.726  44.492  1.00  0.00    -0.000 C 
BRANCH  14  15
ATOM     15  C   UNL     1      16.513   0.848  43.962  1.00  0.00    -0.003 C 
ATOM     16  C   UNL     1      15.388   0.732  44.986  1.00  0.00     0.004 C 
ENDBRANCH  14  15
ENDBRANCH  13  14
ENDBRANCH  12  13
ENDBRANCH  11  12
ENDBRANCH  10  11
ENDBRANCH   1  10
TORSDOF 12
ENDMDL
MODEL 3
REMARK VINA RESULT:    -3.155      3.840      6.173
REMARK INTER + INTRA:          -6.983
REMARK INTER:                  -5.802
REMARK INTRA:                  -1.180
REMARK UNBOUND:                -1.614
REMARK SMILES CCCCCCCCCCCCCC(=O)[O-]
REMARK SMILES IDX 8 1 9 2 10 3 11 4 12 5 13 6 14 7 15 8 16 9 7 10 6 11 5 12
REMARK SMILES IDX 4 13 3 14 2 15 1 16
REMARK H PARENT
REMARK Flexibility Score: inf
ROOT
ATOM      1  C   UNL     1      16.276   3.734  38.528  1.00  0.00     0.000 C 
ENDROOT
BRANCH   1   2
ATOM      2  C   UNL     1      15.215   3.236  37.535  1.00  0.00     0.000 C 
BRANCH   2   3
ATOM      3  C   UNL     1      14.207   2.266  38.176  1.00  0.00     0.000 C 
BRANCH   3   4
ATOM      4  C   UNL     1      14.350   0.797  37.733  1.00  0.00     0.000 C 
BRANCH   4   5
ATOM      5  C   UNL     1      15.655   0.502  36.964  1.00  0.00     0.006 C 
BRANCH   5   6
ATOM      6  C   UNL     1      15.437  -0.470  35.797  1.00  0.00     0.053 C 
BRANCH   6   7
ATOM      7  C   UNL     1      15.130   0.283  34.540  1.00  0.00     0.041 C 
ATOM      8  O   UNL     1      14.276  -0.163  33.729  1.00  0.00    -0.550 OA
ATOM      9  O   UNL     1      15.820   1.451  34.242  1.00  0.00    -0.550 OA
ENDBRANCH   6   7
ENDBRANCH   5   6
ENDBRANCH   4   5
ENDBRANCH   3   4
ENDBRANCH   2   3
ENDBRANCH   1   2
BRANCH   1  10
ATOM     10  C   UNL     1      15.914   3.333  39.963  1.00  0.00     0.000 C 
BRANCH  10  11
ATOM     11  C   UNL     1      17.139   2.773  40.703  1.00  0.00    -0.000 C 
BRANCH  11  12
ATOM     12  C   UNL     1      18.105   2.026  39.770  1.00  0.00    -0.000 C 
BRANCH  12  13
ATOM     13  C   UNL     1      19.575   2.178  40.198  1.00  0.00    -0.000 C 
BRANCH  13  14
ATOM     14  C   UNL     1      19.961   1.216  41.334  1.00  0.00    -0.000 C 
BRANCH  14  15
ATOM     15  C   UNL     1      20.545   1.942  42.554  1.00  0.00    -0.003 C 
ATOM     16  C   UNL     1      19.473   2.191  43.612  1.00  0.00     0.004 C 
ENDBRANCH  14  15
ENDBRANCH  13  14
ENDBRANCH  12  13
ENDBRANCH  11  12
ENDBRANCH  10  11
ENDBRANCH   1  10
TORSDOF 12
ENDMDL
MODEL 4
REMARK VINA RESULT:    -3.125      5.328      7.526
REMARK INTER + INTRA:          -6.932
REMARK INTER:                  -5.064
REMARK INTRA:                  -1.868
REMARK UNBOUND:                -1.614
REMARK SMILES CCCCCCCCCCCCCC(=O)[O-]
REMARK SMILES IDX 8 1 9 2 10 3 11 4 12 5 13 6 14 7 15 8 16 9 7 10 6 11 5 12
REMARK SMILES IDX 4 13 3 14 2 15 1 16
REMARK H PARENT
REMARK Flexibility Score: inf
ROOT
ATOM      1  C   UNL     1      20.825   1.493  41.395  1.00  0.00     0.000 C 
ENDROOT
BRANCH   1   2
ATOM      2  C   UNL     1      20.168   1.372  40.012  1.00  0.00     0.000 C 
BRANCH   2   3
ATOM      3  C   UNL     1      18.825   2.117  39.924  1.00  0.00     0.000 C 
BRANCH   3   4
ATOM      4  C   UNL     1      17.578   1.211  39.948  1.00  0.00     0.000 C 
BRANCH   4   5
ATOM      5  C   UNL     1      16.319   1.901  40.514  1.00  0.00     0.006 C 
BRANCH   5   6
ATOM      6  C   UNL     1      15.638   2.808  39.481  1.00  0.00     0.053 C 
BRANCH   6   7
ATOM      7  C   UNL     1      15.125   2.000  38.332  1.00  0.00     0.041 C 
ATOM      8  O   UNL     1      15.414   2.325  37.150  1.00  0.00    -0.550 OA
ATOM      9  O   UNL     1      14.288   0.915  38.563  1.00  0.00    -0.550 OA
ENDBRANCH   6   7
ENDBRANCH   5   6
ENDBRANCH   4   5
ENDBRANCH   3   4
ENDBRANCH   2   3
ENDBRANCH   1   2
BRANCH   1  10
ATOM     10  C   UNL     1      19.983   2.372  42.327  1.00  0.00     0.000 C 
BRANCH  10  11
ATOM     11  C   UNL     1      19.853   1.731  43.718  1.00  0.00    -0.000 C 
BRANCH  11  12
ATOM     12  C   UNL     1      18.472   1.097  43.953  1.00  0.00    -0.000 C 
BRANCH  12  13
ATOM     13  C   UNL     1      18.385  -0.342  43.416  1.00  0.00    -0.000 C 
BRANCH  13  14
ATOM     14  C   UNL     1      19.564  -1.215  43.875  1.00  0.00    -0.000 C 
BRANCH  14  15
ATOM     15  C   UNL     1      20.248  -1.948  42.712  1.00  0.00    -0.003 C 
ATOM     16  C   UNL     1      19.366  -1.947  41.467  1.00  0.00     0.004 C 
ENDBRANCH  14  15
ENDBRANCH  13  14
ENDBRANCH  12  13
ENDBRANCH  11  12
ENDBRANCH  10  11
ENDBRANCH   1  10
TORSDOF 12
ENDMDL
MODEL 5
REMARK VINA RESULT:    -3.119      5.251      8.067
REMARK INTER + INTRA:          -6.921
REMARK INTER:                  -5.563
REMARK INTRA:                  -1.358
REMARK UNBOUND:                -1.614
REMARK SMILES CCCCCCCCCCCCCC(=O)[O-]
REMARK SMILES IDX 8 1 9 2 10 3 11 4 12 5 13 6 14 7 15 8 16 9 7 10 6 11 5 12
REMARK SMILES IDX 4 13 3 14 2 15 1 16
REMARK H PARENT
REMARK Flexibility Score: inf
ROOT
ATOM      1  C   UNL     1      17.189   2.811  43.777  1.00  0.00     0.000 C 
ENDROOT
BRANCH   1   2
ATOM      2  C   UNL     1      17.154   3.888  42.682  1.00  0.00     0.000 C 
BRANCH   2   3
ATOM      3  C   UNL     1      16.460   3.408  41.396  1.00  0.00     0.000 C 
BRANCH   3   4
ATOM      4  C   UNL     1      16.599   1.900  41.110  1.00  0.00     0.000 C 
BRANCH   4   5
ATOM      5  C   UNL     1      16.577   1.547  39.608  1.00  0.00     0.006 C 
BRANCH   5   6
ATOM      6  C   UNL     1      15.317   2.070  38.904  1.00  0.00     0.053 C 
BRANCH   6   7
ATOM      7  C   UNL     1      14.719   1.004  38.042  1.00  0.00     0.041 C 
ATOM      8  O   UNL     1      13.518   0.661  38.201  1.00  0.00    -0.550 OA
ATOM      9  O   UNL     1      15.502   0.355  37.095  1.00  0.00    -0.550 OA
ENDBRANCH   6   7
ENDBRANCH   5   6
ENDBRANCH   4   5
ENDBRANCH   3   4
ENDBRANCH   2   3
ENDBRANCH   1   2
BRANCH   1  10
ATOM     10  C   UNL     1      18.301   3.099  44.793  1.00  0.00     0.000 C 
BRANCH  10  11
ATOM     11  C   UNL     1      19.182   1.859  45.011  1.00  0.00    -0.000 C 
BRANCH  11  12
ATOM     12  C   UNL     1      19.549   1.154  43.695  1.00  0.00    -0.000 C 
BRANCH  12  13
ATOM     13  C   UNL     1      20.504   1.989  42.824  1.00  0.00    -0.000 C 
BRANCH  13  14
ATOM     14  C   UNL     1      20.534   1.515  41.361  1.00  0.00    -0.000 C 
BRANCH  14  15
ATOM     15  C   UNL     1      19.868   0.144  41.168  1.00  0.00    -0.003 C 
ATOM     16  C   UNL     1      20.738  -0.774  40.314  1.00  0.00     0.004 C 
ENDBRANCH  14  15
ENDBRANCH  13  14
ENDBRANCH  12  13
ENDBRANCH  11  12
ENDBRANCH  10  11
ENDBRANCH   1  10
TORSDOF 12
ENDMDL
MODEL 6
REMARK VINA RESULT:    -3.115      7.086      9.364
REMARK INTER + INTRA:          -6.914
REMARK INTER:                  -5.469
REMARK INTRA:                  -1.445
REMARK UNBOUND:                -1.614
REMARK SMILES CCCCCCCCCCCCCC(=O)[O-]
REMARK SMILES IDX 8 1 9 2 10 3 11 4 12 5 13 6 14 7 15 8 16 9 7 10 6 11 5 12
REMARK SMILES IDX 4 13 3 14 2 15 1 16
REMARK H PARENT
REMARK Flexibility Score: inf
ROOT
ATOM      1  C   UNL     1      19.269   2.556  41.872  1.00  0.00     0.000 C 
ENDROOT
BRANCH   1   2
ATOM      2  C   UNL     1      18.069   1.814  41.263  1.00  0.00     0.000 C 
BRANCH   2   3
ATOM      3  C   UNL     1      16.741   2.156  41.961  1.00  0.00     0.000 C 
BRANCH   3   4
ATOM      4  C   UNL     1      16.513   1.440  43.307  1.00  0.00     0.000 C 
BRANCH   4   5
ATOM      5  C   UNL     1      16.316   2.402  44.498  1.00  0.00     0.006 C 
BRANCH   5   6
ATOM      6  C   UNL     1      17.379   2.208  45.586  1.00  0.00     0.053 C 
BRANCH   6   7
ATOM      7  C   UNL     1      18.464   3.229  45.447  1.00  0.00     0.041 C 
ATOM      8  O   UNL     1      18.172   4.438  45.246  1.00  0.00    -0.550 OA
ATOM      9  O   UNL     1      19.796   2.839  45.491  1.00  0.00    -0.550 OA
ENDBRANCH   6   7
ENDBRANCH   5   6
ENDBRANCH   4   5
ENDBRANCH   3   4
ENDBRANCH   2   3
ENDBRANCH   1   2
BRANCH   1  10
ATOM     10  C   UNL     1      20.342   1.568  42.344  1.00  0.00     0.000 C 
BRANCH  10  11
ATOM     11  C   UNL     1      19.777   0.141  42.426  1.00  0.00    -0.000 C 
BRANCH  11  12
ATOM     12  C   UNL     1      19.626  -0.356  43.873  1.00  0.00    -0.000 C 
BRANCH  12  13
ATOM     13  C   UNL     1      20.008  -1.838  44.032  1.00  0.00    -0.000 C 
BRANCH  13  14
ATOM     14  C   UNL     1      20.341  -2.508  42.688  1.00  0.00    -0.000 C 
BRANCH  14  15
ATOM     15  C   UNL     1      21.524  -3.483  42.789  1.00  0.00    -0.003 C 
ATOM     16  C   UNL     1      21.939  -3.695  44.242  1.00  0.00     0.004 C 
ENDBRANCH  14  15
ENDBRANCH  13  14
ENDBRANCH  12  13
ENDBRANCH  11  12
ENDBRANCH  10  11
ENDBRANCH   1  10
TORSDOF 12
ENDMDL
MODEL 7
REMARK VINA RESULT:    -3.104      7.868      9.899
REMARK INTER + INTRA:          -6.895
REMARK INTER:                  -5.050
REMARK INTRA:                  -1.845
REMARK UNBOUND:                -1.614
REMARK SMILES CCCCCCCCCCCCCC(=O)[O-]
REMARK SMILES IDX 8 1 9 2 10 3 11 4 12 5 13 6 14 7 15 8 16 9 7 10 6 11 5 12
REMARK SMILES IDX 4 13 3 14 2 15 1 16
REMARK H PARENT
REMARK Flexibility Score: inf
ROOT
ATOM      1  C   UNL     1      21.195   0.611  40.334  1.00  0.00     0.000 C 
ENDROOT
BRANCH   1   2
ATOM      2  C   UNL     1      20.553  -0.737  39.970  1.00  0.00     0.000 C 
BRANCH   2   3
ATOM      3  C   UNL     1      19.221  -0.979  40.700  1.00  0.00     0.000 C 
BRANCH   3   4
ATOM      4  C   UNL     1      19.222  -2.176  41.670  1.00  0.00     0.000 C 
BRANCH   4   5
ATOM      5  C   UNL     1      20.538  -2.336  42.460  1.00  0.00     0.006 C 
BRANCH   5   6
ATOM      6  C   UNL     1      20.308  -2.361  43.977  1.00  0.00     0.053 C 
BRANCH   6   7
ATOM      7  C   UNL     1      20.903  -3.597  44.576  1.00  0.00     0.041 C 
ATOM      8  O   UNL     1      22.150  -3.771  44.560  1.00  0.00    -0.550 OA
ATOM      9  O   UNL     1      20.076  -4.579  45.108  1.00  0.00    -0.550 OA
ENDBRANCH   6   7
ENDBRANCH   5   6
ENDBRANCH   4   5
ENDBRANCH   3   4
ENDBRANCH   2   3
ENDBRANCH   1   2
BRANCH   1  10
ATOM     10  C   UNL     1      20.189   1.522  41.047  1.00  0.00     0.000 C 
BRANCH  10  11
ATOM     11  C   UNL     1      20.715   1.949  42.427  1.00  0.00    -0.000 C 
BRANCH  11  12
ATOM     12  C   UNL     1      19.586   2.211  43.437  1.00  0.00    -0.000 C 
BRANCH  12  13
ATOM     13  C   UNL     1      18.897   0.916  43.901  1.00  0.00    -0.000 C 
BRANCH  13  14
ATOM     14  C   UNL     1      17.412   0.865  43.508  1.00  0.00    -0.000 C 
BRANCH  14  15
ATOM     15  C   UNL     1      16.924   2.171  42.863  1.00  0.00    -0.003 C 
ATOM     16  C   UNL     1      16.499   1.944  41.415  1.00  0.00     0.004 C 
ENDBRANCH  14  15
ENDBRANCH  13  14
ENDBRANCH  12  13
ENDBRANCH  11  12
ENDBRANCH  10  11
ENDBRANCH   1  10
TORSDOF 12
ENDMDL
MODEL 8
REMARK VINA RESULT:    -3.103     11.876     13.683
REMARK INTER + INTRA:          -6.893
REMARK INTER:                  -5.191
REMARK INTRA:                  -1.703
REMARK UNBOUND:                -1.614
REMARK SMILES CCCCCCCCCCCCCC(=O)[O-]
REMARK SMILES IDX 8 1 9 2 10 3 11 4 12 5 13 6 14 7 15 8 16 9 7 10 6 11 5 12
REMARK SMILES IDX 4 13 3 14 2 15 1 16
REMARK H PARENT
REMARK Flexibility Score: inf
ROOT
ATOM      1  C   UNL     1       5.761   0.133  45.915  1.00  0.00     0.000 C 
ENDROOT
BRANCH   1   2
ATOM      2  C   UNL     1       7.026  -0.420  46.589  1.00  0.00     0.000 C 
BRANCH   2   3
ATOM      3  C   UNL     1       7.808   0.655  47.363  1.00  0.00     0.000 C 
BRANCH   3   4
ATOM      4  C   UNL     1       9.277   0.824  46.932  1.00  0.00     0.000 C 
BRANCH   4   5
ATOM      5  C   UNL     1       9.549   0.408  45.471  1.00  0.00     0.006 C 
BRANCH   5   6
ATOM      6  C   UNL     1      10.911  -0.280  45.305  1.00  0.00     0.053 C 
BRANCH   6   7
ATOM      7  C   UNL     1      11.021  -1.453  46.228  1.00  0.00     0.041 C 
ATOM      8  O   UNL     1      12.025  -1.576  46.977  1.00  0.00    -0.550 OA
ATOM      9  O   UNL     1      10.037  -2.434  46.225  1.00  0.00    -0.550 OA
ENDBRANCH   6   7
ENDBRANCH   5   6
ENDBRANCH   4   5
ENDBRANCH   3   4
ENDBRANCH   2   3
ENDBRANCH   1   2
BRANCH   1  10
ATOM     10  C   UNL     1       6.067   0.624  44.495  1.00  0.00     0.000 C 
BRANCH  10  11
ATOM     11  C   UNL     1       5.252   1.884  44.161  1.00  0.00    -0.000 C 
BRANCH  11  12
ATOM     12  C   UNL     1       6.136   3.125  43.960  1.00  0.00    -0.000 C 
BRANCH  12  13
ATOM     13  C   UNL     1       6.591   3.748  45.291  1.00  0.00    -0.000 C 
BRANCH  13  14
ATOM     14  C   UNL     1       8.097   4.060  45.311  1.00  0.00    -0.000 C 
BRANCH  14  15
ATOM     15  C   UNL     1       8.632   4.313  46.729  1.00  0.00    -0.003 C 
ATOM     16  C   UNL     1      10.154   4.417  46.731  1.00  0.00     0.004 C 
ENDBRANCH  14  15
ENDBRANCH  13  14
ENDBRANCH  12  13
ENDBRANCH  11  12
ENDBRANCH  10  11
ENDBRANCH   1  10
TORSDOF 12
ENDMDL
MODEL 9
REMARK VINA RESULT:    -3.037      4.913      7.639
REMARK INTER + INTRA:          -6.781
REMARK INTER:                  -5.154
REMARK INTRA:                  -1.628
REMARK UNBOUND:                -1.614
REMARK SMILES CCCCCCCCCCCCCC(=O)[O-]
REMARK SMILES IDX 8 1 9 2 10 3 11 4 12 5 13 6 14 7 15 8 16 9 7 10 6 11 5 12
REMARK SMILES IDX 4 13 3 14 2 15 1 16
REMARK H PARENT
REMARK Flexibility Score: inf
ROOT
ATOM      1  C   UNL     1      16.464   4.431  42.549  1.00  0.00     0.000 C 
ENDROOT
BRANCH   1   2
ATOM      2  C   UNL     1      17.641   4.298  41.570  1.00  0.00     0.000 C 
BRANCH   2   3
ATOM      3  C   UNL     1      17.187   4.064  40.120  1.00  0.00     0.000 C 
BRANCH   3   4
ATOM      4  C   UNL     1      17.214   2.593  39.662  1.00  0.00     0.000 C 
BRANCH   4   5
ATOM      5  C   UNL     1      15.842   1.890  39.745  1.00  0.00     0.006 C 
BRANCH   5   6
ATOM      6  C   UNL     1      14.916   2.280  38.586  1.00  0.00     0.053 C 
BRANCH   6   7
ATOM      7  C   UNL     1      14.308   1.060  37.969  1.00  0.00     0.041 C 
ATOM      8  O   UNL     1      13.158   0.682  38.316  1.00  0.00    -0.550 OA
ATOM      9  O   UNL     1      15.030   0.313  37.047  1.00  0.00    -0.550 OA
ENDBRANCH   6   7
ENDBRANCH   5   6
ENDBRANCH   4   5
ENDBRANCH   3   4
ENDBRANCH   2   3
ENDBRANCH   1   2
BRANCH   1  10
ATOM     10  C   UNL     1      16.924   4.205  43.994  1.00  0.00     0.000 C 
BRANCH  10  11
ATOM     11  C   UNL     1      16.195   3.006  44.622  1.00  0.00    -0.000 C 
BRANCH  11  12
ATOM     12  C   UNL     1      17.083   1.755  44.716  1.00  0.00    -0.000 C 
BRANCH  12  13
ATOM     13  C   UNL     1      16.903   0.811  43.514  1.00  0.00    -0.000 C 
BRANCH  13  14
ATOM     14  C   UNL     1      18.169   0.712  42.648  1.00  0.00    -0.000 C 
BRANCH  14  15
ATOM     15  C   UNL     1      19.460   0.875  43.464  1.00  0.00    -0.003 C 
ATOM     16  C   UNL     1      20.295   2.042  42.945  1.00  0.00     0.004 C 
ENDBRANCH  14  15
ENDBRANCH  13  14
ENDBRANCH  12  13
ENDBRANCH  11  12
ENDBRANCH  10  11
ENDBRANCH   1  10
TORSDOF 12
ENDMDL
