MODEL 1
REMARK VINA RESULT:    -5.962      0.000      0.000
REMARK INTER + INTRA:          -7.588
REMARK INTER:                  -7.182
REMARK INTRA:                  -0.406
REMARK UNBOUND:                -0.406
REMARK SMILES O=c1c(O)c(-c2ccc(O)cc2O)oc2cc(O)cc(O)c12
REMARK SMILES IDX 5 1 3 2 2 3 1 4 22 5 20 6 19 7 17 8 16 9 15 10 14 11 6 12
REMARK SMILES IDX 8 13 7 14 9 15 11 16 12 17 10 18 13 20 4 22 21 24 18 26
REMARK H PARENT 10 19 13 21 4 23 21 25 18 27
REMARK Flexibility Score: inf
ROOT
ATOM      1  C   UNL     1      16.695  -6.848 -31.732  1.00  0.00     0.184 A 
ATOM      2  C   UNL     1      16.209  -5.600 -31.311  1.00  0.00     0.208 A 
ATOM      3  C   UNL     1      15.201  -5.556 -30.336  1.00  0.00     0.238 A 
ATOM      4  O   UNL     1      14.719  -4.438 -30.017  1.00  0.00    -0.285 OA
ATOM      5  C   UNL     1      14.728  -6.759 -29.756  1.00  0.00     0.111 A 
ATOM      6  C   UNL     1      13.739  -6.833 -28.728  1.00  0.00     0.134 A 
ATOM      7  C   UNL     1      13.274  -8.084 -28.306  1.00  0.00     0.093 A 
ATOM      8  C   UNL     1      13.805  -9.263 -28.825  1.00  0.00     0.123 A 
ATOM      9  C   UNL     1      14.811  -9.204 -29.789  1.00  0.00     0.094 A 
ATOM     10  C   UNL     1      15.270  -7.972 -30.261  1.00  0.00     0.146 A 
ATOM     11  O   UNL     1      16.212  -7.962 -31.195  1.00  0.00    -0.451 OA
ENDROOT
BRANCH   1  12
ATOM     12  C   UNL     1      17.750  -6.964 -32.760  1.00  0.00     0.063 A 
ATOM     13  C   UNL     1      18.352  -7.084 -35.113  1.00  0.00     0.047 A 
ATOM     14  C   UNL     1      17.380  -6.981 -34.114  1.00  0.00     0.020 A 
ATOM     15  C   UNL     1      19.704  -7.157 -34.772  1.00  0.00     0.119 A 
ATOM     16  C   UNL     1      20.086  -7.117 -33.424  1.00  0.00     0.093 A 
ATOM     17  C   UNL     1      19.117  -7.008 -32.416  1.00  0.00     0.130 A 
BRANCH  15  18
ATOM     18  O   UNL     1      20.662  -7.263 -35.778  1.00  0.00    -0.508 OA
ATOM     19  H   UNL     1      21.031  -8.163 -36.066  1.00  0.00     0.293 HD
ENDBRANCH  15  18
BRANCH  17  20
ATOM     20  O   UNL     1      19.511  -6.920 -31.081  1.00  0.00    -0.507 OA
ATOM     21  H   UNL     1      20.214  -6.257 -30.778  1.00  0.00     0.293 HD
ENDBRANCH  17  20
ENDBRANCH   1  12
BRANCH   2  22
ATOM     22  O   UNL     1      16.744  -4.425 -31.848  1.00  0.00    -0.502 OA
ATOM     23  H   UNL     1      16.968  -4.332 -32.831  1.00  0.00     0.293 HD
ENDBRANCH   2  22
BRANCH   6  24
ATOM     24  O   UNL     1      13.204  -5.717 -28.077  1.00  0.00    -0.507 OA
ATOM     25  H   UNL     1      12.497  -5.750 -27.359  1.00  0.00     0.293 HD
ENDBRANCH   6  24
BRANCH   8  26
ATOM     26  O   UNL     1      13.330 -10.491 -28.367  1.00  0.00    -0.508 OA
ATOM     27  H   UNL     1      12.846 -10.575 -27.481  1.00  0.00     0.293 HD
ENDBRANCH   8  26
TORSDOF 6
ENDMDL
MODEL 2
REMARK VINA RESULT:    -5.952      1.678      6.684
REMARK INTER + INTRA:          -7.576
REMARK INTER:                  -7.273
REMARK INTRA:                  -0.303
REMARK UNBOUND:                -0.406
REMARK SMILES O=c1c(O)c(-c2ccc(O)cc2O)oc2cc(O)cc(O)c12
REMARK SMILES IDX 5 1 3 2 2 3 1 4 22 5 20 6 19 7 17 8 16 9 15 10 14 11 6 12
REMARK SMILES IDX 8 13 7 14 9 15 11 16 12 17 10 18 13 20 4 22 21 24 18 26
REMARK H PARENT 10 19 13 21 4 23 21 25 18 27
REMARK Flexibility Score: inf
ROOT
ATOM      1  C   UNL     1      15.603  -7.545 -31.741  1.00  0.00     0.184 A 
ATOM      2  C   UNL     1      14.927  -7.006 -32.847  1.00  0.00     0.208 A 
ATOM      3  C   UNL     1      15.671  -6.588 -33.962  1.00  0.00     0.238 A 
ATOM      4  O   UNL     1      15.067  -6.038 -34.919  1.00  0.00    -0.285 OA
ATOM      5  C   UNL     1      17.077  -6.764 -33.977  1.00  0.00     0.111 A 
ATOM      6  C   UNL     1      17.928  -6.417 -35.070  1.00  0.00     0.134 A 
ATOM      7  C   UNL     1      19.315  -6.539 -34.931  1.00  0.00     0.093 A 
ATOM      8  C   UNL     1      19.880  -7.054 -33.766  1.00  0.00     0.123 A 
ATOM      9  C   UNL     1      19.056  -7.447 -32.711  1.00  0.00     0.094 A 
ATOM     10  C   UNL     1      17.670  -7.302 -32.803  1.00  0.00     0.146 A 
ATOM     11  O   UNL     1      16.925  -7.669 -31.769  1.00  0.00    -0.451 OA
ENDROOT
BRANCH   1  12
ATOM     12  C   UNL     1      14.880  -7.996 -30.534  1.00  0.00     0.063 A 
ATOM     13  C   UNL     1      14.238  -9.820 -29.060  1.00  0.00     0.047 A 
ATOM     14  C   UNL     1      14.906  -9.359 -30.198  1.00  0.00     0.020 A 
ATOM     15  C   UNL     1      13.550  -8.924 -28.238  1.00  0.00     0.119 A 
ATOM     16  C   UNL     1      13.540  -7.559 -28.551  1.00  0.00     0.093 A 
ATOM     17  C   UNL     1      14.212  -7.087 -29.688  1.00  0.00     0.130 A 
BRANCH  15  18
ATOM     18  O   UNL     1      12.886  -9.399 -27.109  1.00  0.00    -0.508 OA
ATOM     19  H   UNL     1      12.944  -8.918 -26.218  1.00  0.00     0.293 HD
ENDBRANCH  15  18
BRANCH  17  20
ATOM     20  O   UNL     1      14.235  -5.720 -29.964  1.00  0.00    -0.507 OA
ATOM     21  H   UNL     1      14.132  -5.029 -29.230  1.00  0.00     0.293 HD
ENDBRANCH  17  20
ENDBRANCH   1  12
BRANCH   2  22
ATOM     22  O   UNL     1      13.533  -6.910 -32.835  1.00  0.00    -0.502 OA
ATOM     23  H   UNL     1      12.951  -7.382 -33.516  1.00  0.00     0.293 HD
ENDBRANCH   2  22
BRANCH   6  24
ATOM     24  O   UNL     1      17.463  -5.976 -36.314  1.00  0.00    -0.507 OA
ATOM     25  H   UNL     1      17.682  -5.084 -36.729  1.00  0.00     0.293 HD
ENDBRANCH   6  24
BRANCH   8  26
ATOM     26  O   UNL     1      21.265  -7.176 -33.669  1.00  0.00    -0.508 OA
ATOM     27  H   UNL     1      21.889  -6.512 -34.113  1.00  0.00     0.293 HD
ENDBRANCH   8  26
TORSDOF 6
ENDMDL
MODEL 3
REMARK VINA RESULT:    -5.842      1.614      2.069
REMARK INTER + INTRA:          -7.444
REMARK INTER:                  -7.227
REMARK INTRA:                  -0.217
REMARK UNBOUND:                -0.406
REMARK SMILES O=c1c(O)c(-c2ccc(O)cc2O)oc2cc(O)cc(O)c12
REMARK SMILES IDX 5 1 3 2 2 3 1 4 22 5 20 6 19 7 17 8 16 9 15 10 14 11 6 12
REMARK SMILES IDX 8 13 7 14 9 15 11 16 12 17 10 18 13 20 4 22 21 24 18 26
REMARK H PARENT 10 19 13 21 4 23 21 25 18 27
REMARK Flexibility Score: inf
ROOT
ATOM      1  C   UNL     1      15.477  -7.720 -31.226  1.00  0.00     0.184 A 
ATOM      2  C   UNL     1      14.326  -6.960 -30.969  1.00  0.00     0.208 A 
ATOM      3  C   UNL     1      13.536  -7.278 -29.853  1.00  0.00     0.238 A 
ATOM      4  O   UNL     1      12.467  -6.641 -29.669  1.00  0.00    -0.285 OA
ATOM      5  C   UNL     1      13.937  -8.319 -28.980  1.00  0.00     0.111 A 
ATOM      6  C   UNL     1      13.237  -8.701 -27.795  1.00  0.00     0.134 A 
ATOM      7  C   UNL     1      13.670  -9.815 -27.066  1.00  0.00     0.093 A 
ATOM      8  C   UNL     1      14.812 -10.521 -27.439  1.00  0.00     0.123 A 
ATOM      9  C   UNL     1      15.535 -10.124 -28.564  1.00  0.00     0.094 A 
ATOM     10  C   UNL     1      15.108  -9.041 -29.335  1.00  0.00     0.146 A 
ATOM     11  O   UNL     1      15.814  -8.711 -30.409  1.00  0.00    -0.451 OA
ENDROOT
BRANCH   1  12
ATOM     12  C   UNL     1      16.348  -7.442 -32.388  1.00  0.00     0.063 A 
ATOM     13  C   UNL     1      16.561  -7.076 -34.782  1.00  0.00     0.047 A 
ATOM     14  C   UNL     1      15.768  -7.344 -33.663  1.00  0.00     0.020 A 
ATOM     15  C   UNL     1      17.937  -6.889 -34.640  1.00  0.00     0.119 A 
ATOM     16  C   UNL     1      18.522  -6.961 -33.369  1.00  0.00     0.093 A 
ATOM     17  C   UNL     1      17.733  -7.224 -32.239  1.00  0.00     0.130 A 
BRANCH  15  18
ATOM     18  O   UNL     1      18.715  -6.626 -35.766  1.00  0.00    -0.508 OA
ATOM     19  H   UNL     1      18.361  -6.072 -36.537  1.00  0.00     0.293 HD
ENDBRANCH  15  18
BRANCH  17  20
ATOM     20  O   UNL     1      18.318  -7.245 -30.973  1.00  0.00    -0.507 OA
ATOM     21  H   UNL     1      19.141  -6.694 -30.759  1.00  0.00     0.293 HD
ENDBRANCH  17  20
ENDBRANCH   1  12
BRANCH   2  22
ATOM     22  O   UNL     1      13.992  -5.891 -31.806  1.00  0.00    -0.502 OA
ATOM     23  H   UNL     1      13.037  -5.576 -31.928  1.00  0.00     0.293 HD
ENDBRANCH   2  22
BRANCH   6  24
ATOM     24  O   UNL     1      12.135  -8.010 -27.280  1.00  0.00    -0.507 OA
ATOM     25  H   UNL     1      11.755  -8.135 -26.355  1.00  0.00     0.293 HD
ENDBRANCH   6  24
BRANCH   8  26
ATOM     26  O   UNL     1      15.223 -11.615 -26.679  1.00  0.00    -0.508 OA
ATOM     27  H   UNL     1      15.471 -11.517 -25.701  1.00  0.00     0.293 HD
ENDBRANCH   8  26
TORSDOF 6
ENDMDL
MODEL 4
REMARK VINA RESULT:    -5.759      1.917      6.680
REMARK INTER + INTRA:          -7.343
REMARK INTER:                  -7.061
REMARK INTRA:                  -0.282
REMARK UNBOUND:                -0.406
REMARK SMILES O=c1c(O)c(-c2ccc(O)cc2O)oc2cc(O)cc(O)c12
REMARK SMILES IDX 5 1 3 2 2 3 1 4 22 5 20 6 19 7 17 8 16 9 15 10 14 11 6 12
REMARK SMILES IDX 8 13 7 14 9 15 11 16 12 17 10 18 13 20 4 22 21 24 18 26
REMARK H PARENT 10 19 13 21 4 23 21 25 18 27
REMARK Flexibility Score: inf
ROOT
ATOM      1  C   UNL     1      15.181  -7.252 -31.410  1.00  0.00     0.184 A 
ATOM      2  C   UNL     1      14.564  -6.825 -32.596  1.00  0.00     0.208 A 
ATOM      3  C   UNL     1      15.356  -6.602 -33.734  1.00  0.00     0.238 A 
ATOM      4  O   UNL     1      14.807  -6.149 -34.771  1.00  0.00    -0.285 OA
ATOM      5  C   UNL     1      16.747  -6.861 -33.685  1.00  0.00     0.111 A 
ATOM      6  C   UNL     1      17.641  -6.712 -34.789  1.00  0.00     0.134 A 
ATOM      7  C   UNL     1      19.016  -6.896 -34.594  1.00  0.00     0.093 A 
ATOM      8  C   UNL     1      19.522  -7.285 -33.356  1.00  0.00     0.123 A 
ATOM      9  C   UNL     1      18.654  -7.487 -32.284  1.00  0.00     0.094 A 
ATOM     10  C   UNL     1      17.281  -7.274 -32.434  1.00  0.00     0.146 A 
ATOM     11  O   UNL     1      16.493  -7.457 -31.383  1.00  0.00    -0.451 OA
ENDROOT
BRANCH   1  12
ATOM     12  C   UNL     1      14.406  -7.498 -30.176  1.00  0.00     0.063 A 
ATOM     13  C   UNL     1      12.863  -6.662 -28.493  1.00  0.00     0.047 A 
ATOM     14  C   UNL     1      13.613  -6.462 -29.656  1.00  0.00     0.020 A 
ATOM     15  C   UNL     1      12.885  -7.900 -27.847  1.00  0.00     0.119 A 
ATOM     16  C   UNL     1      13.654  -8.946 -28.372  1.00  0.00     0.093 A 
ATOM     17  C   UNL     1      14.405  -8.756 -29.541  1.00  0.00     0.130 A 
BRANCH  15  18
ATOM     18  O   UNL     1      12.135  -8.082 -26.687  1.00  0.00    -0.508 OA
ATOM     19  H   UNL     1      11.983  -9.004 -26.293  1.00  0.00     0.293 HD
ENDBRANCH  15  18
BRANCH  17  20
ATOM     20  O   UNL     1      15.129  -9.819 -30.082  1.00  0.00    -0.507 OA
ATOM     21  H   UNL     1      14.748 -10.758 -30.115  1.00  0.00     0.293 HD
ENDBRANCH  17  20
ENDBRANCH   1  12
BRANCH   2  22
ATOM     22  O   UNL     1      13.178  -6.646 -32.638  1.00  0.00    -0.502 OA
ATOM     23  H   UNL     1      12.610  -6.986 -33.404  1.00  0.00     0.293 HD
ENDBRANCH   2  22
BRANCH   6  24
ATOM     24  O   UNL     1      17.232  -6.412 -36.092  1.00  0.00    -0.507 OA
ATOM     25  H   UNL     1      17.637  -5.696 -36.675  1.00  0.00     0.293 HD
ENDBRANCH   6  24
BRANCH   8  26
ATOM     26  O   UNL     1      20.895  -7.476 -33.204  1.00  0.00    -0.508 OA
ATOM     27  H   UNL     1      21.296  -8.403 -33.122  1.00  0.00     0.293 HD
ENDBRANCH   8  26
TORSDOF 6
ENDMDL
MODEL 5
REMARK VINA RESULT:    -5.750      1.767      6.705
REMARK INTER + INTRA:          -7.333
REMARK INTER:                  -6.933
REMARK INTRA:                  -0.400
REMARK UNBOUND:                -0.406
REMARK SMILES O=c1c(O)c(-c2ccc(O)cc2O)oc2cc(O)cc(O)c12
REMARK SMILES IDX 5 1 3 2 2 3 1 4 22 5 20 6 19 7 17 8 16 9 15 10 14 11 6 12
REMARK SMILES IDX 8 13 7 14 9 15 11 16 12 17 10 18 13 20 4 22 21 24 18 26
REMARK H PARENT 10 19 13 21 4 23 21 25 18 27
REMARK Flexibility Score: inf
ROOT
ATOM      1  C   UNL     1      15.981  -7.702 -31.575  1.00  0.00     0.184 A 
ATOM      2  C   UNL     1      17.345  -7.412 -31.415  1.00  0.00     0.208 A 
ATOM      3  C   UNL     1      18.099  -7.041 -32.539  1.00  0.00     0.238 A 
ATOM      4  O   UNL     1      19.335  -6.854 -32.402  1.00  0.00    -0.285 OA
ATOM      5  C   UNL     1      17.466  -6.913 -33.800  1.00  0.00     0.111 A 
ATOM      6  C   UNL     1      18.121  -6.502 -35.001  1.00  0.00     0.134 A 
ATOM      7  C   UNL     1      17.417  -6.514 -36.211  1.00  0.00     0.093 A 
ATOM      8  C   UNL     1      16.068  -6.859 -36.256  1.00  0.00     0.123 A 
ATOM      9  C   UNL     1      15.403  -7.210 -35.082  1.00  0.00     0.094 A 
ATOM     10  C   UNL     1      16.086  -7.245 -33.864  1.00  0.00     0.146 A 
ATOM     11  O   UNL     1      15.420  -7.605 -32.774  1.00  0.00    -0.451 OA
ENDROOT
BRANCH   1  12
ATOM     12  C   UNL     1      15.134  -8.106 -30.433  1.00  0.00     0.063 A 
ATOM     13  C   UNL     1      14.420  -9.844 -28.891  1.00  0.00     0.047 A 
ATOM     14  C   UNL     1      15.203  -9.430 -29.972  1.00  0.00     0.020 A 
ATOM     15  C   UNL     1      13.570  -8.939 -28.251  1.00  0.00     0.119 A 
ATOM     16  C   UNL     1      13.513  -7.610 -28.688  1.00  0.00     0.093 A 
ATOM     17  C   UNL     1      14.300  -7.184 -29.768  1.00  0.00     0.130 A 
BRANCH  15  18
ATOM     18  O   UNL     1      12.793  -9.368 -27.176  1.00  0.00    -0.508 OA
ATOM     19  H   UNL     1      12.693 -10.352 -26.954  1.00  0.00     0.293 HD
ENDBRANCH  15  18
BRANCH  17  20
ATOM     20  O   UNL     1      14.270  -5.847 -30.165  1.00  0.00    -0.507 OA
ATOM     21  H   UNL     1      13.660  -5.527 -30.907  1.00  0.00     0.293 HD
ENDBRANCH  17  20
ENDBRANCH   1  12
BRANCH   2  22
ATOM     22  O   UNL     1      17.929  -7.476 -30.146  1.00  0.00    -0.502 OA
ATOM     23  H   UNL     1      17.756  -6.776 -29.434  1.00  0.00     0.293 HD
ENDBRANCH   2  22
BRANCH   6  24
ATOM     24  O   UNL     1      19.444  -6.052 -35.055  1.00  0.00    -0.507 OA
ATOM     25  H   UNL     1      20.074  -6.199 -35.828  1.00  0.00     0.293 HD
ENDBRANCH   6  24
BRANCH   8  26
ATOM     26  O   UNL     1      15.395  -6.843 -37.477  1.00  0.00    -0.508 OA
ATOM     27  H   UNL     1      14.743  -6.103 -37.713  1.00  0.00     0.293 HD
ENDBRANCH   8  26
TORSDOF 6
ENDMDL
MODEL 6
REMARK VINA RESULT:    -5.576      2.777      7.759
REMARK INTER + INTRA:          -7.123
REMARK INTER:                  -6.808
REMARK INTRA:                  -0.314
REMARK UNBOUND:                -0.406
REMARK SMILES O=c1c(O)c(-c2ccc(O)cc2O)oc2cc(O)cc(O)c12
REMARK SMILES IDX 5 1 3 2 2 3 1 4 22 5 20 6 19 7 17 8 16 9 15 10 14 11 6 12
REMARK SMILES IDX 8 13 7 14 9 15 11 16 12 17 10 18 13 20 4 22 21 24 18 26
REMARK H PARENT 10 19 13 21 4 23 21 25 18 27
REMARK Flexibility Score: inf
ROOT
ATOM      1  C   UNL     1      19.379  -5.771 -33.413  1.00  0.00     0.184 A 
ATOM      2  C   UNL     1      19.709  -4.421 -33.214  1.00  0.00     0.208 A 
ATOM      3  C   UNL     1      20.754  -3.858 -33.964  1.00  0.00     0.238 A 
ATOM      4  O   UNL     1      21.093  -2.669 -33.728  1.00  0.00    -0.285 OA
ATOM      5  C   UNL     1      21.419  -4.638 -34.941  1.00  0.00     0.111 A 
ATOM      6  C   UNL     1      22.463  -4.160 -35.790  1.00  0.00     0.134 A 
ATOM      7  C   UNL     1      23.119  -5.052 -36.647  1.00  0.00     0.093 A 
ATOM      8  C   UNL     1      22.729  -6.387 -36.734  1.00  0.00     0.123 A 
ATOM      9  C   UNL     1      21.675  -6.853 -35.950  1.00  0.00     0.094 A 
ATOM     10  C   UNL     1      21.024  -5.998 -35.056  1.00  0.00     0.146 A 
ATOM     11  O   UNL     1      20.040  -6.488 -34.314  1.00  0.00    -0.451 OA
ENDROOT
BRANCH   1  12
ATOM     12  C   UNL     1      18.296  -6.426 -32.651  1.00  0.00     0.063 A 
ATOM     13  C   UNL     1      16.078  -7.421 -32.635  1.00  0.00     0.047 A 
ATOM     14  C   UNL     1      17.120  -6.795 -33.324  1.00  0.00     0.020 A 
ATOM     15  C   UNL     1      16.203  -7.699 -31.272  1.00  0.00     0.119 A 
ATOM     16  C   UNL     1      17.382  -7.357 -30.597  1.00  0.00     0.093 A 
ATOM     17  C   UNL     1      18.435  -6.733 -31.282  1.00  0.00     0.130 A 
BRANCH  15  18
ATOM     18  O   UNL     1      15.154  -8.321 -30.598  1.00  0.00    -0.508 OA
ATOM     19  H   UNL     1      15.322  -9.039 -29.902  1.00  0.00     0.293 HD
ENDBRANCH  15  18
BRANCH  17  20
ATOM     20  O   UNL     1      19.622  -6.440 -30.611  1.00  0.00    -0.507 OA
ATOM     21  H   UNL     1      19.962  -5.490 -30.524  1.00  0.00     0.293 HD
ENDBRANCH  17  20
ENDBRANCH   1  12
BRANCH   2  22
ATOM     22  O   UNL     1      18.989  -3.654 -32.294  1.00  0.00    -0.502 OA
ATOM     23  H   UNL     1      19.355  -2.797 -31.897  1.00  0.00     0.293 HD
ENDBRANCH   2  22
BRANCH   6  24
ATOM     24  O   UNL     1      22.874  -2.824 -35.849  1.00  0.00    -0.507 OA
ATOM     25  H   UNL     1      22.327  -2.067 -36.228  1.00  0.00     0.293 HD
ENDBRANCH   6  24
BRANCH   8  26
ATOM     26  O   UNL     1      23.395  -7.242 -37.611  1.00  0.00    -0.508 OA
ATOM     27  H   UNL     1      23.177  -8.231 -37.655  1.00  0.00     0.293 HD
ENDBRANCH   8  26
TORSDOF 6
ENDMDL
MODEL 7
REMARK VINA RESULT:    -5.512      2.039      6.758
REMARK INTER + INTRA:          -7.045
REMARK INTER:                  -6.688
REMARK INTRA:                  -0.358
REMARK UNBOUND:                -0.406
REMARK SMILES O=c1c(O)c(-c2ccc(O)cc2O)oc2cc(O)cc(O)c12
REMARK SMILES IDX 5 1 3 2 2 3 1 4 22 5 20 6 19 7 17 8 16 9 15 10 14 11 6 12
REMARK SMILES IDX 8 13 7 14 9 15 11 16 12 17 10 18 13 20 4 22 21 24 18 26
REMARK H PARENT 10 19 13 21 4 23 21 25 18 27
REMARK Flexibility Score: inf
ROOT
ATOM      1  C   UNL     1      17.378  -6.660 -32.261  1.00  0.00     0.184 A 
ATOM      2  C   UNL     1      17.630  -5.374 -31.757  1.00  0.00     0.208 A 
ATOM      3  C   UNL     1      18.696  -4.632 -32.288  1.00  0.00     0.238 A 
ATOM      4  O   UNL     1      18.962  -3.511 -31.782  1.00  0.00    -0.285 OA
ATOM      5  C   UNL     1      19.464  -5.165 -33.353  1.00  0.00     0.111 A 
ATOM      6  C   UNL     1      20.541  -4.484 -33.998  1.00  0.00     0.134 A 
ATOM      7  C   UNL     1      21.296  -5.152 -34.970  1.00  0.00     0.093 A 
ATOM      8  C   UNL     1      20.976  -6.449 -35.366  1.00  0.00     0.123 A 
ATOM      9  C   UNL     1      19.892  -7.104 -34.782  1.00  0.00     0.094 A 
ATOM     10  C   UNL     1      19.142  -6.481 -33.782  1.00  0.00     0.146 A 
ATOM     11  O   UNL     1      18.132  -7.148 -33.238  1.00  0.00    -0.451 OA
ENDROOT
BRANCH   1  12
ATOM     12  C   UNL     1      16.276  -7.496 -31.740  1.00  0.00     0.063 A 
ATOM     13  C   UNL     1      15.284  -8.695 -29.872  1.00  0.00     0.047 A 
ATOM     14  C   UNL     1      16.312  -7.908 -30.398  1.00  0.00     0.020 A 
ATOM     15  C   UNL     1      14.202  -9.066 -30.674  1.00  0.00     0.119 A 
ATOM     16  C   UNL     1      14.145  -8.639 -32.006  1.00  0.00     0.093 A 
ATOM     17  C   UNL     1      15.170  -7.845 -32.542  1.00  0.00     0.130 A 
BRANCH  15  18
ATOM     18  O   UNL     1      13.187  -9.853 -30.135  1.00  0.00    -0.508 OA
ATOM     19  H   UNL     1      12.536 -10.357 -30.728  1.00  0.00     0.293 HD
ENDBRANCH  15  18
BRANCH  17  20
ATOM     20  O   UNL     1      15.079  -7.386 -33.856  1.00  0.00    -0.507 OA
ATOM     21  H   UNL     1      15.905  -7.170 -34.401  1.00  0.00     0.293 HD
ENDBRANCH  17  20
ENDBRANCH   1  12
BRANCH   2  22
ATOM     22  O   UNL     1      16.812  -4.844 -30.755  1.00  0.00    -0.502 OA
ATOM     23  H   UNL     1      15.819  -5.036 -30.708  1.00  0.00     0.293 HD
ENDBRANCH   2  22
BRANCH   6  24
ATOM     24  O   UNL     1      20.892  -3.155 -33.742  1.00  0.00    -0.507 OA
ATOM     25  H   UNL     1      20.417  -2.349 -34.118  1.00  0.00     0.293 HD
ENDBRANCH   6  24
BRANCH   8  26
ATOM     26  O   UNL     1      21.740  -7.076 -36.349  1.00  0.00    -0.508 OA
ATOM     27  H   UNL     1      22.027  -8.044 -36.259  1.00  0.00     0.293 HD
ENDBRANCH   8  26
TORSDOF 6
ENDMDL
MODEL 8
REMARK VINA RESULT:    -5.386      1.598      3.054
REMARK INTER + INTRA:          -6.894
REMARK INTER:                  -6.551
REMARK INTRA:                  -0.343
REMARK UNBOUND:                -0.406
REMARK SMILES O=c1c(O)c(-c2ccc(O)cc2O)oc2cc(O)cc(O)c12
REMARK SMILES IDX 5 1 3 2 2 3 1 4 22 5 20 6 19 7 17 8 16 9 15 10 14 11 6 12
REMARK SMILES IDX 8 13 7 14 9 15 11 16 12 17 10 18 13 20 4 22 21 24 18 26
REMARK H PARENT 10 19 13 21 4 23 21 25 18 27
REMARK Flexibility Score: inf
ROOT
ATOM      1  C   UNL     1      16.374  -6.593 -31.451  1.00  0.00     0.184 A 
ATOM      2  C   UNL     1      15.264  -7.432 -31.259  1.00  0.00     0.208 A 
ATOM      3  C   UNL     1      14.365  -7.144 -30.221  1.00  0.00     0.238 A 
ATOM      4  O   UNL     1      13.414  -7.940 -30.008  1.00  0.00    -0.285 OA
ATOM      5  C   UNL     1      14.558  -5.990 -29.421  1.00  0.00     0.111 A 
ATOM      6  C   UNL     1      13.687  -5.576 -28.368  1.00  0.00     0.134 A 
ATOM      7  C   UNL     1      14.036  -4.476 -27.576  1.00  0.00     0.093 A 
ATOM      8  C   UNL     1      15.188  -3.736 -27.836  1.00  0.00     0.123 A 
ATOM      9  C   UNL     1      16.019  -4.099 -28.896  1.00  0.00     0.094 A 
ATOM     10  C   UNL     1      15.720  -5.214 -29.682  1.00  0.00     0.146 A 
ATOM     11  O   UNL     1      16.549  -5.536 -30.667  1.00  0.00    -0.451 OA
ENDROOT
BRANCH   1  12
ATOM     12  C   UNL     1      17.362  -6.845 -32.520  1.00  0.00     0.063 A 
ATOM     13  C   UNL     1      17.848  -7.032 -34.895  1.00  0.00     0.047 A 
ATOM     14  C   UNL     1      16.939  -6.804 -33.859  1.00  0.00     0.020 A 
ATOM     15  C   UNL     1      19.191  -7.288 -34.609  1.00  0.00     0.119 A 
ATOM     16  C   UNL     1      19.628  -7.306 -33.278  1.00  0.00     0.093 A 
ATOM     17  C   UNL     1      18.723  -7.073 -32.232  1.00  0.00     0.130 A 
BRANCH  15  18
ATOM     18  O   UNL     1      20.084  -7.517 -35.653  1.00  0.00    -0.508 OA
ATOM     19  H   UNL     1      21.016  -7.117 -35.650  1.00  0.00     0.293 HD
ENDBRANCH  15  18
BRANCH  17  20
ATOM     20  O   UNL     1      19.178  -7.046 -30.914  1.00  0.00    -0.507 OA
ATOM     21  H   UNL     1      19.450  -6.180 -30.464  1.00  0.00     0.293 HD
ENDBRANCH  17  20
ENDBRANCH   1  12
BRANCH   2  22
ATOM     22  O   UNL     1      15.058  -8.522 -32.108  1.00  0.00    -0.502 OA
ATOM     23  H   UNL     1      15.824  -9.036 -32.526  1.00  0.00     0.293 HD
ENDBRANCH   2  22
BRANCH   6  24
ATOM     24  O   UNL     1      12.464  -6.189 -28.077  1.00  0.00    -0.507 OA
ATOM     25  H   UNL     1      12.187  -6.524 -27.168  1.00  0.00     0.293 HD
ENDBRANCH   6  24
BRANCH   8  26
ATOM     26  O   UNL     1      15.495  -2.636 -27.037  1.00  0.00    -0.508 OA
ATOM     27  H   UNL     1      14.772  -2.110 -26.559  1.00  0.00     0.293 HD
ENDBRANCH   8  26
TORSDOF 6
ENDMDL
MODEL 9
REMARK VINA RESULT:    -5.380      1.970      3.745
REMARK INTER + INTRA:          -6.886
REMARK INTER:                  -6.478
REMARK INTRA:                  -0.408
REMARK UNBOUND:                -0.406
REMARK SMILES O=c1c(O)c(-c2ccc(O)cc2O)oc2cc(O)cc(O)c12
REMARK SMILES IDX 5 1 3 2 2 3 1 4 22 5 20 6 19 7 17 8 16 9 15 10 14 11 6 12
REMARK SMILES IDX 8 13 7 14 9 15 11 16 12 17 10 18 13 20 4 22 21 24 18 26
REMARK H PARENT 10 19 13 21 4 23 21 25 18 27
REMARK Flexibility Score: inf
ROOT
ATOM      1  C   UNL     1      15.547  -6.739 -30.719  1.00  0.00     0.184 A 
ATOM      2  C   UNL     1      15.048  -7.765 -29.901  1.00  0.00     0.208 A 
ATOM      3  C   UNL     1      13.867  -7.543 -29.175  1.00  0.00     0.238 A 
ATOM      4  O   UNL     1      13.465  -8.439 -28.388  1.00  0.00    -0.285 OA
ATOM      5  C   UNL     1      13.171  -6.318 -29.319  1.00  0.00     0.111 A 
ATOM      6  C   UNL     1      11.942  -5.999 -28.666  1.00  0.00     0.134 A 
ATOM      7  C   UNL     1      11.400  -4.715 -28.801  1.00  0.00     0.093 A 
ATOM      8  C   UNL     1      12.006  -3.760 -29.614  1.00  0.00     0.123 A 
ATOM      9  C   UNL     1      13.178  -4.076 -30.300  1.00  0.00     0.094 A 
ATOM     10  C   UNL     1      13.765  -5.335 -30.157  1.00  0.00     0.146 A 
ATOM     11  O   UNL     1      14.892  -5.588 -30.811  1.00  0.00    -0.451 OA
ENDROOT
BRANCH   1  12
ATOM     12  C   UNL     1      16.789  -6.905 -31.502  1.00  0.00     0.063 A 
ATOM     13  C   UNL     1      19.215  -7.047 -31.541  1.00  0.00     0.047 A 
ATOM     14  C   UNL     1      18.022  -6.888 -30.831  1.00  0.00     0.020 A 
ATOM     15  C   UNL     1      19.191  -7.240 -32.924  1.00  0.00     0.119 A 
ATOM     16  C   UNL     1      17.964  -7.283 -33.599  1.00  0.00     0.093 A 
ATOM     17  C   UNL     1      16.761  -7.129 -32.894  1.00  0.00     0.130 A 
BRANCH  15  18
ATOM     18  O   UNL     1      20.389  -7.394 -33.617  1.00  0.00    -0.508 OA
ATOM     19  H   UNL     1      20.693  -6.716 -34.307  1.00  0.00     0.293 HD
ENDBRANCH  15  18
BRANCH  17  20
ATOM     20  O   UNL     1      15.544  -7.222 -33.569  1.00  0.00    -0.507 OA
ATOM     21  H   UNL     1      14.667  -6.994 -33.116  1.00  0.00     0.293 HD
ENDBRANCH  17  20
ENDBRANCH   1  12
BRANCH   2  22
ATOM     22  O   UNL     1      15.715  -8.991 -29.833  1.00  0.00    -0.502 OA
ATOM     23  H   UNL     1      15.510  -9.682 -29.121  1.00  0.00     0.293 HD
ENDBRANCH   2  22
BRANCH   6  24
ATOM     24  O   UNL     1      11.204  -6.909 -27.900  1.00  0.00    -0.507 OA
ATOM     25  H   UNL     1      10.469  -6.660 -27.257  1.00  0.00     0.293 HD
ENDBRANCH   6  24
BRANCH   8  26
ATOM     26  O   UNL     1      11.429  -2.497 -29.738  1.00  0.00    -0.508 OA
ATOM     27  H   UNL     1      10.441  -2.347 -29.568  1.00  0.00     0.293 HD
ENDBRANCH   8  26
TORSDOF 6
ENDMDL
