MODEL 1
REMARK VINA RESULT:    -4.275      0.000      0.000
REMARK INTER + INTRA:         -16.750
REMARK INTER:                 -11.273
REMARK INTRA:                  -5.477
REMARK UNBOUND:                -5.477
REMARK SMILES CCCCCCCCCCCCCCCCCCCCCCCCCCCCCC(=O)[O-]
REMARK SMILES IDX 16 1 17 2 18 3 19 4 20 5 21 6 22 7 23 8 24 9 25 10 26 11
REMARK SMILES IDX 27 12 28 13 29 14 30 15 31 16 32 17 15 18 14 19 13 20 12 21
REMARK SMILES IDX 11 22 10 23 9 24 8 25 7 26 6 27 5 28 4 29 3 30 2 31 1 32
REMARK H PARENT
REMARK Flexibility Score: inf
ROOT
ATOM      1  C   UNL     1      17.585  -2.777  63.065  1.00  0.00     0.000 C 
ENDROOT
BRANCH   1   2
ATOM      2  C   UNL     1      18.207  -3.903  62.204  1.00  0.00     0.000 C 
BRANCH   2   3
ATOM      3  C   UNL     1      17.413  -5.228  62.159  1.00  0.00     0.000 C 
BRANCH   3   4
ATOM      4  C   UNL     1      16.893  -5.605  60.757  1.00  0.00     0.000 C 
BRANCH   4   5
ATOM      5  C   UNL     1      15.729  -4.711  60.301  1.00  0.00     0.000 C 
BRANCH   5   6
ATOM      6  C   UNL     1      14.488  -4.880  61.196  1.00  0.00     0.000 C 
BRANCH   6   7
ATOM      7  C   UNL     1      14.052  -3.572  61.893  1.00  0.00     0.000 C 
BRANCH   7   8
ATOM      8  C   UNL     1      14.417  -2.299  61.091  1.00  0.00     0.000 C 
BRANCH   8   9
ATOM      9  C   UNL     1      14.069  -1.001  61.846  1.00  0.00     0.000 C 
BRANCH   9  10
ATOM     10  C   UNL     1      14.394   0.263  61.034  1.00  0.00     0.000 C 
BRANCH  10  11
ATOM     11  C   UNL     1      14.837  -0.056  59.598  1.00  0.00     0.000 C 
BRANCH  11  12
ATOM     12  C   UNL     1      14.919   1.215  58.745  1.00  0.00     0.000 C 
BRANCH  12  13
ATOM     13  C   UNL     1      15.805   0.984  57.514  1.00  0.00     0.006 C 
BRANCH  13  14
ATOM     14  C   UNL     1      16.389  -0.435  57.505  1.00  0.00     0.053 C 
BRANCH  14  15
ATOM     15  C   UNL     1      17.376  -0.629  56.390  1.00  0.00     0.041 C 
ATOM     16  O   UNL     1      18.614  -0.521  56.599  1.00  0.00    -0.550 OA
ATOM     17  O   UNL     1      16.925  -1.004  55.131  1.00  0.00    -0.550 OA
ENDBRANCH  14  15
ENDBRANCH  13  14
ENDBRANCH  12  13
ENDBRANCH  11  12
ENDBRANCH  10  11
ENDBRANCH   9  10
ENDBRANCH   8   9
ENDBRANCH   7   8
ENDBRANCH   6   7
ENDBRANCH   5   6
ENDBRANCH   4   5
ENDBRANCH   3   4
ENDBRANCH   2   3
ENDBRANCH   1   2
BRANCH   1  18
ATOM     18  C   UNL     1      17.683  -1.389  62.411  1.00  0.00     0.000 C 
BRANCH  18  19
ATOM     19  C   UNL     1      18.268  -1.453  60.979  1.00  0.00     0.000 C 
BRANCH  19  20
ATOM     20  C   UNL     1      18.532  -0.054  60.385  1.00  0.00     0.000 C 
BRANCH  20  21
ATOM     21  C   UNL     1      17.944   1.068  61.258  1.00  0.00     0.000 C 
BRANCH  21  22
ATOM     22  C   UNL     1      18.634   2.424  61.029  1.00  0.00     0.000 C 
BRANCH  22  23
ATOM     23  C   UNL     1      17.912   3.356  60.040  1.00  0.00     0.000 C 
BRANCH  23  24
ATOM     24  C   UNL     1      17.011   4.385  60.734  1.00  0.00    -0.000 C 
BRANCH  24  25
ATOM     25  C   UNL     1      15.646   4.470  60.040  1.00  0.00    -0.000 C 
BRANCH  25  26
ATOM     26  C   UNL     1      15.378   5.853  59.426  1.00  0.00    -0.000 C 
BRANCH  26  27
ATOM     27  C   UNL     1      14.710   5.761  58.039  1.00  0.00    -0.000 C 
BRANCH  27  28
ATOM     28  C   UNL     1      15.303   4.624  57.177  1.00  0.00    -0.000 C 
BRANCH  28  29
ATOM     29  C   UNL     1      16.597   5.028  56.443  1.00  0.00    -0.000 C 
BRANCH  29  30
ATOM     30  C   UNL     1      17.652   3.908  56.420  1.00  0.00    -0.000 C 
BRANCH  30  31
ATOM     31  C   UNL     1      17.643   3.121  55.100  1.00  0.00    -0.003 C 
ATOM     32  C   UNL     1      18.986   3.159  54.375  1.00  0.00     0.004 C 
ENDBRANCH  30  31
ENDBRANCH  29  30
ENDBRANCH  28  29
ENDBRANCH  27  28
ENDBRANCH  26  27
ENDBRANCH  25  26
ENDBRANCH  24  25
ENDBRANCH  23  24
ENDBRANCH  22  23
ENDBRANCH  21  22
ENDBRANCH  20  21
ENDBRANCH  19  20
ENDBRANCH  18  19
ENDBRANCH   1  18
TORSDOF 28
ENDMDL
MODEL 2
REMARK VINA RESULT:    -4.205      3.386      5.785
REMARK INTER + INTRA:         -16.565
REMARK INTER:                 -10.291
REMARK INTRA:                  -6.274
REMARK UNBOUND:                -5.477
REMARK SMILES CCCCCCCCCCCCCCCCCCCCCCCCCCCCCC(=O)[O-]
REMARK SMILES IDX 16 1 17 2 18 3 19 4 20 5 21 6 22 7 23 8 24 9 25 10 26 11
REMARK SMILES IDX 27 12 28 13 29 14 30 15 31 16 32 17 15 18 14 19 13 20 12 21
REMARK SMILES IDX 11 22 10 23 9 24 8 25 7 26 6 27 5 28 4 29 3 30 2 31 1 32
REMARK H PARENT
REMARK Flexibility Score: inf
ROOT
ATOM      1  C   UNL     1      16.370  -0.795  57.677  1.00  0.00     0.000 C 
ENDROOT
BRANCH   1   2
ATOM      2  C   UNL     1      15.246   0.269  57.702  1.00  0.00     0.000 C 
BRANCH   2   3
ATOM      3  C   UNL     1      15.330   1.306  58.845  1.00  0.00     0.000 C 
BRANCH   3   4
ATOM      4  C   UNL     1      14.591   0.887  60.132  1.00  0.00     0.000 C 
BRANCH   4   5
ATOM      5  C   UNL     1      15.500   0.924  61.371  1.00  0.00     0.000 C 
BRANCH   5   6
ATOM      6  C   UNL     1      16.271  -0.395  61.561  1.00  0.00     0.000 C 
BRANCH   6   7
ATOM      7  C   UNL     1      17.795  -0.197  61.713  1.00  0.00     0.000 C 
BRANCH   7   8
ATOM      8  C   UNL     1      18.604  -0.702  60.495  1.00  0.00     0.000 C 
BRANCH   8   9
ATOM      9  C   UNL     1      19.560   0.367  59.931  1.00  0.00     0.000 C 
BRANCH   9  10
ATOM     10  C   UNL     1      18.839   1.675  59.564  1.00  0.00     0.000 C 
BRANCH  10  11
ATOM     11  C   UNL     1      19.307   2.865  60.417  1.00  0.00     0.000 C 
BRANCH  11  12
ATOM     12  C   UNL     1      18.127   3.757  60.821  1.00  0.00     0.000 C 
BRANCH  12  13
ATOM     13  C   UNL     1      17.766   3.539  62.296  1.00  0.00     0.006 C 
BRANCH  13  14
ATOM     14  C   UNL     1      16.630   4.471  62.737  1.00  0.00     0.053 C 
BRANCH  14  15
ATOM     15  C   UNL     1      16.087   4.096  64.086  1.00  0.00     0.041 C 
ATOM     16  O   UNL     1      15.108   3.310  64.191  1.00  0.00    -0.550 OA
ATOM     17  O   UNL     1      16.717   4.561  65.233  1.00  0.00    -0.550 OA
ENDBRANCH  14  15
ENDBRANCH  13  14
ENDBRANCH  12  13
ENDBRANCH  11  12
ENDBRANCH  10  11
ENDBRANCH   9  10
ENDBRANCH   8   9
ENDBRANCH   7   8
ENDBRANCH   6   7
ENDBRANCH   5   6
ENDBRANCH   4   5
ENDBRANCH   3   4
ENDBRANCH   2   3
ENDBRANCH   1   2
BRANCH   1  18
ATOM     18  C   UNL     1      17.121  -0.852  56.337  1.00  0.00     0.000 C 
BRANCH  18  19
ATOM     19  C   UNL     1      18.254   0.200  56.252  1.00  0.00     0.000 C 
BRANCH  19  20
ATOM     20  C   UNL     1      17.872   1.413  55.380  1.00  0.00     0.000 C 
BRANCH  20  21
ATOM     21  C   UNL     1      17.583   2.666  56.224  1.00  0.00     0.000 C 
BRANCH  21  22
ATOM     22  C   UNL     1      16.790   3.735  55.451  1.00  0.00     0.000 C 
BRANCH  22  23
ATOM     23  C   UNL     1      15.953   4.679  56.330  1.00  0.00     0.000 C 
BRANCH  23  24
ATOM     24  C   UNL     1      16.447   4.745  57.780  1.00  0.00    -0.000 C 
BRANCH  24  25
ATOM     25  C   UNL     1      16.790   6.188  58.174  1.00  0.00    -0.000 C 
BRANCH  25  26
ATOM     26  C   UNL     1      18.136   6.655  57.599  1.00  0.00    -0.000 C 
BRANCH  26  27
ATOM     27  C   UNL     1      19.261   5.624  57.827  1.00  0.00    -0.000 C 
BRANCH  27  28
ATOM     28  C   UNL     1      20.020   5.287  56.524  1.00  0.00    -0.000 C 
BRANCH  28  29
ATOM     29  C   UNL     1      19.659   6.217  55.350  1.00  0.00    -0.000 C 
BRANCH  29  30
ATOM     30  C   UNL     1      19.809   5.541  53.975  1.00  0.00    -0.000 C 
BRANCH  30  31
ATOM     31  C   UNL     1      20.263   4.077  54.090  1.00  0.00    -0.003 C 
ATOM     32  C   UNL     1      20.909   3.553  52.810  1.00  0.00     0.004 C 
ENDBRANCH  30  31
ENDBRANCH  29  30
ENDBRANCH  28  29
ENDBRANCH  27  28
ENDBRANCH  26  27
ENDBRANCH  25  26
ENDBRANCH  24  25
ENDBRANCH  23  24
ENDBRANCH  22  23
ENDBRANCH  21  22
ENDBRANCH  20  21
ENDBRANCH  19  20
ENDBRANCH  18  19
ENDBRANCH   1  18
TORSDOF 28
ENDMDL
MODEL 3
REMARK VINA RESULT:    -4.166      2.150      4.630
REMARK INTER + INTRA:         -16.461
REMARK INTER:                 -10.929
REMARK INTRA:                  -5.532
REMARK UNBOUND:                -5.477
REMARK SMILES CCCCCCCCCCCCCCCCCCCCCCCCCCCCCC(=O)[O-]
REMARK SMILES IDX 16 1 17 2 18 3 19 4 20 5 21 6 22 7 23 8 24 9 25 10 26 11
REMARK SMILES IDX 27 12 28 13 29 14 30 15 31 16 32 17 15 18 14 19 13 20 12 21
REMARK SMILES IDX 11 22 10 23 9 24 8 25 7 26 6 27 5 28 4 29 3 30 2 31 1 32
REMARK H PARENT
REMARK Flexibility Score: inf
ROOT
ATOM      1  C   UNL     1      15.551   2.788  63.352  1.00  0.00     0.000 C 
ENDROOT
BRANCH   1   2
ATOM      2  C   UNL     1      16.655   1.958  62.653  1.00  0.00     0.000 C 
BRANCH   2   3
ATOM      3  C   UNL     1      16.156   0.819  61.734  1.00  0.00     0.000 C 
BRANCH   3   4
ATOM      4  C   UNL     1      14.622   0.739  61.605  1.00  0.00     0.000 C 
BRANCH   4   5
ATOM      5  C   UNL     1      14.113  -0.709  61.522  1.00  0.00     0.000 C 
BRANCH   5   6
ATOM      6  C   UNL     1      14.888  -1.534  60.479  1.00  0.00     0.000 C 
BRANCH   6   7
ATOM      7  C   UNL     1      15.465  -2.851  61.044  1.00  0.00     0.000 C 
BRANCH   7   8
ATOM      8  C   UNL     1      15.572  -2.861  62.587  1.00  0.00     0.000 C 
BRANCH   8   9
ATOM      9  C   UNL     1      16.977  -3.255  63.083  1.00  0.00     0.000 C 
BRANCH   9  10
ATOM     10  C   UNL     1      18.000  -2.117  62.933  1.00  0.00     0.000 C 
BRANCH  10  11
ATOM     11  C   UNL     1      19.080  -2.429  61.885  1.00  0.00     0.000 C 
BRANCH  11  12
ATOM     12  C   UNL     1      19.489  -1.167  61.116  1.00  0.00     0.000 C 
BRANCH  12  13
ATOM     13  C   UNL     1      18.567  -0.947  59.910  1.00  0.00     0.006 C 
BRANCH  13  14
ATOM     14  C   UNL     1      18.837   0.407  59.240  1.00  0.00     0.053 C 
BRANCH  14  15
ATOM     15  C   UNL     1      20.033   0.356  58.334  1.00  0.00     0.041 C 
ATOM     16  O   UNL     1      20.121  -0.519  57.432  1.00  0.00    -0.550 OA
ATOM     17  O   UNL     1      21.018   1.330  58.441  1.00  0.00    -0.550 OA
ENDBRANCH  14  15
ENDBRANCH  13  14
ENDBRANCH  12  13
ENDBRANCH  11  12
ENDBRANCH  10  11
ENDBRANCH   9  10
ENDBRANCH   8   9
ENDBRANCH   7   8
ENDBRANCH   6   7
ENDBRANCH   5   6
ENDBRANCH   4   5
ENDBRANCH   3   4
ENDBRANCH   2   3
ENDBRANCH   1   2
BRANCH   1  18
ATOM     18  C   UNL     1      16.110   3.869  64.292  1.00  0.00     0.000 C 
BRANCH  18  19
ATOM     19  C   UNL     1      17.561   4.270  63.932  1.00  0.00     0.000 C 
BRANCH  19  20
ATOM     20  C   UNL     1      17.892   5.721  64.335  1.00  0.00     0.000 C 
BRANCH  20  21
ATOM     21  C   UNL     1      16.736   6.688  64.024  1.00  0.00     0.000 C 
BRANCH  21  22
ATOM     22  C   UNL     1      16.850   7.321  62.627  1.00  0.00     0.000 C 
BRANCH  22  23
ATOM     23  C   UNL     1      15.546   7.319  61.809  1.00  0.00     0.000 C 
BRANCH  23  24
ATOM     24  C   UNL     1      15.087   5.910  61.416  1.00  0.00    -0.000 C 
BRANCH  24  25
ATOM     25  C   UNL     1      16.054   5.286  60.401  1.00  0.00    -0.000 C 
BRANCH  25  26
ATOM     26  C   UNL     1      15.556   3.936  59.861  1.00  0.00    -0.000 C 
BRANCH  26  27
ATOM     27  C   UNL     1      16.503   3.343  58.798  1.00  0.00    -0.000 C 
BRANCH  27  28
ATOM     28  C   UNL     1      15.735   2.669  57.639  1.00  0.00    -0.000 C 
BRANCH  28  29
ATOM     29  C   UNL     1      14.912   1.444  58.084  1.00  0.00    -0.000 C 
BRANCH  29  30
ATOM     30  C   UNL     1      15.331   0.145  57.373  1.00  0.00    -0.000 C 
BRANCH  30  31
ATOM     31  C   UNL     1      16.567   0.339  56.480  1.00  0.00    -0.003 C 
ATOM     32  C   UNL     1      16.894  -0.895  55.642  1.00  0.00     0.004 C 
ENDBRANCH  30  31
ENDBRANCH  29  30
ENDBRANCH  28  29
ENDBRANCH  27  28
ENDBRANCH  26  27
ENDBRANCH  25  26
ENDBRANCH  24  25
ENDBRANCH  23  24
ENDBRANCH  22  23
ENDBRANCH  21  22
ENDBRANCH  20  21
ENDBRANCH  19  20
ENDBRANCH  18  19
ENDBRANCH   1  18
TORSDOF 28
ENDMDL
MODEL 4
REMARK VINA RESULT:    -4.131      3.117      6.737
REMARK INTER + INTRA:         -16.371
REMARK INTER:                 -10.844
REMARK INTRA:                  -5.527
REMARK UNBOUND:                -5.477
REMARK SMILES CCCCCCCCCCCCCCCCCCCCCCCCCCCCCC(=O)[O-]
REMARK SMILES IDX 16 1 17 2 18 3 19 4 20 5 21 6 22 7 23 8 24 9 25 10 26 11
REMARK SMILES IDX 27 12 28 13 29 14 30 15 31 16 32 17 15 18 14 19 13 20 12 21
REMARK SMILES IDX 11 22 10 23 9 24 8 25 7 26 6 27 5 28 4 29 3 30 2 31 1 32
REMARK H PARENT
REMARK Flexibility Score: inf
ROOT
ATOM      1  C   UNL     1      17.100   3.391  59.900  1.00  0.00     0.000 C 
ENDROOT
BRANCH   1   2
ATOM      2  C   UNL     1      15.624   2.983  60.129  1.00  0.00     0.000 C 
BRANCH   2   3
ATOM      3  C   UNL     1      15.367   2.045  61.331  1.00  0.00     0.000 C 
BRANCH   3   4
ATOM      4  C   UNL     1      16.176   2.403  62.594  1.00  0.00     0.000 C 
BRANCH   4   5
ATOM      5  C   UNL     1      15.360   3.230  63.601  1.00  0.00     0.000 C 
BRANCH   5   6
ATOM      6  C   UNL     1      16.261   4.082  64.512  1.00  0.00     0.000 C 
BRANCH   6   7
ATOM      7  C   UNL     1      17.687   4.279  63.952  1.00  0.00     0.000 C 
BRANCH   7   8
ATOM      8  C   UNL     1      18.311   5.643  64.329  1.00  0.00     0.000 C 
BRANCH   8   9
ATOM      9  C   UNL     1      17.482   6.406  65.381  1.00  0.00     0.000 C 
BRANCH   9  10
ATOM     10  C   UNL     1      16.898   7.721  64.838  1.00  0.00     0.000 C 
BRANCH  10  11
ATOM     11  C   UNL     1      16.811   7.737  63.303  1.00  0.00     0.000 C 
BRANCH  11  12
ATOM     12  C   UNL     1      15.399   7.384  62.823  1.00  0.00     0.000 C 
BRANCH  12  13
ATOM     13  C   UNL     1      15.457   6.366  61.677  1.00  0.00     0.006 C 
BRANCH  13  14
ATOM     14  C   UNL     1      14.538   6.775  60.519  1.00  0.00     0.053 C 
BRANCH  14  15
ATOM     15  C   UNL     1      15.190   6.564  59.183  1.00  0.00     0.041 C 
ATOM     16  O   UNL     1      16.416   6.807  59.018  1.00  0.00    -0.550 OA
ATOM     17  O   UNL     1      14.453   6.023  58.136  1.00  0.00    -0.550 OA
ENDBRANCH  14  15
ENDBRANCH  13  14
ENDBRANCH  12  13
ENDBRANCH  11  12
ENDBRANCH  10  11
ENDBRANCH   9  10
ENDBRANCH   8   9
ENDBRANCH   7   8
ENDBRANCH   6   7
ENDBRANCH   5   6
ENDBRANCH   4   5
ENDBRANCH   3   4
ENDBRANCH   2   3
ENDBRANCH   1   2
BRANCH   1  18
ATOM     18  C   UNL     1      18.009   2.203  59.546  1.00  0.00     0.000 C 
BRANCH  18  19
ATOM     19  C   UNL     1      19.278   2.147  60.432  1.00  0.00     0.000 C 
BRANCH  19  20
ATOM     20  C   UNL     1      19.963   0.766  60.399  1.00  0.00     0.000 C 
BRANCH  20  21
ATOM     21  C   UNL     1      19.026  -0.334  59.871  1.00  0.00     0.000 C 
BRANCH  21  22
ATOM     22  C   UNL     1      18.410  -1.182  60.998  1.00  0.00     0.000 C 
BRANCH  22  23
ATOM     23  C   UNL     1      16.878  -1.313  60.943  1.00  0.00     0.000 C 
BRANCH  23  24
ATOM     24  C   UNL     1      16.356  -1.665  59.545  1.00  0.00    -0.000 C 
BRANCH  24  25
ATOM     25  C   UNL     1      15.374  -0.596  59.047  1.00  0.00    -0.000 C 
BRANCH  25  26
ATOM     26  C   UNL     1      15.678  -0.135  57.613  1.00  0.00    -0.000 C 
BRANCH  26  27
ATOM     27  C   UNL     1      16.869  -0.893  56.993  1.00  0.00    -0.000 C 
BRANCH  27  28
ATOM     28  C   UNL     1      17.823   0.045  56.219  1.00  0.00    -0.000 C 
BRANCH  28  29
ATOM     29  C   UNL     1      17.304   1.493  56.117  1.00  0.00    -0.000 C 
BRANCH  29  30
ATOM     30  C   UNL     1      18.072   2.338  55.086  1.00  0.00    -0.000 C 
BRANCH  30  31
ATOM     31  C   UNL     1      17.718   3.831  55.172  1.00  0.00    -0.003 C 
ATOM     32  C   UNL     1      16.498   4.103  56.049  1.00  0.00     0.004 C 
ENDBRANCH  30  31
ENDBRANCH  29  30
ENDBRANCH  28  29
ENDBRANCH  27  28
ENDBRANCH  26  27
ENDBRANCH  25  26
ENDBRANCH  24  25
ENDBRANCH  23  24
ENDBRANCH  22  23
ENDBRANCH  21  22
ENDBRANCH  20  21
ENDBRANCH  19  20
ENDBRANCH  18  19
ENDBRANCH   1  18
TORSDOF 28
ENDMDL
MODEL 5
REMARK VINA RESULT:    -4.066      2.401      4.198
REMARK INTER + INTRA:         -16.198
REMARK INTER:                 -10.701
REMARK INTRA:                  -5.497
REMARK UNBOUND:                -5.477
REMARK SMILES CCCCCCCCCCCCCCCCCCCCCCCCCCCCCC(=O)[O-]
REMARK SMILES IDX 16 1 17 2 18 3 19 4 20 5 21 6 22 7 23 8 24 9 25 10 26 11
REMARK SMILES IDX 27 12 28 13 29 14 30 15 31 16 32 17 15 18 14 19 13 20 12 21
REMARK SMILES IDX 11 22 10 23 9 24 8 25 7 26 6 27 5 28 4 29 3 30 2 31 1 32
REMARK H PARENT
REMARK Flexibility Score: inf
ROOT
ATOM      1  C   UNL     1      17.051   2.576  61.190  1.00  0.00     0.000 C 
ENDROOT
BRANCH   1   2
ATOM      2  C   UNL     1      17.823   1.286  61.560  1.00  0.00     0.000 C 
BRANCH   2   3
ATOM      3  C   UNL     1      18.941   0.869  60.577  1.00  0.00     0.000 C 
BRANCH   3   4
ATOM      4  C   UNL     1      19.374  -0.606  60.702  1.00  0.00     0.000 C 
BRANCH   4   5
ATOM      5  C   UNL     1      18.584  -1.361  61.783  1.00  0.00     0.000 C 
BRANCH   5   6
ATOM      6  C   UNL     1      17.826  -2.569  61.204  1.00  0.00     0.000 C 
BRANCH   6   7
ATOM      7  C   UNL     1      16.728  -2.176  60.191  1.00  0.00     0.000 C 
BRANCH   7   8
ATOM      8  C   UNL     1      15.396  -1.762  60.861  1.00  0.00     0.000 C 
BRANCH   8   9
ATOM      9  C   UNL     1      14.718  -0.574  60.151  1.00  0.00     0.000 C 
BRANCH   9  10
ATOM     10  C   UNL     1      15.399  -0.208  58.822  1.00  0.00     0.000 C 
BRANCH  10  11
ATOM     11  C   UNL     1      14.864   1.104  58.228  1.00  0.00     0.000 C 
BRANCH  11  12
ATOM     12  C   UNL     1      15.983   1.906  57.553  1.00  0.00     0.000 C 
BRANCH  12  13
ATOM     13  C   UNL     1      17.246   1.048  57.401  1.00  0.00     0.006 C 
BRANCH  13  14
ATOM     14  C   UNL     1      17.801   1.119  55.972  1.00  0.00     0.053 C 
BRANCH  14  15
ATOM     15  C   UNL     1      17.293  -0.005  55.116  1.00  0.00     0.041 C 
ATOM     16  O   UNL     1      17.431   0.025  53.864  1.00  0.00    -0.550 OA
ATOM     17  O   UNL     1      16.733  -1.126  55.715  1.00  0.00    -0.550 OA
ENDBRANCH  14  15
ENDBRANCH  13  14
ENDBRANCH  12  13
ENDBRANCH  11  12
ENDBRANCH  10  11
ENDBRANCH   9  10
ENDBRANCH   8   9
ENDBRANCH   7   8
ENDBRANCH   6   7
ENDBRANCH   5   6
ENDBRANCH   4   5
ENDBRANCH   3   4
ENDBRANCH   2   3
ENDBRANCH   1   2
BRANCH   1  18
ATOM     18  C   UNL     1      15.574   2.540  61.613  1.00  0.00     0.000 C 
BRANCH  18  19
ATOM     19  C   UNL     1      15.400   2.598  63.151  1.00  0.00     0.000 C 
BRANCH  19  20
ATOM     20  C   UNL     1      15.679   4.002  63.726  1.00  0.00     0.000 C 
BRANCH  20  21
ATOM     21  C   UNL     1      17.075   4.099  64.367  1.00  0.00     0.000 C 
BRANCH  21  22
ATOM     22  C   UNL     1      17.128   5.110  65.524  1.00  0.00     0.000 C 
BRANCH  22  23
ATOM     23  C   UNL     1      17.566   6.529  65.121  1.00  0.00     0.000 C 
BRANCH  23  24
ATOM     24  C   UNL     1      16.387   7.445  64.773  1.00  0.00    -0.000 C 
BRANCH  24  25
ATOM     25  C   UNL     1      16.475   7.915  63.314  1.00  0.00    -0.000 C 
BRANCH  25  26
ATOM     26  C   UNL     1      17.670   7.303  62.567  1.00  0.00    -0.000 C 
BRANCH  26  27
ATOM     27  C   UNL     1      17.230   6.376  61.415  1.00  0.00    -0.000 C 
BRANCH  27  28
ATOM     28  C   UNL     1      15.704   6.418  61.180  1.00  0.00    -0.000 C 
BRANCH  28  29
ATOM     29  C   UNL     1      15.277   5.807  59.831  1.00  0.00    -0.000 C 
BRANCH  29  30
ATOM     30  C   UNL     1      16.471   5.404  58.947  1.00  0.00    -0.000 C 
BRANCH  30  31
ATOM     31  C   UNL     1      16.194   5.626  57.452  1.00  0.00    -0.003 C 
ATOM     32  C   UNL     1      14.733   5.390  57.076  1.00  0.00     0.004 C 
ENDBRANCH  30  31
ENDBRANCH  29  30
ENDBRANCH  28  29
ENDBRANCH  27  28
ENDBRANCH  26  27
ENDBRANCH  25  26
ENDBRANCH  24  25
ENDBRANCH  23  24
ENDBRANCH  22  23
ENDBRANCH  21  22
ENDBRANCH  20  21
ENDBRANCH  19  20
ENDBRANCH  18  19
ENDBRANCH   1  18
TORSDOF 28
ENDMDL
MODEL 6
REMARK VINA RESULT:    -4.058      2.096      4.319
REMARK INTER + INTRA:         -16.177
REMARK INTER:                 -10.836
REMARK INTRA:                  -5.341
REMARK UNBOUND:                -5.477
REMARK SMILES CCCCCCCCCCCCCCCCCCCCCCCCCCCCCC(=O)[O-]
REMARK SMILES IDX 16 1 17 2 18 3 19 4 20 5 21 6 22 7 23 8 24 9 25 10 26 11
REMARK SMILES IDX 27 12 28 13 29 14 30 15 31 16 32 17 15 18 14 19 13 20 12 21
REMARK SMILES IDX 11 22 10 23 9 24 8 25 7 26 6 27 5 28 4 29 3 30 2 31 1 32
REMARK H PARENT
REMARK Flexibility Score: inf
ROOT
ATOM      1  C   UNL     1      18.963   0.381  58.493  1.00  0.00     0.000 C 
ENDROOT
BRANCH   1   2
ATOM      2  C   UNL     1      17.934  -0.712  58.871  1.00  0.00     0.000 C 
BRANCH   2   3
ATOM      3  C   UNL     1      17.084  -1.264  57.704  1.00  0.00     0.000 C 
BRANCH   3   4
ATOM      4  C   UNL     1      16.357  -0.180  56.884  1.00  0.00     0.000 C 
BRANCH   4   5
ATOM      5  C   UNL     1      14.964   0.148  57.446  1.00  0.00     0.000 C 
BRANCH   5   6
ATOM      6  C   UNL     1      14.962   1.461  58.250  1.00  0.00     0.000 C 
BRANCH   6   7
ATOM      7  C   UNL     1      14.688   1.256  59.756  1.00  0.00     0.000 C 
BRANCH   7   8
ATOM      8  C   UNL     1      14.497  -0.228  60.149  1.00  0.00     0.000 C 
BRANCH   8   9
ATOM      9  C   UNL     1      13.903  -0.398  61.561  1.00  0.00     0.000 C 
BRANCH   9  10
ATOM     10  C   UNL     1      14.198  -1.780  62.167  1.00  0.00     0.000 C 
BRANCH  10  11
ATOM     11  C   UNL     1      14.928  -2.710  61.186  1.00  0.00     0.000 C 
BRANCH  11  12
ATOM     12  C   UNL     1      16.310  -3.107  61.719  1.00  0.00     0.000 C 
BRANCH  12  13
ATOM     13  C   UNL     1      17.071  -1.872  62.218  1.00  0.00     0.006 C 
BRANCH  13  14
ATOM     14  C   UNL     1      18.263  -2.269  63.098  1.00  0.00     0.053 C 
BRANCH  14  15
ATOM     15  C   UNL     1      19.425  -2.759  62.282  1.00  0.00     0.041 C 
ATOM     16  O   UNL     1      19.723  -3.983  62.255  1.00  0.00    -0.550 OA
ATOM     17  O   UNL     1      20.133  -1.865  61.489  1.00  0.00    -0.550 OA
ENDBRANCH  14  15
ENDBRANCH  13  14
ENDBRANCH  12  13
ENDBRANCH  11  12
ENDBRANCH  10  11
ENDBRANCH   9  10
ENDBRANCH   8   9
ENDBRANCH   7   8
ENDBRANCH   6   7
ENDBRANCH   5   6
ENDBRANCH   4   5
ENDBRANCH   3   4
ENDBRANCH   2   3
ENDBRANCH   1   2
BRANCH   1  18
ATOM     18  C   UNL     1      18.917   1.605  59.423  1.00  0.00     0.000 C 
BRANCH  18  19
ATOM     19  C   UNL     1      18.607   1.218  60.890  1.00  0.00     0.000 C 
BRANCH  19  20
ATOM     20  C   UNL     1      17.334   1.904  61.427  1.00  0.00     0.000 C 
BRANCH  20  21
ATOM     21  C   UNL     1      17.622   2.778  62.660  1.00  0.00     0.000 C 
BRANCH  21  22
ATOM     22  C   UNL     1      16.340   3.248  63.368  1.00  0.00     0.000 C 
BRANCH  22  23
ATOM     23  C   UNL     1      16.223   4.771  63.549  1.00  0.00     0.000 C 
BRANCH  23  24
ATOM     24  C   UNL     1      16.391   5.545  62.236  1.00  0.00    -0.000 C 
BRANCH  24  25
ATOM     25  C   UNL     1      15.170   5.348  61.327  1.00  0.00    -0.000 C 
BRANCH  25  26
ATOM     26  C   UNL     1      15.545   4.790  59.945  1.00  0.00    -0.000 C 
BRANCH  26  27
ATOM     27  C   UNL     1      16.551   5.692  59.202  1.00  0.00    -0.000 C 
BRANCH  27  28
ATOM     28  C   UNL     1      16.114   5.985  57.749  1.00  0.00    -0.000 C 
BRANCH  28  29
ATOM     29  C   UNL     1      15.496   4.764  57.040  1.00  0.00    -0.000 C 
BRANCH  29  30
ATOM     30  C   UNL     1      16.337   4.266  55.852  1.00  0.00    -0.000 C 
BRANCH  30  31
ATOM     31  C   UNL     1      17.402   3.243  56.276  1.00  0.00    -0.003 C 
ATOM     32  C   UNL     1      18.794   3.856  56.414  1.00  0.00     0.004 C 
ENDBRANCH  30  31
ENDBRANCH  29  30
ENDBRANCH  28  29
ENDBRANCH  27  28
ENDBRANCH  26  27
ENDBRANCH  25  26
ENDBRANCH  24  25
ENDBRANCH  23  24
ENDBRANCH  22  23
ENDBRANCH  21  22
ENDBRANCH  20  21
ENDBRANCH  19  20
ENDBRANCH  18  19
ENDBRANCH   1  18
TORSDOF 28
ENDMDL
MODEL 7
REMARK VINA RESULT:    -4.034      2.533      6.797
REMARK INTER + INTRA:         -16.114
REMARK INTER:                  -9.769
REMARK INTRA:                  -6.345
REMARK UNBOUND:                -5.477
REMARK SMILES CCCCCCCCCCCCCCCCCCCCCCCCCCCCCC(=O)[O-]
REMARK SMILES IDX 16 1 17 2 18 3 19 4 20 5 21 6 22 7 23 8 24 9 25 10 26 11
REMARK SMILES IDX 27 12 28 13 29 14 30 15 31 16 32 17 15 18 14 19 13 20 12 21
REMARK SMILES IDX 11 22 10 23 9 24 8 25 7 26 6 27 5 28 4 29 3 30 2 31 1 32
REMARK H PARENT
REMARK Flexibility Score: inf
ROOT
ATOM      1  C   UNL     1      18.745   1.759  60.613  1.00  0.00     0.000 C 
ENDROOT
BRANCH   1   2
ATOM      2  C   UNL     1      18.490   2.914  59.615  1.00  0.00     0.000 C 
BRANCH   2   3
ATOM      3  C   UNL     1      19.606   3.159  58.574  1.00  0.00     0.000 C 
BRANCH   3   4
ATOM      4  C   UNL     1      19.141   3.926  57.319  1.00  0.00     0.000 C 
BRANCH   4   5
ATOM      5  C   UNL     1      18.209   3.088  56.430  1.00  0.00     0.000 C 
BRANCH   5   6
ATOM      6  C   UNL     1      17.403   3.964  55.454  1.00  0.00     0.000 C 
BRANCH   6   7
ATOM      7  C   UNL     1      16.204   4.677  56.118  1.00  0.00     0.000 C 
BRANCH   7   8
ATOM      8  C   UNL     1      15.576   3.870  57.279  1.00  0.00     0.000 C 
BRANCH   8   9
ATOM      9  C   UNL     1      15.456   4.692  58.577  1.00  0.00     0.000 C 
BRANCH   9  10
ATOM     10  C   UNL     1      15.957   6.136  58.415  1.00  0.00     0.000 C 
BRANCH  10  11
ATOM     11  C   UNL     1      17.188   6.434  59.286  1.00  0.00     0.000 C 
BRANCH  11  12
ATOM     12  C   UNL     1      16.787   6.699  60.742  1.00  0.00     0.000 C 
BRANCH  12  13
ATOM     13  C   UNL     1      17.350   5.609  61.664  1.00  0.00     0.006 C 
BRANCH  13  14
ATOM     14  C   UNL     1      16.233   4.909  62.448  1.00  0.00     0.053 C 
BRANCH  14  15
ATOM     15  C   UNL     1      16.773   3.867  63.385  1.00  0.00     0.041 C 
ATOM     16  O   UNL     1      16.559   2.642  63.178  1.00  0.00    -0.550 OA
ATOM     17  O   UNL     1      17.579   4.251  64.449  1.00  0.00    -0.550 OA
ENDBRANCH  14  15
ENDBRANCH  13  14
ENDBRANCH  12  13
ENDBRANCH  11  12
ENDBRANCH  10  11
ENDBRANCH   9  10
ENDBRANCH   8   9
ENDBRANCH   7   8
ENDBRANCH   6   7
ENDBRANCH   5   6
ENDBRANCH   4   5
ENDBRANCH   3   4
ENDBRANCH   2   3
ENDBRANCH   1   2
BRANCH   1  18
ATOM     18  C   UNL     1      20.087   1.044  60.382  1.00  0.00     0.000 C 
BRANCH  18  19
ATOM     19  C   UNL     1      20.022  -0.461  60.741  1.00  0.00     0.000 C 
BRANCH  19  20
ATOM     20  C   UNL     1      18.578  -1.001  60.771  1.00  0.00     0.000 C 
BRANCH  20  21
ATOM     21  C   UNL     1      18.437  -2.230  61.686  1.00  0.00     0.000 C 
BRANCH  21  22
ATOM     22  C   UNL     1      17.148  -3.027  61.417  1.00  0.00     0.000 C 
BRANCH  22  23
ATOM     23  C   UNL     1      16.299  -2.505  60.245  1.00  0.00     0.000 C 
BRANCH  23  24
ATOM     24  C   UNL     1      14.915  -2.010  60.680  1.00  0.00    -0.000 C 
BRANCH  24  25
ATOM     25  C   UNL     1      15.033  -0.727  61.514  1.00  0.00    -0.000 C 
BRANCH  25  26
ATOM     26  C   UNL     1      14.393   0.488  60.824  1.00  0.00    -0.000 C 
BRANCH  26  27
ATOM     27  C   UNL     1      15.239   1.006  59.643  1.00  0.00    -0.000 C 
BRANCH  27  28
ATOM     28  C   UNL     1      14.595   0.686  58.276  1.00  0.00    -0.000 C 
BRANCH  28  29
ATOM     29  C   UNL     1      15.580   0.062  57.268  1.00  0.00    -0.000 C 
BRANCH  29  30
ATOM     30  C   UNL     1      17.041   0.101  57.750  1.00  0.00    -0.000 C 
BRANCH  30  31
ATOM     31  C   UNL     1      17.993  -0.634  56.794  1.00  0.00    -0.003 C 
ATOM     32  C   UNL     1      19.461  -0.294  57.037  1.00  0.00     0.004 C 
ENDBRANCH  30  31
ENDBRANCH  29  30
ENDBRANCH  28  29
ENDBRANCH  27  28
ENDBRANCH  26  27
ENDBRANCH  25  26
ENDBRANCH  24  25
ENDBRANCH  23  24
ENDBRANCH  22  23
ENDBRANCH  21  22
ENDBRANCH  20  21
ENDBRANCH  19  20
ENDBRANCH  18  19
ENDBRANCH   1  18
TORSDOF 28
ENDMDL
MODEL 8
REMARK VINA RESULT:    -4.020      2.375      5.056
REMARK INTER + INTRA:         -16.078
REMARK INTER:                 -10.383
REMARK INTRA:                  -5.695
REMARK UNBOUND:                -5.477
REMARK SMILES CCCCCCCCCCCCCCCCCCCCCCCCCCCCCC(=O)[O-]
REMARK SMILES IDX 16 1 17 2 18 3 19 4 20 5 21 6 22 7 23 8 24 9 25 10 26 11
REMARK SMILES IDX 27 12 28 13 29 14 30 15 31 16 32 17 15 18 14 19 13 20 12 21
REMARK SMILES IDX 11 22 10 23 9 24 8 25 7 26 6 27 5 28 4 29 3 30 2 31 1 32
REMARK H PARENT
REMARK Flexibility Score: inf
ROOT
ATOM      1  C   UNL     1      14.611   1.661  59.414  1.00  0.00     0.000 C 
ENDROOT
BRANCH   1   2
ATOM      2  C   UNL     1      14.889   0.560  58.361  1.00  0.00     0.000 C 
BRANCH   2   3
ATOM      3  C   UNL     1      16.129   0.786  57.467  1.00  0.00     0.000 C 
BRANCH   3   4
ATOM      4  C   UNL     1      16.315  -0.277  56.366  1.00  0.00     0.000 C 
BRANCH   4   5
ATOM      5  C   UNL     1      17.796  -0.586  56.091  1.00  0.00     0.000 C 
BRANCH   5   6
ATOM      6  C   UNL     1      18.733   0.415  56.790  1.00  0.00     0.000 C 
BRANCH   6   7
ATOM      7  C   UNL     1      20.129  -0.168  57.102  1.00  0.00     0.000 C 
BRANCH   7   8
ATOM      8  C   UNL     1      20.339  -0.489  58.601  1.00  0.00     0.000 C 
BRANCH   8   9
ATOM      9  C   UNL     1      19.729   0.580  59.529  1.00  0.00     0.000 C 
BRANCH   9  10
ATOM     10  C   UNL     1      18.814  -0.021  60.608  1.00  0.00     0.000 C 
BRANCH  10  11
ATOM     11  C   UNL     1      17.929  -1.154  60.065  1.00  0.00     0.000 C 
BRANCH  11  12
ATOM     12  C   UNL     1      16.842  -1.543  61.074  1.00  0.00     0.000 C 
BRANCH  12  13
ATOM     13  C   UNL     1      15.733  -2.352  60.388  1.00  0.00     0.006 C 
BRANCH  13  14
ATOM     14  C   UNL     1      15.179  -3.440  61.316  1.00  0.00     0.053 C 
BRANCH  14  15
ATOM     15  C   UNL     1      16.214  -4.479  61.643  1.00  0.00     0.041 C 
ATOM     16  O   UNL     1      16.859  -5.056  60.728  1.00  0.00    -0.550 OA
ATOM     17  O   UNL     1      16.516  -4.753  62.971  1.00  0.00    -0.550 OA
ENDBRANCH  14  15
ENDBRANCH  13  14
ENDBRANCH  12  13
ENDBRANCH  11  12
ENDBRANCH  10  11
ENDBRANCH   9  10
ENDBRANCH   8   9
ENDBRANCH   7   8
ENDBRANCH   6   7
ENDBRANCH   5   6
ENDBRANCH   4   5
ENDBRANCH   3   4
ENDBRANCH   2   3
ENDBRANCH   1   2
BRANCH   1  18
ATOM     18  C   UNL     1      15.805   1.923  60.346  1.00  0.00     0.000 C 
BRANCH  18  19
ATOM     19  C   UNL     1      15.398   1.911  61.840  1.00  0.00     0.000 C 
BRANCH  19  20
ATOM     20  C   UNL     1      16.617   1.952  62.786  1.00  0.00     0.000 C 
BRANCH  20  21
ATOM     21  C   UNL     1      17.627   3.041  62.383  1.00  0.00     0.000 C 
BRANCH  21  22
ATOM     22  C   UNL     1      17.771   4.141  63.449  1.00  0.00     0.000 C 
BRANCH  22  23
ATOM     23  C   UNL     1      16.846   5.354  63.254  1.00  0.00     0.000 C 
BRANCH  23  24
ATOM     24  C   UNL     1      16.902   5.929  61.833  1.00  0.00    -0.000 C 
BRANCH  24  25
ATOM     25  C   UNL     1      15.495   6.019  61.227  1.00  0.00    -0.000 C 
BRANCH  25  26
ATOM     26  C   UNL     1      15.378   5.275  59.888  1.00  0.00    -0.000 C 
BRANCH  26  27
ATOM     27  C   UNL     1      14.862   6.184  58.754  1.00  0.00    -0.000 C 
BRANCH  27  28
ATOM     28  C   UNL     1      14.664   5.414  57.429  1.00  0.00    -0.000 C 
BRANCH  28  29
ATOM     29  C   UNL     1      15.857   5.547  56.463  1.00  0.00    -0.000 C 
BRANCH  29  30
ATOM     30  C   UNL     1      16.340   4.194  55.910  1.00  0.00    -0.000 C 
BRANCH  30  31
ATOM     31  C   UNL     1      17.812   3.915  56.250  1.00  0.00    -0.003 C 
ATOM     32  C   UNL     1      18.100   3.982  57.748  1.00  0.00     0.004 C 
ENDBRANCH  30  31
ENDBRANCH  29  30
ENDBRANCH  28  29
ENDBRANCH  27  28
ENDBRANCH  26  27
ENDBRANCH  25  26
ENDBRANCH  24  25
ENDBRANCH  23  24
ENDBRANCH  22  23
ENDBRANCH  21  22
ENDBRANCH  20  21
ENDBRANCH  19  20
ENDBRANCH  18  19
ENDBRANCH   1  18
TORSDOF 28
ENDMDL
MODEL 9
REMARK VINA RESULT:    -3.996      3.030      7.535
REMARK INTER + INTRA:         -16.013
REMARK INTER:                  -9.616
REMARK INTRA:                  -6.398
REMARK UNBOUND:                -5.477
REMARK SMILES CCCCCCCCCCCCCCCCCCCCCCCCCCCCCC(=O)[O-]
REMARK SMILES IDX 16 1 17 2 18 3 19 4 20 5 21 6 22 7 23 8 24 9 25 10 26 11
REMARK SMILES IDX 27 12 28 13 29 14 30 15 31 16 32 17 15 18 14 19 13 20 12 21
REMARK SMILES IDX 11 22 10 23 9 24 8 25 7 26 6 27 5 28 4 29 3 30 2 31 1 32
REMARK H PARENT
REMARK Flexibility Score: inf
ROOT
ATOM      1  C   UNL     1      19.479   1.805  60.399  1.00  0.00     0.000 C 
ENDROOT
BRANCH   1   2
ATOM      2  C   UNL     1      18.896   2.739  59.312  1.00  0.00     0.000 C 
BRANCH   2   3
ATOM      3  C   UNL     1      19.930   3.398  58.370  1.00  0.00     0.000 C 
BRANCH   3   4
ATOM      4  C   UNL     1      19.306   4.189  57.202  1.00  0.00     0.000 C 
BRANCH   4   5
ATOM      5  C   UNL     1      18.899   3.283  56.029  1.00  0.00     0.000 C 
BRANCH   5   6
ATOM      6  C   UNL     1      17.512   3.651  55.471  1.00  0.00     0.000 C 
BRANCH   6   7
ATOM      7  C   UNL     1      16.851   4.837  56.207  1.00  0.00     0.000 C 
BRANCH   7   8
ATOM      8  C   UNL     1      15.555   4.446  56.958  1.00  0.00     0.000 C 
BRANCH   8   9
ATOM      9  C   UNL     1      15.689   4.586  58.487  1.00  0.00     0.000 C 
BRANCH   9  10
ATOM     10  C   UNL     1      16.308   5.928  58.909  1.00  0.00     0.000 C 
BRANCH  10  11
ATOM     11  C   UNL     1      17.365   5.768  60.013  1.00  0.00     0.000 C 
BRANCH  11  12
ATOM     12  C   UNL     1      16.746   5.939  61.405  1.00  0.00     0.000 C 
BRANCH  12  13
ATOM     13  C   UNL     1      16.429   4.572  62.026  1.00  0.00     0.006 C 
BRANCH  13  14
ATOM     14  C   UNL     1      17.631   4.019  62.803  1.00  0.00     0.053 C 
BRANCH  14  15
ATOM     15  C   UNL     1      17.883   4.786  64.068  1.00  0.00     0.041 C 
ATOM     16  O   UNL     1      18.824   5.622  64.139  1.00  0.00    -0.550 OA
ATOM     17  O   UNL     1      17.025   4.629  65.150  1.00  0.00    -0.550 OA
ENDBRANCH  14  15
ENDBRANCH  13  14
ENDBRANCH  12  13
ENDBRANCH  11  12
ENDBRANCH  10  11
ENDBRANCH   9  10
ENDBRANCH   8   9
ENDBRANCH   7   8
ENDBRANCH   6   7
ENDBRANCH   5   6
ENDBRANCH   4   5
ENDBRANCH   3   4
ENDBRANCH   2   3
ENDBRANCH   1   2
BRANCH   1  18
ATOM     18  C   UNL     1      20.342   0.669  59.824  1.00  0.00     0.000 C 
BRANCH  18  19
ATOM     19  C   UNL     1      19.509  -0.342  58.999  1.00  0.00     0.000 C 
BRANCH  19  20
ATOM     20  C   UNL     1      19.836  -0.290  57.493  1.00  0.00     0.000 C 
BRANCH  20  21
ATOM     21  C   UNL     1      18.566  -0.265  56.624  1.00  0.00     0.000 C 
BRANCH  21  22
ATOM     22  C   UNL     1      17.280  -0.456  57.446  1.00  0.00     0.000 C 
BRANCH  22  23
ATOM     23  C   UNL     1      16.392   0.796  57.555  1.00  0.00     0.000 C 
BRANCH  23  24
ATOM     24  C   UNL     1      14.958   0.478  57.995  1.00  0.00    -0.000 C 
BRANCH  24  25
ATOM     25  C   UNL     1      14.587   1.271  59.256  1.00  0.00    -0.000 C 
BRANCH  25  26
ATOM     26  C   UNL     1      15.766   1.418  60.231  1.00  0.00    -0.000 C 
BRANCH  26  27
ATOM     27  C   UNL     1      15.658   0.454  61.431  1.00  0.00    -0.000 C 
BRANCH  27  28
ATOM     28  C   UNL     1      16.823  -0.559  61.475  1.00  0.00    -0.000 C 
BRANCH  28  29
ATOM     29  C   UNL     1      16.528  -1.862  60.708  1.00  0.00    -0.000 C 
BRANCH  29  30
ATOM     30  C   UNL     1      15.025  -2.177  60.608  1.00  0.00    -0.000 C 
BRANCH  30  31
ATOM     31  C   UNL     1      14.612  -3.353  61.506  1.00  0.00    -0.003 C 
ATOM     32  C   UNL     1      14.899  -4.713  60.874  1.00  0.00     0.004 C 
ENDBRANCH  30  31
ENDBRANCH  29  30
ENDBRANCH  28  29
ENDBRANCH  27  28
ENDBRANCH  26  27
ENDBRANCH  25  26
ENDBRANCH  24  25
ENDBRANCH  23  24
ENDBRANCH  22  23
ENDBRANCH  21  22
ENDBRANCH  20  21
ENDBRANCH  19  20
ENDBRANCH  18  19
ENDBRANCH   1  18
TORSDOF 28
ENDMDL
