MODEL 1
REMARK VINA RESULT:    -3.851      0.000      0.000
REMARK INTER + INTRA:          -8.322
REMARK INTER:                  -6.553
REMARK INTRA:                  -1.769
REMARK UNBOUND:                -1.769
REMARK SMILES CCCCCCCCCCCCCC(=O)[O-]
REMARK SMILES IDX 8 1 9 2 10 3 11 4 12 5 13 6 14 7 15 8 16 9 7 10 6 11 5 12
REMARK SMILES IDX 4 13 3 14 2 15 1 16
REMARK H PARENT
REMARK Flexibility Score: inf
ROOT
ATOM      1  C   UNL     1       9.717 -27.207 -30.129  1.00  0.00     0.000 C 
ENDROOT
BRANCH   1   2
ATOM      2  C   UNL     1      10.796 -27.078 -31.217  1.00  0.00     0.000 C 
BRANCH   2   3
ATOM      3  C   UNL     1      10.959 -25.635 -31.718  1.00  0.00     0.000 C 
BRANCH   3   4
ATOM      4  C   UNL     1       9.719 -24.767 -31.441  1.00  0.00     0.000 C 
BRANCH   4   5
ATOM      5  C   UNL     1      10.030 -23.568 -30.531  1.00  0.00     0.006 C 
BRANCH   5   6
ATOM      6  C   UNL     1      11.498 -23.128 -30.617  1.00  0.00     0.053 C 
BRANCH   6   7
ATOM      7  C   UNL     1      11.614 -21.839 -31.366  1.00  0.00     0.041 C 
ATOM      8  O   UNL     1      11.981 -21.837 -32.571  1.00  0.00    -0.550 OA
ATOM      9  O   UNL     1      11.271 -20.643 -30.749  1.00  0.00    -0.550 OA
ENDBRANCH   6   7
ENDBRANCH   5   6
ENDBRANCH   4   5
ENDBRANCH   3   4
ENDBRANCH   2   3
ENDBRANCH   1   2
BRANCH   1  10
ATOM     10  C   UNL     1       9.878 -28.482 -29.285  1.00  0.00     0.000 C 
BRANCH  10  11
ATOM     11  C   UNL     1       8.927 -28.517 -28.075  1.00  0.00    -0.000 C 
BRANCH  11  12
ATOM     12  C   UNL     1       8.438 -27.120 -27.664  1.00  0.00    -0.000 C 
BRANCH  12  13
ATOM     13  C   UNL     1       8.967 -26.693 -26.284  1.00  0.00    -0.000 C 
BRANCH  13  14
ATOM     14  C   UNL     1      10.485 -26.447 -26.283  1.00  0.00    -0.000 C 
BRANCH  14  15
ATOM     15  C   UNL     1      10.905 -25.331 -27.253  1.00  0.00    -0.003 C 
ATOM     16  C   UNL     1      12.202 -25.688 -27.972  1.00  0.00     0.004 C 
ENDBRANCH  14  15
ENDBRANCH  13  14
ENDBRANCH  12  13
ENDBRANCH  11  12
ENDBRANCH  10  11
ENDBRANCH   1  10
TORSDOF 12
ENDMDL
MODEL 2
REMARK VINA RESULT:    -3.825      1.517      2.525
REMARK INTER + INTRA:          -8.278
REMARK INTER:                  -6.818
REMARK INTRA:                  -1.460
REMARK UNBOUND:                -1.769
REMARK SMILES CCCCCCCCCCCCCC(=O)[O-]
REMARK SMILES IDX 8 1 9 2 10 3 11 4 12 5 13 6 14 7 15 8 16 9 7 10 6 11 5 12
REMARK SMILES IDX 4 13 3 14 2 15 1 16
REMARK H PARENT
REMARK Flexibility Score: inf
ROOT
ATOM      1  C   UNL     1       9.870 -25.057 -29.731  1.00  0.00     0.000 C 
ENDROOT
BRANCH   1   2
ATOM      2  C   UNL     1       9.458 -24.173 -30.920  1.00  0.00     0.000 C 
BRANCH   2   3
ATOM      3  C   UNL     1       9.900 -24.758 -32.270  1.00  0.00     0.000 C 
BRANCH   3   4
ATOM      4  C   UNL     1      10.656 -23.738 -33.140  1.00  0.00     0.000 C 
BRANCH   4   5
ATOM      5  C   UNL     1      12.172 -23.758 -32.890  1.00  0.00     0.006 C 
BRANCH   5   6
ATOM      6  C   UNL     1      12.710 -22.403 -32.414  1.00  0.00     0.053 C 
BRANCH   6   7
ATOM      7  C   UNL     1      12.509 -22.249 -30.940  1.00  0.00     0.041 C 
ATOM      8  O   UNL     1      11.822 -21.294 -30.491  1.00  0.00    -0.550 OA
ATOM      9  O   UNL     1      13.039 -23.187 -30.065  1.00  0.00    -0.550 OA
ENDBRANCH   6   7
ENDBRANCH   5   6
ENDBRANCH   4   5
ENDBRANCH   3   4
ENDBRANCH   2   3
ENDBRANCH   1   2
BRANCH   1  10
ATOM     10  C   UNL     1      10.953 -26.082 -30.105  1.00  0.00     0.000 C 
BRANCH  10  11
ATOM     11  C   UNL     1      10.532 -27.530 -29.795  1.00  0.00    -0.000 C 
BRANCH  11  12
ATOM     12  C   UNL     1       9.036 -27.655 -29.463  1.00  0.00    -0.000 C 
BRANCH  12  13
ATOM     13  C   UNL     1       8.792 -28.231 -28.057  1.00  0.00    -0.000 C 
BRANCH  13  14
ATOM     14  C   UNL     1       8.515 -27.139 -27.011  1.00  0.00    -0.000 C 
BRANCH  14  15
ATOM     15  C   UNL     1       9.765 -26.765 -26.200  1.00  0.00    -0.003 C 
ATOM     16  C   UNL     1       9.437 -25.724 -25.134  1.00  0.00     0.004 C 
ENDBRANCH  14  15
ENDBRANCH  13  14
ENDBRANCH  12  13
ENDBRANCH  11  12
ENDBRANCH  10  11
ENDBRANCH   1  10
TORSDOF 12
ENDMDL
MODEL 3
REMARK VINA RESULT:    -3.824      3.839      6.400
REMARK INTER + INTRA:          -8.276
REMARK INTER:                  -6.976
REMARK INTRA:                  -1.300
REMARK UNBOUND:                -1.769
REMARK SMILES CCCCCCCCCCCCCC(=O)[O-]
REMARK SMILES IDX 8 1 9 2 10 3 11 4 12 5 13 6 14 7 15 8 16 9 7 10 6 11 5 12
REMARK SMILES IDX 4 13 3 14 2 15 1 16
REMARK H PARENT
REMARK Flexibility Score: inf
ROOT
ATOM      1  C   UNL     1      11.562 -26.199 -27.850  1.00  0.00     0.000 C 
ENDROOT
BRANCH   1   2
ATOM      2  C   UNL     1      10.711 -25.717 -26.663  1.00  0.00     0.000 C 
BRANCH   2   3
ATOM      3  C   UNL     1       9.652 -26.747 -26.240  1.00  0.00     0.000 C 
BRANCH   3   4
ATOM      4  C   UNL     1       8.640 -27.050 -27.358  1.00  0.00     0.000 C 
BRANCH   4   5
ATOM      5  C   UNL     1       8.832 -28.449 -27.965  1.00  0.00     0.006 C 
BRANCH   5   6
ATOM      6  C   UNL     1       8.202 -28.580 -29.358  1.00  0.00     0.053 C 
BRANCH   6   7
ATOM      7  C   UNL     1       8.007 -30.020 -29.710  1.00  0.00     0.041 C 
ATOM      8  O   UNL     1       8.713 -30.907 -29.163  1.00  0.00    -0.550 OA
ATOM      9  O   UNL     1       7.013 -30.388 -30.607  1.00  0.00    -0.550 OA
ENDBRANCH   6   7
ENDBRANCH   5   6
ENDBRANCH   4   5
ENDBRANCH   3   4
ENDBRANCH   2   3
ENDBRANCH   1   2
BRANCH   1  10
ATOM     10  C   UNL     1      11.671 -25.144 -28.963  1.00  0.00     0.000 C 
BRANCH  10  11
ATOM     11  C   UNL     1      10.298 -24.711 -29.508  1.00  0.00    -0.000 C 
BRANCH  11  12
ATOM     12  C   UNL     1       9.868 -25.518 -30.744  1.00  0.00    -0.000 C 
BRANCH  12  13
ATOM     13  C   UNL     1      10.854 -25.370 -31.915  1.00  0.00    -0.000 C 
BRANCH  13  14
ATOM     14  C   UNL     1      10.611 -24.093 -32.735  1.00  0.00    -0.000 C 
BRANCH  14  15
ATOM     15  C   UNL     1      11.913 -23.356 -33.086  1.00  0.00    -0.003 C 
ATOM     16  C   UNL     1      12.656 -22.923 -31.825  1.00  0.00     0.004 C 
ENDBRANCH  14  15
ENDBRANCH  13  14
ENDBRANCH  12  13
ENDBRANCH  11  12
ENDBRANCH  10  11
ENDBRANCH   1  10
TORSDOF 12
ENDMDL
MODEL 4
REMARK VINA RESULT:    -3.793      1.491      2.671
REMARK INTER + INTRA:          -8.223
REMARK INTER:                  -6.695
REMARK INTRA:                  -1.528
REMARK UNBOUND:                -1.769
REMARK SMILES CCCCCCCCCCCCCC(=O)[O-]
REMARK SMILES IDX 8 1 9 2 10 3 11 4 12 5 13 6 14 7 15 8 16 9 7 10 6 11 5 12
REMARK SMILES IDX 4 13 3 14 2 15 1 16
REMARK H PARENT
REMARK Flexibility Score: inf
ROOT
ATOM      1  C   UNL     1       9.836 -25.420 -30.908  1.00  0.00     0.000 C 
ENDROOT
BRANCH   1   2
ATOM      2  C   UNL     1      10.299 -24.275 -29.992  1.00  0.00     0.000 C 
BRANCH   2   3
ATOM      3  C   UNL     1      11.813 -24.307 -29.727  1.00  0.00     0.000 C 
BRANCH   3   4
ATOM      4  C   UNL     1      12.585 -23.280 -30.575  1.00  0.00     0.000 C 
BRANCH   4   5
ATOM      5  C   UNL     1      11.693 -22.125 -31.060  1.00  0.00     0.006 C 
BRANCH   5   6
ATOM      6  C   UNL     1      12.032 -21.678 -32.487  1.00  0.00     0.053 C 
BRANCH   6   7
ATOM      7  C   UNL     1      11.942 -22.834 -33.433  1.00  0.00     0.041 C 
ATOM      8  O   UNL     1      12.975 -23.259 -34.013  1.00  0.00    -0.550 OA
ATOM      9  O   UNL     1      10.725 -23.473 -33.635  1.00  0.00    -0.550 OA
ENDBRANCH   6   7
ENDBRANCH   5   6
ENDBRANCH   4   5
ENDBRANCH   3   4
ENDBRANCH   2   3
ENDBRANCH   1   2
BRANCH   1  10
ATOM     10  C   UNL     1      10.848 -26.576 -30.966  1.00  0.00     0.000 C 
BRANCH  10  11
ATOM     11  C   UNL     1      10.625 -27.617 -29.853  1.00  0.00    -0.000 C 
BRANCH  11  12
ATOM     12  C   UNL     1       9.185 -28.152 -29.823  1.00  0.00    -0.000 C 
BRANCH  12  13
ATOM     13  C   UNL     1       8.652 -28.329 -28.390  1.00  0.00    -0.000 C 
BRANCH  13  14
ATOM     14  C   UNL     1       8.457 -26.989 -27.663  1.00  0.00    -0.000 C 
BRANCH  14  15
ATOM     15  C   UNL     1       9.338 -26.860 -26.410  1.00  0.00    -0.003 C 
ATOM     16  C   UNL     1      10.345 -25.724 -26.562  1.00  0.00     0.004 C 
ENDBRANCH  14  15
ENDBRANCH  13  14
ENDBRANCH  12  13
ENDBRANCH  11  12
ENDBRANCH  10  11
ENDBRANCH   1  10
TORSDOF 12
ENDMDL
MODEL 5
REMARK VINA RESULT:    -3.766      1.375      2.752
REMARK INTER + INTRA:          -8.177
REMARK INTER:                  -6.761
REMARK INTRA:                  -1.416
REMARK UNBOUND:                -1.769
REMARK SMILES CCCCCCCCCCCCCC(=O)[O-]
REMARK SMILES IDX 8 1 9 2 10 3 11 4 12 5 13 6 14 7 15 8 16 9 7 10 6 11 5 12
REMARK SMILES IDX 4 13 3 14 2 15 1 16
REMARK H PARENT
REMARK Flexibility Score: inf
ROOT
ATOM      1  C   UNL     1      10.999 -26.069 -30.263  1.00  0.00     0.000 C 
ENDROOT
BRANCH   1   2
ATOM      2  C   UNL     1       9.727 -25.222 -30.435  1.00  0.00     0.000 C 
BRANCH   2   3
ATOM      3  C   UNL     1       9.649 -24.548 -31.813  1.00  0.00     0.000 C 
BRANCH   3   4
ATOM      4  C   UNL     1      11.035 -24.333 -32.448  1.00  0.00     0.000 C 
BRANCH   4   5
ATOM      5  C   UNL     1      11.377 -22.846 -32.629  1.00  0.00     0.006 C 
BRANCH   5   6
ATOM      6  C   UNL     1      12.805 -22.510 -32.179  1.00  0.00     0.053 C 
BRANCH   6   7
ATOM      7  C   UNL     1      12.836 -22.216 -30.713  1.00  0.00     0.041 C 
ATOM      8  O   UNL     1      13.101 -23.131 -29.890  1.00  0.00    -0.550 OA
ATOM      9  O   UNL     1      12.620 -20.922 -30.259  1.00  0.00    -0.550 OA
ENDBRANCH   6   7
ENDBRANCH   5   6
ENDBRANCH   4   5
ENDBRANCH   3   4
ENDBRANCH   2   3
ENDBRANCH   1   2
BRANCH   1  10
ATOM     10  C   UNL     1      11.594 -25.959 -28.849  1.00  0.00     0.000 C 
BRANCH  10  11
ATOM     11  C   UNL     1      10.586 -25.414 -27.821  1.00  0.00    -0.000 C 
BRANCH  11  12
ATOM     12  C   UNL     1      10.340 -26.386 -26.657  1.00  0.00    -0.000 C 
BRANCH  12  13
ATOM     13  C   UNL     1       8.868 -26.822 -26.554  1.00  0.00    -0.000 C 
BRANCH  13  14
ATOM     14  C   UNL     1       8.306 -27.327 -27.893  1.00  0.00    -0.000 C 
BRANCH  14  15
ATOM     15  C   UNL     1       8.905 -28.678 -28.315  1.00  0.00    -0.003 C 
ATOM     16  C   UNL     1       8.310 -29.154 -29.637  1.00  0.00     0.004 C 
ENDBRANCH  14  15
ENDBRANCH  13  14
ENDBRANCH  12  13
ENDBRANCH  11  12
ENDBRANCH  10  11
ENDBRANCH   1  10
TORSDOF 12
ENDMDL
MODEL 6
REMARK VINA RESULT:    -3.710      1.305      2.048
REMARK INTER + INTRA:          -8.082
REMARK INTER:                  -6.700
REMARK INTRA:                  -1.382
REMARK UNBOUND:                -1.769
REMARK SMILES CCCCCCCCCCCCCC(=O)[O-]
REMARK SMILES IDX 8 1 9 2 10 3 11 4 12 5 13 6 14 7 15 8 16 9 7 10 6 11 5 12
REMARK SMILES IDX 4 13 3 14 2 15 1 16
REMARK H PARENT
REMARK Flexibility Score: inf
ROOT
ATOM      1  C   UNL     1      10.690 -27.236 -31.428  1.00  0.00     0.000 C 
ENDROOT
BRANCH   1   2
ATOM      2  C   UNL     1      11.053 -25.798 -31.836  1.00  0.00     0.000 C 
BRANCH   2   3
ATOM      3  C   UNL     1       9.828 -24.873 -31.888  1.00  0.00     0.000 C 
BRANCH   3   4
ATOM      4  C   UNL     1       9.848 -23.799 -30.785  1.00  0.00     0.000 C 
BRANCH   4   5
ATOM      5  C   UNL     1      11.249 -23.209 -30.562  1.00  0.00     0.006 C 
BRANCH   5   6
ATOM      6  C   UNL     1      11.608 -22.134 -31.597  1.00  0.00     0.053 C 
BRANCH   6   7
ATOM      7  C   UNL     1      12.876 -22.493 -32.305  1.00  0.00     0.041 C 
ATOM      8  O   UNL     1      12.837 -23.141 -33.383  1.00  0.00    -0.550 OA
ATOM      9  O   UNL     1      14.098 -22.068 -31.800  1.00  0.00    -0.550 OA
ENDBRANCH   6   7
ENDBRANCH   5   6
ENDBRANCH   4   5
ENDBRANCH   3   4
ENDBRANCH   2   3
ENDBRANCH   1   2
BRANCH   1  10
ATOM     10  C   UNL     1      10.716 -27.441 -29.905  1.00  0.00     0.000 C 
BRANCH  10  11
ATOM     11  C   UNL     1       9.313 -27.672 -29.312  1.00  0.00    -0.000 C 
BRANCH  11  12
ATOM     12  C   UNL     1       8.999 -26.724 -28.145  1.00  0.00    -0.000 C 
BRANCH  12  13
ATOM     13  C   UNL     1      10.166 -25.772 -27.828  1.00  0.00    -0.000 C 
BRANCH  13  14
ATOM     14  C   UNL     1      10.580 -25.818 -26.349  1.00  0.00    -0.000 C 
BRANCH  14  15
ATOM     15  C   UNL     1       9.378 -25.936 -25.399  1.00  0.00    -0.003 C 
ATOM     16  C   UNL     1       9.738 -25.460 -23.995  1.00  0.00     0.004 C 
ENDBRANCH  14  15
ENDBRANCH  13  14
ENDBRANCH  12  13
ENDBRANCH  11  12
ENDBRANCH  10  11
ENDBRANCH   1  10
TORSDOF 12
ENDMDL
MODEL 7
REMARK VINA RESULT:    -3.701      3.511      5.805
REMARK INTER + INTRA:          -8.067
REMARK INTER:                  -6.904
REMARK INTRA:                  -1.163
REMARK UNBOUND:                -1.769
REMARK SMILES CCCCCCCCCCCCCC(=O)[O-]
REMARK SMILES IDX 8 1 9 2 10 3 11 4 12 5 13 6 14 7 15 8 16 9 7 10 6 11 5 12
REMARK SMILES IDX 4 13 3 14 2 15 1 16
REMARK H PARENT
REMARK Flexibility Score: inf
ROOT
ATOM      1  C   UNL     1      10.241 -28.409 -29.079  1.00  0.00     0.000 C 
ENDROOT
BRANCH   1   2
ATOM      2  C   UNL     1       8.724 -28.170 -28.985  1.00  0.00     0.000 C 
BRANCH   2   3
ATOM      3  C   UNL     1       8.367 -27.011 -28.043  1.00  0.00     0.000 C 
BRANCH   3   4
ATOM      4  C   UNL     1       8.992 -27.168 -26.645  1.00  0.00     0.000 C 
BRANCH   4   5
ATOM      5  C   UNL     1       9.810 -25.938 -26.223  1.00  0.00     0.006 C 
BRANCH   5   6
ATOM      6  C   UNL     1       9.463 -25.456 -24.808  1.00  0.00     0.053 C 
BRANCH   6   7
ATOM      7  C   UNL     1      10.329 -26.138 -23.796  1.00  0.00     0.041 C 
ATOM      8  O   UNL     1       9.976 -26.181 -22.588  1.00  0.00    -0.550 OA
ATOM      9  O   UNL     1      11.500 -26.767 -24.195  1.00  0.00    -0.550 OA
ENDBRANCH   6   7
ENDBRANCH   5   6
ENDBRANCH   4   5
ENDBRANCH   3   4
ENDBRANCH   2   3
ENDBRANCH   1   2
BRANCH   1  10
ATOM     10  C   UNL     1      10.980 -27.248 -29.763  1.00  0.00     0.000 C 
BRANCH  10  11
ATOM     11  C   UNL     1      10.738 -27.203 -31.283  1.00  0.00    -0.000 C 
BRANCH  11  12
ATOM     12  C   UNL     1      10.743 -25.772 -31.843  1.00  0.00    -0.000 C 
BRANCH  12  13
ATOM     13  C   UNL     1       9.796 -24.835 -31.074  1.00  0.00    -0.000 C 
BRANCH  13  14
ATOM     14  C   UNL     1      10.474 -23.519 -30.659  1.00  0.00    -0.000 C 
BRANCH  14  15
ATOM     15  C   UNL     1      11.899 -23.730 -30.123  1.00  0.00    -0.003 C 
ATOM     16  C   UNL     1      12.899 -22.847 -30.863  1.00  0.00     0.004 C 
ENDBRANCH  14  15
ENDBRANCH  13  14
ENDBRANCH  12  13
ENDBRANCH  11  12
ENDBRANCH  10  11
ENDBRANCH   1  10
TORSDOF 12
ENDMDL
MODEL 8
REMARK VINA RESULT:    -3.701      3.492      5.543
REMARK INTER + INTRA:          -8.066
REMARK INTER:                  -6.286
REMARK INTRA:                  -1.780
REMARK UNBOUND:                -1.769
REMARK SMILES CCCCCCCCCCCCCC(=O)[O-]
REMARK SMILES IDX 8 1 9 2 10 3 11 4 12 5 13 6 14 7 15 8 16 9 7 10 6 11 5 12
REMARK SMILES IDX 4 13 3 14 2 15 1 16
REMARK H PARENT
REMARK Flexibility Score: inf
ROOT
ATOM      1  C   UNL     1       8.428 -26.977 -27.632  1.00  0.00     0.000 C 
ENDROOT
BRANCH   1   2
ATOM      2  C   UNL     1       9.290 -26.961 -26.358  1.00  0.00     0.000 C 
BRANCH   2   3
ATOM      3  C   UNL     1      10.094 -25.660 -26.207  1.00  0.00     0.000 C 
BRANCH   3   4
ATOM      4  C   UNL     1      11.072 -25.428 -27.372  1.00  0.00     0.000 C 
BRANCH   4   5
ATOM      5  C   UNL     1      12.445 -26.075 -27.128  1.00  0.00     0.006 C 
BRANCH   5   6
ATOM      6  C   UNL     1      12.601 -27.418 -27.852  1.00  0.00     0.053 C 
BRANCH   6   7
ATOM      7  C   UNL     1      12.413 -28.553 -26.895  1.00  0.00     0.041 C 
ATOM      8  O   UNL     1      12.682 -28.403 -25.674  1.00  0.00    -0.550 OA
ATOM      9  O   UNL     1      11.894 -29.761 -27.343  1.00  0.00    -0.550 OA
ENDBRANCH   6   7
ENDBRANCH   5   6
ENDBRANCH   4   5
ENDBRANCH   3   4
ENDBRANCH   2   3
ENDBRANCH   1   2
BRANCH   1  10
ATOM     10  C   UNL     1       8.470 -28.332 -28.356  1.00  0.00     0.000 C 
BRANCH  10  11
ATOM     11  C   UNL     1       9.497 -28.362 -29.502  1.00  0.00    -0.000 C 
BRANCH  11  12
ATOM     12  C   UNL     1       9.658 -26.997 -30.190  1.00  0.00    -0.000 C 
BRANCH  12  13
ATOM     13  C   UNL     1      10.835 -26.972 -31.181  1.00  0.00    -0.000 C 
BRANCH  13  14
ATOM     14  C   UNL     1      10.997 -25.608 -31.871  1.00  0.00    -0.000 C 
BRANCH  14  15
ATOM     15  C   UNL     1      11.537 -24.524 -30.924  1.00  0.00    -0.003 C 
ATOM     16  C   UNL     1      10.693 -23.256 -31.004  1.00  0.00     0.004 C 
ENDBRANCH  14  15
ENDBRANCH  13  14
ENDBRANCH  12  13
ENDBRANCH  11  12
ENDBRANCH  10  11
ENDBRANCH   1  10
TORSDOF 12
ENDMDL
MODEL 9
REMARK VINA RESULT:    -3.627      1.402      3.018
REMARK INTER + INTRA:          -7.941
REMARK INTER:                  -6.122
REMARK INTRA:                  -1.819
REMARK UNBOUND:                -1.769
REMARK SMILES CCCCCCCCCCCCCC(=O)[O-]
REMARK SMILES IDX 8 1 9 2 10 3 11 4 12 5 13 6 14 7 15 8 16 9 7 10 6 11 5 12
REMARK SMILES IDX 4 13 3 14 2 15 1 16
REMARK H PARENT
REMARK Flexibility Score: inf
ROOT
ATOM      1  C   UNL     1      10.336 -25.386 -28.511  1.00  0.00     0.000 C 
ENDROOT
BRANCH   1   2
ATOM      2  C   UNL     1       9.771 -25.690 -29.909  1.00  0.00     0.000 C 
BRANCH   2   3
ATOM      3  C   UNL     1      10.622 -26.712 -30.679  1.00  0.00     0.000 C 
BRANCH   3   4
ATOM      4  C   UNL     1      10.996 -26.229 -32.091  1.00  0.00     0.000 C 
BRANCH   4   5
ATOM      5  C   UNL     1      10.558 -24.780 -32.354  1.00  0.00     0.006 C 
BRANCH   5   6
ATOM      6  C   UNL     1      11.747 -23.823 -32.511  1.00  0.00     0.053 C 
BRANCH   6   7
ATOM      7  C   UNL     1      11.511 -22.564 -31.738  1.00  0.00     0.041 C 
ATOM      8  O   UNL     1      11.484 -22.591 -30.479  1.00  0.00    -0.550 OA
ATOM      9  O   UNL     1      11.370 -21.355 -32.405  1.00  0.00    -0.550 OA
ENDBRANCH   6   7
ENDBRANCH   5   6
ENDBRANCH   4   5
ENDBRANCH   3   4
ENDBRANCH   2   3
ENDBRANCH   1   2
BRANCH   1  10
ATOM     10  C   UNL     1      11.858 -25.590 -28.432  1.00  0.00     0.000 C 
BRANCH  10  11
ATOM     11  C   UNL     1      12.275 -26.504 -27.266  1.00  0.00    -0.000 C 
BRANCH  11  12
ATOM     12  C   UNL     1      11.205 -27.553 -26.922  1.00  0.00    -0.000 C 
BRANCH  12  13
ATOM     13  C   UNL     1      11.584 -28.962 -27.410  1.00  0.00    -0.000 C 
BRANCH  13  14
ATOM     14  C   UNL     1      10.493 -29.597 -28.286  1.00  0.00    -0.000 C 
BRANCH  14  15
ATOM     15  C   UNL     1       9.133 -28.896 -28.141  1.00  0.00    -0.003 C 
ATOM     16  C   UNL     1       8.291 -29.065 -29.402  1.00  0.00     0.004 C 
ENDBRANCH  14  15
ENDBRANCH  13  14
ENDBRANCH  12  13
ENDBRANCH  11  12
ENDBRANCH  10  11
ENDBRANCH   1  10
TORSDOF 12
ENDMDL
