MODEL 1
REMARK VINA RESULT:    -3.451      0.000      0.000
REMARK INTER + INTRA:         -13.774
REMARK INTER:                  -9.099
REMARK INTRA:                  -4.676
REMARK UNBOUND:                -4.676
REMARK SMILES CCCCCCCCCCCCCCCCCCCCCCCCCCCCCC(=O)[O-]
REMARK SMILES IDX 16 1 17 2 18 3 19 4 20 5 21 6 22 7 23 8 24 9 25 10 26 11
REMARK SMILES IDX 27 12 28 13 29 14 30 15 31 16 32 17 15 18 14 19 13 20 12 21
REMARK SMILES IDX 11 22 10 23 9 24 8 25 7 26 6 27 5 28 4 29 3 30 2 31 1 32
REMARK H PARENT
REMARK Flexibility Score: inf
ROOT
ATOM      1  C   UNL     1      58.972  22.597  53.031  1.00  0.00     0.000 C 
ENDROOT
BRANCH   1   2
ATOM      2  C   UNL     1      60.035  22.356  54.117  1.00  0.00     0.000 C 
BRANCH   2   3
ATOM      3  C   UNL     1      61.196  21.481  53.617  1.00  0.00     0.000 C 
BRANCH   3   4
ATOM      4  C   UNL     1      62.472  22.290  53.315  1.00  0.00     0.000 C 
BRANCH   4   5
ATOM      5  C   UNL     1      62.883  22.333  51.829  1.00  0.00     0.000 C 
BRANCH   5   6
ATOM      6  C   UNL     1      62.201  23.433  50.995  1.00  0.00     0.000 C 
BRANCH   6   7
ATOM      7  C   UNL     1      61.100  22.934  50.042  1.00  0.00     0.000 C 
BRANCH   7   8
ATOM      8  C   UNL     1      61.327  21.521  49.474  1.00  0.00     0.000 C 
BRANCH   8   9
ATOM      9  C   UNL     1      60.292  20.500  49.980  1.00  0.00     0.000 C 
BRANCH   9  10
ATOM     10  C   UNL     1      60.948  19.285  50.653  1.00  0.00     0.000 C 
BRANCH  10  11
ATOM     11  C   UNL     1      59.909  18.296  51.204  1.00  0.00     0.000 C 
BRANCH  11  12
ATOM     12  C   UNL     1      59.064  17.691  50.077  1.00  0.00     0.000 C 
BRANCH  12  13
ATOM     13  C   UNL     1      57.633  17.403  50.558  1.00  0.00     0.006 C 
BRANCH  13  14
ATOM     14  C   UNL     1      56.813  18.686  50.756  1.00  0.00     0.053 C 
BRANCH  14  15
ATOM     15  C   UNL     1      56.248  18.796  52.140  1.00  0.00     0.041 C 
ATOM     16  O   UNL     1      56.867  18.308  53.123  1.00  0.00    -0.550 OA
ATOM     17  O   UNL     1      55.013  19.404  52.338  1.00  0.00    -0.550 OA
ENDBRANCH  14  15
ENDBRANCH  13  14
ENDBRANCH  12  13
ENDBRANCH  11  12
ENDBRANCH  10  11
ENDBRANCH   9  10
ENDBRANCH   8   9
ENDBRANCH   7   8
ENDBRANCH   6   7
ENDBRANCH   5   6
ENDBRANCH   4   5
ENDBRANCH   3   4
ENDBRANCH   2   3
ENDBRANCH   1   2
BRANCH   1  18
ATOM     18  C   UNL     1      58.819  24.087  52.677  1.00  0.00     0.000 C 
BRANCH  18  19
ATOM     19  C   UNL     1      59.191  25.009  53.860  1.00  0.00     0.000 C 
BRANCH  19  20
ATOM     20  C   UNL     1      59.848  26.338  53.434  1.00  0.00     0.000 C 
BRANCH  20  21
ATOM     21  C   UNL     1      61.216  26.199  52.743  1.00  0.00     0.000 C 
BRANCH  21  22
ATOM     22  C   UNL     1      61.332  27.061  51.472  1.00  0.00     0.000 C 
BRANCH  22  23
ATOM     23  C   UNL     1      60.408  26.581  50.333  1.00  0.00     0.000 C 
BRANCH  23  24
ATOM     24  C   UNL     1      59.772  27.719  49.511  1.00  0.00    -0.000 C 
BRANCH  24  25
ATOM     25  C   UNL     1      59.554  29.044  50.267  1.00  0.00    -0.000 C 
BRANCH  25  26
ATOM     26  C   UNL     1      58.283  29.106  51.134  1.00  0.00    -0.000 C 
BRANCH  26  27
ATOM     27  C   UNL     1      57.186  28.133  50.668  1.00  0.00    -0.000 C 
BRANCH  27  28
ATOM     28  C   UNL     1      56.686  27.227  51.803  1.00  0.00    -0.000 C 
BRANCH  28  29
ATOM     29  C   UNL     1      55.176  27.366  52.055  1.00  0.00    -0.000 C 
BRANCH  29  30
ATOM     30  C   UNL     1      54.343  26.346  51.260  1.00  0.00    -0.000 C 
BRANCH  30  31
ATOM     31  C   UNL     1      53.749  26.923  49.957  1.00  0.00    -0.003 C 
ATOM     32  C   UNL     1      52.986  25.871  49.151  1.00  0.00     0.004 C 
ENDBRANCH  30  31
ENDBRANCH  29  30
ENDBRANCH  28  29
ENDBRANCH  27  28
ENDBRANCH  26  27
ENDBRANCH  25  26
ENDBRANCH  24  25
ENDBRANCH  23  24
ENDBRANCH  22  23
ENDBRANCH  21  22
ENDBRANCH  20  21
ENDBRANCH  19  20
ENDBRANCH  18  19
ENDBRANCH   1  18
TORSDOF 28
ENDMDL
MODEL 2
REMARK VINA RESULT:    -3.399      2.894      5.887
REMARK INTER + INTRA:         -13.638
REMARK INTER:                  -9.550
REMARK INTRA:                  -4.087
REMARK UNBOUND:                -4.676
REMARK SMILES CCCCCCCCCCCCCCCCCCCCCCCCCCCCCC(=O)[O-]
REMARK SMILES IDX 16 1 17 2 18 3 19 4 20 5 21 6 22 7 23 8 24 9 25 10 26 11
REMARK SMILES IDX 27 12 28 13 29 14 30 15 31 16 32 17 15 18 14 19 13 20 12 21
REMARK SMILES IDX 11 22 10 23 9 24 8 25 7 26 6 27 5 28 4 29 3 30 2 31 1 32
REMARK H PARENT
REMARK Flexibility Score: inf
ROOT
ATOM      1  C   UNL     1      57.381  27.731  52.525  1.00  0.00     0.000 C 
ENDROOT
BRANCH   1   2
ATOM      2  C   UNL     1      58.691  28.428  52.120  1.00  0.00     0.000 C 
BRANCH   2   3
ATOM      3  C   UNL     1      58.476  29.502  51.042  1.00  0.00     0.000 C 
BRANCH   3   4
ATOM      4  C   UNL     1      59.108  29.129  49.687  1.00  0.00     0.000 C 
BRANCH   4   5
ATOM      5  C   UNL     1      59.795  27.749  49.641  1.00  0.00     0.000 C 
BRANCH   5   6
ATOM      6  C   UNL     1      61.305  27.761  49.943  1.00  0.00     0.000 C 
BRANCH   6   7
ATOM      7  C   UNL     1      61.892  26.403  50.368  1.00  0.00     0.000 C 
BRANCH   7   8
ATOM      8  C   UNL     1      60.952  25.530  51.220  1.00  0.00     0.000 C 
BRANCH   8   9
ATOM      9  C   UNL     1      60.470  24.271  50.479  1.00  0.00     0.000 C 
BRANCH   9  10
ATOM     10  C   UNL     1      61.491  23.124  50.545  1.00  0.00     0.000 C 
BRANCH  10  11
ATOM     11  C   UNL     1      60.915  21.803  50.012  1.00  0.00     0.000 C 
BRANCH  11  12
ATOM     12  C   UNL     1      61.749  20.604  50.478  1.00  0.00     0.000 C 
BRANCH  12  13
ATOM     13  C   UNL     1      60.941  19.301  50.376  1.00  0.00     0.006 C 
BRANCH  13  14
ATOM     14  C   UNL     1      59.430  19.557  50.273  1.00  0.00     0.053 C 
BRANCH  14  15
ATOM     15  C   UNL     1      58.652  18.299  50.030  1.00  0.00     0.041 C 
ATOM     16  O   UNL     1      59.075  17.435  49.215  1.00  0.00    -0.550 OA
ATOM     17  O   UNL     1      57.436  18.100  50.673  1.00  0.00    -0.550 OA
ENDBRANCH  14  15
ENDBRANCH  13  14
ENDBRANCH  12  13
ENDBRANCH  11  12
ENDBRANCH  10  11
ENDBRANCH   9  10
ENDBRANCH   8   9
ENDBRANCH   7   8
ENDBRANCH   6   7
ENDBRANCH   5   6
ENDBRANCH   4   5
ENDBRANCH   3   4
ENDBRANCH   2   3
ENDBRANCH   1   2
BRANCH   1  18
ATOM     18  C   UNL     1      57.384  26.229  52.188  1.00  0.00     0.000 C 
BRANCH  18  19
ATOM     19  C   UNL     1      56.377  25.879  51.071  1.00  0.00     0.000 C 
BRANCH  19  20
ATOM     20  C   UNL     1      55.780  27.111  50.359  1.00  0.00     0.000 C 
BRANCH  20  21
ATOM     21  C   UNL     1      54.260  27.058  50.126  1.00  0.00     0.000 C 
BRANCH  21  22
ATOM     22  C   UNL     1      53.580  28.426  50.318  1.00  0.00     0.000 C 
BRANCH  22  23
ATOM     23  C   UNL     1      54.553  29.516  50.814  1.00  0.00     0.000 C 
BRANCH  23  24
ATOM     24  C   UNL     1      54.082  30.257  52.081  1.00  0.00    -0.000 C 
BRANCH  24  25
ATOM     25  C   UNL     1      54.318  29.516  53.411  1.00  0.00    -0.000 C 
BRANCH  25  26
ATOM     26  C   UNL     1      55.181  30.270  54.441  1.00  0.00    -0.000 C 
BRANCH  26  27
ATOM     27  C   UNL     1      55.946  31.459  53.833  1.00  0.00    -0.000 C 
BRANCH  27  28
ATOM     28  C   UNL     1      57.458  31.373  54.083  1.00  0.00    -0.000 C 
BRANCH  28  29
ATOM     29  C   UNL     1      57.822  30.391  55.208  1.00  0.00    -0.000 C 
BRANCH  29  30
ATOM     30  C   UNL     1      58.704  31.030  56.294  1.00  0.00    -0.000 C 
BRANCH  30  31
ATOM     31  C   UNL     1      58.031  31.073  57.683  1.00  0.00    -0.003 C 
ATOM     32  C   UNL     1      56.575  31.532  57.608  1.00  0.00     0.004 C 
ENDBRANCH  30  31
ENDBRANCH  29  30
ENDBRANCH  28  29
ENDBRANCH  27  28
ENDBRANCH  26  27
ENDBRANCH  25  26
ENDBRANCH  24  25
ENDBRANCH  23  24
ENDBRANCH  22  23
ENDBRANCH  21  22
ENDBRANCH  20  21
ENDBRANCH  19  20
ENDBRANCH  18  19
ENDBRANCH   1  18
TORSDOF 28
ENDMDL
MODEL 3
REMARK VINA RESULT:    -3.380     10.007     13.726
REMARK INTER + INTRA:         -13.588
REMARK INTER:                  -7.894
REMARK INTRA:                  -5.694
REMARK UNBOUND:                -4.676
REMARK SMILES CCCCCCCCCCCCCCCCCCCCCCCCCCCCCC(=O)[O-]
REMARK SMILES IDX 16 1 17 2 18 3 19 4 20 5 21 6 22 7 23 8 24 9 25 10 26 11
REMARK SMILES IDX 27 12 28 13 29 14 30 15 31 16 32 17 15 18 14 19 13 20 12 21
REMARK SMILES IDX 11 22 10 23 9 24 8 25 7 26 6 27 5 28 4 29 3 30 2 31 1 32
REMARK H PARENT
REMARK Flexibility Score: inf
ROOT
ATOM      1  C   UNL     1      63.987  33.054  60.582  1.00  0.00     0.000 C 
ENDROOT
BRANCH   1   2
ATOM      2  C   UNL     1      64.345  34.516  60.900  1.00  0.00     0.000 C 
BRANCH   2   3
ATOM      3  C   UNL     1      63.104  35.371  61.202  1.00  0.00     0.000 C 
BRANCH   3   4
ATOM      4  C   UNL     1      61.829  34.845  60.516  1.00  0.00     0.000 C 
BRANCH   4   5
ATOM      5  C   UNL     1      61.330  35.688  59.324  1.00  0.00     0.000 C 
BRANCH   5   6
ATOM      6  C   UNL     1      59.925  35.323  58.809  1.00  0.00     0.000 C 
BRANCH   6   7
ATOM      7  C   UNL     1      59.826  35.123  57.286  1.00  0.00     0.000 C 
BRANCH   7   8
ATOM      8  C   UNL     1      61.121  35.421  56.508  1.00  0.00     0.000 C 
BRANCH   8   9
ATOM      9  C   UNL     1      61.353  34.448  55.338  1.00  0.00     0.000 C 
BRANCH   9  10
ATOM     10  C   UNL     1      60.042  33.847  54.808  1.00  0.00     0.000 C 
BRANCH  10  11
ATOM     11  C   UNL     1      60.193  32.363  54.437  1.00  0.00     0.000 C 
BRANCH  11  12
ATOM     12  C   UNL     1      59.273  31.480  55.290  1.00  0.00     0.000 C 
BRANCH  12  13
ATOM     13  C   UNL     1      58.059  32.278  55.791  1.00  0.00     0.006 C 
BRANCH  13  14
ATOM     14  C   UNL     1      57.738  31.990  57.265  1.00  0.00     0.053 C 
BRANCH  14  15
ATOM     15  C   UNL     1      56.279  32.138  57.572  1.00  0.00     0.041 C 
ATOM     16  O   UNL     1      55.746  33.280  57.607  1.00  0.00    -0.550 OA
ATOM     17  O   UNL     1      55.513  31.014  57.862  1.00  0.00    -0.550 OA
ENDBRANCH  14  15
ENDBRANCH  13  14
ENDBRANCH  12  13
ENDBRANCH  11  12
ENDBRANCH  10  11
ENDBRANCH   9  10
ENDBRANCH   8   9
ENDBRANCH   7   8
ENDBRANCH   6   7
ENDBRANCH   5   6
ENDBRANCH   4   5
ENDBRANCH   3   4
ENDBRANCH   2   3
ENDBRANCH   1   2
BRANCH   1  18
ATOM     18  C   UNL     1      64.579  32.581  59.242  1.00  0.00     0.000 C 
BRANCH  18  19
ATOM     19  C   UNL     1      63.716  33.017  58.037  1.00  0.00     0.000 C 
BRANCH  19  20
ATOM     20  C   UNL     1      62.726  31.938  57.553  1.00  0.00     0.000 C 
BRANCH  20  21
ATOM     21  C   UNL     1      61.381  31.903  58.301  1.00  0.00     0.000 C 
BRANCH  21  22
ATOM     22  C   UNL     1      60.858  30.470  58.519  1.00  0.00     0.000 C 
BRANCH  22  23
ATOM     23  C   UNL     1      60.148  30.291  59.878  1.00  0.00     0.000 C 
BRANCH  23  24
ATOM     24  C   UNL     1      60.898  30.913  61.072  1.00  0.00    -0.000 C 
BRANCH  24  25
ATOM     25  C   UNL     1      62.047  30.066  61.650  1.00  0.00    -0.000 C 
BRANCH  25  26
ATOM     26  C   UNL     1      61.964  28.555  61.359  1.00  0.00    -0.000 C 
BRANCH  26  27
ATOM     27  C   UNL     1      63.226  28.002  60.675  1.00  0.00    -0.000 C 
BRANCH  27  28
ATOM     28  C   UNL     1      64.046  29.100  59.981  1.00  0.00    -0.000 C 
BRANCH  28  29
ATOM     29  C   UNL     1      65.532  29.069  60.369  1.00  0.00    -0.000 C 
BRANCH  29  30
ATOM     30  C   UNL     1      66.130  27.652  60.326  1.00  0.00    -0.000 C 
BRANCH  30  31
ATOM     31  C   UNL     1      67.653  27.621  60.577  1.00  0.00    -0.003 C 
ATOM     32  C   UNL     1      68.020  28.110  61.978  1.00  0.00     0.004 C 
ENDBRANCH  30  31
ENDBRANCH  29  30
ENDBRANCH  28  29
ENDBRANCH  27  28
ENDBRANCH  26  27
ENDBRANCH  25  26
ENDBRANCH  24  25
ENDBRANCH  23  24
ENDBRANCH  22  23
ENDBRANCH  21  22
ENDBRANCH  20  21
ENDBRANCH  19  20
ENDBRANCH  18  19
ENDBRANCH   1  18
TORSDOF 28
ENDMDL
MODEL 4
REMARK VINA RESULT:    -3.364      2.865      6.193
REMARK INTER + INTRA:         -13.546
REMARK INTER:                  -7.867
REMARK INTRA:                  -5.679
REMARK UNBOUND:                -4.676
REMARK SMILES CCCCCCCCCCCCCCCCCCCCCCCCCCCCCC(=O)[O-]
REMARK SMILES IDX 16 1 17 2 18 3 19 4 20 5 21 6 22 7 23 8 24 9 25 10 26 11
REMARK SMILES IDX 27 12 28 13 29 14 30 15 31 16 32 17 15 18 14 19 13 20 12 21
REMARK SMILES IDX 11 22 10 23 9 24 8 25 7 26 6 27 5 28 4 29 3 30 2 31 1 32
REMARK H PARENT
REMARK Flexibility Score: inf
ROOT
ATOM      1  C   UNL     1      58.265  29.669  52.131  1.00  0.00     0.000 C 
ENDROOT
BRANCH   1   2
ATOM      2  C   UNL     1      57.878  29.180  50.725  1.00  0.00     0.000 C 
BRANCH   2   3
ATOM      3  C   UNL     1      59.070  29.183  49.754  1.00  0.00     0.000 C 
BRANCH   3   4
ATOM      4  C   UNL     1      59.719  27.795  49.593  1.00  0.00     0.000 C 
BRANCH   4   5
ATOM      5  C   UNL     1      61.225  27.734  49.917  1.00  0.00     0.000 C 
BRANCH   5   6
ATOM      6  C   UNL     1      61.706  28.743  50.977  1.00  0.00     0.000 C 
BRANCH   6   7
ATOM      7  C   UNL     1      62.599  28.147  52.081  1.00  0.00     0.000 C 
BRANCH   7   8
ATOM      8  C   UNL     1      61.843  27.657  53.329  1.00  0.00     0.000 C 
BRANCH   8   9
ATOM      9  C   UNL     1      62.062  26.160  53.610  1.00  0.00     0.000 C 
BRANCH   9  10
ATOM     10  C   UNL     1      60.740  25.380  53.701  1.00  0.00     0.000 C 
BRANCH  10  11
ATOM     11  C   UNL     1      59.922  25.472  52.404  1.00  0.00     0.000 C 
BRANCH  11  12
ATOM     12  C   UNL     1      59.828  24.110  51.707  1.00  0.00     0.000 C 
BRANCH  12  13
ATOM     13  C   UNL     1      60.780  24.044  50.502  1.00  0.00     0.006 C 
BRANCH  13  14
ATOM     14  C   UNL     1      61.798  22.900  50.622  1.00  0.00     0.053 C 
BRANCH  14  15
ATOM     15  C   UNL     1      61.162  21.551  50.473  1.00  0.00     0.041 C 
ATOM     16  O   UNL     1      60.450  21.289  49.466  1.00  0.00    -0.550 OA
ATOM     17  O   UNL     1      61.322  20.595  51.469  1.00  0.00    -0.550 OA
ENDBRANCH  14  15
ENDBRANCH  13  14
ENDBRANCH  12  13
ENDBRANCH  11  12
ENDBRANCH  10  11
ENDBRANCH   9  10
ENDBRANCH   8   9
ENDBRANCH   7   8
ENDBRANCH   6   7
ENDBRANCH   5   6
ENDBRANCH   4   5
ENDBRANCH   3   4
ENDBRANCH   2   3
ENDBRANCH   1   2
BRANCH   1  18
ATOM     18  C   UNL     1      58.223  28.542  53.178  1.00  0.00     0.000 C 
BRANCH  18  19
ATOM     19  C   UNL     1      56.792  28.004  53.400  1.00  0.00     0.000 C 
BRANCH  19  20
ATOM     20  C   UNL     1      56.716  26.470  53.543  1.00  0.00     0.000 C 
BRANCH  20  21
ATOM     21  C   UNL     1      55.903  25.752  52.450  1.00  0.00     0.000 C 
BRANCH  21  22
ATOM     22  C   UNL     1      56.545  25.871  51.055  1.00  0.00     0.000 C 
BRANCH  22  23
ATOM     23  C   UNL     1      55.525  26.231  49.954  1.00  0.00     0.000 C 
BRANCH  23  24
ATOM     24  C   UNL     1      54.064  26.300  50.441  1.00  0.00    -0.000 C 
BRANCH  24  25
ATOM     25  C   UNL     1      53.408  27.692  50.379  1.00  0.00    -0.000 C 
BRANCH  25  26
ATOM     26  C   UNL     1      54.348  28.878  50.664  1.00  0.00    -0.000 C 
BRANCH  26  27
ATOM     27  C   UNL     1      53.640  30.057  51.356  1.00  0.00    -0.000 C 
BRANCH  27  28
ATOM     28  C   UNL     1      54.473  30.650  52.501  1.00  0.00    -0.000 C 
BRANCH  28  29
ATOM     29  C   UNL     1      53.990  30.197  53.887  1.00  0.00    -0.000 C 
BRANCH  29  30
ATOM     30  C   UNL     1      54.338  31.203  54.998  1.00  0.00    -0.000 C 
BRANCH  30  31
ATOM     31  C   UNL     1      55.748  31.813  54.851  1.00  0.00    -0.003 C 
ATOM     32  C   UNL     1      56.808  31.016  55.614  1.00  0.00     0.004 C 
ENDBRANCH  30  31
ENDBRANCH  29  30
ENDBRANCH  28  29
ENDBRANCH  27  28
ENDBRANCH  26  27
ENDBRANCH  25  26
ENDBRANCH  24  25
ENDBRANCH  23  24
ENDBRANCH  22  23
ENDBRANCH  21  22
ENDBRANCH  20  21
ENDBRANCH  19  20
ENDBRANCH  18  19
ENDBRANCH   1  18
TORSDOF 28
ENDMDL
MODEL 5
REMARK VINA RESULT:    -3.345      1.829      4.361
REMARK INTER + INTRA:         -13.496
REMARK INTER:                  -8.501
REMARK INTRA:                  -4.996
REMARK UNBOUND:                -4.676
REMARK SMILES CCCCCCCCCCCCCCCCCCCCCCCCCCCCCC(=O)[O-]
REMARK SMILES IDX 16 1 17 2 18 3 19 4 20 5 21 6 22 7 23 8 24 9 25 10 26 11
REMARK SMILES IDX 27 12 28 13 29 14 30 15 31 16 32 17 15 18 14 19 13 20 12 21
REMARK SMILES IDX 11 22 10 23 9 24 8 25 7 26 6 27 5 28 4 29 3 30 2 31 1 32
REMARK H PARENT
REMARK Flexibility Score: inf
ROOT
ATOM      1  C   UNL     1      61.495  27.067  51.530  1.00  0.00     0.000 C 
ENDROOT
BRANCH   1   2
ATOM      2  C   UNL     1      61.957  25.612  51.713  1.00  0.00     0.000 C 
BRANCH   2   3
ATOM      3  C   UNL     1      61.395  24.677  50.630  1.00  0.00     0.000 C 
BRANCH   3   4
ATOM      4  C   UNL     1      59.952  24.222  50.918  1.00  0.00     0.000 C 
BRANCH   4   5
ATOM      5  C   UNL     1      59.629  23.964  52.404  1.00  0.00     0.000 C 
BRANCH   5   6
ATOM      6  C   UNL     1      59.252  22.511  52.748  1.00  0.00     0.000 C 
BRANCH   6   7
ATOM      7  C   UNL     1      60.339  21.720  53.497  1.00  0.00     0.000 C 
BRANCH   7   8
ATOM      8  C   UNL     1      61.607  22.525  53.838  1.00  0.00     0.000 C 
BRANCH   8   9
ATOM      9  C   UNL     1      62.814  22.134  52.967  1.00  0.00     0.000 C 
BRANCH   9  10
ATOM     10  C   UNL     1      62.533  20.901  52.094  1.00  0.00     0.000 C 
BRANCH  10  11
ATOM     11  C   UNL     1      62.638  21.216  50.593  1.00  0.00     0.000 C 
BRANCH  11  12
ATOM     12  C   UNL     1      61.319  20.922  49.870  1.00  0.00     0.000 C 
BRANCH  12  13
ATOM     13  C   UNL     1      60.665  19.645  50.421  1.00  0.00     0.006 C 
BRANCH  13  14
ATOM     14  C   UNL     1      59.221  19.468  49.929  1.00  0.00     0.053 C 
BRANCH  14  15
ATOM     15  C   UNL     1      58.358  18.762  50.930  1.00  0.00     0.041 C 
ATOM     16  O   UNL     1      57.809  19.404  51.866  1.00  0.00    -0.550 OA
ATOM     17  O   UNL     1      58.193  17.383  50.854  1.00  0.00    -0.550 OA
ENDBRANCH  14  15
ENDBRANCH  13  14
ENDBRANCH  12  13
ENDBRANCH  11  12
ENDBRANCH  10  11
ENDBRANCH   9  10
ENDBRANCH   8   9
ENDBRANCH   7   8
ENDBRANCH   6   7
ENDBRANCH   5   6
ENDBRANCH   4   5
ENDBRANCH   3   4
ENDBRANCH   2   3
ENDBRANCH   1   2
BRANCH   1  18
ATOM     18  C   UNL     1      61.423  27.480  50.048  1.00  0.00     0.000 C 
BRANCH  18  19
ATOM     19  C   UNL     1      60.005  27.933  49.637  1.00  0.00     0.000 C 
BRANCH  19  20
ATOM     20  C   UNL     1      59.055  28.172  50.828  1.00  0.00     0.000 C 
BRANCH  20  21
ATOM     21  C   UNL     1      57.564  27.926  50.534  1.00  0.00     0.000 C 
BRANCH  21  22
ATOM     22  C   UNL     1      57.071  26.562  51.054  1.00  0.00     0.000 C 
BRANCH  22  23
ATOM     23  C   UNL     1      55.843  26.033  50.284  1.00  0.00     0.000 C 
BRANCH  23  24
ATOM     24  C   UNL     1      54.489  26.476  50.872  1.00  0.00    -0.000 C 
BRANCH  24  25
ATOM     25  C   UNL     1      53.676  27.456  50.004  1.00  0.00    -0.000 C 
BRANCH  25  26
ATOM     26  C   UNL     1      53.252  28.761  50.705  1.00  0.00    -0.000 C 
BRANCH  26  27
ATOM     27  C   UNL     1      54.420  29.742  50.910  1.00  0.00    -0.000 C 
BRANCH  27  28
ATOM     28  C   UNL     1      54.517  30.243  52.358  1.00  0.00    -0.000 C 
BRANCH  28  29
ATOM     29  C   UNL     1      55.625  29.540  53.159  1.00  0.00    -0.000 C 
BRANCH  29  30
ATOM     30  C   UNL     1      55.111  28.318  53.941  1.00  0.00    -0.000 C 
BRANCH  30  31
ATOM     31  C   UNL     1      55.299  28.445  55.468  1.00  0.00    -0.003 C 
ATOM     32  C   UNL     1      54.662  29.716  56.028  1.00  0.00     0.004 C 
ENDBRANCH  30  31
ENDBRANCH  29  30
ENDBRANCH  28  29
ENDBRANCH  27  28
ENDBRANCH  26  27
ENDBRANCH  25  26
ENDBRANCH  24  25
ENDBRANCH  23  24
ENDBRANCH  22  23
ENDBRANCH  21  22
ENDBRANCH  20  21
ENDBRANCH  19  20
ENDBRANCH  18  19
ENDBRANCH   1  18
TORSDOF 28
ENDMDL
MODEL 6
REMARK VINA RESULT:    -3.314      3.232      6.989
REMARK INTER + INTRA:         -13.414
REMARK INTER:                  -7.829
REMARK INTRA:                  -5.584
REMARK UNBOUND:                -4.676
REMARK SMILES CCCCCCCCCCCCCCCCCCCCCCCCCCCCCC(=O)[O-]
REMARK SMILES IDX 16 1 17 2 18 3 19 4 20 5 21 6 22 7 23 8 24 9 25 10 26 11
REMARK SMILES IDX 27 12 28 13 29 14 30 15 31 16 32 17 15 18 14 19 13 20 12 21
REMARK SMILES IDX 11 22 10 23 9 24 8 25 7 26 6 27 5 28 4 29 3 30 2 31 1 32
REMARK H PARENT
REMARK Flexibility Score: inf
ROOT
ATOM      1  C   UNL     1      54.335  28.504  50.378  1.00  0.00     0.000 C 
ENDROOT
BRANCH   1   2
ATOM      2  C   UNL     1      53.950  27.018  50.280  1.00  0.00     0.000 C 
BRANCH   2   3
ATOM      3  C   UNL     1      55.161  26.117  49.984  1.00  0.00     0.000 C 
BRANCH   3   4
ATOM      4  C   UNL     1      56.304  26.293  51.001  1.00  0.00     0.000 C 
BRANCH   4   5
ATOM      5  C   UNL     1      57.644  26.773  50.405  1.00  0.00     0.000 C 
BRANCH   5   6
ATOM      6  C   UNL     1      57.870  28.295  50.448  1.00  0.00     0.000 C 
BRANCH   6   7
ATOM      7  C   UNL     1      59.232  28.764  49.904  1.00  0.00     0.000 C 
BRANCH   7   8
ATOM      8  C   UNL     1      60.245  27.635  49.639  1.00  0.00     0.000 C 
BRANCH   8   9
ATOM      9  C   UNL     1      61.655  27.964  50.161  1.00  0.00     0.000 C 
BRANCH   9  10
ATOM     10  C   UNL     1      61.896  27.422  51.579  1.00  0.00     0.000 C 
BRANCH  10  11
ATOM     11  C   UNL     1      61.887  25.886  51.623  1.00  0.00     0.000 C 
BRANCH  11  12
ATOM     12  C   UNL     1      60.746  25.361  52.502  1.00  0.00     0.000 C 
BRANCH  12  13
ATOM     13  C   UNL     1      59.907  24.319  51.745  1.00  0.00     0.006 C 
BRANCH  13  14
ATOM     14  C   UNL     1      60.518  23.953  50.384  1.00  0.00     0.053 C 
BRANCH  14  15
ATOM     15  C   UNL     1      60.902  22.507  50.300  1.00  0.00     0.041 C 
ATOM     16  O   UNL     1      61.084  21.833  51.350  1.00  0.00    -0.550 OA
ATOM     17  O   UNL     1      61.101  21.913  49.060  1.00  0.00    -0.550 OA
ENDBRANCH  14  15
ENDBRANCH  13  14
ENDBRANCH  12  13
ENDBRANCH  11  12
ENDBRANCH  10  11
ENDBRANCH   9  10
ENDBRANCH   8   9
ENDBRANCH   7   8
ENDBRANCH   6   7
ENDBRANCH   5   6
ENDBRANCH   4   5
ENDBRANCH   3   4
ENDBRANCH   2   3
ENDBRANCH   1   2
BRANCH   1  18
ATOM     18  C   UNL     1      53.464  29.272  51.389  1.00  0.00     0.000 C 
BRANCH  18  19
ATOM     19  C   UNL     1      54.310  30.143  52.344  1.00  0.00     0.000 C 
BRANCH  19  20
ATOM     20  C   UNL     1      55.571  29.437  52.883  1.00  0.00     0.000 C 
BRANCH  20  21
ATOM     21  C   UNL     1      55.395  28.729  54.238  1.00  0.00     0.000 C 
BRANCH  21  22
ATOM     22  C   UNL     1      56.268  27.467  54.369  1.00  0.00     0.000 C 
BRANCH  22  23
ATOM     23  C   UNL     1      57.766  27.744  54.116  1.00  0.00     0.000 C 
BRANCH  23  24
ATOM     24  C   UNL     1      58.424  28.665  55.161  1.00  0.00    -0.000 C 
BRANCH  24  25
ATOM     25  C   UNL     1      59.803  29.233  54.773  1.00  0.00    -0.000 C 
BRANCH  25  26
ATOM     26  C   UNL     1      59.912  29.774  53.335  1.00  0.00    -0.000 C 
BRANCH  26  27
ATOM     27  C   UNL     1      58.847  30.836  53.008  1.00  0.00    -0.000 C 
BRANCH  27  28
ATOM     28  C   UNL     1      58.921  32.049  53.947  1.00  0.00    -0.000 C 
BRANCH  28  29
ATOM     29  C   UNL     1      57.563  32.744  54.132  1.00  0.00    -0.000 C 
BRANCH  29  30
ATOM     30  C   UNL     1      56.716  32.111  55.249  1.00  0.00    -0.000 C 
BRANCH  30  31
ATOM     31  C   UNL     1      57.180  32.506  56.667  1.00  0.00    -0.003 C 
ATOM     32  C   UNL     1      57.577  31.292  57.508  1.00  0.00     0.004 C 
ENDBRANCH  30  31
ENDBRANCH  29  30
ENDBRANCH  28  29
ENDBRANCH  27  28
ENDBRANCH  26  27
ENDBRANCH  25  26
ENDBRANCH  24  25
ENDBRANCH  23  24
ENDBRANCH  22  23
ENDBRANCH  21  22
ENDBRANCH  20  21
ENDBRANCH  19  20
ENDBRANCH  18  19
ENDBRANCH   1  18
TORSDOF 28
ENDMDL
MODEL 7
REMARK VINA RESULT:    -3.312      5.672      8.974
REMARK INTER + INTRA:         -13.409
REMARK INTER:                  -7.555
REMARK INTRA:                  -5.854
REMARK UNBOUND:                -4.676
REMARK SMILES CCCCCCCCCCCCCCCCCCCCCCCCCCCCCC(=O)[O-]
REMARK SMILES IDX 16 1 17 2 18 3 19 4 20 5 21 6 22 7 23 8 24 9 25 10 26 11
REMARK SMILES IDX 27 12 28 13 29 14 30 15 31 16 32 17 15 18 14 19 13 20 12 21
REMARK SMILES IDX 11 22 10 23 9 24 8 25 7 26 6 27 5 28 4 29 3 30 2 31 1 32
REMARK H PARENT
REMARK Flexibility Score: inf
ROOT
ATOM      1  C   UNL     1      59.735  29.921  53.835  1.00  0.00     0.000 C 
ENDROOT
BRANCH   1   2
ATOM      2  C   UNL     1      59.862  28.489  53.290  1.00  0.00     0.000 C 
BRANCH   2   3
ATOM      3  C   UNL     1      60.745  27.599  54.180  1.00  0.00     0.000 C 
BRANCH   3   4
ATOM      4  C   UNL     1      61.994  27.069  53.450  1.00  0.00     0.000 C 
BRANCH   4   5
ATOM      5  C   UNL     1      61.976  25.560  53.131  1.00  0.00     0.000 C 
BRANCH   5   6
ATOM      6  C   UNL     1      62.802  25.143  51.900  1.00  0.00     0.000 C 
BRANCH   6   7
ATOM      7  C   UNL     1      62.851  26.187  50.770  1.00  0.00     0.000 C 
BRANCH   7   8
ATOM      8  C   UNL     1      64.253  26.749  50.469  1.00  0.00     0.000 C 
BRANCH   8   9
ATOM      9  C   UNL     1      64.325  28.280  50.613  1.00  0.00     0.000 C 
BRANCH   9  10
ATOM     10  C   UNL     1      62.966  28.957  50.377  1.00  0.00     0.000 C 
BRANCH  10  11
ATOM     11  C   UNL     1      62.674  30.050  51.417  1.00  0.00     0.000 C 
BRANCH  11  12
ATOM     12  C   UNL     1      62.320  31.380  50.741  1.00  0.00     0.000 C 
BRANCH  12  13
ATOM     13  C   UNL     1      62.343  32.534  51.756  1.00  0.00     0.006 C 
BRANCH  13  14
ATOM     14  C   UNL     1      62.226  33.909  51.082  1.00  0.00     0.053 C 
BRANCH  14  15
ATOM     15  C   UNL     1      63.012  33.991  49.809  1.00  0.00     0.041 C 
ATOM     16  O   UNL     1      64.272  34.025  49.839  1.00  0.00    -0.550 OA
ATOM     17  O   UNL     1      62.351  34.073  48.589  1.00  0.00    -0.550 OA
ENDBRANCH  14  15
ENDBRANCH  13  14
ENDBRANCH  12  13
ENDBRANCH  11  12
ENDBRANCH  10  11
ENDBRANCH   9  10
ENDBRANCH   8   9
ENDBRANCH   7   8
ENDBRANCH   6   7
ENDBRANCH   5   6
ENDBRANCH   4   5
ENDBRANCH   3   4
ENDBRANCH   2   3
ENDBRANCH   1   2
BRANCH   1  18
ATOM     18  C   UNL     1      58.439  30.613  53.375  1.00  0.00     0.000 C 
BRANCH  18  19
ATOM     19  C   UNL     1      57.512  29.656  52.594  1.00  0.00     0.000 C 
BRANCH  19  20
ATOM     20  C   UNL     1      56.069  29.600  53.137  1.00  0.00     0.000 C 
BRANCH  20  21
ATOM     21  C   UNL     1      54.982  29.341  52.078  1.00  0.00     0.000 C 
BRANCH  21  22
ATOM     22  C   UNL     1      55.533  28.652  50.816  1.00  0.00     0.000 C 
BRANCH  22  23
ATOM     23  C   UNL     1      54.639  27.494  50.325  1.00  0.00     0.000 C 
BRANCH  23  24
ATOM     24  C   UNL     1      55.146  26.092  50.718  1.00  0.00    -0.000 C 
BRANCH  24  25
ATOM     25  C   UNL     1      54.841  25.657  52.164  1.00  0.00    -0.000 C 
BRANCH  25  26
ATOM     26  C   UNL     1      56.058  25.183  52.980  1.00  0.00    -0.000 C 
BRANCH  26  27
ATOM     27  C   UNL     1      57.350  25.943  52.632  1.00  0.00    -0.000 C 
BRANCH  27  28
ATOM     28  C   UNL     1      58.474  25.006  52.167  1.00  0.00    -0.000 C 
BRANCH  28  29
ATOM     29  C   UNL     1      59.109  25.449  50.839  1.00  0.00    -0.000 C 
BRANCH  29  30
ATOM     30  C   UNL     1      58.603  26.823  50.366  1.00  0.00    -0.000 C 
BRANCH  30  31
ATOM     31  C   UNL     1      59.700  27.684  49.703  1.00  0.00    -0.003 C 
ATOM     32  C   UNL     1      59.279  29.146  49.553  1.00  0.00     0.004 C 
ENDBRANCH  30  31
ENDBRANCH  29  30
ENDBRANCH  28  29
ENDBRANCH  27  28
ENDBRANCH  26  27
ENDBRANCH  25  26
ENDBRANCH  24  25
ENDBRANCH  23  24
ENDBRANCH  22  23
ENDBRANCH  21  22
ENDBRANCH  20  21
ENDBRANCH  19  20
ENDBRANCH  18  19
ENDBRANCH   1  18
TORSDOF 28
ENDMDL
MODEL 8
REMARK VINA RESULT:    -3.287      3.115      7.249
REMARK INTER + INTRA:         -13.344
REMARK INTER:                  -7.800
REMARK INTRA:                  -5.544
REMARK UNBOUND:                -4.676
REMARK SMILES CCCCCCCCCCCCCCCCCCCCCCCCCCCCCC(=O)[O-]
REMARK SMILES IDX 16 1 17 2 18 3 19 4 20 5 21 6 22 7 23 8 24 9 25 10 26 11
REMARK SMILES IDX 27 12 28 13 29 14 30 15 31 16 32 17 15 18 14 19 13 20 12 21
REMARK SMILES IDX 11 22 10 23 9 24 8 25 7 26 6 27 5 28 4 29 3 30 2 31 1 32
REMARK H PARENT
REMARK Flexibility Score: inf
ROOT
ATOM      1  C   UNL     1      56.070  26.265  50.373  1.00  0.00     0.000 C 
ENDROOT
BRANCH   1   2
ATOM      2  C   UNL     1      56.582  25.491  51.599  1.00  0.00     0.000 C 
BRANCH   2   3
ATOM      3  C   UNL     1      56.839  26.407  52.807  1.00  0.00     0.000 C 
BRANCH   3   4
ATOM      4  C   UNL     1      58.161  27.190  52.697  1.00  0.00     0.000 C 
BRANCH   4   5
ATOM      5  C   UNL     1      58.058  28.697  53.011  1.00  0.00     0.000 C 
BRANCH   5   6
ATOM      6  C   UNL     1      58.113  29.625  51.784  1.00  0.00     0.000 C 
BRANCH   6   7
ATOM      7  C   UNL     1      58.123  28.902  50.425  1.00  0.00     0.000 C 
BRANCH   7   8
ATOM      8  C   UNL     1      59.440  29.021  49.638  1.00  0.00     0.000 C 
BRANCH   8   9
ATOM      9  C   UNL     1      60.269  27.725  49.661  1.00  0.00     0.000 C 
BRANCH   9  10
ATOM     10  C   UNL     1      61.770  27.992  49.855  1.00  0.00     0.000 C 
BRANCH  10  11
ATOM     11  C   UNL     1      62.438  26.929  50.742  1.00  0.00     0.000 C 
BRANCH  11  12
ATOM     12  C   UNL     1      61.410  25.927  51.280  1.00  0.00     0.000 C 
BRANCH  12  13
ATOM     13  C   UNL     1      61.736  24.501  50.808  1.00  0.00     0.006 C 
BRANCH  13  14
ATOM     14  C   UNL     1      60.489  23.743  50.331  1.00  0.00     0.053 C 
BRANCH  14  15
ATOM     15  C   UNL     1      60.656  22.256  50.415  1.00  0.00     0.041 C 
ATOM     16  O   UNL     1      60.662  21.554  49.368  1.00  0.00    -0.550 OA
ATOM     17  O   UNL     1      60.763  21.639  51.656  1.00  0.00    -0.550 OA
ENDBRANCH  14  15
ENDBRANCH  13  14
ENDBRANCH  12  13
ENDBRANCH  11  12
ENDBRANCH  10  11
ENDBRANCH   9  10
ENDBRANCH   8   9
ENDBRANCH   7   8
ENDBRANCH   6   7
ENDBRANCH   5   6
ENDBRANCH   4   5
ENDBRANCH   3   4
ENDBRANCH   2   3
ENDBRANCH   1   2
BRANCH   1  18
ATOM     18  C   UNL     1      54.579  26.005  50.092  1.00  0.00     0.000 C 
BRANCH  18  19
ATOM     19  C   UNL     1      53.665  27.033  50.795  1.00  0.00     0.000 C 
BRANCH  19  20
ATOM     20  C   UNL     1      53.919  28.493  50.365  1.00  0.00     0.000 C 
BRANCH  20  21
ATOM     21  C   UNL     1      54.538  29.395  51.447  1.00  0.00     0.000 C 
BRANCH  21  22
ATOM     22  C   UNL     1      54.266  28.885  52.875  1.00  0.00     0.000 C 
BRANCH  22  23
ATOM     23  C   UNL     1      54.580  29.938  53.959  1.00  0.00     0.000 C 
BRANCH  23  24
ATOM     24  C   UNL     1      55.193  31.243  53.415  1.00  0.00    -0.000 C 
BRANCH  24  25
ATOM     25  C   UNL     1      55.858  32.154  54.465  1.00  0.00    -0.000 C 
BRANCH  25  26
ATOM     26  C   UNL     1      57.241  31.690  54.959  1.00  0.00    -0.000 C 
BRANCH  26  27
ATOM     27  C   UNL     1      58.405  32.348  54.199  1.00  0.00    -0.000 C 
BRANCH  27  28
ATOM     28  C   UNL     1      59.646  32.545  55.083  1.00  0.00    -0.000 C 
BRANCH  28  29
ATOM     29  C   UNL     1      60.961  32.284  54.331  1.00  0.00    -0.000 C 
BRANCH  29  30
ATOM     30  C   UNL     1      60.745  31.990  52.836  1.00  0.00    -0.000 C 
BRANCH  30  31
ATOM     31  C   UNL     1      61.611  30.826  52.310  1.00  0.00    -0.003 C 
ATOM     32  C   UNL     1      61.578  29.611  53.239  1.00  0.00     0.004 C 
ENDBRANCH  30  31
ENDBRANCH  29  30
ENDBRANCH  28  29
ENDBRANCH  27  28
ENDBRANCH  26  27
ENDBRANCH  25  26
ENDBRANCH  24  25
ENDBRANCH  23  24
ENDBRANCH  22  23
ENDBRANCH  21  22
ENDBRANCH  20  21
ENDBRANCH  19  20
ENDBRANCH  18  19
ENDBRANCH   1  18
TORSDOF 28
ENDMDL
MODEL 9
REMARK VINA RESULT:    -3.266      5.721      9.926
REMARK INTER + INTRA:         -13.288
REMARK INTER:                  -6.662
REMARK INTRA:                  -6.625
REMARK UNBOUND:                -4.676
REMARK SMILES CCCCCCCCCCCCCCCCCCCCCCCCCCCCCC(=O)[O-]
REMARK SMILES IDX 16 1 17 2 18 3 19 4 20 5 21 6 22 7 23 8 24 9 25 10 26 11
REMARK SMILES IDX 27 12 28 13 29 14 30 15 31 16 32 17 15 18 14 19 13 20 12 21
REMARK SMILES IDX 11 22 10 23 9 24 8 25 7 26 6 27 5 28 4 29 3 30 2 31 1 32
REMARK H PARENT
REMARK Flexibility Score: inf
ROOT
ATOM      1  C   UNL     1      56.283  26.221  50.823  1.00  0.00     0.000 C 
ENDROOT
BRANCH   1   2
ATOM      2  C   UNL     1      55.004  26.568  50.043  1.00  0.00     0.000 C 
BRANCH   2   3
ATOM      3  C   UNL     1      54.481  27.976  50.369  1.00  0.00     0.000 C 
BRANCH   3   4
ATOM      4  C   UNL     1      55.567  28.901  50.952  1.00  0.00     0.000 C 
BRANCH   4   5
ATOM      5  C   UNL     1      55.282  29.432  52.372  1.00  0.00     0.000 C 
BRANCH   5   6
ATOM      6  C   UNL     1      53.949  28.967  52.988  1.00  0.00     0.000 C 
BRANCH   6   7
ATOM      7  C   UNL     1      54.068  28.336  54.387  1.00  0.00     0.000 C 
BRANCH   7   8
ATOM      8  C   UNL     1      55.470  28.419  55.017  1.00  0.00     0.000 C 
BRANCH   8   9
ATOM      9  C   UNL     1      55.512  29.319  56.265  1.00  0.00     0.000 C 
BRANCH   9  10
ATOM     10  C   UNL     1      54.163  29.997  56.545  1.00  0.00     0.000 C 
BRANCH  10  11
ATOM     11  C   UNL     1      54.259  31.529  56.481  1.00  0.00     0.000 C 
BRANCH  11  12
ATOM     12  C   UNL     1      53.903  32.052  55.084  1.00  0.00     0.000 C 
BRANCH  12  13
ATOM     13  C   UNL     1      55.155  32.568  54.358  1.00  0.00     0.006 C 
BRANCH  13  14
ATOM     14  C   UNL     1      56.098  33.340  55.293  1.00  0.00     0.053 C 
BRANCH  14  15
ATOM     15  C   UNL     1      55.718  34.784  55.424  1.00  0.00     0.041 C 
ATOM     16  O   UNL     1      56.013  35.429  56.466  1.00  0.00    -0.550 OA
ATOM     17  O   UNL     1      55.000  35.407  54.410  1.00  0.00    -0.550 OA
ENDBRANCH  14  15
ENDBRANCH  13  14
ENDBRANCH  12  13
ENDBRANCH  11  12
ENDBRANCH  10  11
ENDBRANCH   9  10
ENDBRANCH   8   9
ENDBRANCH   7   8
ENDBRANCH   6   7
ENDBRANCH   5   6
ENDBRANCH   4   5
ENDBRANCH   3   4
ENDBRANCH   2   3
ENDBRANCH   1   2
BRANCH   1  18
ATOM     18  C   UNL     1      55.984  25.560  52.181  1.00  0.00     0.000 C 
BRANCH  18  19
ATOM     19  C   UNL     1      57.187  25.642  53.147  1.00  0.00     0.000 C 
BRANCH  19  20
ATOM     20  C   UNL     1      58.050  26.908  52.966  1.00  0.00     0.000 C 
BRANCH  20  21
ATOM     21  C   UNL     1      59.225  27.043  53.950  1.00  0.00     0.000 C 
BRANCH  21  22
ATOM     22  C   UNL     1      60.353  26.032  53.674  1.00  0.00     0.000 C 
BRANCH  22  23
ATOM     23  C   UNL     1      61.170  26.373  52.410  1.00  0.00     0.000 C 
BRANCH  23  24
ATOM     24  C   UNL     1      60.909  25.435  51.215  1.00  0.00    -0.000 C 
BRANCH  24  25
ATOM     25  C   UNL     1      60.128  26.055  50.041  1.00  0.00    -0.000 C 
BRANCH  25  26
ATOM     26  C   UNL     1      60.412  27.545  49.774  1.00  0.00    -0.000 C 
BRANCH  26  27
ATOM     27  C   UNL     1      59.134  28.397  49.688  1.00  0.00    -0.000 C 
BRANCH  27  28
ATOM     28  C   UNL     1      59.134  29.557  50.694  1.00  0.00    -0.000 C 
BRANCH  28  29
ATOM     29  C   UNL     1      60.511  29.791  51.334  1.00  0.00    -0.000 C 
BRANCH  29  30
ATOM     30  C   UNL     1      60.417  30.314  52.777  1.00  0.00    -0.000 C 
BRANCH  30  31
ATOM     31  C   UNL     1      59.125  31.112  53.056  1.00  0.00    -0.003 C 
ATOM     32  C   UNL     1      58.351  30.564  54.255  1.00  0.00     0.004 C 
ENDBRANCH  30  31
ENDBRANCH  29  30
ENDBRANCH  28  29
ENDBRANCH  27  28
ENDBRANCH  26  27
ENDBRANCH  25  26
ENDBRANCH  24  25
ENDBRANCH  23  24
ENDBRANCH  22  23
ENDBRANCH  21  22
ENDBRANCH  20  21
ENDBRANCH  19  20
ENDBRANCH  18  19
ENDBRANCH   1  18
TORSDOF 28
ENDMDL
