MODEL 1
REMARK VINA RESULT:    -4.859      0.000      0.000
REMARK INTER + INTRA:         -12.103
REMARK INTER:                  -7.984
REMARK INTRA:                  -4.118
REMARK UNBOUND:                -4.118
REMARK SMILES C[C@H]1O[C@@H](OC[C@H]2O[C@@H](Oc3c(-c4ccc(O)c(O)c4)oc4cc(O)cc(O)c4c3=O)[C@H](O)[C@@H](O)[C@@H]2O)[C@@H](O)[C@@H](O)[C@H]1O
REMARK SMILES IDX 7 1 36 2 34 3 32 4 9 5 8 6 6 7 5 8 4 9 1 10 2 11 42 12 3 13
REMARK SMILES IDX 40 14 38 15 43 16 41 18 39 20 37 22 35 24 10 26 11 27 12 28
REMARK SMILES IDX 30 29 21 30 29 31 31 32 22 33 27 34 23 35 26 36 24 37 13 38
REMARK SMILES IDX 20 39 14 40 18 41 15 42 16 43 19 44 17 46 28 48 25 50 33 52
REMARK H PARENT 43 17 41 19 39 21 37 23 35 25 19 45 17 47 28 49 25 51 33 53
REMARK Flexibility Score: inf
ROOT
ATOM      1  C   UNL     1      22.376 -47.471 203.459  1.00  0.00     0.180 C 
ATOM      2  C   UNL     1      20.843 -47.769 203.586  1.00  0.00     0.177 C 
ATOM      3  C   UNL     1      20.005 -46.461 203.700  1.00  0.00     0.180 C 
ATOM      4  C   UNL     1      20.584 -45.482 204.755  1.00  0.00     0.214 C 
ATOM      5  C   UNL     1      22.086 -45.720 205.012  1.00  0.00     0.339 C 
ATOM      6  O   UNL     1      22.705 -46.144 203.815  1.00  0.00    -0.332 OA
ENDROOT
BRANCH   1   7
ATOM      7  C   UNL     1      22.896 -47.717 202.018  1.00  0.00     0.198 C 
BRANCH   7   8
ATOM      8  O   UNL     1      22.136 -47.037 201.026  1.00  0.00    -0.347 OA
BRANCH   8   9
ATOM      9  C   UNL     1      22.864 -46.078 200.246  1.00  0.00     0.281 C 
ATOM     10  C   UNL     1      26.431 -45.267 199.883  1.00  0.00     0.041 C 
ATOM     11  C   UNL     1      24.928 -45.184 199.628  1.00  0.00     0.150 C 
ATOM     12  C   UNL     1      24.434 -43.718 199.670  1.00  0.00     0.174 C 
ATOM     13  O   UNL     1      24.239 -45.956 200.601  1.00  0.00    -0.344 OA
ATOM     14  C   UNL     1      22.913 -43.701 199.416  1.00  0.00     0.179 C 
ATOM     15  C   UNL     1      22.179 -44.699 200.345  1.00  0.00     0.202 C 
BRANCH  12  16
ATOM     16  O   UNL     1      24.719 -43.140 200.927  1.00  0.00    -0.388 OA
ATOM     17  H   UNL     1      24.561 -43.838 201.619  1.00  0.00     0.211 HD
ENDBRANCH  12  16
BRANCH  14  18
ATOM     18  O   UNL     1      22.416 -42.398 199.597  1.00  0.00    -0.387 OA
ATOM     19  H   UNL     1      21.497 -42.383 199.218  1.00  0.00     0.211 HD
ENDBRANCH  14  18
BRANCH  15  20
ATOM     20  O   UNL     1      22.133 -44.199 201.669  1.00  0.00    -0.385 OA
ATOM     21  H   UNL     1      22.066 -44.952 202.306  1.00  0.00     0.211 HD
ENDBRANCH  15  20
ENDBRANCH   8   9
ENDBRANCH   7   8
ENDBRANCH   1   7
BRANCH   2  22
ATOM     22  O   UNL     1      20.650 -48.564 204.733  1.00  0.00    -0.387 OA
ATOM     23  H   UNL     1      21.470 -49.106 204.850  1.00  0.00     0.211 HD
ENDBRANCH   2  22
BRANCH   3  24
ATOM     24  O   UNL     1      19.875 -45.823 202.448  1.00  0.00    -0.387 OA
ATOM     25  H   UNL     1      18.927 -45.919 202.173  1.00  0.00     0.211 HD
ENDBRANCH   3  24
BRANCH   5  26
ATOM     26  O   UNL     1      22.673 -44.473 205.355  1.00  0.00    -0.454 OA
BRANCH  26  27
ATOM     27  C   UNL     1      24.016 -44.050 205.340  1.00  0.00     0.214 A 
ATOM     28  C   UNL     1      25.084 -44.607 206.100  1.00  0.00     0.180 A 
ATOM     29  C   UNL     1      24.317 -42.985 204.475  1.00  0.00     0.239 A 
ATOM     30  O   UNL     1      26.259 -43.982 206.126  1.00  0.00    -0.452 OA
ATOM     31  C   UNL     1      25.611 -42.422 204.473  1.00  0.00     0.111 A 
ATOM     32  O   UNL     1      23.416 -42.542 203.707  1.00  0.00    -0.285 OA
ATOM     33  C   UNL     1      26.552 -42.928 205.383  1.00  0.00     0.146 A 
ATOM     34  C   UNL     1      26.003 -41.386 203.583  1.00  0.00     0.134 A 
ATOM     35  C   UNL     1      27.824 -42.356 205.486  1.00  0.00     0.094 A 
ATOM     36  C   UNL     1      27.288 -40.840 203.676  1.00  0.00     0.093 A 
ATOM     37  C   UNL     1      28.189 -41.304 204.644  1.00  0.00     0.123 A 
BRANCH  28  38
ATOM     38  C   UNL     1      25.051 -45.919 206.770  1.00  0.00     0.025 A 
ATOM     39  C   UNL     1      25.227 -47.095 206.017  1.00  0.00     0.062 A 
ATOM     40  C   UNL     1      24.617 -46.027 208.093  1.00  0.00     0.016 A 
ATOM     41  C   UNL     1      24.979 -48.354 206.587  1.00  0.00     0.158 A 
ATOM     42  C   UNL     1      24.381 -47.274 208.673  1.00  0.00     0.051 A 
ATOM     43  C   UNL     1      24.554 -48.436 207.921  1.00  0.00     0.157 A 
BRANCH  41  44
ATOM     44  O   UNL     1      25.129 -49.514 205.826  1.00  0.00    -0.504 OA
ATOM     45  H   UNL     1      25.863 -49.595 205.135  1.00  0.00     0.293 HD
ENDBRANCH  41  44
BRANCH  43  46
ATOM     46  O   UNL     1      24.269 -49.663 208.516  1.00  0.00    -0.504 OA
ATOM     47  H   UNL     1      24.547 -50.548 208.091  1.00  0.00     0.293 HD
ENDBRANCH  43  46
ENDBRANCH  28  38
BRANCH  34  48
ATOM     48  O   UNL     1      25.156 -40.950 202.565  1.00  0.00    -0.507 OA
ATOM     49  H   UNL     1      25.375 -41.085 201.582  1.00  0.00     0.293 HD
ENDBRANCH  34  48
BRANCH  37  50
ATOM     50  O   UNL     1      29.443 -40.710 204.797  1.00  0.00    -0.508 OA
ATOM     51  H   UNL     1      29.592 -39.973 205.478  1.00  0.00     0.293 HD
ENDBRANCH  37  50
ENDBRANCH  26  27
ENDBRANCH   5  26
BRANCH   4  52
ATOM     52  O   UNL     1      19.875 -45.549 205.970  1.00  0.00    -0.384 OA
ATOM     53  H   UNL     1      20.180 -44.798 206.549  1.00  0.00     0.211 HD
ENDBRANCH   4  52
TORSDOF 16
ENDMDL
MODEL 2
REMARK VINA RESULT:    -4.594      1.973      2.574
REMARK INTER + INTRA:         -11.667
REMARK INTER:                  -7.513
REMARK INTRA:                  -4.154
REMARK UNBOUND:                -4.118
REMARK SMILES C[C@H]1O[C@@H](OC[C@H]2O[C@@H](Oc3c(-c4ccc(O)c(O)c4)oc4cc(O)cc(O)c4c3=O)[C@H](O)[C@@H](O)[C@@H]2O)[C@@H](O)[C@@H](O)[C@H]1O
REMARK SMILES IDX 7 1 36 2 34 3 32 4 9 5 8 6 6 7 5 8 4 9 1 10 2 11 42 12 3 13
REMARK SMILES IDX 40 14 38 15 43 16 41 18 39 20 37 22 35 24 10 26 11 27 12 28
REMARK SMILES IDX 30 29 21 30 29 31 31 32 22 33 27 34 23 35 26 36 24 37 13 38
REMARK SMILES IDX 20 39 14 40 18 41 15 42 16 43 19 44 17 46 28 48 25 50 33 52
REMARK H PARENT 43 17 41 19 39 21 37 23 35 25 19 45 17 47 28 49 25 51 33 53
REMARK Flexibility Score: inf
ROOT
ATOM      1  C   UNL     1      24.754 -47.853 201.966  1.00  0.00     0.180 C 
ATOM      2  C   UNL     1      23.753 -48.879 201.332  1.00  0.00     0.177 C 
ATOM      3  C   UNL     1      22.313 -48.294 201.223  1.00  0.00     0.180 C 
ATOM      4  C   UNL     1      21.844 -47.637 202.548  1.00  0.00     0.214 C 
ATOM      5  C   UNL     1      23.028 -47.194 203.432  1.00  0.00     0.339 C 
ATOM      6  O   UNL     1      24.099 -46.779 202.609  1.00  0.00    -0.332 OA
ENDROOT
BRANCH   1   7
ATOM      7  C   UNL     1      25.716 -47.253 200.907  1.00  0.00     0.198 C 
BRANCH   7   8
ATOM      8  O   UNL     1      25.040 -46.707 199.781  1.00  0.00    -0.347 OA
BRANCH   8   9
ATOM      9  C   UNL     1      25.219 -45.299 199.582  1.00  0.00     0.281 C 
ATOM     10  C   UNL     1      27.456 -42.780 201.054  1.00  0.00     0.041 C 
ATOM     11  C   UNL     1      26.374 -43.349 200.140  1.00  0.00     0.150 C 
ATOM     12  C   UNL     1      25.103 -42.466 200.158  1.00  0.00     0.174 C 
ATOM     13  O   UNL     1      26.052 -44.670 200.553  1.00  0.00    -0.344 OA
ATOM     14  C   UNL     1      24.049 -43.097 199.227  1.00  0.00     0.179 C 
ATOM     15  C   UNL     1      23.845 -44.598 199.548  1.00  0.00     0.202 C 
BRANCH  12  16
ATOM     16  O   UNL     1      24.591 -42.370 201.472  1.00  0.00    -0.388 OA
ATOM     17  H   UNL     1      23.820 -41.743 201.446  1.00  0.00     0.211 HD
ENDBRANCH  12  16
BRANCH  14  18
ATOM     18  O   UNL     1      22.834 -42.396 199.341  1.00  0.00    -0.387 OA
ATOM     19  H   UNL     1      22.963 -41.706 200.045  1.00  0.00     0.211 HD
ENDBRANCH  14  18
BRANCH  15  20
ATOM     20  O   UNL     1      23.117 -44.752 200.754  1.00  0.00    -0.385 OA
ATOM     21  H   UNL     1      23.385 -44.048 201.394  1.00  0.00     0.211 HD
ENDBRANCH  15  20
ENDBRANCH   8   9
ENDBRANCH   7   8
ENDBRANCH   1   7
BRANCH   2  22
ATOM     22  O   UNL     1      23.743 -50.031 202.141  1.00  0.00    -0.387 OA
ATOM     23  H   UNL     1      24.101 -50.773 201.592  1.00  0.00     0.211 HD
ENDBRANCH   2  22
BRANCH   3  24
ATOM     24  O   UNL     1      22.208 -47.382 200.152  1.00  0.00    -0.387 OA
ATOM     25  H   UNL     1      23.109 -47.310 199.745  1.00  0.00     0.211 HD
ENDBRANCH   3  24
BRANCH   5  26
ATOM     26  O   UNL     1      22.617 -46.054 204.173  1.00  0.00    -0.454 OA
BRANCH  26  27
ATOM     27  C   UNL     1      23.367 -45.087 204.871  1.00  0.00     0.214 A 
ATOM     28  C   UNL     1      24.263 -45.332 205.948  1.00  0.00     0.180 A 
ATOM     29  C   UNL     1      23.214 -43.759 204.437  1.00  0.00     0.239 A 
ATOM     30  O   UNL     1      24.755 -44.302 206.633  1.00  0.00    -0.452 OA
ATOM     31  C   UNL     1      23.840 -42.711 205.144  1.00  0.00     0.111 A 
ATOM     32  O   UNL     1      22.512 -43.522 203.413  1.00  0.00    -0.285 OA
ATOM     33  C   UNL     1      24.567 -43.036 206.299  1.00  0.00     0.146 A 
ATOM     34  C   UNL     1      23.781 -41.354 204.728  1.00  0.00     0.134 A 
ATOM     35  C   UNL     1      25.140 -42.033 207.089  1.00  0.00     0.094 A 
ATOM     36  C   UNL     1      24.381 -40.360 205.510  1.00  0.00     0.093 A 
ATOM     37  C   UNL     1      25.036 -40.695 206.704  1.00  0.00     0.123 A 
BRANCH  28  38
ATOM     38  C   UNL     1      24.821 -46.650 206.302  1.00  0.00     0.025 A 
ATOM     39  C   UNL     1      25.979 -47.118 205.654  1.00  0.00     0.062 A 
ATOM     40  C   UNL     1      24.090 -47.537 207.097  1.00  0.00     0.016 A 
ATOM     41  C   UNL     1      26.398 -48.448 205.808  1.00  0.00     0.158 A 
ATOM     42  C   UNL     1      24.506 -48.857 207.268  1.00  0.00     0.051 A 
ATOM     43  C   UNL     1      25.653 -49.317 206.620  1.00  0.00     0.157 A 
BRANCH  41  44
ATOM     44  O   UNL     1      27.531 -48.913 205.140  1.00  0.00    -0.504 OA
ATOM     45  H   UNL     1      28.454 -48.574 205.377  1.00  0.00     0.293 HD
ENDBRANCH  41  44
BRANCH  43  46
ATOM     46  O   UNL     1      26.017 -50.653 206.777  1.00  0.00    -0.504 OA
ATOM     47  H   UNL     1      26.796 -51.065 206.263  1.00  0.00     0.293 HD
ENDBRANCH  43  46
ENDBRANCH  28  38
BRANCH  34  48
ATOM     48  O   UNL     1      23.198 -40.995 203.513  1.00  0.00    -0.507 OA
ATOM     49  H   UNL     1      22.959 -41.680 202.803  1.00  0.00     0.293 HD
ENDBRANCH  34  48
BRANCH  37  50
ATOM     50  O   UNL     1      25.567 -39.703 207.530  1.00  0.00    -0.508 OA
ATOM     51  H   UNL     1      25.224 -38.749 207.487  1.00  0.00     0.293 HD
ENDBRANCH  37  50
ENDBRANCH  26  27
ENDBRANCH   5  26
BRANCH   4  52
ATOM     52  O   UNL     1      20.995 -48.490 203.279  1.00  0.00    -0.384 OA
ATOM     53  H   UNL     1      21.397 -49.401 203.281  1.00  0.00     0.211 HD
ENDBRANCH   4  52
TORSDOF 16
ENDMDL
MODEL 3
REMARK VINA RESULT:    -4.573     11.055     14.270
REMARK INTER + INTRA:         -11.631
REMARK INTER:                  -7.494
REMARK INTRA:                  -4.137
REMARK UNBOUND:                -4.118
REMARK SMILES C[C@H]1O[C@@H](OC[C@H]2O[C@@H](Oc3c(-c4ccc(O)c(O)c4)oc4cc(O)cc(O)c4c3=O)[C@H](O)[C@@H](O)[C@@H]2O)[C@@H](O)[C@@H](O)[C@H]1O
REMARK SMILES IDX 7 1 36 2 34 3 32 4 9 5 8 6 6 7 5 8 4 9 1 10 2 11 42 12 3 13
REMARK SMILES IDX 40 14 38 15 43 16 41 18 39 20 37 22 35 24 10 26 11 27 12 28
REMARK SMILES IDX 30 29 21 30 29 31 31 32 22 33 27 34 23 35 26 36 24 37 13 38
REMARK SMILES IDX 20 39 14 40 18 41 15 42 16 43 19 44 17 46 28 48 25 50 33 52
REMARK H PARENT 43 17 41 19 39 21 37 23 35 25 19 45 17 47 28 49 25 51 33 53
REMARK Flexibility Score: inf
ROOT
ATOM      1  C   UNL     1      36.512 -46.569 206.776  1.00  0.00     0.180 C 
ATOM      2  C   UNL     1      37.477 -46.985 207.939  1.00  0.00     0.177 C 
ATOM      3  C   UNL     1      38.958 -46.621 207.623  1.00  0.00     0.180 C 
ATOM      4  C   UNL     1      39.386 -47.080 206.204  1.00  0.00     0.214 C 
ATOM      5  C   UNL     1      38.182 -47.242 205.253  1.00  0.00     0.339 C 
ATOM      6  O   UNL     1      37.198 -46.280 205.575  1.00  0.00    -0.332 OA
ENDROOT
BRANCH   1   7
ATOM      7  C   UNL     1      35.664 -45.323 207.146  1.00  0.00     0.198 C 
BRANCH   7   8
ATOM      8  O   UNL     1      36.447 -44.231 207.613  1.00  0.00    -0.347 OA
BRANCH   8   9
ATOM      9  C   UNL     1      36.371 -43.039 206.820  1.00  0.00     0.281 C 
ATOM     10  C   UNL     1      34.256 -41.978 204.007  1.00  0.00     0.041 C 
ATOM     11  C   UNL     1      35.330 -41.875 205.087  1.00  0.00     0.150 C 
ATOM     12  C   UNL     1      36.656 -41.327 204.506  1.00  0.00     0.174 C 
ATOM     13  O   UNL     1      35.546 -43.156 205.664  1.00  0.00    -0.344 OA
ATOM     14  C   UNL     1      37.700 -41.256 205.638  1.00  0.00     0.179 C 
ATOM     15  C   UNL     1      37.790 -42.600 206.402  1.00  0.00     0.202 C 
BRANCH  12  16
ATOM     16  O   UNL     1      37.123 -42.169 203.471  1.00  0.00    -0.388 OA
ATOM     17  H   UNL     1      37.687 -42.872 203.891  1.00  0.00     0.211 HD
ENDBRANCH  12  16
BRANCH  14  18
ATOM     18  O   UNL     1      38.954 -40.903 205.106  1.00  0.00    -0.387 OA
ATOM     19  H   UNL     1      38.889 -39.956 204.813  1.00  0.00     0.211 HD
ENDBRANCH  14  18
BRANCH  15  20
ATOM     20  O   UNL     1      38.459 -43.571 205.618  1.00  0.00    -0.385 OA
ATOM     21  H   UNL     1      37.957 -44.422 205.644  1.00  0.00     0.211 HD
ENDBRANCH  15  20
ENDBRANCH   8   9
ENDBRANCH   7   8
ENDBRANCH   1   7
BRANCH   2  22
ATOM     22  O   UNL     1      37.354 -48.376 208.127  1.00  0.00    -0.387 OA
ATOM     23  H   UNL     1      37.170 -48.772 207.239  1.00  0.00     0.211 HD
ENDBRANCH   2  22
BRANCH   3  24
ATOM     24  O   UNL     1      39.196 -45.241 207.791  1.00  0.00    -0.387 OA
ATOM     25  H   UNL     1      38.592 -44.766 207.164  1.00  0.00     0.211 HD
ENDBRANCH   3  24
BRANCH   5  26
ATOM     26  O   UNL     1      38.624 -46.948 203.936  1.00  0.00    -0.454 OA
BRANCH  26  27
ATOM     27  C   UNL     1      37.906 -46.578 202.782  1.00  0.00     0.214 A 
ATOM     28  C   UNL     1      36.879 -47.335 202.150  1.00  0.00     0.180 A 
ATOM     29  C   UNL     1      38.237 -45.332 202.224  1.00  0.00     0.239 A 
ATOM     30  O   UNL     1      36.424 -46.947 200.961  1.00  0.00    -0.452 OA
ATOM     31  C   UNL     1      37.648 -44.926 201.008  1.00  0.00     0.111 A 
ATOM     32  O   UNL     1      39.064 -44.588 202.824  1.00  0.00    -0.285 OA
ATOM     33  C   UNL     1      36.772 -45.817 200.369  1.00  0.00     0.146 A 
ATOM     34  C   UNL     1      37.888 -43.656 200.418  1.00  0.00     0.134 A 
ATOM     35  C   UNL     1      36.223 -45.507 199.120  1.00  0.00     0.094 A 
ATOM     36  C   UNL     1      37.311 -43.344 199.182  1.00  0.00     0.093 A 
ATOM     37  C   UNL     1      36.502 -44.278 198.519  1.00  0.00     0.123 A 
BRANCH  28  38
ATOM     38  C   UNL     1      36.157 -48.462 202.767  1.00  0.00     0.025 A 
ATOM     39  C   UNL     1      35.022 -48.216 203.563  1.00  0.00     0.062 A 
ATOM     40  C   UNL     1      36.714 -49.743 202.767  1.00  0.00     0.016 A 
ATOM     41  C   UNL     1      34.455 -49.240 204.336  1.00  0.00     0.158 A 
ATOM     42  C   UNL     1      36.149 -50.771 203.522  1.00  0.00     0.051 A 
ATOM     43  C   UNL     1      35.026 -50.522 204.312  1.00  0.00     0.157 A 
BRANCH  41  44
ATOM     44  O   UNL     1      33.347 -48.983 205.145  1.00  0.00    -0.504 OA
ATOM     45  H   UNL     1      32.614 -48.355 204.843  1.00  0.00     0.293 HD
ENDBRANCH  41  44
BRANCH  43  46
ATOM     46  O   UNL     1      34.512 -51.559 205.087  1.00  0.00    -0.504 OA
ATOM     47  H   UNL     1      33.972 -52.322 204.680  1.00  0.00     0.293 HD
ENDBRANCH  43  46
ENDBRANCH  28  38
BRANCH  34  48
ATOM     48  O   UNL     1      38.630 -42.680 201.081  1.00  0.00    -0.507 OA
ATOM     49  H   UNL     1      38.440 -42.414 202.043  1.00  0.00     0.293 HD
ENDBRANCH  34  48
BRANCH  37  50
ATOM     50  O   UNL     1      35.989 -44.006 197.250  1.00  0.00    -0.508 OA
ATOM     51  H   UNL     1      36.544 -43.516 196.557  1.00  0.00     0.293 HD
ENDBRANCH  37  50
ENDBRANCH  26  27
ENDBRANCH   5  26
BRANCH   4  52
ATOM     52  O   UNL     1      40.125 -48.279 206.247  1.00  0.00    -0.384 OA
ATOM     53  H   UNL     1      40.343 -48.476 207.198  1.00  0.00     0.211 HD
ENDBRANCH   4  52
TORSDOF 16
ENDMDL
MODEL 4
REMARK VINA RESULT:    -4.517     11.286     14.488
REMARK INTER + INTRA:         -11.539
REMARK INTER:                  -8.041
REMARK INTRA:                  -3.499
REMARK UNBOUND:                -4.118
REMARK SMILES C[C@H]1O[C@@H](OC[C@H]2O[C@@H](Oc3c(-c4ccc(O)c(O)c4)oc4cc(O)cc(O)c4c3=O)[C@H](O)[C@@H](O)[C@@H]2O)[C@@H](O)[C@@H](O)[C@H]1O
REMARK SMILES IDX 7 1 36 2 34 3 32 4 9 5 8 6 6 7 5 8 4 9 1 10 2 11 42 12 3 13
REMARK SMILES IDX 40 14 38 15 43 16 41 18 39 20 37 22 35 24 10 26 11 27 12 28
REMARK SMILES IDX 30 29 21 30 29 31 31 32 22 33 27 34 23 35 26 36 24 37 13 38
REMARK SMILES IDX 20 39 14 40 18 41 15 42 16 43 19 44 17 46 28 48 25 50 33 52
REMARK H PARENT 43 17 41 19 39 21 37 23 35 25 19 45 17 47 28 49 25 51 33 53
REMARK Flexibility Score: inf
ROOT
ATOM      1  C   UNL     1      38.952 -44.773 205.736  1.00  0.00     0.180 C 
ATOM      2  C   UNL     1      40.014 -45.163 206.819  1.00  0.00     0.177 C 
ATOM      3  C   UNL     1      39.616 -46.461 207.582  1.00  0.00     0.180 C 
ATOM      4  C   UNL     1      38.145 -46.426 208.073  1.00  0.00     0.214 C 
ATOM      5  C   UNL     1      37.275 -45.458 207.245  1.00  0.00     0.339 C 
ATOM      6  O   UNL     1      37.724 -45.452 205.906  1.00  0.00    -0.332 OA
ENDROOT
BRANCH   1   7
ATOM      7  C   UNL     1      39.457 -45.064 204.298  1.00  0.00     0.198 C 
BRANCH   7   8
ATOM      8  O   UNL     1      39.873 -46.412 204.113  1.00  0.00    -0.347 OA
BRANCH   8   9
ATOM      9  C   UNL     1      39.129 -47.155 203.139  1.00  0.00     0.281 C 
ATOM     10  C   UNL     1      36.028 -46.519 201.270  1.00  0.00     0.041 C 
ATOM     11  C   UNL     1      37.285 -47.262 201.712  1.00  0.00     0.150 C 
ATOM     12  C   UNL     1      36.974 -48.743 202.040  1.00  0.00     0.174 C 
ATOM     13  O   UNL     1      37.839 -46.620 202.852  1.00  0.00    -0.344 OA
ATOM     14  C   UNL     1      38.277 -49.435 202.488  1.00  0.00     0.179 C 
ATOM     15  C   UNL     1      38.989 -48.622 203.597  1.00  0.00     0.202 C 
BRANCH  12  16
ATOM     16  O   UNL     1      36.006 -48.825 203.066  1.00  0.00    -0.388 OA
ATOM     17  H   UNL     1      35.112 -48.852 202.631  1.00  0.00     0.211 HD
ENDBRANCH  12  16
BRANCH  14  18
ATOM     18  O   UNL     1      37.993 -50.738 202.933  1.00  0.00    -0.387 OA
ATOM     19  H   UNL     1      37.174 -51.036 202.456  1.00  0.00     0.211 HD
ENDBRANCH  14  18
BRANCH  15  20
ATOM     20  O   UNL     1      38.298 -48.753 204.827  1.00  0.00    -0.385 OA
ATOM     21  H   UNL     1      37.928 -47.876 205.094  1.00  0.00     0.211 HD
ENDBRANCH  15  20
ENDBRANCH   8   9
ENDBRANCH   7   8
ENDBRANCH   1   7
BRANCH   2  22
ATOM     22  O   UNL     1      40.125 -44.089 207.724  1.00  0.00    -0.387 OA
ATOM     23  H   UNL     1      40.247 -43.268 207.184  1.00  0.00     0.211 HD
ENDBRANCH   2  22
BRANCH   3  24
ATOM     24  O   UNL     1      39.851 -47.611 206.799  1.00  0.00    -0.387 OA
ATOM     25  H   UNL     1      40.526 -48.155 207.282  1.00  0.00     0.211 HD
ENDBRANCH   3  24
BRANCH   5  26
ATOM     26  O   UNL     1      35.949 -45.970 207.228  1.00  0.00    -0.454 OA
BRANCH  26  27
ATOM     27  C   UNL     1      35.415 -47.166 207.746  1.00  0.00     0.214 A 
ATOM     28  C   UNL     1      34.867 -47.351 209.046  1.00  0.00     0.180 A 
ATOM     29  C   UNL     1      35.417 -48.268 206.875  1.00  0.00     0.239 A 
ATOM     30  O   UNL     1      34.576 -48.582 209.460  1.00  0.00    -0.452 OA
ATOM     31  C   UNL     1      35.003 -49.534 207.340  1.00  0.00     0.111 A 
ATOM     32  O   UNL     1      35.794 -48.108 205.679  1.00  0.00    -0.285 OA
ATOM     33  C   UNL     1      34.641 -49.655 208.691  1.00  0.00     0.146 A 
ATOM     34  C   UNL     1      34.921 -50.678 206.501  1.00  0.00     0.134 A 
ATOM     35  C   UNL     1      34.303 -50.900 209.230  1.00  0.00     0.094 A 
ATOM     36  C   UNL     1      34.554 -51.914 207.046  1.00  0.00     0.093 A 
ATOM     37  C   UNL     1      34.271 -52.032 208.414  1.00  0.00     0.123 A 
BRANCH  28  38
ATOM     38  C   UNL     1      34.454 -46.264 209.953  1.00  0.00     0.025 A 
ATOM     39  C   UNL     1      33.403 -45.405 209.583  1.00  0.00     0.062 A 
ATOM     40  C   UNL     1      35.237 -45.931 211.060  1.00  0.00     0.016 A 
ATOM     41  C   UNL     1      33.141 -44.238 210.317  1.00  0.00     0.158 A 
ATOM     42  C   UNL     1      34.976 -44.781 211.805  1.00  0.00     0.051 A 
ATOM     43  C   UNL     1      33.935 -43.930 211.432  1.00  0.00     0.157 A 
BRANCH  41  44
ATOM     44  O   UNL     1      32.115 -43.375 209.928  1.00  0.00    -0.504 OA
ATOM     45  H   UNL     1      32.284 -42.387 209.796  1.00  0.00     0.293 HD
ENDBRANCH  41  44
BRANCH  43  46
ATOM     46  O   UNL     1      33.728 -42.767 212.170  1.00  0.00    -0.504 OA
ATOM     47  H   UNL     1      34.235 -42.577 213.035  1.00  0.00     0.293 HD
ENDBRANCH  43  46
ENDBRANCH  28  38
BRANCH  34  48
ATOM     48  O   UNL     1      35.127 -50.581 205.126  1.00  0.00    -0.507 OA
ATOM     49  H   UNL     1      36.054 -50.499 204.720  1.00  0.00     0.293 HD
ENDBRANCH  34  48
BRANCH  37  50
ATOM     50  O   UNL     1      33.984 -53.275 208.979  1.00  0.00    -0.508 OA
ATOM     51  H   UNL     1      33.336 -53.915 208.531  1.00  0.00     0.293 HD
ENDBRANCH  37  50
ENDBRANCH  26  27
ENDBRANCH   5  26
BRANCH   4  52
ATOM     52  O   UNL     1      38.061 -46.094 209.440  1.00  0.00    -0.384 OA
ATOM     53  H   UNL     1      37.426 -46.726 209.874  1.00  0.00     0.211 HD
ENDBRANCH   4  52
TORSDOF 16
ENDMDL
MODEL 5
REMARK VINA RESULT:    -4.503      2.031      4.646
REMARK INTER + INTRA:         -11.518
REMARK INTER:                  -7.330
REMARK INTRA:                  -4.187
REMARK UNBOUND:                -4.118
REMARK SMILES C[C@H]1O[C@@H](OC[C@H]2O[C@@H](Oc3c(-c4ccc(O)c(O)c4)oc4cc(O)cc(O)c4c3=O)[C@H](O)[C@@H](O)[C@@H]2O)[C@@H](O)[C@@H](O)[C@H]1O
REMARK SMILES IDX 7 1 36 2 34 3 32 4 9 5 8 6 6 7 5 8 4 9 1 10 2 11 42 12 3 13
REMARK SMILES IDX 40 14 38 15 43 16 41 18 39 20 37 22 35 24 10 26 11 27 12 28
REMARK SMILES IDX 30 29 21 30 29 31 31 32 22 33 27 34 23 35 26 36 24 37 13 38
REMARK SMILES IDX 20 39 14 40 18 41 15 42 16 43 19 44 17 46 28 48 25 50 33 52
REMARK H PARENT 43 17 41 19 39 21 37 23 35 25 19 45 17 47 28 49 25 51 33 53
REMARK Flexibility Score: inf
ROOT
ATOM      1  C   UNL     1      24.372 -46.484 205.549  1.00  0.00     0.180 C 
ATOM      2  C   UNL     1      23.214 -47.000 206.471  1.00  0.00     0.177 C 
ATOM      3  C   UNL     1      21.831 -46.933 205.758  1.00  0.00     0.180 C 
ATOM      4  C   UNL     1      21.583 -45.558 205.083  1.00  0.00     0.214 C 
ATOM      5  C   UNL     1      22.899 -44.819 204.762  1.00  0.00     0.339 C 
ATOM      6  O   UNL     1      23.897 -45.762 204.431  1.00  0.00    -0.332 OA
ENDROOT
BRANCH   1   7
ATOM      7  C   UNL     1      25.252 -47.647 205.021  1.00  0.00     0.198 C 
BRANCH   7   8
ATOM      8  O   UNL     1      24.502 -48.666 204.369  1.00  0.00    -0.347 OA
BRANCH   8   9
ATOM      9  C   UNL     1      24.799 -48.851 202.979  1.00  0.00     0.281 C 
ATOM     10  C   UNL     1      27.433 -47.592 200.744  1.00  0.00     0.041 C 
ATOM     11  C   UNL     1      26.202 -48.387 201.173  1.00  0.00     0.150 C 
ATOM     12  C   UNL     1      25.037 -48.199 200.170  1.00  0.00     0.174 C 
ATOM     13  O   UNL     1      25.797 -47.970 202.470  1.00  0.00    -0.344 OA
ATOM     14  C   UNL     1      23.825 -49.015 200.662  1.00  0.00     0.179 C 
ATOM     15  C   UNL     1      23.508 -48.708 202.146  1.00  0.00     0.202 C 
BRANCH  12  16
ATOM     16  O   UNL     1      24.691 -46.832 200.072  1.00  0.00    -0.388 OA
ATOM     17  H   UNL     1      25.272 -46.331 200.705  1.00  0.00     0.211 HD
ENDBRANCH  12  16
BRANCH  14  18
ATOM     18  O   UNL     1      22.709 -48.742 199.851  1.00  0.00    -0.387 OA
ATOM     19  H   UNL     1      22.005 -49.400 200.095  1.00  0.00     0.211 HD
ENDBRANCH  14  18
BRANCH  15  20
ATOM     20  O   UNL     1      22.911 -47.429 202.270  1.00  0.00    -0.385 OA
ATOM     21  H   UNL     1      22.351 -47.246 201.477  1.00  0.00     0.211 HD
ENDBRANCH  15  20
ENDBRANCH   8   9
ENDBRANCH   7   8
ENDBRANCH   1   7
BRANCH   2  22
ATOM     22  O   UNL     1      23.196 -46.201 207.631  1.00  0.00    -0.387 OA
ATOM     23  H   UNL     1      22.250 -46.119 207.910  1.00  0.00     0.211 HD
ENDBRANCH   2  22
BRANCH   3  24
ATOM     24  O   UNL     1      21.682 -47.979 204.824  1.00  0.00    -0.387 OA
ATOM     25  H   UNL     1      22.583 -48.165 204.454  1.00  0.00     0.211 HD
ENDBRANCH   3  24
BRANCH   5  26
ATOM     26  O   UNL     1      22.683 -44.028 203.601  1.00  0.00    -0.454 OA
BRANCH  26  27
ATOM     27  C   UNL     1      23.594 -43.405 202.727  1.00  0.00     0.214 A 
ATOM     28  C   UNL     1      24.584 -42.447 203.084  1.00  0.00     0.180 A 
ATOM     29  C   UNL     1      23.513 -43.789 201.378  1.00  0.00     0.239 A 
ATOM     30  O   UNL     1      25.245 -41.805 202.124  1.00  0.00    -0.452 OA
ATOM     31  C   UNL     1      24.311 -43.140 200.412  1.00  0.00     0.111 A 
ATOM     32  O   UNL     1      22.721 -44.717 201.048  1.00  0.00    -0.285 OA
ATOM     33  C   UNL     1      25.135 -42.087 200.836  1.00  0.00     0.146 A 
ATOM     34  C   UNL     1      24.327 -43.517 199.042  1.00  0.00     0.134 A 
ATOM     35  C   UNL     1      25.885 -41.350 199.913  1.00  0.00     0.094 A 
ATOM     36  C   UNL     1      25.103 -42.791 198.131  1.00  0.00     0.093 A 
ATOM     37  C   UNL     1      25.860 -41.691 198.560  1.00  0.00     0.123 A 
BRANCH  28  38
ATOM     38  C   UNL     1      25.057 -42.191 204.457  1.00  0.00     0.025 A 
ATOM     39  C   UNL     1      26.098 -42.970 204.997  1.00  0.00     0.062 A 
ATOM     40  C   UNL     1      24.336 -41.349 205.307  1.00  0.00     0.016 A 
ATOM     41  C   UNL     1      26.411 -42.897 206.363  1.00  0.00     0.158 A 
ATOM     42  C   UNL     1      24.649 -41.260 206.664  1.00  0.00     0.051 A 
ATOM     43  C   UNL     1      25.679 -42.036 207.195  1.00  0.00     0.157 A 
BRANCH  41  44
ATOM     44  O   UNL     1      27.425 -43.693 206.897  1.00  0.00    -0.504 OA
ATOM     45  H   UNL     1      27.826 -43.491 207.803  1.00  0.00     0.293 HD
ENDBRANCH  41  44
BRANCH  43  46
ATOM     46  O   UNL     1      25.938 -41.956 208.561  1.00  0.00    -0.504 OA
ATOM     47  H   UNL     1      26.841 -42.218 208.957  1.00  0.00     0.293 HD
ENDBRANCH  43  46
ENDBRANCH  28  38
BRANCH  34  48
ATOM     48  O   UNL     1      23.642 -44.645 198.595  1.00  0.00    -0.507 OA
ATOM     49  H   UNL     1      23.533 -45.477 199.168  1.00  0.00     0.293 HD
ENDBRANCH  34  48
BRANCH  37  50
ATOM     50  O   UNL     1      26.571 -40.914 197.646  1.00  0.00    -0.508 OA
ATOM     51  H   UNL     1      26.453 -41.043 196.646  1.00  0.00     0.293 HD
ENDBRANCH  37  50
ENDBRANCH  26  27
ENDBRANCH   5  26
BRANCH   4  52
ATOM     52  O   UNL     1      20.752 -44.735 205.869  1.00  0.00    -0.384 OA
ATOM     53  H   UNL     1      19.850 -45.154 205.909  1.00  0.00     0.211 HD
ENDBRANCH   4  52
TORSDOF 16
ENDMDL
MODEL 6
REMARK VINA RESULT:    -4.482      2.067      6.419
REMARK INTER + INTRA:         -11.483
REMARK INTER:                  -7.333
REMARK INTRA:                  -4.151
REMARK UNBOUND:                -4.118
REMARK SMILES C[C@H]1O[C@@H](OC[C@H]2O[C@@H](Oc3c(-c4ccc(O)c(O)c4)oc4cc(O)cc(O)c4c3=O)[C@H](O)[C@@H](O)[C@@H]2O)[C@@H](O)[C@@H](O)[C@H]1O
REMARK SMILES IDX 7 1 36 2 34 3 32 4 9 5 8 6 6 7 5 8 4 9 1 10 2 11 42 12 3 13
REMARK SMILES IDX 40 14 38 15 43 16 41 18 39 20 37 22 35 24 10 26 11 27 12 28
REMARK SMILES IDX 30 29 21 30 29 31 31 32 22 33 27 34 23 35 26 36 24 37 13 38
REMARK SMILES IDX 20 39 14 40 18 41 15 42 16 43 19 44 17 46 28 48 25 50 33 52
REMARK H PARENT 43 17 41 19 39 21 37 23 35 25 19 45 17 47 28 49 25 51 33 53
REMARK Flexibility Score: inf
ROOT
ATOM      1  C   UNL     1      24.963 -44.210 200.576  1.00  0.00     0.180 C 
ATOM      2  C   UNL     1      24.011 -43.695 199.442  1.00  0.00     0.177 C 
ATOM      3  C   UNL     1      22.514 -43.767 199.864  1.00  0.00     0.180 C 
ATOM      4  C   UNL     1      22.140 -45.144 200.473  1.00  0.00     0.214 C 
ATOM      5  C   UNL     1      23.367 -45.881 201.049  1.00  0.00     0.339 C 
ATOM      6  O   UNL     1      24.277 -44.936 201.575  1.00  0.00    -0.332 OA
ENDROOT
BRANCH   1   7
ATOM      7  C   UNL     1      25.717 -43.046 201.272  1.00  0.00     0.198 C 
BRANCH   7   8
ATOM      8  O   UNL     1      24.848 -42.034 201.768  1.00  0.00    -0.347 OA
BRANCH   8   9
ATOM      9  C   UNL     1      24.893 -41.830 203.187  1.00  0.00     0.281 C 
ATOM     10  C   UNL     1      27.040 -43.112 205.881  1.00  0.00     0.041 C 
ATOM     11  C   UNL     1      25.930 -42.296 205.224  1.00  0.00     0.150 C 
ATOM     12  C   UNL     1      24.598 -42.436 206.000  1.00  0.00     0.174 C 
ATOM     13  O   UNL     1      25.757 -42.727 203.881  1.00  0.00    -0.344 OA
ATOM     14  C   UNL     1      23.518 -41.600 205.285  1.00  0.00     0.179 C 
ATOM     15  C   UNL     1      23.468 -41.927 203.772  1.00  0.00     0.202 C 
BRANCH  12  16
ATOM     16  O   UNL     1      24.202 -43.792 206.053  1.00  0.00    -0.388 OA
ATOM     17  H   UNL     1      24.553 -44.172 206.903  1.00  0.00     0.211 HD
ENDBRANCH  12  16
BRANCH  14  18
ATOM     18  O   UNL     1      22.266 -41.830 205.883  1.00  0.00    -0.387 OA
ATOM     19  H   UNL     1      22.437 -42.306 206.739  1.00  0.00     0.211 HD
ENDBRANCH  14  18
BRANCH  15  20
ATOM     20  O   UNL     1      22.869 -43.192 203.559  1.00  0.00    -0.385 OA
ATOM     21  H   UNL     1      23.287 -43.861 204.154  1.00  0.00     0.211 HD
ENDBRANCH  15  20
ENDBRANCH   8   9
ENDBRANCH   7   8
ENDBRANCH   1   7
BRANCH   2  22
ATOM     22  O   UNL     1      24.227 -44.491 198.300  1.00  0.00    -0.387 OA
ATOM     23  H   UNL     1      24.633 -45.338 198.612  1.00  0.00     0.211 HD
ENDBRANCH   2  22
BRANCH   3  24
ATOM     24  O   UNL     1      22.178 -42.723 200.752  1.00  0.00    -0.387 OA
ATOM     25  H   UNL     1      22.815 -41.983 200.580  1.00  0.00     0.211 HD
ENDBRANCH   3  24
BRANCH   5  26
ATOM     26  O   UNL     1      22.926 -46.675 202.142  1.00  0.00    -0.454 OA
BRANCH  26  27
ATOM     27  C   UNL     1      23.648 -47.313 203.169  1.00  0.00     0.214 A 
ATOM     28  C   UNL     1      24.657 -48.303 203.000  1.00  0.00     0.180 A 
ATOM     29  C   UNL     1      23.340 -46.912 204.479  1.00  0.00     0.239 A 
ATOM     30  O   UNL     1      25.116 -48.953 204.067  1.00  0.00    -0.452 OA
ATOM     31  C   UNL     1      23.933 -47.572 205.576  1.00  0.00     0.111 A 
ATOM     32  O   UNL     1      22.530 -45.958 204.657  1.00  0.00    -0.285 OA
ATOM     33  C   UNL     1      24.788 -48.653 205.312  1.00  0.00     0.146 A 
ATOM     34  C   UNL     1      23.716 -47.180 206.924  1.00  0.00     0.134 A 
ATOM     35  C   UNL     1      25.338 -49.400 206.359  1.00  0.00     0.094 A 
ATOM     36  C   UNL     1      24.294 -47.917 207.964  1.00  0.00     0.093 A 
ATOM     37  C   UNL     1      25.083 -49.043 207.684  1.00  0.00     0.123 A 
BRANCH  28  38
ATOM     38  C   UNL     1      25.359 -48.588 201.735  1.00  0.00     0.025 A 
ATOM     39  C   UNL     1      26.486 -47.827 201.372  1.00  0.00     0.062 A 
ATOM     40  C   UNL     1      24.789 -49.440 200.787  1.00  0.00     0.016 A 
ATOM     41  C   UNL     1      27.032 -47.928 200.083  1.00  0.00     0.158 A 
ATOM     42  C   UNL     1      25.333 -49.557 199.507  1.00  0.00     0.051 A 
ATOM     43  C   UNL     1      26.448 -48.799 199.151  1.00  0.00     0.157 A 
BRANCH  41  44
ATOM     44  O   UNL     1      28.132 -47.150 199.721  1.00  0.00    -0.504 OA
ATOM     45  H   UNL     1      28.014 -46.269 199.239  1.00  0.00     0.293 HD
ENDBRANCH  41  44
BRANCH  43  46
ATOM     46  O   UNL     1      26.940 -48.906 197.852  1.00  0.00    -0.504 OA
ATOM     47  H   UNL     1      27.706 -49.537 197.615  1.00  0.00     0.293 HD
ENDBRANCH  43  46
ENDBRANCH  28  38
BRANCH  34  48
ATOM     48  O   UNL     1      22.995 -46.028 207.235  1.00  0.00    -0.507 OA
ATOM     49  H   UNL     1      22.491 -45.496 206.531  1.00  0.00     0.293 HD
ENDBRANCH  34  48
BRANCH  37  50
ATOM     50  O   UNL     1      25.596 -49.830 208.715  1.00  0.00    -0.508 OA
ATOM     51  H   UNL     1      26.071 -49.408 209.507  1.00  0.00     0.293 HD
ENDBRANCH  37  50
ENDBRANCH  26  27
ENDBRANCH   5  26
BRANCH   4  52
ATOM     52  O   UNL     1      21.486 -45.967 199.536  1.00  0.00    -0.384 OA
ATOM     53  H   UNL     1      22.021 -45.966 198.696  1.00  0.00     0.211 HD
ENDBRANCH   4  52
TORSDOF 16
ENDMDL
MODEL 7
REMARK VINA RESULT:    -4.468     11.766     14.495
REMARK INTER + INTRA:         -11.460
REMARK INTER:                  -8.071
REMARK INTRA:                  -3.389
REMARK UNBOUND:                -4.118
REMARK SMILES C[C@H]1O[C@@H](OC[C@H]2O[C@@H](Oc3c(-c4ccc(O)c(O)c4)oc4cc(O)cc(O)c4c3=O)[C@H](O)[C@@H](O)[C@@H]2O)[C@@H](O)[C@@H](O)[C@H]1O
REMARK SMILES IDX 7 1 36 2 34 3 32 4 9 5 8 6 6 7 5 8 4 9 1 10 2 11 42 12 3 13
REMARK SMILES IDX 40 14 38 15 43 16 41 18 39 20 37 22 35 24 10 26 11 27 12 28
REMARK SMILES IDX 30 29 21 30 29 31 31 32 22 33 27 34 23 35 26 36 24 37 13 38
REMARK SMILES IDX 20 39 14 40 18 41 15 42 16 43 19 44 17 46 28 48 25 50 33 52
REMARK H PARENT 43 17 41 19 39 21 37 23 35 25 19 45 17 47 28 49 25 51 33 53
REMARK Flexibility Score: inf
ROOT
ATOM      1  C   UNL     1      39.913 -46.451 204.344  1.00  0.00     0.180 C 
ATOM      2  C   UNL     1      39.222 -47.127 205.578  1.00  0.00     0.177 C 
ATOM      3  C   UNL     1      37.896 -46.409 205.966  1.00  0.00     0.180 C 
ATOM      4  C   UNL     1      38.066 -44.870 206.058  1.00  0.00     0.214 C 
ATOM      5  C   UNL     1      39.258 -44.362 205.221  1.00  0.00     0.339 C 
ATOM      6  O   UNL     1      39.396 -45.165 204.067  1.00  0.00    -0.332 OA
ENDROOT
BRANCH   1   7
ATOM      7  C   UNL     1      39.767 -47.306 203.058  1.00  0.00     0.198 C 
BRANCH   7   8
ATOM      8  O   UNL     1      38.412 -47.544 202.695  1.00  0.00    -0.347 OA
BRANCH   8   9
ATOM      9  C   UNL     1      38.132 -48.861 202.204  1.00  0.00     0.281 C 
ATOM     10  C   UNL     1      35.785 -50.210 199.716  1.00  0.00     0.041 C 
ATOM     11  C   UNL     1      36.900 -50.217 200.758  1.00  0.00     0.150 C 
ATOM     12  C   UNL     1      36.675 -51.330 201.810  1.00  0.00     0.174 C 
ATOM     13  O   UNL     1      36.959 -48.950 201.398  1.00  0.00    -0.344 OA
ATOM     14  C   UNL     1      37.824 -51.280 202.837  1.00  0.00     0.179 C 
ATOM     15  C   UNL     1      38.021 -49.846 203.387  1.00  0.00     0.202 C 
BRANCH  12  16
ATOM     16  O   UNL     1      35.436 -51.143 202.464  1.00  0.00    -0.388 OA
ATOM     17  H   UNL     1      35.502 -51.576 203.357  1.00  0.00     0.211 HD
ENDBRANCH  12  16
BRANCH  14  18
ATOM     18  O   UNL     1      37.564 -52.181 203.885  1.00  0.00    -0.387 OA
ATOM     19  H   UNL     1      36.578 -52.297 203.931  1.00  0.00     0.211 HD
ENDBRANCH  14  18
BRANCH  15  20
ATOM     20  O   UNL     1      36.979 -49.514 204.287  1.00  0.00    -0.385 OA
ATOM     21  H   UNL     1      37.051 -50.072 205.099  1.00  0.00     0.211 HD
ENDBRANCH  15  20
ENDBRANCH   8   9
ENDBRANCH   7   8
ENDBRANCH   1   7
BRANCH   2  22
ATOM     22  O   UNL     1      40.125 -47.084 206.658  1.00  0.00    -0.387 OA
ATOM     23  H   UNL     1      40.912 -47.624 206.397  1.00  0.00     0.211 HD
ENDBRANCH   2  22
BRANCH   3  24
ATOM     24  O   UNL     1      36.851 -46.741 205.077  1.00  0.00    -0.387 OA
ATOM     25  H   UNL     1      36.607 -47.684 205.260  1.00  0.00     0.211 HD
ENDBRANCH   3  24
BRANCH   5  26
ATOM     26  O   UNL     1      38.947 -43.050 204.771  1.00  0.00    -0.454 OA
BRANCH  26  27
ATOM     27  C   UNL     1      37.709 -42.401 204.604  1.00  0.00     0.214 A 
ATOM     28  C   UNL     1      36.806 -42.576 203.517  1.00  0.00     0.180 A 
ATOM     29  C   UNL     1      37.338 -41.511 205.625  1.00  0.00     0.239 A 
ATOM     30  O   UNL     1      35.764 -41.755 203.399  1.00  0.00    -0.452 OA
ATOM     31  C   UNL     1      36.167 -40.735 205.492  1.00  0.00     0.111 A 
ATOM     32  O   UNL     1      38.065 -41.417 206.655  1.00  0.00    -0.285 OA
ATOM     33  C   UNL     1      35.430 -40.851 204.304  1.00  0.00     0.146 A 
ATOM     34  C   UNL     1      35.699 -39.860 206.509  1.00  0.00     0.134 A 
ATOM     35  C   UNL     1      34.308 -40.046 204.078  1.00  0.00     0.094 A 
ATOM     36  C   UNL     1      34.559 -39.080 206.285  1.00  0.00     0.093 A 
ATOM     37  C   UNL     1      33.879 -39.152 205.060  1.00  0.00     0.123 A 
BRANCH  28  38
ATOM     38  C   UNL     1      36.839 -43.696 202.560  1.00  0.00     0.025 A 
ATOM     39  C   UNL     1      37.753 -43.677 201.490  1.00  0.00     0.062 A 
ATOM     40  C   UNL     1      35.826 -44.658 202.563  1.00  0.00     0.016 A 
ATOM     41  C   UNL     1      37.654 -44.613 200.448  1.00  0.00     0.158 A 
ATOM     42  C   UNL     1      35.728 -45.601 201.539  1.00  0.00     0.051 A 
ATOM     43  C   UNL     1      36.635 -45.576 200.479  1.00  0.00     0.157 A 
BRANCH  41  44
ATOM     44  O   UNL     1      38.547 -44.570 199.377  1.00  0.00    -0.504 OA
ATOM     45  H   UNL     1      38.546 -43.797 198.726  1.00  0.00     0.293 HD
ENDBRANCH  41  44
BRANCH  43  46
ATOM     46  O   UNL     1      36.483 -46.503 199.450  1.00  0.00    -0.504 OA
ATOM     47  H   UNL     1      35.609 -46.600 198.933  1.00  0.00     0.293 HD
ENDBRANCH  43  46
ENDBRANCH  28  38
BRANCH  34  48
ATOM     48  O   UNL     1      36.310 -39.817 207.762  1.00  0.00    -0.507 OA
ATOM     49  H   UNL     1      37.121 -40.383 207.990  1.00  0.00     0.293 HD
ENDBRANCH  34  48
BRANCH  37  50
ATOM     50  O   UNL     1      32.791 -38.319 204.798  1.00  0.00    -0.508 OA
ATOM     51  H   UNL     1      32.926 -37.341 204.563  1.00  0.00     0.293 HD
ENDBRANCH  37  50
ENDBRANCH  26  27
ENDBRANCH   5  26
BRANCH   4  52
ATOM     52  O   UNL     1      38.203 -44.441 207.393  1.00  0.00    -0.384 OA
ATOM     53  H   UNL     1      37.300 -44.443 207.814  1.00  0.00     0.211 HD
ENDBRANCH   4  52
TORSDOF 16
ENDMDL
MODEL 8
REMARK VINA RESULT:    -4.457     10.948     14.097
REMARK INTER + INTRA:         -11.441
REMARK INTER:                  -7.287
REMARK INTRA:                  -4.155
REMARK UNBOUND:                -4.118
REMARK SMILES C[C@H]1O[C@@H](OC[C@H]2O[C@@H](Oc3c(-c4ccc(O)c(O)c4)oc4cc(O)cc(O)c4c3=O)[C@H](O)[C@@H](O)[C@@H]2O)[C@@H](O)[C@@H](O)[C@H]1O
REMARK SMILES IDX 7 1 36 2 34 3 32 4 9 5 8 6 6 7 5 8 4 9 1 10 2 11 42 12 3 13
REMARK SMILES IDX 40 14 38 15 43 16 41 18 39 20 37 22 35 24 10 26 11 27 12 28
REMARK SMILES IDX 30 29 21 30 29 31 31 32 22 33 27 34 23 35 26 36 24 37 13 38
REMARK SMILES IDX 20 39 14 40 18 41 15 42 16 43 19 44 17 46 28 48 25 50 33 52
REMARK H PARENT 43 17 41 19 39 21 37 23 35 25 19 45 17 47 28 49 25 51 33 53
REMARK Flexibility Score: inf
ROOT
ATOM      1  C   UNL     1      36.372 -42.884 205.430  1.00  0.00     0.180 C 
ATOM      2  C   UNL     1      37.374 -41.814 205.983  1.00  0.00     0.177 C 
ATOM      3  C   UNL     1      38.855 -42.209 205.710  1.00  0.00     0.180 C 
ATOM      4  C   UNL     1      39.157 -43.676 206.114  1.00  0.00     0.214 C 
ATOM      5  C   UNL     1      37.886 -44.551 206.131  1.00  0.00     0.339 C 
ATOM      6  O   UNL     1      37.001 -44.112 205.122  1.00  0.00    -0.332 OA
ENDROOT
BRANCH   1   7
ATOM      7  C   UNL     1      35.646 -42.391 204.150  1.00  0.00     0.198 C 
BRANCH   7   8
ATOM      8  O   UNL     1      36.541 -41.972 203.126  1.00  0.00    -0.347 OA
BRANCH   8   9
ATOM      9  C   UNL     1      36.465 -42.718 201.904  1.00  0.00     0.281 C 
ATOM     10  C   UNL     1      34.181 -45.301 200.630  1.00  0.00     0.041 C 
ATOM     11  C   UNL     1      35.348 -44.318 200.624  1.00  0.00     0.150 C 
ATOM     12  C   UNL     1      36.648 -44.996 200.129  1.00  0.00     0.174 C 
ATOM     13  O   UNL     1      35.539 -43.801 201.934  1.00  0.00    -0.344 OA
ATOM     14  C   UNL     1      37.788 -43.957 200.155  1.00  0.00     0.179 C 
ATOM     15  C   UNL     1      37.866 -43.246 201.528  1.00  0.00     0.202 C 
BRANCH  12  16
ATOM     16  O   UNL     1      36.976 -46.092 200.957  1.00  0.00    -0.388 OA
ATOM     17  H   UNL     1      36.205 -46.722 200.937  1.00  0.00     0.211 HD
ENDBRANCH  12  16
BRANCH  14  18
ATOM     18  O   UNL     1      39.010 -44.586 199.853  1.00  0.00    -0.387 OA
ATOM     19  H   UNL     1      39.590 -43.901 199.424  1.00  0.00     0.211 HD
ENDBRANCH  14  18
BRANCH  15  20
ATOM     20  O   UNL     1      38.409 -44.115 202.506  1.00  0.00    -0.385 OA
ATOM     21  H   UNL     1      37.784 -44.187 203.269  1.00  0.00     0.211 HD
ENDBRANCH  15  20
ENDBRANCH   8   9
ENDBRANCH   7   8
ENDBRANCH   1   7
BRANCH   2  22
ATOM     22  O   UNL     1      37.157 -41.694 207.370  1.00  0.00    -0.387 OA
ATOM     23  H   UNL     1      36.491 -42.382 207.619  1.00  0.00     0.211 HD
ENDBRANCH   2  22
BRANCH   3  24
ATOM     24  O   UNL     1      39.208 -41.983 204.362  1.00  0.00    -0.387 OA
ATOM     25  H   UNL     1      39.603 -42.826 204.023  1.00  0.00     0.211 HD
ENDBRANCH   3  24
BRANCH   5  26
ATOM     26  O   UNL     1      38.265 -45.878 205.793  1.00  0.00    -0.454 OA
BRANCH  26  27
ATOM     27  C   UNL     1      37.489 -46.993 205.423  1.00  0.00     0.214 A 
ATOM     28  C   UNL     1      36.468 -47.605 206.203  1.00  0.00     0.180 A 
ATOM     29  C   UNL     1      37.751 -47.531 204.152  1.00  0.00     0.239 A 
ATOM     30  O   UNL     1      35.952 -48.765 205.804  1.00  0.00    -0.452 OA
ATOM     31  C   UNL     1      37.100 -48.713 203.739  1.00  0.00     0.111 A 
ATOM     32  O   UNL     1      38.572 -46.944 203.392  1.00  0.00    -0.285 OA
ATOM     33  C   UNL     1      36.235 -49.342 204.648  1.00  0.00     0.146 A 
ATOM     34  C   UNL     1      37.270 -49.279 202.448  1.00  0.00     0.134 A 
ATOM     35  C   UNL     1      35.626 -50.560 204.329  1.00  0.00     0.094 A 
ATOM     36  C   UNL     1      36.634 -50.484 202.128  1.00  0.00     0.093 A 
ATOM     37  C   UNL     1      35.835 -51.139 203.076  1.00  0.00     0.123 A 
BRANCH  28  38
ATOM     38  C   UNL     1      35.812 -46.990 207.372  1.00  0.00     0.025 A 
ATOM     39  C   UNL     1      34.727 -46.114 207.186  1.00  0.00     0.062 A 
ATOM     40  C   UNL     1      36.397 -47.079 208.638  1.00  0.00     0.016 A 
ATOM     41  C   UNL     1      34.235 -45.348 208.255  1.00  0.00     0.158 A 
ATOM     42  C   UNL     1      35.905 -46.333 209.709  1.00  0.00     0.051 A 
ATOM     43  C   UNL     1      34.832 -45.463 209.520  1.00  0.00     0.157 A 
BRANCH  41  44
ATOM     44  O   UNL     1      33.177 -44.461 208.058  1.00  0.00    -0.504 OA
ATOM     45  H   UNL     1      32.919 -44.152 207.130  1.00  0.00     0.293 HD
ENDBRANCH  41  44
BRANCH  43  46
ATOM     46  O   UNL     1      34.393 -44.700 210.600  1.00  0.00    -0.504 OA
ATOM     47  H   UNL     1      33.421 -44.405 210.694  1.00  0.00     0.293 HD
ENDBRANCH  43  46
ENDBRANCH  28  38
BRANCH  34  48
ATOM     48  O   UNL     1      38.000 -48.620 201.460  1.00  0.00    -0.507 OA
ATOM     49  H   UNL     1      38.611 -47.836 201.669  1.00  0.00     0.293 HD
ENDBRANCH  34  48
BRANCH  37  50
ATOM     50  O   UNL     1      35.263 -52.380 202.793  1.00  0.00    -0.508 OA
ATOM     51  H   UNL     1      34.507 -52.749 203.361  1.00  0.00     0.293 HD
ENDBRANCH  37  50
ENDBRANCH  26  27
ENDBRANCH   5  26
BRANCH   4  52
ATOM     52  O   UNL     1      39.803 -43.749 207.364  1.00  0.00    -0.384 OA
ATOM     53  H   UNL     1      39.991 -44.707 207.560  1.00  0.00     0.211 HD
ENDBRANCH   4  52
TORSDOF 16
ENDMDL
MODEL 9
REMARK VINA RESULT:    -4.395     11.225     14.319
REMARK INTER + INTRA:         -11.339
REMARK INTER:                  -7.325
REMARK INTRA:                  -4.015
REMARK UNBOUND:                -4.118
REMARK SMILES C[C@H]1O[C@@H](OC[C@H]2O[C@@H](Oc3c(-c4ccc(O)c(O)c4)oc4cc(O)cc(O)c4c3=O)[C@H](O)[C@@H](O)[C@@H]2O)[C@@H](O)[C@@H](O)[C@H]1O
REMARK SMILES IDX 7 1 36 2 34 3 32 4 9 5 8 6 6 7 5 8 4 9 1 10 2 11 42 12 3 13
REMARK SMILES IDX 40 14 38 15 43 16 41 18 39 20 37 22 35 24 10 26 11 27 12 28
REMARK SMILES IDX 30 29 21 30 29 31 31 32 22 33 27 34 23 35 26 36 24 37 13 38
REMARK SMILES IDX 20 39 14 40 18 41 15 42 16 43 19 44 17 46 28 48 25 50 33 52
REMARK H PARENT 43 17 41 19 39 21 37 23 35 25 19 45 17 47 28 49 25 51 33 53
REMARK Flexibility Score: inf
ROOT
ATOM      1  C   UNL     1      36.457 -44.312 202.011  1.00  0.00     0.180 C 
ATOM      2  C   UNL     1      37.556 -43.750 201.044  1.00  0.00     0.177 C 
ATOM      3  C   UNL     1      38.993 -44.073 201.549  1.00  0.00     0.180 C 
ATOM      4  C   UNL     1      39.181 -43.723 203.048  1.00  0.00     0.214 C 
ATOM      5  C   UNL     1      37.844 -43.701 203.817  1.00  0.00     0.339 C 
ATOM      6  O   UNL     1      36.976 -44.674 203.274  1.00  0.00    -0.332 OA
ENDROOT
BRANCH   1   7
ATOM      7  C   UNL     1      35.746 -45.557 201.417  1.00  0.00     0.198 C 
BRANCH   7   8
ATOM      8  O   UNL     1      36.651 -46.571 200.997  1.00  0.00    -0.347 OA
BRANCH   8   9
ATOM      9  C   UNL     1      36.526 -47.825 201.679  1.00  0.00     0.281 C 
ATOM     10  C   UNL     1      33.997 -49.265 203.926  1.00  0.00     0.041 C 
ATOM     11  C   UNL     1      35.269 -49.200 203.085  1.00  0.00     0.150 C 
ATOM     12  C   UNL     1      36.497 -49.693 203.889  1.00  0.00     0.174 C 
ATOM     13  O   UNL     1      35.480 -47.865 202.647  1.00  0.00    -0.344 OA
ATOM     14  C   UNL     1      37.748 -49.593 202.992  1.00  0.00     0.179 C 
ATOM     15  C   UNL     1      37.866 -48.189 202.350  1.00  0.00     0.202 C 
BRANCH  12  16
ATOM     16  O   UNL     1      36.672 -48.905 205.049  1.00  0.00    -0.388 OA
ATOM     17  H   UNL     1      35.800 -48.882 205.528  1.00  0.00     0.211 HD
ENDBRANCH  12  16
BRANCH  14  18
ATOM     18  O   UNL     1      38.897 -49.893 203.746  1.00  0.00    -0.387 OA
ATOM     19  H   UNL     1      38.817 -49.400 204.606  1.00  0.00     0.211 HD
ENDBRANCH  14  18
BRANCH  15  20
ATOM     20  O   UNL     1      38.277 -47.237 203.316  1.00  0.00    -0.385 OA
ATOM     21  H   UNL     1      39.260 -47.268 203.414  1.00  0.00     0.211 HD
ENDBRANCH  15  20
ENDBRANCH   8   9
ENDBRANCH   7   8
ENDBRANCH   1   7
BRANCH   2  22
ATOM     22  O   UNL     1      37.380 -42.355 200.953  1.00  0.00    -0.387 OA
ATOM     23  H   UNL     1      36.849 -42.079 201.741  1.00  0.00     0.211 HD
ENDBRANCH   2  22
BRANCH   3  24
ATOM     24  O   UNL     1      39.332 -45.421 201.307  1.00  0.00    -0.387 OA
ATOM     25  H   UNL     1      38.742 -45.974 201.880  1.00  0.00     0.211 HD
ENDBRANCH   3  24
BRANCH   5  26
ATOM     26  O   UNL     1      38.105 -44.091 205.158  1.00  0.00    -0.454 OA
BRANCH  26  27
ATOM     27  C   UNL     1      37.229 -44.413 206.213  1.00  0.00     0.214 A 
ATOM     28  C   UNL     1      36.248 -43.556 206.785  1.00  0.00     0.180 A 
ATOM     29  C   UNL     1      37.337 -45.717 206.727  1.00  0.00     0.239 A 
ATOM     30  O   UNL     1      35.625 -43.932 207.900  1.00  0.00    -0.452 OA
ATOM     31  C   UNL     1      36.578 -46.095 207.853  1.00  0.00     0.111 A 
ATOM     32  O   UNL     1      38.120 -46.536 206.167  1.00  0.00    -0.285 OA
ATOM     33  C   UNL     1      35.763 -45.124 208.456  1.00  0.00     0.146 A 
ATOM     34  C   UNL     1      36.590 -47.411 208.389  1.00  0.00     0.134 A 
ATOM     35  C   UNL     1      35.052 -45.415 209.625  1.00  0.00     0.094 A 
ATOM     36  C   UNL     1      35.853 -47.698 209.543  1.00  0.00     0.093 A 
ATOM     37  C   UNL     1      35.105 -46.696 210.177  1.00  0.00     0.123 A 
BRANCH  28  38
ATOM     38  C   UNL     1      35.745 -42.315 206.168  1.00  0.00     0.025 A 
ATOM     39  C   UNL     1      36.249 -41.070 206.587  1.00  0.00     0.062 A 
ATOM     40  C   UNL     1      34.615 -42.343 205.348  1.00  0.00     0.016 A 
ATOM     41  C   UNL     1      35.632 -39.876 206.180  1.00  0.00     0.158 A 
ATOM     42  C   UNL     1      34.004 -41.161 204.927  1.00  0.00     0.051 A 
ATOM     43  C   UNL     1      34.505 -39.929 205.347  1.00  0.00     0.157 A 
BRANCH  41  44
ATOM     44  O   UNL     1      36.121 -38.645 206.621  1.00  0.00    -0.504 OA
ATOM     45  H   UNL     1      37.112 -38.488 206.741  1.00  0.00     0.293 HD
ENDBRANCH  41  44
BRANCH  43  46
ATOM     46  O   UNL     1      33.846 -38.769 204.945  1.00  0.00    -0.504 OA
ATOM     47  H   UNL     1      32.839 -38.653 205.055  1.00  0.00     0.293 HD
ENDBRANCH  43  46
ENDBRANCH  28  38
BRANCH  34  48
ATOM     48  O   UNL     1      37.266 -48.446 207.745  1.00  0.00    -0.507 OA
ATOM     49  H   UNL     1      36.975 -48.804 206.840  1.00  0.00     0.293 HD
ENDBRANCH  34  48
BRANCH  37  50
ATOM     50  O   UNL     1      34.433 -46.954 211.372  1.00  0.00    -0.508 OA
ATOM     51  H   UNL     1      34.624 -47.794 211.908  1.00  0.00     0.293 HD
ENDBRANCH  37  50
ENDBRANCH  26  27
ENDBRANCH   5  26
BRANCH   4  52
ATOM     52  O   UNL     1      39.848 -42.493 203.215  1.00  0.00    -0.384 OA
ATOM     53  H   UNL     1      40.727 -42.673 203.647  1.00  0.00     0.211 HD
ENDBRANCH   4  52
TORSDOF 16
ENDMDL
