MODEL 1
REMARK VINA RESULT:    -6.513      0.000      0.000
REMARK INTER + INTRA:          -7.666
REMARK INTER:                  -7.464
REMARK INTRA:                  -0.202
REMARK UNBOUND:                -0.202
REMARK SMILES O=C([O-])C=Cc1ccc(O)cc1
REMARK SMILES IDX 6 1 7 2 12 3 8 4 11 5 9 6 5 7 4 8 2 9 1 10 3 11 10 12
REMARK H PARENT 10 13
REMARK Flexibility Score: inf
ROOT
ATOM      1  C   UNL     1      11.332   8.325  29.158  1.00  0.00    -0.025 A 
ATOM      2  C   UNL     1      11.272   7.804  27.858  1.00  0.00     0.012 A 
ATOM      3  C   UNL     1      12.538   8.242  29.878  1.00  0.00     0.012 A 
ATOM      4  C   UNL     1      12.384   7.163  27.302  1.00  0.00     0.047 A 
ATOM      5  C   UNL     1      13.648   7.601  29.320  1.00  0.00     0.047 A 
ATOM      6  C   UNL     1      13.572   7.056  28.031  1.00  0.00     0.115 A 
ENDROOT
BRANCH   1   7
ATOM      7  C   UNL     1      10.162   9.044  29.705  1.00  0.00     0.010 C 
ATOM      8  C   UNL     1      10.029  10.378  29.771  1.00  0.00     0.025 C 
BRANCH   8   9
ATOM      9  C   UNL     1      11.086  11.365  29.480  1.00  0.00     0.064 C 
ATOM     10  O   UNL     1      11.366  11.703  28.299  1.00  0.00    -0.545 OA
ATOM     11  O   UNL     1      11.835  11.884  30.528  1.00  0.00    -0.545 OA
ENDBRANCH   8   9
ENDBRANCH   1   7
BRANCH   6  12
ATOM     12  O   UNL     1      14.671   6.413  27.466  1.00  0.00    -0.508 OA
ATOM     13  H   UNL     1      14.600   5.922  26.582  1.00  0.00     0.293 HD
ENDBRANCH   6  12
TORSDOF 3
ENDMDL
MODEL 2
REMARK VINA RESULT:    -6.475      1.418      4.535
REMARK INTER + INTRA:          -7.624
REMARK INTER:                  -7.486
REMARK INTRA:                  -0.138
REMARK UNBOUND:                -0.202
REMARK SMILES O=C([O-])C=Cc1ccc(O)cc1
REMARK SMILES IDX 6 1 7 2 12 3 8 4 11 5 9 6 5 7 4 8 2 9 1 10 3 11 10 12
REMARK H PARENT 10 13
REMARK Flexibility Score: inf
ROOT
ATOM      1  C   UNL     1      11.303   9.161  28.900  1.00  0.00    -0.025 A 
ATOM      2  C   UNL     1      11.047  10.467  28.458  1.00  0.00     0.012 A 
ATOM      3  C   UNL     1      11.697   8.950  30.233  1.00  0.00     0.012 A 
ATOM      4  C   UNL     1      11.232  11.553  29.320  1.00  0.00     0.047 A 
ATOM      5  C   UNL     1      11.882  10.037  31.094  1.00  0.00     0.047 A 
ATOM      6  C   UNL     1      11.653  11.342  30.637  1.00  0.00     0.115 A 
ENDROOT
BRANCH   1   7
ATOM      7  C   UNL     1      11.050   8.026  27.988  1.00  0.00     0.010 C 
ATOM      8  C   UNL     1      11.959   7.112  27.612  1.00  0.00     0.025 C 
BRANCH   8   9
ATOM      9  C   UNL     1      13.406   7.170  27.890  1.00  0.00     0.064 C 
ATOM     10  O   UNL     1      14.168   7.954  27.264  1.00  0.00    -0.545 OA
ATOM     11  O   UNL     1      13.954   6.291  28.816  1.00  0.00    -0.545 OA
ENDBRANCH   8   9
ENDBRANCH   1   7
BRANCH   6  12
ATOM     12  O   UNL     1      11.835  12.433  31.484  1.00  0.00    -0.508 OA
ATOM     13  H   UNL     1      12.644  12.504  32.090  1.00  0.00     0.293 HD
ENDBRANCH   6  12
TORSDOF 3
ENDMDL
MODEL 3
REMARK VINA RESULT:    -6.334      1.956      5.156
REMARK INTER + INTRA:          -7.462
REMARK INTER:                  -7.461
REMARK INTRA:                  -0.001
REMARK UNBOUND:                -0.202
REMARK SMILES O=C([O-])C=Cc1ccc(O)cc1
REMARK SMILES IDX 6 1 7 2 12 3 8 4 11 5 9 6 5 7 4 8 2 9 1 10 3 11 10 12
REMARK H PARENT 10 13
REMARK Flexibility Score: inf
ROOT
ATOM      1  C   UNL     1      12.305   8.198  28.359  1.00  0.00    -0.025 A 
ATOM      2  C   UNL     1      12.449   8.998  29.503  1.00  0.00     0.012 A 
ATOM      3  C   UNL     1      11.021   7.987  27.825  1.00  0.00     0.012 A 
ATOM      4  C   UNL     1      11.324   9.534  30.135  1.00  0.00     0.047 A 
ATOM      5  C   UNL     1       9.897   8.525  28.460  1.00  0.00     0.047 A 
ATOM      6  C   UNL     1      10.046   9.298  29.619  1.00  0.00     0.115 A 
ENDROOT
BRANCH   1   7
ATOM      7  C   UNL     1      13.511   7.685  27.677  1.00  0.00     0.010 C 
ATOM      8  C   UNL     1      14.045   6.466  27.853  1.00  0.00     0.025 C 
BRANCH   8   9
ATOM      9  C   UNL     1      13.640   5.487  28.880  1.00  0.00     0.064 C 
ATOM     10  O   UNL     1      13.391   5.837  30.064  1.00  0.00    -0.545 OA
ATOM     11  O   UNL     1      13.599   4.138  28.550  1.00  0.00    -0.545 OA
ENDBRANCH   8   9
ENDBRANCH   1   7
BRANCH   6  12
ATOM     12  O   UNL     1       8.933   9.838  30.261  1.00  0.00    -0.508 OA
ATOM     13  H   UNL     1       8.277   9.253  30.765  1.00  0.00     0.293 HD
ENDBRANCH   6  12
TORSDOF 3
ENDMDL
MODEL 4
REMARK VINA RESULT:    -5.897      1.986      4.855
REMARK INTER + INTRA:          -6.961
REMARK INTER:                  -6.916
REMARK INTRA:                  -0.045
REMARK UNBOUND:                -0.202
REMARK SMILES O=C([O-])C=Cc1ccc(O)cc1
REMARK SMILES IDX 6 1 7 2 12 3 8 4 11 5 9 6 5 7 4 8 2 9 1 10 3 11 10 12
REMARK H PARENT 10 13
REMARK Flexibility Score: inf
ROOT
ATOM      1  C   UNL     1      12.019   9.627  29.346  1.00  0.00    -0.025 A 
ATOM      2  C   UNL     1      11.452  10.646  28.568  1.00  0.00     0.012 A 
ATOM      3  C   UNL     1      11.224   8.963  30.297  1.00  0.00     0.012 A 
ATOM      4  C   UNL     1      10.124  11.034  28.773  1.00  0.00     0.047 A 
ATOM      5  C   UNL     1       9.896   9.353  30.500  1.00  0.00     0.047 A 
ATOM      6  C   UNL     1       9.344  10.393  29.740  1.00  0.00     0.115 A 
ENDROOT
BRANCH   1   7
ATOM      7  C   UNL     1      13.408   9.198  29.077  1.00  0.00     0.010 C 
ATOM      8  C   UNL     1      13.766   8.062  28.457  1.00  0.00     0.025 C 
BRANCH   8   9
ATOM      9  C   UNL     1      12.860   6.956  28.094  1.00  0.00     0.064 C 
ATOM     10  O   UNL     1      13.050   5.783  28.514  1.00  0.00    -0.545 OA
ATOM     11  O   UNL     1      11.815   7.198  27.213  1.00  0.00    -0.545 OA
ENDBRANCH   8   9
ENDBRANCH   1   7
BRANCH   6  12
ATOM     12  O   UNL     1       8.023  10.791  29.934  1.00  0.00    -0.508 OA
ATOM     13  H   UNL     1       7.248  10.251  29.567  1.00  0.00     0.293 HD
ENDBRANCH   6  12
TORSDOF 3
ENDMDL
MODEL 5
REMARK VINA RESULT:    -5.726      1.542      1.922
REMARK INTER + INTRA:          -6.765
REMARK INTER:                  -6.568
REMARK INTRA:                  -0.197
REMARK UNBOUND:                -0.202
REMARK SMILES O=C([O-])C=Cc1ccc(O)cc1
REMARK SMILES IDX 6 1 7 2 12 3 8 4 11 5 9 6 5 7 4 8 2 9 1 10 3 11 10 12
REMARK H PARENT 10 13
REMARK Flexibility Score: inf
ROOT
ATOM      1  C   UNL     1      13.279   8.710  29.551  1.00  0.00    -0.025 A 
ATOM      2  C   UNL     1      13.796   9.041  28.290  1.00  0.00     0.012 A 
ATOM      3  C   UNL     1      13.202   7.358  29.930  1.00  0.00     0.012 A 
ATOM      4  C   UNL     1      14.182   8.035  27.399  1.00  0.00     0.047 A 
ATOM      5  C   UNL     1      13.588   6.353  29.037  1.00  0.00     0.047 A 
ATOM      6  C   UNL     1      14.076   6.690  27.767  1.00  0.00     0.115 A 
ENDROOT
BRANCH   1   7
ATOM      7  C   UNL     1      12.927   9.791  30.496  1.00  0.00     0.010 C 
ATOM      8  C   UNL     1      11.816  10.542  30.441  1.00  0.00     0.025 C 
BRANCH   8   9
ATOM      9  C   UNL     1      10.836  10.553  29.338  1.00  0.00     0.064 C 
ATOM     10  O   UNL     1      10.950  11.343  28.363  1.00  0.00    -0.545 OA
ATOM     11  O   UNL     1       9.726   9.722  29.410  1.00  0.00    -0.545 OA
ENDBRANCH   8   9
ENDBRANCH   1   7
BRANCH   6  12
ATOM     12  O   UNL     1      14.462   5.698  26.868  1.00  0.00    -0.508 OA
ATOM     13  H   UNL     1      14.700   5.918  25.908  1.00  0.00     0.293 HD
ENDBRANCH   6  12
TORSDOF 3
ENDMDL
MODEL 6
REMARK VINA RESULT:    -5.255      1.754      4.850
REMARK INTER + INTRA:          -6.225
REMARK INTER:                  -6.444
REMARK INTRA:                   0.218
REMARK UNBOUND:                -0.202
REMARK SMILES O=C([O-])C=Cc1ccc(O)cc1
REMARK SMILES IDX 6 1 7 2 12 3 8 4 11 5 9 6 5 7 4 8 2 9 1 10 3 11 10 12
REMARK H PARENT 10 13
REMARK Flexibility Score: inf
ROOT
ATOM      1  C   UNL     1      11.320   8.490  28.138  1.00  0.00    -0.025 A 
ATOM      2  C   UNL     1      11.877   9.594  28.800  1.00  0.00     0.012 A 
ATOM      3  C   UNL     1       9.921   8.355  28.085  1.00  0.00     0.012 A 
ATOM      4  C   UNL     1      11.053  10.520  29.446  1.00  0.00     0.047 A 
ATOM      5  C   UNL     1       9.098   9.282  28.732  1.00  0.00     0.047 A 
ATOM      6  C   UNL     1       9.664  10.366  29.417  1.00  0.00     0.115 A 
ENDROOT
BRANCH   1   7
ATOM      7  C   UNL     1      12.207   7.552  27.418  1.00  0.00     0.010 C 
ATOM      8  C   UNL     1      13.095   6.725  27.992  1.00  0.00     0.025 C 
BRANCH   8   9
ATOM      9  C   UNL     1      13.477   6.724  29.417  1.00  0.00     0.064 C 
ATOM     10  O   UNL     1      14.043   7.716  29.949  1.00  0.00    -0.545 OA
ATOM     11  O   UNL     1      13.270   5.578  30.173  1.00  0.00    -0.545 OA
ENDBRANCH   8   9
ENDBRANCH   1   7
BRANCH   6  12
ATOM     12  O   UNL     1       8.855  11.297  30.066  1.00  0.00    -0.508 OA
ATOM     13  H   UNL     1       9.251  12.056  30.608  1.00  0.00     0.293 HD
ENDBRANCH   6  12
TORSDOF 3
ENDMDL
MODEL 7
REMARK VINA RESULT:    -4.900      2.288      4.336
REMARK INTER + INTRA:          -5.818
REMARK INTER:                  -6.219
REMARK INTRA:                   0.401
REMARK UNBOUND:                -0.202
REMARK SMILES O=C([O-])C=Cc1ccc(O)cc1
REMARK SMILES IDX 6 1 7 2 12 3 8 4 11 5 9 6 5 7 4 8 2 9 1 10 3 11 10 12
REMARK H PARENT 10 13
REMARK Flexibility Score: inf
ROOT
ATOM      1  C   UNL     1      12.406   9.328  29.121  1.00  0.00    -0.025 A 
ATOM      2  C   UNL     1      11.621  10.401  28.675  1.00  0.00     0.012 A 
ATOM      3  C   UNL     1      12.955   9.368  30.415  1.00  0.00     0.012 A 
ATOM      4  C   UNL     1      11.430  11.521  29.489  1.00  0.00     0.047 A 
ATOM      5  C   UNL     1      12.762  10.490  31.227  1.00  0.00     0.047 A 
ATOM      6  C   UNL     1      12.001  11.572  30.764  1.00  0.00     0.115 A 
ENDROOT
BRANCH   1   7
ATOM      7  C   UNL     1      12.552   8.132  28.265  1.00  0.00     0.010 C 
ATOM      8  C   UNL     1      11.580   7.587  27.516  1.00  0.00     0.025 C 
BRANCH   8   9
ATOM      9  C   UNL     1      10.155   7.965  27.545  1.00  0.00     0.064 C 
ATOM     10  O   UNL     1       9.552   8.346  26.506  1.00  0.00    -0.545 OA
ATOM     11  O   UNL     1       9.479   7.967  28.758  1.00  0.00    -0.545 OA
ENDBRANCH   8   9
ENDBRANCH   1   7
BRANCH   6  12
ATOM     12  O   UNL     1      11.803  12.695  31.564  1.00  0.00    -0.508 OA
ATOM     13  H   UNL     1      11.029  12.751  32.216  1.00  0.00     0.293 HD
ENDBRANCH   6  12
TORSDOF 3
ENDMDL
MODEL 8
REMARK VINA RESULT:    -4.408      1.880      2.685
REMARK INTER + INTRA:          -5.254
REMARK INTER:                  -5.685
REMARK INTRA:                   0.431
REMARK UNBOUND:                -0.202
REMARK SMILES O=C([O-])C=Cc1ccc(O)cc1
REMARK SMILES IDX 6 1 7 2 12 3 8 4 11 5 9 6 5 7 4 8 2 9 1 10 3 11 10 12
REMARK H PARENT 10 13
REMARK Flexibility Score: inf
ROOT
ATOM      1  C   UNL     1      11.971   8.715  29.445  1.00  0.00    -0.025 A 
ATOM      2  C   UNL     1      12.655   7.945  28.493  1.00  0.00     0.012 A 
ATOM      3  C   UNL     1      10.585   8.905  29.309  1.00  0.00     0.012 A 
ATOM      4  C   UNL     1      11.974   7.416  27.393  1.00  0.00     0.047 A 
ATOM      5  C   UNL     1       9.905   8.375  28.208  1.00  0.00     0.047 A 
ATOM      6  C   UNL     1      10.600   7.632  27.244  1.00  0.00     0.115 A 
ENDROOT
BRANCH   1   7
ATOM      7  C   UNL     1      12.701   9.221  30.627  1.00  0.00     0.010 C 
ATOM      8  C   UNL     1      12.571  10.448  31.156  1.00  0.00     0.025 C 
BRANCH   8   9
ATOM      9  C   UNL     1      11.822  11.569  30.559  1.00  0.00     0.064 C 
ATOM     10  O   UNL     1      11.051  12.288  31.249  1.00  0.00    -0.545 OA
ATOM     11  O   UNL     1      11.916  11.796  29.192  1.00  0.00    -0.545 OA
ENDBRANCH   8   9
ENDBRANCH   1   7
BRANCH   6  12
ATOM     12  O   UNL     1       9.935   7.099  26.142  1.00  0.00    -0.508 OA
ATOM     13  H   UNL     1      10.367   7.073  25.225  1.00  0.00     0.293 HD
ENDBRANCH   6  12
TORSDOF 3
ENDMDL
MODEL 9
REMARK VINA RESULT:    -4.306     10.768     12.431
REMARK INTER + INTRA:          -5.138
REMARK INTER:                  -5.094
REMARK INTRA:                  -0.044
REMARK UNBOUND:                -0.202
REMARK SMILES O=C([O-])C=Cc1ccc(O)cc1
REMARK SMILES IDX 6 1 7 2 12 3 8 4 11 5 9 6 5 7 4 8 2 9 1 10 3 11 10 12
REMARK H PARENT 10 13
REMARK Flexibility Score: inf
ROOT
ATOM      1  C   UNL     1      15.193  20.031  25.919  1.00  0.00    -0.025 A 
ATOM      2  C   UNL     1      14.994  18.918  26.749  1.00  0.00     0.012 A 
ATOM      3  C   UNL     1      16.501  20.378  25.536  1.00  0.00     0.012 A 
ATOM      4  C   UNL     1      16.087  18.193  27.232  1.00  0.00     0.047 A 
ATOM      5  C   UNL     1      17.593  19.651  26.021  1.00  0.00     0.047 A 
ATOM      6  C   UNL     1      17.388  18.558  26.874  1.00  0.00     0.115 A 
ENDROOT
BRANCH   1   7
ATOM      7  C   UNL     1      14.021  20.751  25.379  1.00  0.00     0.010 C 
ATOM      8  C   UNL     1      13.624  21.979  25.746  1.00  0.00     0.025 C 
BRANCH   8   9
ATOM      9  C   UNL     1      14.168  22.760  26.873  1.00  0.00     0.064 C 
ATOM     10  O   UNL     1      14.394  22.231  27.994  1.00  0.00    -0.545 OA
ATOM     11  O   UNL     1      14.372  24.125  26.715  1.00  0.00    -0.545 OA
ENDBRANCH   8   9
ENDBRANCH   1   7
BRANCH   6  12
ATOM     12  O   UNL     1      18.468  17.827  27.364  1.00  0.00    -0.508 OA
ATOM     13  H   UNL     1      19.250  18.281  27.822  1.00  0.00     0.293 HD
ENDBRANCH   6  12
TORSDOF 3
ENDMDL
