MODEL 1
REMARK VINA RESULT:    -5.482      0.000      0.000
REMARK INTER + INTRA:          -6.681
REMARK INTER:                  -6.443
REMARK INTRA:                  -0.238
REMARK UNBOUND:                -0.238
REMARK SMILES O=c1c(O)c(-c2ccc(O)cc2)oc2cc(O)cc(O)c12
REMARK SMILES IDX 5 1 3 2 2 3 1 4 21 5 19 6 18 7 16 8 15 9 14 10 13 11 6 12
REMARK SMILES IDX 7 13 8 14 9 15 12 16 11 17 10 18 4 20 20 22 17 24
REMARK H PARENT 10 19 4 21 20 23 17 25
REMARK Flexibility Score: inf
ROOT
ATOM      1  C   UNL     1      -5.851  -8.527   9.364  1.00  0.00     0.180 A 
ATOM      2  C   UNL     1      -6.006  -9.379   8.257  1.00  0.00     0.208 A 
ATOM      3  C   UNL     1      -7.292  -9.831   7.921  1.00  0.00     0.238 A 
ATOM      4  O   UNL     1      -7.431 -10.551   6.898  1.00  0.00    -0.285 OA
ATOM      5  C   UNL     1      -8.404  -9.438   8.703  1.00  0.00     0.111 A 
ATOM      6  C   UNL     1      -9.747  -9.867   8.478  1.00  0.00     0.134 A 
ATOM      7  C   UNL     1     -10.786  -9.312   9.233  1.00  0.00     0.093 A 
ATOM      8  C   UNL     1     -10.526  -8.391  10.249  1.00  0.00     0.123 A 
ATOM      9  C   UNL     1      -9.211  -8.009  10.518  1.00  0.00     0.094 A 
ATOM     10  C   UNL     1      -8.157  -8.519   9.756  1.00  0.00     0.146 A 
ATOM     11  O   UNL     1      -6.921  -8.122  10.037  1.00  0.00    -0.452 OA
ENDROOT
BRANCH   1  12
ATOM     12  C   UNL     1      -4.524  -8.028   9.795  1.00  0.00     0.021 A 
ATOM     13  C   UNL     1      -4.199  -6.674   9.606  1.00  0.00     0.016 A 
ATOM     14  C   UNL     1      -2.961  -6.179  10.027  1.00  0.00     0.047 A 
ATOM     15  C   UNL     1      -2.040  -7.026  10.656  1.00  0.00     0.115 A 
ATOM     16  C   UNL     1      -3.602  -8.869  10.446  1.00  0.00     0.016 A 
ATOM     17  C   UNL     1      -2.366  -8.369  10.866  1.00  0.00     0.047 A 
BRANCH  15  18
ATOM     18  O   UNL     1      -0.803  -6.543  11.079  1.00  0.00    -0.508 OA
ATOM     19  H   UNL     1       0.063  -6.909  10.703  1.00  0.00     0.293 HD
ENDBRANCH  15  18
ENDBRANCH   1  12
BRANCH   2  20
ATOM     20  O   UNL     1      -4.897  -9.738   7.486  1.00  0.00    -0.502 OA
ATOM     21  H   UNL     1      -4.899  -9.685   6.474  1.00  0.00     0.293 HD
ENDBRANCH   2  20
BRANCH   6  22
ATOM     22  O   UNL     1     -10.106 -10.849   7.550  1.00  0.00    -0.507 OA
ATOM     23  H   UNL     1     -10.144 -11.839   7.746  1.00  0.00     0.293 HD
ENDBRANCH   6  22
BRANCH   8  24
ATOM     24  O   UNL     1     -11.583  -7.871  10.991  1.00  0.00    -0.508 OA
ATOM     25  H   UNL     1     -12.513  -7.779  10.596  1.00  0.00     0.293 HD
ENDBRANCH   8  24
TORSDOF 5
ENDMDL
MODEL 2
REMARK VINA RESULT:    -5.370      2.033      6.777
REMARK INTER + INTRA:          -6.549
REMARK INTER:                  -6.263
REMARK INTRA:                  -0.286
REMARK UNBOUND:                -0.238
REMARK SMILES O=c1c(O)c(-c2ccc(O)cc2)oc2cc(O)cc(O)c12
REMARK SMILES IDX 5 1 3 2 2 3 1 4 21 5 19 6 18 7 16 8 15 9 14 10 13 11 6 12
REMARK SMILES IDX 7 13 8 14 9 15 12 16 11 17 10 18 4 20 20 22 17 24
REMARK H PARENT 10 19 4 21 20 23 17 25
REMARK Flexibility Score: inf
ROOT
ATOM      1  C   UNL     1      -5.537  -9.410   7.972  1.00  0.00     0.180 A 
ATOM      2  C   UNL     1      -4.824 -10.277   7.127  1.00  0.00     0.208 A 
ATOM      3  C   UNL     1      -3.423 -10.304   7.206  1.00  0.00     0.238 A 
ATOM      4  O   UNL     1      -2.793 -11.121   6.484  1.00  0.00    -0.285 OA
ATOM      5  C   UNL     1      -2.751  -9.454   8.116  1.00  0.00     0.111 A 
ATOM      6  C   UNL     1      -1.333  -9.369   8.252  1.00  0.00     0.134 A 
ATOM      7  C   UNL     1      -0.782  -8.589   9.275  1.00  0.00     0.093 A 
ATOM      8  C   UNL     1      -1.594  -7.840  10.127  1.00  0.00     0.123 A 
ATOM      9  C   UNL     1      -2.980  -7.868   9.965  1.00  0.00     0.094 A 
ATOM     10  C   UNL     1      -3.560  -8.666   8.976  1.00  0.00     0.146 A 
ATOM     11  O   UNL     1      -4.883  -8.673   8.862  1.00  0.00    -0.452 OA
ENDROOT
BRANCH   1  12
ATOM     12  C   UNL     1      -7.015  -9.307   7.931  1.00  0.00     0.021 A 
ATOM     13  C   UNL     1      -7.619  -8.365   7.081  1.00  0.00     0.016 A 
ATOM     14  C   UNL     1      -9.012  -8.268   7.010  1.00  0.00     0.047 A 
ATOM     15  C   UNL     1      -9.818  -9.121   7.775  1.00  0.00     0.115 A 
ATOM     16  C   UNL     1      -7.831 -10.174   8.681  1.00  0.00     0.016 A 
ATOM     17  C   UNL     1      -9.223 -10.074   8.606  1.00  0.00     0.047 A 
BRANCH  15  18
ATOM     18  O   UNL     1     -11.207  -9.032   7.712  1.00  0.00    -0.508 OA
ATOM     19  H   UNL     1     -11.681  -8.748   6.863  1.00  0.00     0.293 HD
ENDBRANCH  15  18
ENDBRANCH   1  12
BRANCH   2  20
ATOM     20  O   UNL     1      -5.508 -11.125   6.251  1.00  0.00    -0.502 OA
ATOM     21  H   UNL     1      -6.263 -10.800   5.658  1.00  0.00     0.293 HD
ENDBRANCH   2  20
BRANCH   6  22
ATOM     22  O   UNL     1      -0.428 -10.005   7.397  1.00  0.00    -0.507 OA
ATOM     23  H   UNL     1       0.382 -10.525   7.700  1.00  0.00     0.293 HD
ENDBRANCH   6  22
BRANCH   8  24
ATOM     24  O   UNL     1      -1.011  -7.063  11.124  1.00  0.00    -0.508 OA
ATOM     25  H   UNL     1      -1.036  -7.344  12.099  1.00  0.00     0.293 HD
ENDBRANCH   8  24
TORSDOF 5
ENDMDL
MODEL 3
REMARK VINA RESULT:    -5.264      2.014      2.520
REMARK INTER + INTRA:          -6.425
REMARK INTER:                  -6.300
REMARK INTRA:                  -0.126
REMARK UNBOUND:                -0.238
REMARK SMILES O=c1c(O)c(-c2ccc(O)cc2)oc2cc(O)cc(O)c12
REMARK SMILES IDX 5 1 3 2 2 3 1 4 21 5 19 6 18 7 16 8 15 9 14 10 13 11 6 12
REMARK SMILES IDX 7 13 8 14 9 15 12 16 11 17 10 18 4 20 20 22 17 24
REMARK H PARENT 10 19 4 21 20 23 17 25
REMARK Flexibility Score: inf
ROOT
ATOM      1  C   UNL     1      -4.935  -8.259   9.325  1.00  0.00     0.180 A 
ATOM      2  C   UNL     1      -5.132  -9.297  10.252  1.00  0.00     0.208 A 
ATOM      3  C   UNL     1      -6.359  -9.979  10.259  1.00  0.00     0.238 A 
ATOM      4  O   UNL     1      -6.510 -10.942  11.055  1.00  0.00    -0.285 OA
ATOM      5  C   UNL     1      -7.379  -9.605   9.351  1.00  0.00     0.111 A 
ATOM      6  C   UNL     1      -8.675 -10.200   9.296  1.00  0.00     0.134 A 
ATOM      7  C   UNL     1      -9.558  -9.841   8.272  1.00  0.00     0.093 A 
ATOM      8  C   UNL     1      -9.218  -8.861   7.339  1.00  0.00     0.123 A 
ATOM      9  C   UNL     1      -7.976  -8.229   7.419  1.00  0.00     0.094 A 
ATOM     10  C   UNL     1      -7.060  -8.593   8.408  1.00  0.00     0.146 A 
ATOM     11  O   UNL     1      -5.885  -7.975   8.443  1.00  0.00    -0.452 OA
ENDROOT
BRANCH   1  12
ATOM     12  C   UNL     1      -3.678  -7.477   9.273  1.00  0.00     0.021 A 
ATOM     13  C   UNL     1      -3.693  -6.117   9.628  1.00  0.00     0.016 A 
ATOM     14  C   UNL     1      -2.513  -5.368   9.607  1.00  0.00     0.047 A 
ATOM     15  C   UNL     1      -1.302  -5.971   9.248  1.00  0.00     0.115 A 
ATOM     16  C   UNL     1      -2.453  -8.081   8.933  1.00  0.00     0.016 A 
ATOM     17  C   UNL     1      -1.275  -7.328   8.915  1.00  0.00     0.047 A 
BRANCH  15  18
ATOM     18  O   UNL     1      -0.119  -5.233   9.224  1.00  0.00    -0.508 OA
ATOM     19  H   UNL     1       0.737  -5.593   9.629  1.00  0.00     0.293 HD
ENDBRANCH  15  18
ENDBRANCH   1  12
BRANCH   2  20
ATOM     20  O   UNL     1      -4.104  -9.664  11.125  1.00  0.00    -0.502 OA
ATOM     21  H   UNL     1      -3.533  -8.983  11.611  1.00  0.00     0.293 HD
ENDBRANCH   2  20
BRANCH   6  22
ATOM     22  O   UNL     1      -9.149 -11.123  10.234  1.00  0.00    -0.507 OA
ATOM     23  H   UNL     1      -9.833 -10.918  10.947  1.00  0.00     0.293 HD
ENDBRANCH   6  22
BRANCH   8  24
ATOM     24  O   UNL     1     -10.128  -8.517   6.342  1.00  0.00    -0.508 OA
ATOM     25  H   UNL     1     -10.623  -7.631   6.359  1.00  0.00     0.293 HD
ENDBRANCH   8  24
TORSDOF 5
ENDMDL
MODEL 4
REMARK VINA RESULT:    -5.200      2.644      7.514
REMARK INTER + INTRA:          -6.350
REMARK INTER:                  -6.075
REMARK INTRA:                  -0.275
REMARK UNBOUND:                -0.238
REMARK SMILES O=c1c(O)c(-c2ccc(O)cc2)oc2cc(O)cc(O)c12
REMARK SMILES IDX 5 1 3 2 2 3 1 4 21 5 19 6 18 7 16 8 15 9 14 10 13 11 6 12
REMARK SMILES IDX 7 13 8 14 9 15 12 16 11 17 10 18 4 20 20 22 17 24
REMARK H PARENT 10 19 4 21 20 23 17 25
REMARK Flexibility Score: inf
ROOT
ATOM      1  C   UNL     1      -4.912  -9.507   8.403  1.00  0.00     0.180 A 
ATOM      2  C   UNL     1      -4.389  -8.748   9.463  1.00  0.00     0.208 A 
ATOM      3  C   UNL     1      -2.997  -8.593   9.568  1.00  0.00     0.238 A 
ATOM      4  O   UNL     1      -2.537  -7.869  10.489  1.00  0.00    -0.285 OA
ATOM      5  C   UNL     1      -2.146  -9.211   8.621  1.00  0.00     0.111 A 
ATOM      6  C   UNL     1      -0.720  -9.154   8.653  1.00  0.00     0.134 A 
ATOM      7  C   UNL     1       0.017  -9.693   7.592  1.00  0.00     0.093 A 
ATOM      8  C   UNL     1      -0.616 -10.343   6.532  1.00  0.00     0.123 A 
ATOM      9  C   UNL     1      -2.006 -10.457   6.521  1.00  0.00     0.094 A 
ATOM     10  C   UNL     1      -2.771  -9.898   7.547  1.00  0.00     0.146 A 
ATOM     11  O   UNL     1      -4.092 -10.018   7.493  1.00  0.00    -0.452 OA
ENDROOT
BRANCH   1  12
ATOM     12  C   UNL     1      -6.366  -9.735   8.240  1.00  0.00     0.021 A 
ATOM     13  C   UNL     1      -7.147  -8.777   7.571  1.00  0.00     0.016 A 
ATOM     14  C   UNL     1      -8.517  -8.984   7.386  1.00  0.00     0.047 A 
ATOM     15  C   UNL     1      -9.121 -10.158   7.853  1.00  0.00     0.115 A 
ATOM     16  C   UNL     1      -6.976 -10.922   8.688  1.00  0.00     0.016 A 
ATOM     17  C   UNL     1      -8.347 -11.125   8.501  1.00  0.00     0.047 A 
BRANCH  15  18
ATOM     18  O   UNL     1     -10.486 -10.375   7.675  1.00  0.00    -0.508 OA
ATOM     19  H   UNL     1     -10.992 -11.047   8.238  1.00  0.00     0.293 HD
ENDBRANCH  15  18
ENDBRANCH   1  12
BRANCH   2  20
ATOM     20  O   UNL     1      -5.248  -8.128  10.375  1.00  0.00    -0.502 OA
ATOM     21  H   UNL     1      -6.193  -8.453  10.539  1.00  0.00     0.293 HD
ENDBRANCH   2  20
BRANCH   6  22
ATOM     22  O   UNL     1       0.015  -8.609   9.710  1.00  0.00    -0.507 OA
ATOM     23  H   UNL     1       0.651  -7.829   9.626  1.00  0.00     0.293 HD
ENDBRANCH   6  22
BRANCH   8  24
ATOM     24  O   UNL     1       0.151 -10.881   5.501  1.00  0.00    -0.508 OA
ATOM     25  H   UNL     1      -0.277 -11.378   4.727  1.00  0.00     0.293 HD
ENDBRANCH   8  24
TORSDOF 5
ENDMDL
MODEL 5
REMARK VINA RESULT:    -5.008      3.720      8.671
REMARK INTER + INTRA:          -6.124
REMARK INTER:                  -5.839
REMARK INTRA:                  -0.286
REMARK UNBOUND:                -0.238
REMARK SMILES O=c1c(O)c(-c2ccc(O)cc2)oc2cc(O)cc(O)c12
REMARK SMILES IDX 5 1 3 2 2 3 1 4 21 5 19 6 18 7 16 8 15 9 14 10 13 11 6 12
REMARK SMILES IDX 7 13 8 14 9 15 12 16 11 17 10 18 4 20 20 22 17 24
REMARK H PARENT 10 19 4 21 20 23 17 25
REMARK Flexibility Score: inf
ROOT
ATOM      1  C   UNL     1      -1.485  -9.070   8.685  1.00  0.00     0.180 A 
ATOM      2  C   UNL     1      -0.626  -9.815   9.510  1.00  0.00     0.208 A 
ATOM      3  C   UNL     1       0.569  -9.228   9.956  1.00  0.00     0.238 A 
ATOM      4  O   UNL     1       1.309  -9.880  10.738  1.00  0.00    -0.285 OA
ATOM      5  C   UNL     1       0.896  -7.909   9.560  1.00  0.00     0.111 A 
ATOM      6  C   UNL     1       2.098  -7.228   9.919  1.00  0.00     0.134 A 
ATOM      7  C   UNL     1       2.258  -5.880   9.579  1.00  0.00     0.093 A 
ATOM      8  C   UNL     1       1.288  -5.205   8.837  1.00  0.00     0.123 A 
ATOM      9  C   UNL     1       0.136  -5.878   8.428  1.00  0.00     0.094 A 
ATOM     10  C   UNL     1      -0.067  -7.213   8.784  1.00  0.00     0.146 A 
ATOM     11  O   UNL     1      -1.183  -7.813   8.385  1.00  0.00    -0.452 OA
ENDROOT
BRANCH   1  12
ATOM     12  C   UNL     1      -2.750  -9.630   8.155  1.00  0.00     0.021 A 
ATOM     13  C   UNL     1      -3.967  -9.297   8.774  1.00  0.00     0.016 A 
ATOM     14  C   UNL     1      -5.174  -9.796   8.275  1.00  0.00     0.047 A 
ATOM     15  C   UNL     1      -5.181 -10.621   7.144  1.00  0.00     0.115 A 
ATOM     16  C   UNL     1      -2.767 -10.444   7.007  1.00  0.00     0.016 A 
ATOM     17  C   UNL     1      -3.977 -10.940   6.512  1.00  0.00     0.047 A 
BRANCH  15  18
ATOM     18  O   UNL     1      -6.379 -11.125   6.639  1.00  0.00    -0.508 OA
ATOM     19  H   UNL     1      -7.229 -11.118   7.189  1.00  0.00     0.293 HD
ENDBRANCH  15  18
ENDBRANCH   1  12
BRANCH   2  20
ATOM     20  O   UNL     1      -0.978 -11.108   9.908  1.00  0.00    -0.502 OA
ATOM     21  H   UNL     1      -1.075 -11.370  10.882  1.00  0.00     0.293 HD
ENDBRANCH   2  20
BRANCH   6  22
ATOM     22  O   UNL     1       3.170  -7.835  10.581  1.00  0.00    -0.507 OA
ATOM     23  H   UNL     1       3.696  -8.620  10.225  1.00  0.00     0.293 HD
ENDBRANCH   6  22
BRANCH   8  24
ATOM     24  O   UNL     1       1.487  -3.868   8.502  1.00  0.00    -0.508 OA
ATOM     25  H   UNL     1       1.186  -3.118   9.115  1.00  0.00     0.293 HD
ENDBRANCH   8  24
TORSDOF 5
ENDMDL
MODEL 6
REMARK VINA RESULT:    -4.922      1.647      6.625
REMARK INTER + INTRA:          -6.023
REMARK INTER:                  -5.746
REMARK INTRA:                  -0.277
REMARK UNBOUND:                -0.238
REMARK SMILES O=c1c(O)c(-c2ccc(O)cc2)oc2cc(O)cc(O)c12
REMARK SMILES IDX 5 1 3 2 2 3 1 4 21 5 19 6 18 7 16 8 15 9 14 10 13 11 6 12
REMARK SMILES IDX 7 13 8 14 9 15 12 16 11 17 10 18 4 20 20 22 17 24
REMARK H PARENT 10 19 4 21 20 23 17 25
REMARK Flexibility Score: inf
ROOT
ATOM      1  C   UNL     1      -6.657  -8.700   9.179  1.00  0.00     0.180 A 
ATOM      2  C   UNL     1      -5.938  -9.901   9.300  1.00  0.00     0.208 A 
ATOM      3  C   UNL     1      -4.540  -9.848   9.423  1.00  0.00     0.238 A 
ATOM      4  O   UNL     1      -3.906 -10.923   9.585  1.00  0.00    -0.285 OA
ATOM      5  C   UNL     1      -3.879  -8.596   9.409  1.00  0.00     0.111 A 
ATOM      6  C   UNL     1      -2.464  -8.426   9.487  1.00  0.00     0.134 A 
ATOM      7  C   UNL     1      -1.928  -7.137   9.596  1.00  0.00     0.093 A 
ATOM      8  C   UNL     1      -2.750  -6.010   9.564  1.00  0.00     0.123 A 
ATOM      9  C   UNL     1      -4.130  -6.163   9.428  1.00  0.00     0.094 A 
ATOM     10  C   UNL     1      -4.697  -7.438   9.354  1.00  0.00     0.146 A 
ATOM     11  O   UNL     1      -6.016  -7.540   9.236  1.00  0.00    -0.452 OA
ENDROOT
BRANCH   1  12
ATOM     12  C   UNL     1      -8.130  -8.677   9.020  1.00  0.00     0.021 A 
ATOM     13  C   UNL     1      -8.692  -8.873   7.747  1.00  0.00     0.016 A 
ATOM     14  C   UNL     1     -10.080  -8.877   7.580  1.00  0.00     0.047 A 
ATOM     15  C   UNL     1     -10.923  -8.702   8.684  1.00  0.00     0.115 A 
ATOM     16  C   UNL     1      -8.984  -8.521  10.128  1.00  0.00     0.016 A 
ATOM     17  C   UNL     1     -10.372  -8.527   9.956  1.00  0.00     0.047 A 
BRANCH  15  18
ATOM     18  O   UNL     1     -12.308  -8.704   8.528  1.00  0.00    -0.508 OA
ATOM     19  H   UNL     1     -12.745  -9.053   7.684  1.00  0.00     0.293 HD
ENDBRANCH  15  18
ENDBRANCH   1  12
BRANCH   2  20
ATOM     20  O   UNL     1      -6.612 -11.125   9.334  1.00  0.00    -0.502 OA
ATOM     21  H   UNL     1      -6.933 -11.545  10.198  1.00  0.00     0.293 HD
ENDBRANCH   2  20
BRANCH   6  22
ATOM     22  O   UNL     1      -1.547  -9.480   9.434  1.00  0.00    -0.507 OA
ATOM     23  H   UNL     1      -1.731 -10.419   9.756  1.00  0.00     0.293 HD
ENDBRANCH   6  22
BRANCH   8  24
ATOM     24  O   UNL     1      -2.181  -4.743   9.659  1.00  0.00    -0.508 OA
ATOM     25  H   UNL     1      -2.494  -4.072  10.353  1.00  0.00     0.293 HD
ENDBRANCH   8  24
TORSDOF 5
ENDMDL
MODEL 7
REMARK VINA RESULT:    -4.825      2.441      7.788
REMARK INTER + INTRA:          -5.910
REMARK INTER:                  -5.652
REMARK INTRA:                  -0.257
REMARK UNBOUND:                -0.238
REMARK SMILES O=c1c(O)c(-c2ccc(O)cc2)oc2cc(O)cc(O)c12
REMARK SMILES IDX 5 1 3 2 2 3 1 4 21 5 19 6 18 7 16 8 15 9 14 10 13 11 6 12
REMARK SMILES IDX 7 13 8 14 9 15 12 16 11 17 10 18 4 20 20 22 17 24
REMARK H PARENT 10 19 4 21 20 23 17 25
REMARK Flexibility Score: inf
ROOT
ATOM      1  C   UNL     1      -3.953  -8.937   8.917  1.00  0.00     0.180 A 
ATOM      2  C   UNL     1      -3.749  -7.741   9.626  1.00  0.00     0.208 A 
ATOM      3  C   UNL     1      -2.438  -7.279   9.819  1.00  0.00     0.238 A 
ATOM      4  O   UNL     1      -2.265  -6.180  10.409  1.00  0.00    -0.285 OA
ATOM      5  C   UNL     1      -1.346  -8.025   9.314  1.00  0.00     0.111 A 
ATOM      6  C   UNL     1       0.026  -7.671   9.485  1.00  0.00     0.134 A 
ATOM      7  C   UNL     1       1.018  -8.412   8.831  1.00  0.00     0.093 A 
ATOM      8  C   UNL     1       0.692  -9.531   8.065  1.00  0.00     0.123 A 
ATOM      9  C   UNL     1      -0.642  -9.922   7.940  1.00  0.00     0.094 A 
ATOM     10  C   UNL     1      -1.656  -9.181   8.551  1.00  0.00     0.146 A 
ATOM     11  O   UNL     1      -2.913  -9.579   8.398  1.00  0.00    -0.452 OA
ENDROOT
BRANCH   1  12
ATOM     12  C   UNL     1      -5.304  -9.501   8.694  1.00  0.00     0.021 A 
ATOM     13  C   UNL     1      -6.103  -8.994   7.655  1.00  0.00     0.016 A 
ATOM     14  C   UNL     1      -7.372  -9.528   7.414  1.00  0.00     0.047 A 
ATOM     15  C   UNL     1      -7.852 -10.585   8.197  1.00  0.00     0.115 A 
ATOM     16  C   UNL     1      -5.785 -10.577   9.464  1.00  0.00     0.016 A 
ATOM     17  C   UNL     1      -7.055 -11.108   9.218  1.00  0.00     0.047 A 
BRANCH  15  18
ATOM     18  O   UNL     1      -9.116 -11.125   7.965  1.00  0.00    -0.508 OA
ATOM     19  H   UNL     1      -9.768 -11.290   8.723  1.00  0.00     0.293 HD
ENDBRANCH  15  18
ENDBRANCH   1  12
BRANCH   2  20
ATOM     20  O   UNL     1      -4.843  -7.009  10.098  1.00  0.00    -0.502 OA
ATOM     21  H   UNL     1      -4.976  -6.803  11.081  1.00  0.00     0.293 HD
ENDBRANCH   2  20
BRANCH   6  22
ATOM     22  O   UNL     1       0.467  -6.626  10.303  1.00  0.00    -0.507 OA
ATOM     23  H   UNL     1       1.404  -6.535  10.665  1.00  0.00     0.293 HD
ENDBRANCH   6  22
BRANCH   8  24
ATOM     24  O   UNL     1       1.706 -10.254   7.441  1.00  0.00    -0.508 OA
ATOM     25  H   UNL     1       1.827 -10.237   6.434  1.00  0.00     0.293 HD
ENDBRANCH   8  24
TORSDOF 5
ENDMDL
MODEL 8
REMARK VINA RESULT:    -4.778     18.148     19.318
REMARK INTER + INTRA:          -5.853
REMARK INTER:                  -5.809
REMARK INTRA:                  -0.044
REMARK UNBOUND:                -0.238
REMARK SMILES O=c1c(O)c(-c2ccc(O)cc2)oc2cc(O)cc(O)c12
REMARK SMILES IDX 5 1 3 2 2 3 1 4 21 5 19 6 18 7 16 8 15 9 14 10 13 11 6 12
REMARK SMILES IDX 7 13 8 14 9 15 12 16 11 17 10 18 4 20 20 22 17 24
REMARK H PARENT 10 19 4 21 20 23 17 25
REMARK Flexibility Score: inf
ROOT
ATOM      1  C   UNL     1       2.328  -2.537  -5.457  1.00  0.00     0.180 A 
ATOM      2  C   UNL     1       1.153  -1.767  -5.456  1.00  0.00     0.208 A 
ATOM      3  C   UNL     1       1.163  -0.512  -4.826  1.00  0.00     0.238 A 
ATOM      4  O   UNL     1       0.123   0.196  -4.875  1.00  0.00    -0.285 OA
ATOM      5  C   UNL     1       2.342  -0.050  -4.195  1.00  0.00     0.111 A 
ATOM      6  C   UNL     1       2.454   1.189  -3.493  1.00  0.00     0.134 A 
ATOM      7  C   UNL     1       3.703   1.604  -3.019  1.00  0.00     0.093 A 
ATOM      8  C   UNL     1       4.833   0.798  -3.164  1.00  0.00     0.123 A 
ATOM      9  C   UNL     1       4.723  -0.442  -3.795  1.00  0.00     0.094 A 
ATOM     10  C   UNL     1       3.496  -0.867  -4.310  1.00  0.00     0.146 A 
ATOM     11  O   UNL     1       3.437  -2.048  -4.914  1.00  0.00    -0.452 OA
ENDROOT
BRANCH   1  12
ATOM     12  C   UNL     1       2.389  -3.881  -6.078  1.00  0.00     0.021 A 
ATOM     13  C   UNL     1       2.113  -4.023  -7.449  1.00  0.00     0.016 A 
ATOM     14  C   UNL     1       2.187  -5.278  -8.059  1.00  0.00     0.047 A 
ATOM     15  C   UNL     1       2.554  -6.404  -7.312  1.00  0.00     0.115 A 
ATOM     16  C   UNL     1       2.777  -5.013  -5.338  1.00  0.00     0.016 A 
ATOM     17  C   UNL     1       2.851  -6.267  -5.953  1.00  0.00     0.047 A 
BRANCH  15  18
ATOM     18  O   UNL     1       2.631  -7.661  -7.909  1.00  0.00    -0.508 OA
ATOM     19  H   UNL     1       3.454  -8.244  -7.811  1.00  0.00     0.293 HD
ENDBRANCH  15  18
ENDBRANCH   1  12
BRANCH   2  20
ATOM     20  O   UNL     1       0.006  -2.233  -6.105  1.00  0.00    -0.502 OA
ATOM     21  H   UNL     1      -0.794  -2.597  -5.600  1.00  0.00     0.293 HD
ENDBRANCH   2  20
BRANCH   6  22
ATOM     22  O   UNL     1       1.370   2.027  -3.213  1.00  0.00    -0.507 OA
ATOM     23  H   UNL     1       0.412   1.721  -3.131  1.00  0.00     0.293 HD
ENDBRANCH   6  22
BRANCH   8  24
ATOM     24  O   UNL     1       6.057   1.236  -2.666  1.00  0.00    -0.508 OA
ATOM     25  H   UNL     1       6.457   2.124  -2.949  1.00  0.00     0.293 HD
ENDBRANCH   8  24
TORSDOF 5
ENDMDL
MODEL 9
REMARK VINA RESULT:    -4.649     13.082     15.273
REMARK INTER + INTRA:          -5.702
REMARK INTER:                  -5.431
REMARK INTRA:                  -0.271
REMARK UNBOUND:                -0.238
REMARK SMILES O=c1c(O)c(-c2ccc(O)cc2)oc2cc(O)cc(O)c12
REMARK SMILES IDX 5 1 3 2 2 3 1 4 21 5 19 6 18 7 16 8 15 9 14 10 13 11 6 12
REMARK SMILES IDX 7 13 8 14 9 15 12 16 11 17 10 18 4 20 20 22 17 24
REMARK H PARENT 10 19 4 21 20 23 17 25
REMARK Flexibility Score: inf
ROOT
ATOM      1  C   UNL     1       5.352  -2.361   6.182  1.00  0.00     0.180 A 
ATOM      2  C   UNL     1       4.698  -2.542   7.412  1.00  0.00     0.208 A 
ATOM      3  C   UNL     1       4.627  -1.466   8.311  1.00  0.00     0.238 A 
ATOM      4  O   UNL     1       3.995  -1.619   9.388  1.00  0.00    -0.285 OA
ATOM      5  C   UNL     1       5.223  -0.227   7.974  1.00  0.00     0.111 A 
ATOM      6  C   UNL     1       5.246   0.920   8.825  1.00  0.00     0.134 A 
ATOM      7  C   UNL     1       5.748   2.132   8.337  1.00  0.00     0.093 A 
ATOM      8  C   UNL     1       6.287   2.224   7.054  1.00  0.00     0.123 A 
ATOM      9  C   UNL     1       6.324   1.094   6.235  1.00  0.00     0.094 A 
ATOM     10  C   UNL     1       5.798  -0.120   6.681  1.00  0.00     0.146 A 
ATOM     11  O   UNL     1       5.843  -1.168   5.867  1.00  0.00    -0.452 OA
ENDROOT
BRANCH   1  12
ATOM     12  C   UNL     1       5.489  -3.455   5.193  1.00  0.00     0.021 A 
ATOM     13  C   UNL     1       6.505  -4.413   5.357  1.00  0.00     0.016 A 
ATOM     14  C   UNL     1       6.638  -5.466   4.448  1.00  0.00     0.047 A 
ATOM     15  C   UNL     1       5.748  -5.586   3.374  1.00  0.00     0.115 A 
ATOM     16  C   UNL     1       4.586  -3.593   4.122  1.00  0.00     0.016 A 
ATOM     17  C   UNL     1       4.722  -4.650   3.216  1.00  0.00     0.047 A 
BRANCH  15  18
ATOM     18  O   UNL     1       5.871  -6.633   2.462  1.00  0.00    -0.508 OA
ATOM     19  H   UNL     1       5.554  -7.568   2.685  1.00  0.00     0.293 HD
ENDBRANCH  15  18
ENDBRANCH   1  12
BRANCH   2  20
ATOM     20  O   UNL     1       4.098  -3.768   7.715  1.00  0.00    -0.502 OA
ATOM     21  H   UNL     1       4.423  -4.644   7.324  1.00  0.00     0.293 HD
ENDBRANCH   2  20
BRANCH   6  22
ATOM     22  O   UNL     1       4.816   0.913  10.155  1.00  0.00    -0.507 OA
ATOM     23  H   UNL     1       4.200   1.600  10.564  1.00  0.00     0.293 HD
ENDBRANCH   6  22
BRANCH   8  24
ATOM     24  O   UNL     1       6.792   3.443   6.608  1.00  0.00    -0.508 OA
ATOM     25  H   UNL     1       7.518   3.935   7.119  1.00  0.00     0.293 HD
ENDBRANCH   8  24
TORSDOF 5
ENDMDL
