MODEL 1
REMARK VINA RESULT:    -5.254      0.000      0.000
REMARK INTER + INTRA:         -14.495
REMARK INTER:                 -11.398
REMARK INTRA:                  -3.097
REMARK UNBOUND:                -3.097
REMARK SMILES CCCCCCCCCCCCCCCCCCCCCC(=O)[O-]
REMARK SMILES IDX 12 1 11 2 10 3 9 4 8 5 7 6 6 7 5 8 4 9 3 10 2 11 1 12 13 13
REMARK SMILES IDX 14 14 15 15 16 16 17 17 18 18 19 19 20 20 21 21 22 22 23 23
REMARK SMILES IDX 24 24
REMARK H PARENT
REMARK Flexibility Score: inf
ROOT
ATOM      1  C   UNL     1      10.118   8.944  27.857  1.00  0.00     0.000 C 
ENDROOT
BRANCH   1   2
ATOM      2  C   UNL     1       9.661   9.701  29.118  1.00  0.00     0.000 C 
BRANCH   2   3
ATOM      3  C   UNL     1       9.131   8.766  30.217  1.00  0.00     0.000 C 
BRANCH   3   4
ATOM      4  C   UNL     1       8.918   9.483  31.561  1.00  0.00    -0.000 C 
BRANCH   4   5
ATOM      5  C   UNL     1       7.997  10.718  31.462  1.00  0.00    -0.000 C 
BRANCH   5   6
ATOM      6  C   UNL     1       6.993  10.783  32.626  1.00  0.00    -0.000 C 
BRANCH   6   7
ATOM      7  C   UNL     1       5.550  10.480  32.189  1.00  0.00    -0.000 C 
BRANCH   7   8
ATOM      8  C   UNL     1       5.354  10.285  30.671  1.00  0.00    -0.000 C 
BRANCH   8   9
ATOM      9  C   UNL     1       4.610   9.001  30.265  1.00  0.00    -0.000 C 
BRANCH   9  10
ATOM     10  C   UNL     1       5.298   8.249  29.113  1.00  0.00    -0.000 C 
BRANCH  10  11
ATOM     11  C   UNL     1       6.176   9.170  28.251  1.00  0.00    -0.003 C 
ATOM     12  C   UNL     1       5.387   9.892  27.159  1.00  0.00     0.004 C 
ENDBRANCH  10  11
ENDBRANCH   9  10
ENDBRANCH   8   9
ENDBRANCH   7   8
ENDBRANCH   6   7
ENDBRANCH   5   6
ENDBRANCH   4   5
ENDBRANCH   3   4
ENDBRANCH   2   3
ENDBRANCH   1   2
BRANCH   1  13
ATOM     13  C   UNL     1       9.452   9.404  26.547  1.00  0.00     0.000 C 
BRANCH  13  14
ATOM     14  C   UNL     1       9.916   8.596  25.322  1.00  0.00     0.000 C 
BRANCH  14  15
ATOM     15  C   UNL     1       9.180   7.243  25.206  1.00  0.00     0.000 C 
BRANCH  15  16
ATOM     16  C   UNL     1       7.651   7.358  25.327  1.00  0.00     0.000 C 
BRANCH  16  17
ATOM     17  C   UNL     1       6.961   5.991  25.447  1.00  0.00     0.000 C 
BRANCH  17  18
ATOM     18  C   UNL     1       6.527   5.659  26.887  1.00  0.00     0.000 C 
BRANCH  18  19
ATOM     19  C   UNL     1       7.668   5.573  27.920  1.00  0.00     0.000 C 
BRANCH  19  20
ATOM     20  C   UNL     1       8.321   4.185  28.070  1.00  0.00     0.006 C 
BRANCH  20  21
ATOM     21  C   UNL     1       9.530   3.959  27.143  1.00  0.00     0.053 C 
BRANCH  21  22
ATOM     22  C   UNL     1      10.831   3.979  27.885  1.00  0.00     0.041 C 
ATOM     23  O   UNL     1      11.561   2.953  27.913  1.00  0.00    -0.550 OA
ATOM     24  O   UNL     1      11.260   5.143  28.510  1.00  0.00    -0.550 OA
ENDBRANCH  21  22
ENDBRANCH  20  21
ENDBRANCH  19  20
ENDBRANCH  18  19
ENDBRANCH  17  18
ENDBRANCH  16  17
ENDBRANCH  15  16
ENDBRANCH  14  15
ENDBRANCH  13  14
ENDBRANCH   1  13
TORSDOF 20
ENDMDL
MODEL 2
REMARK VINA RESULT:    -5.145      2.567      4.942
REMARK INTER + INTRA:         -14.257
REMARK INTER:                 -10.565
REMARK INTRA:                  -3.692
REMARK UNBOUND:                -3.097
REMARK SMILES CCCCCCCCCCCCCCCCCCCCCC(=O)[O-]
REMARK SMILES IDX 12 1 11 2 10 3 9 4 8 5 7 6 6 7 5 8 4 9 3 10 2 11 1 12 13 13
REMARK SMILES IDX 14 14 15 15 16 16 17 17 18 18 19 19 20 20 21 21 22 22 23 23
REMARK SMILES IDX 24 24
REMARK H PARENT
REMARK Flexibility Score: inf
ROOT
ATOM      1  C   UNL     1       8.367  10.147  30.935  1.00  0.00     0.000 C 
ENDROOT
BRANCH   1   2
ATOM      2  C   UNL     1       7.056  10.258  31.737  1.00  0.00     0.000 C 
BRANCH   2   3
ATOM      3  C   UNL     1       5.847  10.614  30.857  1.00  0.00     0.000 C 
BRANCH   3   4
ATOM      4  C   UNL     1       4.732   9.556  30.919  1.00  0.00    -0.000 C 
BRANCH   4   5
ATOM      5  C   UNL     1       4.452   8.873  29.563  1.00  0.00    -0.000 C 
BRANCH   5   6
ATOM      6  C   UNL     1       5.140   9.603  28.397  1.00  0.00    -0.000 C 
BRANCH   6   7
ATOM      7  C   UNL     1       6.283   8.787  27.770  1.00  0.00    -0.000 C 
BRANCH   7   8
ATOM      8  C   UNL     1       6.157   7.257  27.931  1.00  0.00    -0.000 C 
BRANCH   8   9
ATOM      9  C   UNL     1       7.351   6.569  28.616  1.00  0.00    -0.000 C 
BRANCH   9  10
ATOM     10  C   UNL     1       7.958   5.438  27.769  1.00  0.00    -0.000 C 
BRANCH  10  11
ATOM     11  C   UNL     1       9.336   4.993  28.282  1.00  0.00    -0.003 C 
ATOM     12  C   UNL     1      10.238   4.456  27.170  1.00  0.00     0.004 C 
ENDBRANCH  10  11
ENDBRANCH   9  10
ENDBRANCH   8   9
ENDBRANCH   7   8
ENDBRANCH   6   7
ENDBRANCH   5   6
ENDBRANCH   4   5
ENDBRANCH   3   4
ENDBRANCH   2   3
ENDBRANCH   1   2
BRANCH   1  13
ATOM     13  C   UNL     1       8.443  11.047  29.688  1.00  0.00     0.000 C 
BRANCH  13  14
ATOM     14  C   UNL     1       9.519  10.592  28.685  1.00  0.00     0.000 C 
BRANCH  14  15
ATOM     15  C   UNL     1      10.185   9.266  29.111  1.00  0.00     0.000 C 
BRANCH  15  16
ATOM     16  C   UNL     1      10.633   8.390  27.928  1.00  0.00     0.000 C 
BRANCH  16  17
ATOM     17  C   UNL     1       9.733   8.557  26.693  1.00  0.00     0.000 C 
BRANCH  17  18
ATOM     18  C   UNL     1      10.433   8.161  25.379  1.00  0.00     0.000 C 
BRANCH  18  19
ATOM     19  C   UNL     1       9.496   7.889  24.185  1.00  0.00     0.000 C 
BRANCH  19  20
ATOM     20  C   UNL     1       8.233   7.068  24.509  1.00  0.00     0.006 C 
BRANCH  20  21
ATOM     21  C   UNL     1       8.154   5.723  23.764  1.00  0.00     0.053 C 
BRANCH  21  22
ATOM     22  C   UNL     1       7.999   5.897  22.284  1.00  0.00     0.041 C 
ATOM     23  O   UNL     1       8.827   5.370  21.494  1.00  0.00    -0.550 OA
ATOM     24  O   UNL     1       6.918   6.604  21.774  1.00  0.00    -0.550 OA
ENDBRANCH  21  22
ENDBRANCH  20  21
ENDBRANCH  19  20
ENDBRANCH  18  19
ENDBRANCH  17  18
ENDBRANCH  16  17
ENDBRANCH  15  16
ENDBRANCH  14  15
ENDBRANCH  13  14
ENDBRANCH   1  13
TORSDOF 20
ENDMDL
MODEL 3
REMARK VINA RESULT:    -5.141      2.672      4.668
REMARK INTER + INTRA:         -14.250
REMARK INTER:                 -10.967
REMARK INTRA:                  -3.283
REMARK UNBOUND:                -3.097
REMARK SMILES CCCCCCCCCCCCCCCCCCCCCC(=O)[O-]
REMARK SMILES IDX 12 1 11 2 10 3 9 4 8 5 7 6 6 7 5 8 4 9 3 10 2 11 1 12 13 13
REMARK SMILES IDX 14 14 15 15 16 16 17 17 18 18 19 19 20 20 21 21 22 22 23 23
REMARK SMILES IDX 24 24
REMARK H PARENT
REMARK Flexibility Score: inf
ROOT
ATOM      1  C   UNL     1       6.715   7.013  28.473  1.00  0.00     0.000 C 
ENDROOT
BRANCH   1   2
ATOM      2  C   UNL     1       6.311   8.276  27.688  1.00  0.00     0.000 C 
BRANCH   2   3
ATOM      3  C   UNL     1       5.159   9.048  28.352  1.00  0.00     0.000 C 
BRANCH   3   4
ATOM      4  C   UNL     1       4.973   8.685  29.835  1.00  0.00    -0.000 C 
BRANCH   4   5
ATOM      5  C   UNL     1       3.975   9.601  30.574  1.00  0.00    -0.000 C 
BRANCH   5   6
ATOM      6  C   UNL     1       4.631  10.331  31.759  1.00  0.00    -0.000 C 
BRANCH   6   7
ATOM      7  C   UNL     1       5.991  10.953  31.401  1.00  0.00    -0.000 C 
BRANCH   7   8
ATOM      8  C   UNL     1       7.185  10.434  32.228  1.00  0.00    -0.000 C 
BRANCH   8   9
ATOM      9  C   UNL     1       8.533  10.401  31.487  1.00  0.00    -0.000 C 
BRANCH   9  10
ATOM     10  C   UNL     1       8.380  10.495  29.960  1.00  0.00    -0.000 C 
BRANCH  10  11
ATOM     11  C   UNL     1       9.434   9.665  29.210  1.00  0.00    -0.003 C 
ATOM     12  C   UNL     1       9.826   8.390  29.956  1.00  0.00     0.004 C 
ENDBRANCH  10  11
ENDBRANCH   9  10
ENDBRANCH   8   9
ENDBRANCH   7   8
ENDBRANCH   6   7
ENDBRANCH   5   6
ENDBRANCH   4   5
ENDBRANCH   3   4
ENDBRANCH   2   3
ENDBRANCH   1   2
BRANCH   1  13
ATOM     13  C   UNL     1       6.948   5.759  27.610  1.00  0.00     0.000 C 
BRANCH  13  14
ATOM     14  C   UNL     1       8.131   4.905  28.100  1.00  0.00     0.000 C 
BRANCH  14  15
ATOM     15  C   UNL     1       9.295   4.890  27.086  1.00  0.00     0.000 C 
BRANCH  15  16
ATOM     16  C   UNL     1      10.473   5.797  27.482  1.00  0.00     0.000 C 
BRANCH  16  17
ATOM     17  C   UNL     1      10.780   6.867  26.423  1.00  0.00     0.000 C 
BRANCH  17  18
ATOM     18  C   UNL     1       9.548   7.711  26.045  1.00  0.00     0.000 C 
BRANCH  18  19
ATOM     19  C   UNL     1       9.122   7.635  24.565  1.00  0.00     0.000 C 
BRANCH  19  20
ATOM     20  C   UNL     1       7.912   6.727  24.270  1.00  0.00     0.006 C 
BRANCH  20  21
ATOM     21  C   UNL     1       7.280   6.956  22.885  1.00  0.00     0.053 C 
BRANCH  21  22
ATOM     22  C   UNL     1       7.667   5.900  21.897  1.00  0.00     0.041 C 
ATOM     23  O   UNL     1       8.507   5.015  22.210  1.00  0.00    -0.550 OA
ATOM     24  O   UNL     1       7.070   5.865  20.642  1.00  0.00    -0.550 OA
ENDBRANCH  21  22
ENDBRANCH  20  21
ENDBRANCH  19  20
ENDBRANCH  18  19
ENDBRANCH  17  18
ENDBRANCH  16  17
ENDBRANCH  15  16
ENDBRANCH  14  15
ENDBRANCH  13  14
ENDBRANCH   1  13
TORSDOF 20
ENDMDL
MODEL 4
REMARK VINA RESULT:    -5.034      1.307      4.220
REMARK INTER + INTRA:         -14.016
REMARK INTER:                 -11.370
REMARK INTRA:                  -2.647
REMARK UNBOUND:                -3.097
REMARK SMILES CCCCCCCCCCCCCCCCCCCCCC(=O)[O-]
REMARK SMILES IDX 12 1 11 2 10 3 9 4 8 5 7 6 6 7 5 8 4 9 3 10 2 11 1 12 13 13
REMARK SMILES IDX 14 14 15 15 16 16 17 17 18 18 19 19 20 20 21 21 22 22 23 23
REMARK SMILES IDX 24 24
REMARK H PARENT
REMARK Flexibility Score: inf
ROOT
ATOM      1  C   UNL     1       8.016  10.973  31.694  1.00  0.00     0.000 C 
ENDROOT
BRANCH   1   2
ATOM      2  C   UNL     1       6.594  11.070  31.110  1.00  0.00     0.000 C 
BRANCH   2   3
ATOM      3  C   UNL     1       5.547  10.332  31.961  1.00  0.00     0.000 C 
BRANCH   3   4
ATOM      4  C   UNL     1       4.232  10.081  31.204  1.00  0.00    -0.000 C 
BRANCH   4   5
ATOM      5  C   UNL     1       4.301   8.892  30.222  1.00  0.00    -0.000 C 
BRANCH   5   6
ATOM      6  C   UNL     1       4.083   9.334  28.765  1.00  0.00    -0.000 C 
BRANCH   6   7
ATOM      7  C   UNL     1       5.400   9.537  27.997  1.00  0.00    -0.000 C 
BRANCH   7   8
ATOM      8  C   UNL     1       6.211   8.250  27.739  1.00  0.00    -0.000 C 
BRANCH   8   9
ATOM      9  C   UNL     1       7.084   8.266  26.472  1.00  0.00    -0.000 C 
BRANCH   9  10
ATOM     10  C   UNL     1       7.308   6.865  25.881  1.00  0.00    -0.000 C 
BRANCH  10  11
ATOM     11  C   UNL     1       6.517   5.778  26.625  1.00  0.00    -0.003 C 
ATOM     12  C   UNL     1       7.402   4.904  27.515  1.00  0.00     0.004 C 
ENDBRANCH  10  11
ENDBRANCH   9  10
ENDBRANCH   8   9
ENDBRANCH   7   8
ENDBRANCH   6   7
ENDBRANCH   5   6
ENDBRANCH   4   5
ENDBRANCH   3   4
ENDBRANCH   2   3
ENDBRANCH   1   2
BRANCH   1  13
ATOM     13  C   UNL     1       8.691   9.598  31.532  1.00  0.00     0.000 C 
BRANCH  13  14
ATOM     14  C   UNL     1       8.625   9.064  30.090  1.00  0.00     0.000 C 
BRANCH  14  15
ATOM     15  C   UNL     1       9.359   9.988  29.094  1.00  0.00     0.000 C 
BRANCH  15  16
ATOM     16  C   UNL     1      10.215   9.231  28.064  1.00  0.00     0.000 C 
BRANCH  16  17
ATOM     17  C   UNL     1      10.841   7.952  28.639  1.00  0.00     0.000 C 
BRANCH  17  18
ATOM     18  C   UNL     1      10.509   6.695  27.813  1.00  0.00     0.000 C 
BRANCH  18  19
ATOM     19  C   UNL     1      11.698   6.061  27.063  1.00  0.00     0.000 C 
BRANCH  19  20
ATOM     20  C   UNL     1      12.604   5.147  27.911  1.00  0.00     0.006 C 
BRANCH  20  21
ATOM     21  C   UNL     1      12.431   3.646  27.613  1.00  0.00     0.053 C 
BRANCH  21  22
ATOM     22  C   UNL     1      11.101   3.123  28.062  1.00  0.00     0.041 C 
ATOM     23  O   UNL     1      10.225   2.806  27.214  1.00  0.00    -0.550 OA
ATOM     24  O   UNL     1      10.843   2.944  29.416  1.00  0.00    -0.550 OA
ENDBRANCH  21  22
ENDBRANCH  20  21
ENDBRANCH  19  20
ENDBRANCH  18  19
ENDBRANCH  17  18
ENDBRANCH  16  17
ENDBRANCH  15  16
ENDBRANCH  14  15
ENDBRANCH  13  14
ENDBRANCH   1  13
TORSDOF 20
ENDMDL
MODEL 5
REMARK VINA RESULT:    -4.964      1.908      6.009
REMARK INTER + INTRA:         -13.865
REMARK INTER:                 -10.896
REMARK INTRA:                  -2.970
REMARK UNBOUND:                -3.097
REMARK SMILES CCCCCCCCCCCCCCCCCCCCCC(=O)[O-]
REMARK SMILES IDX 12 1 11 2 10 3 9 4 8 5 7 6 6 7 5 8 4 9 3 10 2 11 1 12 13 13
REMARK SMILES IDX 14 14 15 15 16 16 17 17 18 18 19 19 20 20 21 21 22 22 23 23
REMARK SMILES IDX 24 24
REMARK H PARENT
REMARK Flexibility Score: inf
ROOT
ATOM      1  C   UNL     1       8.578  10.014  31.096  1.00  0.00     0.000 C 
ENDROOT
BRANCH   1   2
ATOM      2  C   UNL     1       8.761  10.940  29.879  1.00  0.00     0.000 C 
BRANCH   2   3
ATOM      3  C   UNL     1       9.576  10.287  28.750  1.00  0.00     0.000 C 
BRANCH   3   4
ATOM      4  C   UNL     1      10.262   8.982  29.186  1.00  0.00    -0.000 C 
BRANCH   4   5
ATOM      5  C   UNL     1      10.797   8.141  28.007  1.00  0.00    -0.000 C 
BRANCH   5   6
ATOM      6  C   UNL     1      11.270   6.749  28.459  1.00  0.00    -0.000 C 
BRANCH   6   7
ATOM      7  C   UNL     1      12.132   6.037  27.403  1.00  0.00    -0.000 C 
BRANCH   7   8
ATOM      8  C   UNL     1      12.140   4.497  27.496  1.00  0.00    -0.000 C 
BRANCH   8   9
ATOM      9  C   UNL     1      11.963   3.924  28.913  1.00  0.00    -0.000 C 
BRANCH   9  10
ATOM     10  C   UNL     1      10.642   3.157  29.089  1.00  0.00    -0.000 C 
BRANCH  10  11
ATOM     11  C   UNL     1       9.695   3.334  27.892  1.00  0.00    -0.003 C 
ATOM     12  C   UNL     1       8.413   4.084  28.255  1.00  0.00     0.004 C 
ENDBRANCH  10  11
ENDBRANCH   9  10
ENDBRANCH   8   9
ENDBRANCH   7   8
ENDBRANCH   6   7
ENDBRANCH   5   6
ENDBRANCH   4   5
ENDBRANCH   3   4
ENDBRANCH   2   3
ENDBRANCH   1   2
BRANCH   1  13
ATOM     13  C   UNL     1       7.475  10.446  32.081  1.00  0.00     0.000 C 
BRANCH  13  14
ATOM     14  C   UNL     1       6.272  11.106  31.382  1.00  0.00     0.000 C 
BRANCH  14  15
ATOM     15  C   UNL     1       4.944  10.395  31.717  1.00  0.00     0.000 C 
BRANCH  15  16
ATOM     16  C   UNL     1       4.554   9.302  30.707  1.00  0.00     0.000 C 
BRANCH  16  17
ATOM     17  C   UNL     1       5.228   9.493  29.339  1.00  0.00     0.000 C 
BRANCH  17  18
ATOM     18  C   UNL     1       5.438   8.168  28.581  1.00  0.00     0.000 C 
BRANCH  18  19
ATOM     19  C   UNL     1       6.908   7.754  28.364  1.00  0.00     0.000 C 
BRANCH  19  20
ATOM     20  C   UNL     1       7.401   7.806  26.905  1.00  0.00     0.006 C 
BRANCH  20  21
ATOM     21  C   UNL     1       6.924   6.625  26.041  1.00  0.00     0.053 C 
BRANCH  21  22
ATOM     22  C   UNL     1       7.970   6.165  25.072  1.00  0.00     0.041 C 
ATOM     23  O   UNL     1       7.674   5.972  23.863  1.00  0.00    -0.550 OA
ATOM     24  O   UNL     1       9.283   5.991  25.494  1.00  0.00    -0.550 OA
ENDBRANCH  21  22
ENDBRANCH  20  21
ENDBRANCH  19  20
ENDBRANCH  18  19
ENDBRANCH  17  18
ENDBRANCH  16  17
ENDBRANCH  15  16
ENDBRANCH  14  15
ENDBRANCH  13  14
ENDBRANCH   1  13
TORSDOF 20
ENDMDL
MODEL 6
REMARK VINA RESULT:    -4.913      2.323      4.979
REMARK INTER + INTRA:         -13.754
REMARK INTER:                 -10.481
REMARK INTRA:                  -3.273
REMARK UNBOUND:                -3.097
REMARK SMILES CCCCCCCCCCCCCCCCCCCCCC(=O)[O-]
REMARK SMILES IDX 12 1 11 2 10 3 9 4 8 5 7 6 6 7 5 8 4 9 3 10 2 11 1 12 13 13
REMARK SMILES IDX 14 14 15 15 16 16 17 17 18 18 19 19 20 20 21 21 22 22 23 23
REMARK SMILES IDX 24 24
REMARK H PARENT
REMARK Flexibility Score: inf
ROOT
ATOM      1  C   UNL     1       4.806   8.380  30.213  1.00  0.00     0.000 C 
ENDROOT
BRANCH   1   2
ATOM      2  C   UNL     1       4.093   9.635  30.750  1.00  0.00     0.000 C 
BRANCH   2   3
ATOM      3  C   UNL     1       4.943  10.417  31.765  1.00  0.00     0.000 C 
BRANCH   3   4
ATOM      4  C   UNL     1       6.147  11.123  31.117  1.00  0.00    -0.000 C 
BRANCH   4   5
ATOM      5  C   UNL     1       7.484  10.849  31.837  1.00  0.00    -0.000 C 
BRANCH   5   6
ATOM      6  C   UNL     1       8.607  10.487  30.850  1.00  0.00    -0.000 C 
BRANCH   6   7
ATOM      7  C   UNL     1       8.563   9.016  30.405  1.00  0.00    -0.000 C 
BRANCH   7   8
ATOM      8  C   UNL     1       9.880   8.472  29.814  1.00  0.00    -0.000 C 
BRANCH   8   9
ATOM      9  C   UNL     1       9.838   7.003  29.357  1.00  0.00    -0.000 C 
BRANCH   9  10
ATOM     10  C   UNL     1       8.478   6.597  28.766  1.00  0.00    -0.000 C 
BRANCH  10  11
ATOM     11  C   UNL     1       8.278   5.074  28.741  1.00  0.00    -0.003 C 
ATOM     12  C   UNL     1       8.446   4.476  27.344  1.00  0.00     0.004 C 
ENDBRANCH  10  11
ENDBRANCH   9  10
ENDBRANCH   8   9
ENDBRANCH   7   8
ENDBRANCH   6   7
ENDBRANCH   5   6
ENDBRANCH   4   5
ENDBRANCH   3   4
ENDBRANCH   2   3
ENDBRANCH   1   2
BRANCH   1  13
ATOM     13  C   UNL     1       5.049   8.372  28.692  1.00  0.00     0.000 C 
BRANCH  13  14
ATOM     14  C   UNL     1       4.570   9.662  28.002  1.00  0.00     0.000 C 
BRANCH  14  15
ATOM     15  C   UNL     1       5.742  10.468  27.400  1.00  0.00     0.000 C 
BRANCH  15  16
ATOM     16  C   UNL     1       6.994   9.620  27.116  1.00  0.00     0.000 C 
BRANCH  16  17
ATOM     17  C   UNL     1       8.285  10.454  27.107  1.00  0.00     0.000 C 
BRANCH  17  18
ATOM     18  C   UNL     1       9.358   9.893  26.156  1.00  0.00     0.000 C 
BRANCH  18  19
ATOM     19  C   UNL     1       9.425   8.355  26.065  1.00  0.00     0.000 C 
BRANCH  19  20
ATOM     20  C   UNL     1       9.405   7.775  24.638  1.00  0.00     0.006 C 
BRANCH  20  21
ATOM     21  C   UNL     1       8.743   6.388  24.536  1.00  0.00     0.053 C 
BRANCH  21  22
ATOM     22  C   UNL     1       8.024   6.192  23.236  1.00  0.00     0.041 C 
ATOM     23  O   UNL     1       7.118   6.993  22.885  1.00  0.00    -0.550 OA
ATOM     24  O   UNL     1       8.383   5.148  22.392  1.00  0.00    -0.550 OA
ENDBRANCH  21  22
ENDBRANCH  20  21
ENDBRANCH  19  20
ENDBRANCH  18  19
ENDBRANCH  17  18
ENDBRANCH  16  17
ENDBRANCH  15  16
ENDBRANCH  14  15
ENDBRANCH  13  14
ENDBRANCH   1  13
TORSDOF 20
ENDMDL
MODEL 7
REMARK VINA RESULT:    -4.911      1.566      3.764
REMARK INTER + INTRA:         -13.750
REMARK INTER:                 -10.998
REMARK INTRA:                  -2.752
REMARK UNBOUND:                -3.097
REMARK SMILES CCCCCCCCCCCCCCCCCCCCCC(=O)[O-]
REMARK SMILES IDX 12 1 11 2 10 3 9 4 8 5 7 6 6 7 5 8 4 9 3 10 2 11 1 12 13 13
REMARK SMILES IDX 14 14 15 15 16 16 17 17 18 18 19 19 20 20 21 21 22 22 23 23
REMARK SMILES IDX 24 24
REMARK H PARENT
REMARK Flexibility Score: inf
ROOT
ATOM      1  C   UNL     1       8.827  10.224  31.252  1.00  0.00     0.000 C 
ENDROOT
BRANCH   1   2
ATOM      2  C   UNL     1       7.496  10.039  32.006  1.00  0.00     0.000 C 
BRANCH   2   3
ATOM      3  C   UNL     1       6.390  10.982  31.504  1.00  0.00     0.000 C 
BRANCH   3   4
ATOM      4  C   UNL     1       5.054  10.778  32.238  1.00  0.00    -0.000 C 
BRANCH   4   5
ATOM      5  C   UNL     1       3.907  10.312  31.315  1.00  0.00    -0.000 C 
BRANCH   5   6
ATOM      6  C   UNL     1       4.310   9.095  30.465  1.00  0.00    -0.000 C 
BRANCH   6   7
ATOM      7  C   UNL     1       4.238   9.370  28.953  1.00  0.00    -0.000 C 
BRANCH   7   8
ATOM      8  C   UNL     1       5.510   9.005  28.161  1.00  0.00    -0.000 C 
BRANCH   8   9
ATOM      9  C   UNL     1       6.180   7.681  28.567  1.00  0.00    -0.000 C 
BRANCH   9  10
ATOM     10  C   UNL     1       7.119   7.127  27.484  1.00  0.00    -0.000 C 
BRANCH  10  11
ATOM     11  C   UNL     1       7.082   7.958  26.191  1.00  0.00    -0.003 C 
ATOM     12  C   UNL     1       8.045   7.438  25.123  1.00  0.00     0.004 C 
ENDBRANCH  10  11
ENDBRANCH   9  10
ENDBRANCH   8   9
ENDBRANCH   7   8
ENDBRANCH   6   7
ENDBRANCH   5   6
ENDBRANCH   4   5
ENDBRANCH   3   4
ENDBRANCH   2   3
ENDBRANCH   1   2
BRANCH   1  13
ATOM     13  C   UNL     1       8.799   9.797  29.772  1.00  0.00     0.000 C 
BRANCH  13  14
ATOM     14  C   UNL     1      10.021   8.951  29.369  1.00  0.00     0.000 C 
BRANCH  14  15
ATOM     15  C   UNL     1      10.248   8.949  27.842  1.00  0.00     0.000 C 
BRANCH  15  16
ATOM     16  C   UNL     1      11.073   7.752  27.340  1.00  0.00     0.000 C 
BRANCH  16  17
ATOM     17  C   UNL     1      11.708   6.948  28.485  1.00  0.00     0.000 C 
BRANCH  17  18
ATOM     18  C   UNL     1      12.671   5.852  27.990  1.00  0.00     0.000 C 
BRANCH  18  19
ATOM     19  C   UNL     1      12.534   4.485  28.689  1.00  0.00     0.000 C 
BRANCH  19  20
ATOM     20  C   UNL     1      11.685   3.440  27.938  1.00  0.00     0.006 C 
BRANCH  20  21
ATOM     21  C   UNL     1      10.293   3.207  28.552  1.00  0.00     0.053 C 
BRANCH  21  22
ATOM     22  C   UNL     1       9.203   3.875  27.771  1.00  0.00     0.041 C 
ATOM     23  O   UNL     1       8.020   3.872  28.203  1.00  0.00    -0.550 OA
ATOM     24  O   UNL     1       9.500   4.538  26.587  1.00  0.00    -0.550 OA
ENDBRANCH  21  22
ENDBRANCH  20  21
ENDBRANCH  19  20
ENDBRANCH  18  19
ENDBRANCH  17  18
ENDBRANCH  16  17
ENDBRANCH  15  16
ENDBRANCH  14  15
ENDBRANCH  13  14
ENDBRANCH   1  13
TORSDOF 20
ENDMDL
MODEL 8
REMARK VINA RESULT:    -4.904      3.716      5.453
REMARK INTER + INTRA:         -13.735
REMARK INTER:                 -10.715
REMARK INTRA:                  -3.020
REMARK UNBOUND:                -3.097
REMARK SMILES CCCCCCCCCCCCCCCCCCCCCC(=O)[O-]
REMARK SMILES IDX 12 1 11 2 10 3 9 4 8 5 7 6 6 7 5 8 4 9 3 10 2 11 1 12 13 13
REMARK SMILES IDX 14 14 15 15 16 16 17 17 18 18 19 19 20 20 21 21 22 22 23 23
REMARK SMILES IDX 24 24
REMARK H PARENT
REMARK Flexibility Score: inf
ROOT
ATOM      1  C   UNL     1       6.200   8.545  27.957  1.00  0.00     0.000 C 
ENDROOT
BRANCH   1   2
ATOM      2  C   UNL     1       5.323   9.615  28.635  1.00  0.00     0.000 C 
BRANCH   2   3
ATOM      3  C   UNL     1       4.593   9.086  29.880  1.00  0.00     0.000 C 
BRANCH   3   4
ATOM      4  C   UNL     1       4.888   9.914  31.142  1.00  0.00    -0.000 C 
BRANCH   4   5
ATOM      5  C   UNL     1       6.183  10.749  31.044  1.00  0.00    -0.000 C 
BRANCH   5   6
ATOM      6  C   UNL     1       7.260  10.261  32.029  1.00  0.00    -0.000 C 
BRANCH   6   7
ATOM      7  C   UNL     1       8.600   9.947  31.343  1.00  0.00    -0.000 C 
BRANCH   7   8
ATOM      8  C   UNL     1       8.824  10.656  29.991  1.00  0.00    -0.000 C 
BRANCH   8   9
ATOM      9  C   UNL     1       9.554   9.821  28.924  1.00  0.00    -0.000 C 
BRANCH   9  10
ATOM     10  C   UNL     1       9.405  10.398  27.507  1.00  0.00    -0.000 C 
BRANCH  10  11
ATOM     11  C   UNL     1       9.549   9.325  26.416  1.00  0.00    -0.003 C 
ATOM     12  C   UNL     1      10.443   8.160  26.843  1.00  0.00     0.004 C 
ENDBRANCH  10  11
ENDBRANCH   9  10
ENDBRANCH   8   9
ENDBRANCH   7   8
ENDBRANCH   6   7
ENDBRANCH   5   6
ENDBRANCH   4   5
ENDBRANCH   3   4
ENDBRANCH   2   3
ENDBRANCH   1   2
BRANCH   1  13
ATOM     13  C   UNL     1       6.514   7.315  28.828  1.00  0.00     0.000 C 
BRANCH  13  14
ATOM     14  C   UNL     1       7.457   6.314  28.136  1.00  0.00     0.000 C 
BRANCH  14  15
ATOM     15  C   UNL     1       6.836   5.725  26.851  1.00  0.00     0.000 C 
BRANCH  15  16
ATOM     16  C   UNL     1       7.766   5.790  25.627  1.00  0.00     0.000 C 
BRANCH  16  17
ATOM     17  C   UNL     1       7.401   6.930  24.664  1.00  0.00     0.000 C 
BRANCH  17  18
ATOM     18  C   UNL     1       8.152   6.849  23.322  1.00  0.00     0.000 C 
BRANCH  18  19
ATOM     19  C   UNL     1       8.338   5.428  22.752  1.00  0.00     0.000 C 
BRANCH  19  20
ATOM     20  C   UNL     1       8.336   5.326  21.214  1.00  0.00     0.006 C 
BRANCH  20  21
ATOM     21  C   UNL     1       7.289   6.224  20.530  1.00  0.00     0.053 C 
BRANCH  21  22
ATOM     22  C   UNL     1       6.368   5.450  19.636  1.00  0.00     0.041 C 
ATOM     23  O   UNL     1       5.240   5.919  19.329  1.00  0.00    -0.550 OA
ATOM     24  O   UNL     1       6.772   4.231  19.107  1.00  0.00    -0.550 OA
ENDBRANCH  21  22
ENDBRANCH  20  21
ENDBRANCH  19  20
ENDBRANCH  18  19
ENDBRANCH  17  18
ENDBRANCH  16  17
ENDBRANCH  15  16
ENDBRANCH  14  15
ENDBRANCH  13  14
ENDBRANCH   1  13
TORSDOF 20
ENDMDL
MODEL 9
REMARK VINA RESULT:    -4.851      1.598      3.877
REMARK INTER + INTRA:         -13.621
REMARK INTER:                 -10.434
REMARK INTRA:                  -3.187
REMARK UNBOUND:                -3.097
REMARK SMILES CCCCCCCCCCCCCCCCCCCCCC(=O)[O-]
REMARK SMILES IDX 12 1 11 2 10 3 9 4 8 5 7 6 6 7 5 8 4 9 3 10 2 11 1 12 13 13
REMARK SMILES IDX 14 14 15 15 16 16 17 17 18 18 19 19 20 20 21 21 22 22 23 23
REMARK SMILES IDX 24 24
REMARK H PARENT
REMARK Flexibility Score: inf
ROOT
ATOM      1  C   UNL     1       6.070   7.757  28.458  1.00  0.00     0.000 C 
ENDROOT
BRANCH   1   2
ATOM      2  C   UNL     1       5.483   9.075  28.999  1.00  0.00     0.000 C 
BRANCH   2   3
ATOM      3  C   UNL     1       4.583   8.867  30.229  1.00  0.00     0.000 C 
BRANCH   3   4
ATOM      4  C   UNL     1       4.679  10.022  31.240  1.00  0.00    -0.000 C 
BRANCH   4   5
ATOM      5  C   UNL     1       6.013  10.795  31.171  1.00  0.00    -0.000 C 
BRANCH   5   6
ATOM      6  C   UNL     1       6.981  10.378  32.291  1.00  0.00    -0.000 C 
BRANCH   6   7
ATOM      7  C   UNL     1       8.339   9.892  31.758  1.00  0.00    -0.000 C 
BRANCH   7   8
ATOM      8  C   UNL     1       8.825  10.592  30.472  1.00  0.00    -0.000 C 
BRANCH   8   9
ATOM      9  C   UNL     1       9.251   9.651  29.332  1.00  0.00    -0.000 C 
BRANCH   9  10
ATOM     10  C   UNL     1       9.532   8.218  29.811  1.00  0.00    -0.000 C 
BRANCH  10  11
ATOM     11  C   UNL     1      10.582   7.503  28.946  1.00  0.00    -0.003 C 
ATOM     12  C   UNL     1      10.674   8.074  27.531  1.00  0.00     0.004 C 
ENDBRANCH  10  11
ENDBRANCH   9  10
ENDBRANCH   8   9
ENDBRANCH   7   8
ENDBRANCH   6   7
ENDBRANCH   5   6
ENDBRANCH   4   5
ENDBRANCH   3   4
ENDBRANCH   2   3
ENDBRANCH   1   2
BRANCH   1  13
ATOM     13  C   UNL     1       6.904   7.899  27.171  1.00  0.00     0.000 C 
BRANCH  13  14
ATOM     14  C   UNL     1       6.813   6.662  26.259  1.00  0.00     0.000 C 
BRANCH  14  15
ATOM     15  C   UNL     1       7.937   5.643  26.549  1.00  0.00     0.000 C 
BRANCH  15  16
ATOM     16  C   UNL     1       7.608   4.667  27.692  1.00  0.00     0.000 C 
BRANCH  16  17
ATOM     17  C   UNL     1       8.865   4.141  28.402  1.00  0.00     0.000 C 
BRANCH  17  18
ATOM     18  C   UNL     1      10.063   3.958  27.451  1.00  0.00     0.000 C 
BRANCH  18  19
ATOM     19  C   UNL     1      11.310   3.301  28.075  1.00  0.00     0.000 C 
BRANCH  19  20
ATOM     20  C   UNL     1      12.183   4.229  28.942  1.00  0.00     0.006 C 
BRANCH  20  21
ATOM     21  C   UNL     1      13.631   4.377  28.439  1.00  0.00     0.053 C 
BRANCH  21  22
ATOM     22  C   UNL     1      13.699   4.698  26.977  1.00  0.00     0.041 C 
ATOM     23  O   UNL     1      13.214   5.776  26.541  1.00  0.00    -0.550 OA
ATOM     24  O   UNL     1      14.335   3.828  26.100  1.00  0.00    -0.550 OA
ENDBRANCH  21  22
ENDBRANCH  20  21
ENDBRANCH  19  20
ENDBRANCH  18  19
ENDBRANCH  17  18
ENDBRANCH  16  17
ENDBRANCH  15  16
ENDBRANCH  14  15
ENDBRANCH  13  14
ENDBRANCH   1  13
TORSDOF 20
ENDMDL
