MODEL 1
REMARK VINA RESULT:    -3.321      0.000      0.000
REMARK INTER + INTRA:          -5.866
REMARK INTER:                  -5.263
REMARK INTRA:                  -0.603
REMARK UNBOUND:                -0.603
REMARK SMILES CCCCCCCCCCCC(=O)[O-]
REMARK SMILES IDX 7 1 8 2 9 3 10 4 11 5 12 6 13 7 14 8 6 9 5 10 4 11 3 12 2 13
REMARK SMILES IDX 1 14
REMARK H PARENT
REMARK Flexibility Score: inf
ROOT
ATOM      1  C   UNL     1      15.659  18.481   9.468  1.00  0.00     0.000 C 
ENDROOT
BRANCH   1   2
ATOM      2  C   UNL     1      16.251  17.062   9.425  1.00  0.00     0.000 C 
BRANCH   2   3
ATOM      3  C   UNL     1      15.494  16.125   8.467  1.00  0.00     0.000 C 
BRANCH   3   4
ATOM      4  C   UNL     1      15.965  14.658   8.479  1.00  0.00     0.006 C 
BRANCH   4   5
ATOM      5  C   UNL     1      15.360  13.826   7.341  1.00  0.00     0.053 C 
BRANCH   5   6
ATOM      6  C   UNL     1      14.196  13.028   7.840  1.00  0.00     0.041 C 
ATOM      7  O   UNL     1      13.282  12.680   7.048  1.00  0.00    -0.550 OA
ATOM      8  O   UNL     1      14.147  12.627   9.169  1.00  0.00    -0.550 OA
ENDBRANCH   5   6
ENDBRANCH   4   5
ENDBRANCH   3   4
ENDBRANCH   2   3
ENDBRANCH   1   2
BRANCH   1   9
ATOM      9  C   UNL     1      16.662  19.553   9.013  1.00  0.00     0.000 C 
BRANCH   9  10
ATOM     10  C   UNL     1      16.792  20.709  10.017  1.00  0.00    -0.000 C 
BRANCH  10  11
ATOM     11  C   UNL     1      15.967  20.437  11.281  1.00  0.00    -0.000 C 
BRANCH  11  12
ATOM     12  C   UNL     1      15.047  21.623  11.605  1.00  0.00    -0.000 C 
BRANCH  12  13
ATOM     13  C   UNL     1      13.569  21.216  11.697  1.00  0.00    -0.003 C 
ATOM     14  C   UNL     1      13.381  19.764  12.133  1.00  0.00     0.004 C 
ENDBRANCH  12  13
ENDBRANCH  11  12
ENDBRANCH  10  11
ENDBRANCH   9  10
ENDBRANCH   1   9
TORSDOF 10
ENDMDL
MODEL 2
REMARK VINA RESULT:    -3.309      1.759      3.440
REMARK INTER + INTRA:          -5.846
REMARK INTER:                  -5.178
REMARK INTRA:                  -0.669
REMARK UNBOUND:                -0.603
REMARK SMILES CCCCCCCCCCCC(=O)[O-]
REMARK SMILES IDX 7 1 8 2 9 3 10 4 11 5 12 6 13 7 14 8 6 9 5 10 4 11 3 12 2 13
REMARK SMILES IDX 1 14
REMARK H PARENT
REMARK Flexibility Score: inf
ROOT
ATOM      1  C   UNL     1      16.871  15.093   7.616  1.00  0.00     0.000 C 
ENDROOT
BRANCH   1   2
ATOM      2  C   UNL     1      16.498  13.608   7.480  1.00  0.00     0.000 C 
BRANCH   2   3
ATOM      3  C   UNL     1      15.005  13.390   7.171  1.00  0.00     0.000 C 
BRANCH   3   4
ATOM      4  C   UNL     1      14.149  12.935   8.368  1.00  0.00     0.006 C 
BRANCH   4   5
ATOM      5  C   UNL     1      14.793  13.259   9.722  1.00  0.00     0.053 C 
BRANCH   5   6
ATOM      6  C   UNL     1      14.298  12.316  10.774  1.00  0.00     0.041 C 
ATOM      7  O   UNL     1      14.817  11.175  10.895  1.00  0.00    -0.550 OA
ATOM      8  O   UNL     1      13.299  12.716  11.651  1.00  0.00    -0.550 OA
ENDBRANCH   5   6
ENDBRANCH   4   5
ENDBRANCH   3   4
ENDBRANCH   2   3
ENDBRANCH   1   2
BRANCH   1   9
ATOM      9  C   UNL     1      15.756  16.030   7.125  1.00  0.00     0.000 C 
BRANCH   9  10
ATOM     10  C   UNL     1      15.097  16.819   8.266  1.00  0.00    -0.000 C 
BRANCH  10  11
ATOM     11  C   UNL     1      16.152  17.384   9.225  1.00  0.00    -0.000 C 
BRANCH  11  12
ATOM     12  C   UNL     1      15.908  18.876   9.497  1.00  0.00    -0.000 C 
BRANCH  12  13
ATOM     13  C   UNL     1      15.163  19.121  10.818  1.00  0.00    -0.003 C 
ATOM     14  C   UNL     1      14.976  20.607  11.124  1.00  0.00     0.004 C 
ENDBRANCH  12  13
ENDBRANCH  11  12
ENDBRANCH  10  11
ENDBRANCH   9  10
ENDBRANCH   1   9
TORSDOF 10
ENDMDL
MODEL 3
REMARK VINA RESULT:    -3.237      3.521      7.027
REMARK INTER + INTRA:          -5.733
REMARK INTER:                  -5.219
REMARK INTRA:                  -0.513
REMARK UNBOUND:                -0.603
REMARK SMILES CCCCCCCCCCCC(=O)[O-]
REMARK SMILES IDX 7 1 8 2 9 3 10 4 11 5 12 6 13 7 14 8 6 9 5 10 4 11 3 12 2 13
REMARK SMILES IDX 1 14
REMARK H PARENT
REMARK Flexibility Score: inf
ROOT
ATOM      1  C   UNL     1      15.745  16.033   7.232  1.00  0.00     0.000 C 
ENDROOT
BRANCH   1   2
ATOM      2  C   UNL     1      15.130  16.865   8.369  1.00  0.00     0.000 C 
BRANCH   2   3
ATOM      3  C   UNL     1      16.069  17.974   8.878  1.00  0.00     0.000 C 
BRANCH   3   4
ATOM      4  C   UNL     1      15.773  18.479  10.303  1.00  0.00     0.006 C 
BRANCH   4   5
ATOM      5  C   UNL     1      15.680  20.007  10.389  1.00  0.00     0.053 C 
BRANCH   5   6
ATOM      6  C   UNL     1      14.538  20.412  11.269  1.00  0.00     0.041 C 
ATOM      7  O   UNL     1      14.397  21.616  11.609  1.00  0.00    -0.550 OA
ATOM      8  O   UNL     1      13.603  19.467  11.672  1.00  0.00    -0.550 OA
ENDBRANCH   5   6
ENDBRANCH   4   5
ENDBRANCH   3   4
ENDBRANCH   2   3
ENDBRANCH   1   2
BRANCH   1   9
ATOM      9  C   UNL     1      16.279  14.676   7.716  1.00  0.00     0.000 C 
BRANCH   9  10
ATOM     10  C   UNL     1      15.512  13.487   7.118  1.00  0.00    -0.000 C 
BRANCH  10  11
ATOM     11  C   UNL     1      14.309  13.113   7.991  1.00  0.00    -0.000 C 
BRANCH  11  12
ATOM     12  C   UNL     1      14.671  13.172   9.483  1.00  0.00    -0.000 C 
BRANCH  12  13
ATOM     13  C   UNL     1      14.099  11.988  10.277  1.00  0.00    -0.003 C 
ATOM     14  C   UNL     1      14.914  11.667  11.528  1.00  0.00     0.004 C 
ENDBRANCH  12  13
ENDBRANCH  11  12
ENDBRANCH  10  11
ENDBRANCH   9  10
ENDBRANCH   1   9
TORSDOF 10
ENDMDL
MODEL 4
REMARK VINA RESULT:    -3.233      3.616      6.627
REMARK INTER + INTRA:          -5.726
REMARK INTER:                  -4.997
REMARK INTRA:                  -0.730
REMARK UNBOUND:                -0.603
REMARK SMILES CCCCCCCCCCCC(=O)[O-]
REMARK SMILES IDX 7 1 8 2 9 3 10 4 11 5 12 6 13 7 14 8 6 9 5 10 4 11 3 12 2 13
REMARK SMILES IDX 1 14
REMARK H PARENT
REMARK Flexibility Score: inf
ROOT
ATOM      1  C   UNL     1      15.117  13.270   7.071  1.00  0.00     0.000 C 
ENDROOT
BRANCH   1   2
ATOM      2  C   UNL     1      16.446  13.811   7.626  1.00  0.00     0.000 C 
BRANCH   2   3
ATOM      3  C   UNL     1      16.689  15.288   7.266  1.00  0.00     0.000 C 
BRANCH   3   4
ATOM      4  C   UNL     1      16.727  16.255   8.464  1.00  0.00     0.006 C 
BRANCH   4   5
ATOM      5  C   UNL     1      15.447  17.089   8.600  1.00  0.00     0.053 C 
BRANCH   5   6
ATOM      6  C   UNL     1      15.752  18.416   9.222  1.00  0.00     0.041 C 
ATOM      7  O   UNL     1      15.132  18.791  10.251  1.00  0.00    -0.550 OA
ATOM      8  O   UNL     1      16.756  19.217   8.692  1.00  0.00    -0.550 OA
ENDBRANCH   5   6
ENDBRANCH   4   5
ENDBRANCH   3   4
ENDBRANCH   2   3
ENDBRANCH   1   2
BRANCH   1   9
ATOM      9  C   UNL     1      14.103  12.947   8.180  1.00  0.00     0.000 C 
BRANCH   9  10
ATOM     10  C   UNL     1      14.677  13.155   9.589  1.00  0.00    -0.000 C 
BRANCH  10  11
ATOM     11  C   UNL     1      14.166  12.079  10.556  1.00  0.00    -0.000 C 
BRANCH  11  12
ATOM     12  C   UNL     1      15.083  11.959  11.782  1.00  0.00    -0.000 C 
BRANCH  12  13
ATOM     13  C   UNL     1      14.312  12.050  13.107  1.00  0.00    -0.003 C 
ATOM     14  C   UNL     1      13.054  12.911  13.001  1.00  0.00     0.004 C 
ENDBRANCH  12  13
ENDBRANCH  11  12
ENDBRANCH  10  11
ENDBRANCH   9  10
ENDBRANCH   1   9
TORSDOF 10
ENDMDL
MODEL 5
REMARK VINA RESULT:    -3.101      3.389      7.014
REMARK INTER + INTRA:          -5.517
REMARK INTER:                  -4.953
REMARK INTRA:                  -0.564
REMARK UNBOUND:                -0.603
REMARK SMILES CCCCCCCCCCCC(=O)[O-]
REMARK SMILES IDX 7 1 8 2 9 3 10 4 11 5 12 6 13 7 14 8 6 9 5 10 4 11 3 12 2 13
REMARK SMILES IDX 1 14
REMARK H PARENT
REMARK Flexibility Score: inf
ROOT
ATOM      1  C   UNL     1      15.601  18.208   9.356  1.00  0.00     0.000 C 
ENDROOT
BRANCH   1   2
ATOM      2  C   UNL     1      16.695  19.173   8.870  1.00  0.00     0.000 C 
BRANCH   2   3
ATOM      3  C   UNL     1      16.732  20.490   9.666  1.00  0.00     0.000 C 
BRANCH   3   4
ATOM      4  C   UNL     1      16.201  20.397  11.109  1.00  0.00     0.006 C 
BRANCH   4   5
ATOM      5  C   UNL     1      15.327  21.594  11.503  1.00  0.00     0.053 C 
BRANCH   5   6
ATOM      6  C   UNL     1      13.900  21.169  11.658  1.00  0.00     0.041 C 
ATOM      7  O   UNL     1      12.981  22.030  11.664  1.00  0.00    -0.550 OA
ATOM      8  O   UNL     1      13.582  19.820  11.746  1.00  0.00    -0.550 OA
ENDBRANCH   5   6
ENDBRANCH   4   5
ENDBRANCH   3   4
ENDBRANCH   2   3
ENDBRANCH   1   2
BRANCH   1   9
ATOM      9  C   UNL     1      15.578  16.893   8.562  1.00  0.00     0.000 C 
BRANCH   9  10
ATOM     10  C   UNL     1      16.828  16.032   8.802  1.00  0.00    -0.000 C 
BRANCH  10  11
ATOM     11  C   UNL     1      16.487  14.537   8.734  1.00  0.00    -0.000 C 
BRANCH  11  12
ATOM     12  C   UNL     1      15.012  14.324   8.364  1.00  0.00    -0.000 C 
BRANCH  12  13
ATOM     13  C   UNL     1      14.835  13.395   7.153  1.00  0.00    -0.003 C 
ATOM     14  C   UNL     1      13.493  12.665   7.160  1.00  0.00     0.004 C 
ENDBRANCH  12  13
ENDBRANCH  11  12
ENDBRANCH  10  11
ENDBRANCH   9  10
ENDBRANCH   1   9
TORSDOF 10
ENDMDL
MODEL 6
REMARK VINA RESULT:    -3.096      1.425      1.937
REMARK INTER + INTRA:          -5.508
REMARK INTER:                  -5.095
REMARK INTRA:                  -0.414
REMARK UNBOUND:                -0.603
REMARK SMILES CCCCCCCCCCCC(=O)[O-]
REMARK SMILES IDX 7 1 8 2 9 3 10 4 11 5 12 6 13 7 14 8 6 9 5 10 4 11 3 12 2 13
REMARK SMILES IDX 1 14
REMARK H PARENT
REMARK Flexibility Score: inf
ROOT
ATOM      1  C   UNL     1      15.265  17.101   8.461  1.00  0.00     0.000 C 
ENDROOT
BRANCH   1   2
ATOM      2  C   UNL     1      16.162  15.997   7.876  1.00  0.00     0.000 C 
BRANCH   2   3
ATOM      3  C   UNL     1      15.369  14.915   7.121  1.00  0.00     0.000 C 
BRANCH   3   4
ATOM      4  C   UNL     1      15.513  13.488   7.682  1.00  0.00     0.006 C 
BRANCH   4   5
ATOM      5  C   UNL     1      14.285  13.032   8.480  1.00  0.00     0.053 C 
BRANCH   5   6
ATOM      6  C   UNL     1      14.602  12.979   9.941  1.00  0.00     0.041 C 
ATOM      7  O   UNL     1      13.756  12.526  10.757  1.00  0.00    -0.550 OA
ATOM      8  O   UNL     1      15.850  13.384  10.397  1.00  0.00    -0.550 OA
ENDBRANCH   5   6
ENDBRANCH   4   5
ENDBRANCH   3   4
ENDBRANCH   2   3
ENDBRANCH   1   2
BRANCH   1   9
ATOM      9  C   UNL     1      16.073  18.284   9.018  1.00  0.00     0.000 C 
BRANCH   9  10
ATOM     10  C   UNL     1      15.427  18.911  10.262  1.00  0.00    -0.000 C 
BRANCH  10  11
ATOM     11  C   UNL     1      15.899  20.358  10.457  1.00  0.00    -0.000 C 
BRANCH  11  12
ATOM     12  C   UNL     1      15.179  21.017  11.642  1.00  0.00    -0.000 C 
BRANCH  12  13
ATOM     13  C   UNL     1      13.651  20.895  11.548  1.00  0.00    -0.003 C 
ATOM     14  C   UNL     1      12.922  22.047  12.239  1.00  0.00     0.004 C 
ENDBRANCH  12  13
ENDBRANCH  11  12
ENDBRANCH  10  11
ENDBRANCH   9  10
ENDBRANCH   1   9
TORSDOF 10
ENDMDL
MODEL 7
REMARK VINA RESULT:    -2.944      3.585      6.788
REMARK INTER + INTRA:          -5.267
REMARK INTER:                  -4.391
REMARK INTRA:                  -0.877
REMARK UNBOUND:                -0.603
REMARK SMILES CCCCCCCCCCCC(=O)[O-]
REMARK SMILES IDX 7 1 8 2 9 3 10 4 11 5 12 6 13 7 14 8 6 9 5 10 4 11 3 12 2 13
REMARK SMILES IDX 1 14
REMARK H PARENT
REMARK Flexibility Score: inf
ROOT
ATOM      1  C   UNL     1      14.167  13.283   8.383  1.00  0.00     0.000 C 
ENDROOT
BRANCH   1   2
ATOM      2  C   UNL     1      15.081  13.240   7.147  1.00  0.00     0.000 C 
BRANCH   2   3
ATOM      3  C   UNL     1      16.545  13.593   7.470  1.00  0.00     0.000 C 
BRANCH   3   4
ATOM      4  C   UNL     1      16.884  15.094   7.407  1.00  0.00     0.006 C 
BRANCH   4   5
ATOM      5  C   UNL     1      16.916  15.758   8.789  1.00  0.00     0.053 C 
BRANCH   5   6
ATOM      6  C   UNL     1      16.072  16.994   8.794  1.00  0.00     0.041 C 
ATOM      7  O   UNL     1      14.899  16.961   8.336  1.00  0.00    -0.550 OA
ATOM      8  O   UNL     1      16.563  18.169   9.348  1.00  0.00    -0.550 OA
ENDBRANCH   5   6
ENDBRANCH   4   5
ENDBRANCH   3   4
ENDBRANCH   2   3
ENDBRANCH   1   2
BRANCH   1   9
ATOM      9  C   UNL     1      14.864  12.765   9.651  1.00  0.00     0.000 C 
BRANCH   9  10
ATOM     10  C   UNL     1      13.876  12.418  10.774  1.00  0.00    -0.000 C 
BRANCH  10  11
ATOM     11  C   UNL     1      14.615  12.103  12.080  1.00  0.00    -0.000 C 
BRANCH  11  12
ATOM     12  C   UNL     1      16.079  12.563  12.010  1.00  0.00    -0.000 C 
BRANCH  12  13
ATOM     13  C   UNL     1      17.064  11.465  12.436  1.00  0.00    -0.003 C 
ATOM     14  C   UNL     1      16.818  10.139  11.719  1.00  0.00     0.004 C 
ENDBRANCH  12  13
ENDBRANCH  11  12
ENDBRANCH  10  11
ENDBRANCH   9  10
ENDBRANCH   1   9
TORSDOF 10
ENDMDL
MODEL 8
REMARK VINA RESULT:    -2.931      2.607      4.488
REMARK INTER + INTRA:          -5.247
REMARK INTER:                  -4.298
REMARK INTRA:                  -0.949
REMARK UNBOUND:                -0.603
REMARK SMILES CCCCCCCCCCCC(=O)[O-]
REMARK SMILES IDX 7 1 8 2 9 3 10 4 11 5 12 6 13 7 14 8 6 9 5 10 4 11 3 12 2 13
REMARK SMILES IDX 1 14
REMARK H PARENT
REMARK Flexibility Score: inf
ROOT
ATOM      1  C   UNL     1      15.473  13.771   7.197  1.00  0.00     0.000 C 
ENDROOT
BRANCH   1   2
ATOM      2  C   UNL     1      14.436  13.206   8.182  1.00  0.00     0.000 C 
BRANCH   2   3
ATOM      3  C   UNL     1      14.782  13.500   9.653  1.00  0.00     0.000 C 
BRANCH   3   4
ATOM      4  C   UNL     1      16.202  13.089  10.086  1.00  0.00     0.006 C 
BRANCH   4   5
ATOM      5  C   UNL     1      16.343  12.937  11.605  1.00  0.00     0.053 C 
BRANCH   5   6
ATOM      6  C   UNL     1      15.658  11.690  12.070  1.00  0.00     0.041 C 
ATOM      7  O   UNL     1      14.629  11.765  12.792  1.00  0.00    -0.550 OA
ATOM      8  O   UNL     1      16.127  10.447  11.666  1.00  0.00    -0.550 OA
ENDBRANCH   5   6
ENDBRANCH   4   5
ENDBRANCH   3   4
ENDBRANCH   2   3
ENDBRANCH   1   2
BRANCH   1   9
ATOM      9  C   UNL     1      15.565  15.305   7.253  1.00  0.00     0.000 C 
BRANCH   9  10
ATOM     10  C   UNL     1      16.973  15.804   7.609  1.00  0.00    -0.000 C 
BRANCH  10  11
ATOM     11  C   UNL     1      16.926  16.791   8.782  1.00  0.00    -0.000 C 
BRANCH  11  12
ATOM     12  C   UNL     1      15.540  17.441   8.901  1.00  0.00    -0.000 C 
BRANCH  12  13
ATOM     13  C   UNL     1      15.534  18.651   9.847  1.00  0.00    -0.003 C 
ATOM     14  C   UNL     1      16.490  19.756   9.401  1.00  0.00     0.004 C 
ENDBRANCH  12  13
ENDBRANCH  11  12
ENDBRANCH  10  11
ENDBRANCH   9  10
ENDBRANCH   1   9
TORSDOF 10
ENDMDL
MODEL 9
REMARK VINA RESULT:    -2.840      3.612      6.996
REMARK INTER + INTRA:          -5.103
REMARK INTER:                  -4.340
REMARK INTRA:                  -0.762
REMARK UNBOUND:                -0.603
REMARK SMILES CCCCCCCCCCCC(=O)[O-]
REMARK SMILES IDX 7 1 8 2 9 3 10 4 11 5 12 6 13 7 14 8 6 9 5 10 4 11 3 12 2 13
REMARK SMILES IDX 1 14
REMARK H PARENT
REMARK Flexibility Score: inf
ROOT
ATOM      1  C   UNL     1      16.927  14.099  12.332  1.00  0.00     0.000 C 
ENDROOT
BRANCH   1   2
ATOM      2  C   UNL     1      16.220  15.464  12.337  1.00  0.00     0.000 C 
BRANCH   2   3
ATOM      3  C   UNL     1      16.607  16.346  11.136  1.00  0.00     0.000 C 
BRANCH   3   4
ATOM      4  C   UNL     1      16.691  17.855  11.432  1.00  0.00     0.006 C 
BRANCH   4   5
ATOM      5  C   UNL     1      15.536  18.357  12.309  1.00  0.00     0.053 C 
BRANCH   5   6
ATOM      6  C   UNL     1      14.669  19.302  11.537  1.00  0.00     0.041 C 
ATOM      7  O   UNL     1      15.090  19.821  10.470  1.00  0.00    -0.550 OA
ATOM      8  O   UNL     1      13.377  19.572  11.972  1.00  0.00    -0.550 OA
ENDBRANCH   5   6
ENDBRANCH   4   5
ENDBRANCH   3   4
ENDBRANCH   2   3
ENDBRANCH   1   2
BRANCH   1   9
ATOM      9  C   UNL     1      16.406  13.169  11.225  1.00  0.00     0.000 C 
BRANCH   9  10
ATOM     10  C   UNL     1      14.874  13.066  11.207  1.00  0.00    -0.000 C 
BRANCH  10  11
ATOM     11  C   UNL     1      14.353  12.851   9.781  1.00  0.00    -0.000 C 
BRANCH  11  12
ATOM     12  C   UNL     1      14.987  13.853   8.805  1.00  0.00    -0.000 C 
BRANCH  12  13
ATOM     13  C   UNL     1      14.785  13.456   7.336  1.00  0.00    -0.003 C 
ATOM     14  C   UNL     1      13.495  12.669   7.108  1.00  0.00     0.004 C 
ENDBRANCH  12  13
ENDBRANCH  11  12
ENDBRANCH  10  11
ENDBRANCH   9  10
ENDBRANCH   1   9
TORSDOF 10
ENDMDL
