MODEL 1
REMARK VINA RESULT:    -3.753      0.000      0.000
REMARK INTER + INTRA:         -12.252
REMARK INTER:                  -8.140
REMARK INTRA:                  -4.112
REMARK UNBOUND:                -4.112
REMARK SMILES CCCCCCCCCCCCCCCCCCCCCC(=O)[O-]
REMARK SMILES IDX 12 1 11 2 10 3 9 4 8 5 7 6 6 7 5 8 4 9 3 10 2 11 1 12 13 13
REMARK SMILES IDX 14 14 15 15 16 16 17 17 18 18 19 19 20 20 21 21 22 22 23 23
REMARK SMILES IDX 24 24
REMARK H PARENT
REMARK Flexibility Score: inf
ROOT
ATOM      1  C   UNL     1     162.171 180.125 179.822  1.00  0.00     0.000 C 
ENDROOT
BRANCH   1   2
ATOM      2  C   UNL     1     163.660 179.754 179.705  1.00  0.00     0.000 C 
BRANCH   2   3
ATOM      3  C   UNL     1     164.380 179.493 181.042  1.00  0.00     0.000 C 
BRANCH   3   4
ATOM      4  C   UNL     1     163.768 178.324 181.833  1.00  0.00    -0.000 C 
BRANCH   4   5
ATOM      5  C   UNL     1     164.287 176.956 181.360  1.00  0.00    -0.000 C 
BRANCH   5   6
ATOM      6  C   UNL     1     163.157 175.970 181.024  1.00  0.00    -0.000 C 
BRANCH   6   7
ATOM      7  C   UNL     1     161.783 176.640 181.170  1.00  0.00    -0.000 C 
BRANCH   7   8
ATOM      8  C   UNL     1     160.616 175.646 181.031  1.00  0.00    -0.000 C 
BRANCH   8   9
ATOM      9  C   UNL     1     161.025 174.221 180.606  1.00  0.00    -0.000 C 
BRANCH   9  10
ATOM     10  C   UNL     1     160.530 173.786 179.212  1.00  0.00    -0.000 C 
BRANCH  10  11
ATOM     11  C   UNL     1     161.487 172.855 178.448  1.00  0.00    -0.003 C 
ATOM     12  C   UNL     1     162.915 172.891 178.992  1.00  0.00     0.004 C 
ENDBRANCH  10  11
ENDBRANCH   9  10
ENDBRANCH   8   9
ENDBRANCH   7   8
ENDBRANCH   6   7
ENDBRANCH   5   6
ENDBRANCH   4   5
ENDBRANCH   3   4
ENDBRANCH   2   3
ENDBRANCH   1   2
BRANCH   1  13
ATOM     13  C   UNL     1     161.292 179.424 178.774  1.00  0.00     0.000 C 
BRANCH  13  14
ATOM     14  C   UNL     1     162.151 178.670 177.749  1.00  0.00     0.000 C 
BRANCH  14  15
ATOM     15  C   UNL     1     161.685 177.219 177.526  1.00  0.00     0.000 C 
BRANCH  15  16
ATOM     16  C   UNL     1     162.817 176.191 177.358  1.00  0.00     0.000 C 
BRANCH  16  17
ATOM     17  C   UNL     1     164.110 176.809 176.799  1.00  0.00     0.000 C 
BRANCH  17  18
ATOM     18  C   UNL     1     165.327 176.551 177.713  1.00  0.00     0.000 C 
BRANCH  18  19
ATOM     19  C   UNL     1     166.088 177.830 178.108  1.00  0.00     0.000 C 
BRANCH  19  20
ATOM     20  C   UNL     1     167.078 177.662 179.278  1.00  0.00     0.006 C 
BRANCH  20  21
ATOM     21  C   UNL     1     167.902 178.922 179.591  1.00  0.00     0.053 C 
BRANCH  21  22
ATOM     22  C   UNL     1     169.353 178.606 179.786  1.00  0.00     0.041 C 
ATOM     23  O   UNL     1     169.696 177.530 180.344  1.00  0.00    -0.550 OA
ATOM     24  O   UNL     1     170.323 179.514 179.383  1.00  0.00    -0.550 OA
ENDBRANCH  21  22
ENDBRANCH  20  21
ENDBRANCH  19  20
ENDBRANCH  18  19
ENDBRANCH  17  18
ENDBRANCH  16  17
ENDBRANCH  15  16
ENDBRANCH  14  15
ENDBRANCH  13  14
ENDBRANCH   1  13
TORSDOF 20
ENDMDL
MODEL 2
REMARK VINA RESULT:    -3.693      4.291      9.188
REMARK INTER + INTRA:         -12.122
REMARK INTER:                 -10.217
REMARK INTRA:                  -1.905
REMARK UNBOUND:                -4.112
REMARK SMILES CCCCCCCCCCCCCCCCCCCCCC(=O)[O-]
REMARK SMILES IDX 12 1 11 2 10 3 9 4 8 5 7 6 6 7 5 8 4 9 3 10 2 11 1 12 13 13
REMARK SMILES IDX 14 14 15 15 16 16 17 17 18 18 19 19 20 20 21 21 22 22 23 23
REMARK SMILES IDX 24 24
REMARK H PARENT
REMARK Flexibility Score: inf
ROOT
ATOM      1  C   UNL     1     166.586 178.191 179.720  1.00  0.00     0.000 C 
ENDROOT
BRANCH   1   2
ATOM      2  C   UNL     1     167.925 178.383 180.453  1.00  0.00     0.000 C 
BRANCH   2   3
ATOM      3  C   UNL     1     168.647 177.082 180.854  1.00  0.00     0.000 C 
BRANCH   3   4
ATOM      4  C   UNL     1     169.903 177.332 181.706  1.00  0.00    -0.000 C 
BRANCH   4   5
ATOM      5  C   UNL     1     170.042 178.803 182.134  1.00  0.00    -0.000 C 
BRANCH   5   6
ATOM      6  C   UNL     1     171.399 179.413 181.750  1.00  0.00    -0.000 C 
BRANCH   6   7
ATOM      7  C   UNL     1     172.275 178.384 181.020  1.00  0.00    -0.000 C 
BRANCH   7   8
ATOM      8  C   UNL     1     172.935 178.955 179.752  1.00  0.00    -0.000 C 
BRANCH   8   9
ATOM      9  C   UNL     1     174.448 179.227 179.873  1.00  0.00    -0.000 C 
BRANCH   9  10
ATOM     10  C   UNL     1     175.063 178.905 181.250  1.00  0.00    -0.000 C 
BRANCH  10  11
ATOM     11  C   UNL     1     176.563 179.220 181.378  1.00  0.00    -0.003 C 
ATOM     12  C   UNL     1     177.140 179.892 180.132  1.00  0.00     0.004 C 
ENDBRANCH  10  11
ENDBRANCH   9  10
ENDBRANCH   8   9
ENDBRANCH   7   8
ENDBRANCH   6   7
ENDBRANCH   5   6
ENDBRANCH   4   5
ENDBRANCH   3   4
ENDBRANCH   2   3
ENDBRANCH   1   2
BRANCH   1  13
ATOM     13  C   UNL     1     165.408 177.940 180.675  1.00  0.00     0.000 C 
BRANCH  13  14
ATOM     14  C   UNL     1     164.700 179.253 181.036  1.00  0.00     0.000 C 
BRANCH  14  15
ATOM     15  C   UNL     1     163.455 179.042 181.916  1.00  0.00     0.000 C 
BRANCH  15  16
ATOM     16  C   UNL     1     162.196 179.799 181.455  1.00  0.00     0.000 C 
BRANCH  16  17
ATOM     17  C   UNL     1     162.161 180.033 179.935  1.00  0.00     0.000 C 
BRANCH  17  18
ATOM     18  C   UNL     1     161.421 178.904 179.186  1.00  0.00     0.000 C 
BRANCH  18  19
ATOM     19  C   UNL     1     162.360 177.871 178.537  1.00  0.00     0.000 C 
BRANCH  19  20
ATOM     20  C   UNL     1     162.001 176.399 178.818  1.00  0.00     0.006 C 
BRANCH  20  21
ATOM     21  C   UNL     1     161.901 176.048 180.311  1.00  0.00     0.053 C 
BRANCH  21  22
ATOM     22  C   UNL     1     160.579 175.433 180.653  1.00  0.00     0.041 C 
ATOM     23  O   UNL     1     160.023 175.698 181.751  1.00  0.00    -0.550 OA
ATOM     24  O   UNL     1     159.978 174.542 179.772  1.00  0.00    -0.550 OA
ENDBRANCH  21  22
ENDBRANCH  20  21
ENDBRANCH  19  20
ENDBRANCH  18  19
ENDBRANCH  17  18
ENDBRANCH  16  17
ENDBRANCH  15  16
ENDBRANCH  14  15
ENDBRANCH  13  14
ENDBRANCH   1  13
TORSDOF 20
ENDMDL
MODEL 3
REMARK VINA RESULT:    -3.677      3.053      5.715
REMARK INTER + INTRA:         -12.088
REMARK INTER:                  -8.483
REMARK INTRA:                  -3.605
REMARK UNBOUND:                -4.112
REMARK SMILES CCCCCCCCCCCCCCCCCCCCCC(=O)[O-]
REMARK SMILES IDX 12 1 11 2 10 3 9 4 8 5 7 6 6 7 5 8 4 9 3 10 2 11 1 12 13 13
REMARK SMILES IDX 14 14 15 15 16 16 17 17 18 18 19 19 20 20 21 21 22 22 23 23
REMARK SMILES IDX 24 24
REMARK H PARENT
REMARK Flexibility Score: inf
ROOT
ATOM      1  C   UNL     1     165.013 177.085 180.812  1.00  0.00     0.000 C 
ENDROOT
BRANCH   1   2
ATOM      2  C   UNL     1     164.687 178.582 180.968  1.00  0.00     0.000 C 
BRANCH   2   3
ATOM      3  C   UNL     1     163.465 178.900 181.850  1.00  0.00     0.000 C 
BRANCH   3   4
ATOM      4  C   UNL     1     162.293 179.501 181.055  1.00  0.00    -0.000 C 
BRANCH   4   5
ATOM      5  C   UNL     1     162.742 180.125 179.723  1.00  0.00    -0.000 C 
BRANCH   5   6
ATOM      6  C   UNL     1     161.782 179.818 178.564  1.00  0.00    -0.000 C 
BRANCH   6   7
ATOM      7  C   UNL     1     161.409 178.328 178.541  1.00  0.00    -0.000 C 
BRANCH   7   8
ATOM      8  C   UNL     1     161.943 177.599 177.295  1.00  0.00    -0.000 C 
BRANCH   8   9
ATOM      9  C   UNL     1     163.371 177.033 177.436  1.00  0.00    -0.000 C 
BRANCH   9  10
ATOM     10  C   UNL     1     163.784 176.019 176.351  1.00  0.00    -0.000 C 
BRANCH  10  11
ATOM     11  C   UNL     1     162.698 174.994 175.977  1.00  0.00    -0.003 C 
ATOM     12  C   UNL     1     162.185 175.163 174.548  1.00  0.00     0.004 C 
ENDBRANCH  10  11
ENDBRANCH   9  10
ENDBRANCH   8   9
ENDBRANCH   7   8
ENDBRANCH   6   7
ENDBRANCH   5   6
ENDBRANCH   4   5
ENDBRANCH   3   4
ENDBRANCH   2   3
ENDBRANCH   1   2
BRANCH   1  13
ATOM     13  C   UNL     1     164.061 176.177 181.607  1.00  0.00     0.000 C 
BRANCH  13  14
ATOM     14  C   UNL     1     163.068 175.469 180.675  1.00  0.00     0.000 C 
BRANCH  14  15
ATOM     15  C   UNL     1     161.598 175.738 181.049  1.00  0.00     0.000 C 
BRANCH  15  16
ATOM     16  C   UNL     1     160.571 174.845 180.330  1.00  0.00     0.000 C 
BRANCH  16  17
ATOM     17  C   UNL     1     161.159 174.120 179.108  1.00  0.00     0.000 C 
BRANCH  17  18
ATOM     18  C   UNL     1     161.090 172.584 179.248  1.00  0.00     0.000 C 
BRANCH  18  19
ATOM     19  C   UNL     1     160.877 172.103 180.696  1.00  0.00     0.000 C 
BRANCH  19  20
ATOM     20  C   UNL     1     162.168 171.752 181.461  1.00  0.00     0.006 C 
BRANCH  20  21
ATOM     21  C   UNL     1     162.394 172.588 182.731  1.00  0.00     0.053 C 
BRANCH  21  22
ATOM     22  C   UNL     1     163.768 172.390 183.293  1.00  0.00     0.041 C 
ATOM     23  O   UNL     1     164.330 173.318 183.933  1.00  0.00    -0.550 OA
ATOM     24  O   UNL     1     164.440 171.192 183.081  1.00  0.00    -0.550 OA
ENDBRANCH  21  22
ENDBRANCH  20  21
ENDBRANCH  19  20
ENDBRANCH  18  19
ENDBRANCH  17  18
ENDBRANCH  16  17
ENDBRANCH  15  16
ENDBRANCH  14  15
ENDBRANCH  13  14
ENDBRANCH   1  13
TORSDOF 20
ENDMDL
MODEL 4
REMARK VINA RESULT:    -3.664      7.890     11.155
REMARK INTER + INTRA:         -12.059
REMARK INTER:                  -8.217
REMARK INTRA:                  -3.842
REMARK UNBOUND:                -4.112
REMARK SMILES CCCCCCCCCCCCCCCCCCCCCC(=O)[O-]
REMARK SMILES IDX 12 1 11 2 10 3 9 4 8 5 7 6 6 7 5 8 4 9 3 10 2 11 1 12 13 13
REMARK SMILES IDX 14 14 15 15 16 16 17 17 18 18 19 19 20 20 21 21 22 22 23 23
REMARK SMILES IDX 24 24
REMARK H PARENT
REMARK Flexibility Score: inf
ROOT
ATOM      1  C   UNL     1     174.782 177.976 177.928  1.00  0.00     0.000 C 
ENDROOT
BRANCH   1   2
ATOM      2  C   UNL     1     173.828 179.097 178.377  1.00  0.00     0.000 C 
BRANCH   2   3
ATOM      3  C   UNL     1     173.306 178.977 179.821  1.00  0.00     0.000 C 
BRANCH   3   4
ATOM      4  C   UNL     1     171.782 179.162 179.924  1.00  0.00    -0.000 C 
BRANCH   4   5
ATOM      5  C   UNL     1     171.311 179.374 181.373  1.00  0.00    -0.000 C 
BRANCH   5   6
ATOM      6  C   UNL     1     169.954 178.714 181.664  1.00  0.00    -0.000 C 
BRANCH   6   7
ATOM      7  C   UNL     1     170.040 177.808 182.901  1.00  0.00    -0.000 C 
BRANCH   7   8
ATOM      8  C   UNL     1     170.425 176.358 182.553  1.00  0.00    -0.000 C 
BRANCH   8   9
ATOM      9  C   UNL     1     171.928 176.131 182.293  1.00  0.00    -0.000 C 
BRANCH   9  10
ATOM     10  C   UNL     1     172.257 175.305 181.033  1.00  0.00    -0.000 C 
BRANCH  10  11
ATOM     11  C   UNL     1     171.285 175.505 179.858  1.00  0.00    -0.003 C 
ATOM     12  C   UNL     1     171.996 175.634 178.511  1.00  0.00     0.004 C 
ENDBRANCH  10  11
ENDBRANCH   9  10
ENDBRANCH   8   9
ENDBRANCH   7   8
ENDBRANCH   6   7
ENDBRANCH   5   6
ENDBRANCH   4   5
ENDBRANCH   3   4
ENDBRANCH   2   3
ENDBRANCH   1   2
BRANCH   1  13
ATOM     13  C   UNL     1     176.130 178.504 177.412  1.00  0.00     0.000 C 
BRANCH  13  14
ATOM     14  C   UNL     1     176.558 179.764 178.177  1.00  0.00     0.000 C 
BRANCH  14  15
ATOM     15  C   UNL     1     177.369 179.448 179.448  1.00  0.00     0.000 C 
BRANCH  15  16
ATOM     16  C   UNL     1     176.737 179.943 180.761  1.00  0.00     0.000 C 
BRANCH  16  17
ATOM     17  C   UNL     1     176.737 178.874 181.867  1.00  0.00     0.000 C 
BRANCH  17  18
ATOM     18  C   UNL     1     177.036 177.463 181.318  1.00  0.00     0.000 C 
BRANCH  18  19
ATOM     19  C   UNL     1     175.789 176.568 181.195  1.00  0.00     0.000 C 
BRANCH  19  20
ATOM     20  C   UNL     1     175.862 175.498 180.088  1.00  0.00     0.006 C 
BRANCH  20  21
ATOM     21  C   UNL     1     177.272 175.279 179.515  1.00  0.00     0.053 C 
BRANCH  21  22
ATOM     22  C   UNL     1     177.885 174.007 180.012  1.00  0.00     0.041 C 
ATOM     23  O   UNL     1     177.963 173.783 181.248  1.00  0.00    -0.550 OA
ATOM     24  O   UNL     1     178.399 173.084 179.109  1.00  0.00    -0.550 OA
ENDBRANCH  21  22
ENDBRANCH  20  21
ENDBRANCH  19  20
ENDBRANCH  18  19
ENDBRANCH  17  18
ENDBRANCH  16  17
ENDBRANCH  15  16
ENDBRANCH  14  15
ENDBRANCH  13  14
ENDBRANCH   1  13
TORSDOF 20
ENDMDL
MODEL 5
REMARK VINA RESULT:    -3.623      4.386      9.752
REMARK INTER + INTRA:         -11.971
REMARK INTER:                 -10.192
REMARK INTRA:                  -1.778
REMARK UNBOUND:                -4.112
REMARK SMILES CCCCCCCCCCCCCCCCCCCCCC(=O)[O-]
REMARK SMILES IDX 12 1 11 2 10 3 9 4 8 5 7 6 6 7 5 8 4 9 3 10 2 11 1 12 13 13
REMARK SMILES IDX 14 14 15 15 16 16 17 17 18 18 19 19 20 20 21 21 22 22 23 23
REMARK SMILES IDX 24 24
REMARK H PARENT
REMARK Flexibility Score: inf
ROOT
ATOM      1  C   UNL     1     168.186 177.145 180.394  1.00  0.00     0.000 C 
ENDROOT
BRANCH   1   2
ATOM      2  C   UNL     1     169.420 177.214 181.312  1.00  0.00     0.000 C 
BRANCH   2   3
ATOM      3  C   UNL     1     169.742 178.610 181.877  1.00  0.00     0.000 C 
BRANCH   3   4
ATOM      4  C   UNL     1     171.170 179.075 181.546  1.00  0.00    -0.000 C 
BRANCH   4   5
ATOM      5  C   UNL     1     171.665 178.543 180.190  1.00  0.00    -0.000 C 
BRANCH   5   6
ATOM      6  C   UNL     1     173.091 179.003 179.849  1.00  0.00    -0.000 C 
BRANCH   6   7
ATOM      7  C   UNL     1     173.905 179.256 181.126  1.00  0.00    -0.000 C 
BRANCH   7   8
ATOM      8  C   UNL     1     175.087 178.282 181.283  1.00  0.00    -0.000 C 
BRANCH   8   9
ATOM      9  C   UNL     1     176.401 178.929 181.767  1.00  0.00    -0.000 C 
BRANCH   9  10
ATOM     10  C   UNL     1     177.150 179.762 180.708  1.00  0.00    -0.000 C 
BRANCH  10  11
ATOM     11  C   UNL     1     177.218 179.120 179.311  1.00  0.00    -0.003 C 
ATOM     12  C   UNL     1     176.499 179.941 178.242  1.00  0.00     0.004 C 
ENDBRANCH  10  11
ENDBRANCH   9  10
ENDBRANCH   8   9
ENDBRANCH   7   8
ENDBRANCH   6   7
ENDBRANCH   5   6
ENDBRANCH   4   5
ENDBRANCH   3   4
ENDBRANCH   2   3
ENDBRANCH   1   2
BRANCH   1  13
ATOM     13  C   UNL     1     167.992 178.416 179.552  1.00  0.00     0.000 C 
BRANCH  13  14
ATOM     14  C   UNL     1     166.502 178.749 179.390  1.00  0.00     0.000 C 
BRANCH  14  15
ATOM     15  C   UNL     1     165.668 178.392 180.635  1.00  0.00     0.000 C 
BRANCH  15  16
ATOM     16  C   UNL     1     164.745 179.514 181.143  1.00  0.00     0.000 C 
BRANCH  16  17
ATOM     17  C   UNL     1     163.532 178.984 181.926  1.00  0.00     0.000 C 
BRANCH  17  18
ATOM     18  C   UNL     1     162.197 179.280 181.209  1.00  0.00     0.000 C 
BRANCH  18  19
ATOM     19  C   UNL     1     162.367 179.970 179.843  1.00  0.00     0.000 C 
BRANCH  19  20
ATOM     20  C   UNL     1     161.376 179.511 178.755  1.00  0.00     0.006 C 
BRANCH  20  21
ATOM     21  C   UNL     1     161.887 178.351 177.885  1.00  0.00     0.053 C 
BRANCH  21  22
ATOM     22  C   UNL     1     162.039 177.088 178.674  1.00  0.00     0.041 C 
ATOM     23  O   UNL     1     161.031 176.540 179.191  1.00  0.00    -0.550 OA
ATOM     24  O   UNL     1     163.299 176.534 178.864  1.00  0.00    -0.550 OA
ENDBRANCH  21  22
ENDBRANCH  20  21
ENDBRANCH  19  20
ENDBRANCH  18  19
ENDBRANCH  17  18
ENDBRANCH  16  17
ENDBRANCH  15  16
ENDBRANCH  14  15
ENDBRANCH  13  14
ENDBRANCH   1  13
TORSDOF 20
ENDMDL
MODEL 6
REMARK VINA RESULT:    -3.616      1.727      3.462
REMARK INTER + INTRA:         -11.955
REMARK INTER:                  -8.855
REMARK INTRA:                  -3.100
REMARK UNBOUND:                -4.112
REMARK SMILES CCCCCCCCCCCCCCCCCCCCCC(=O)[O-]
REMARK SMILES IDX 12 1 11 2 10 3 9 4 8 5 7 6 6 7 5 8 4 9 3 10 2 11 1 12 13 13
REMARK SMILES IDX 14 14 15 15 16 16 17 17 18 18 19 19 20 20 21 21 22 22 23 23
REMARK SMILES IDX 24 24
REMARK H PARENT
REMARK Flexibility Score: inf
ROOT
ATOM      1  C   UNL     1     162.136 176.712 178.369  1.00  0.00     0.000 C 
ENDROOT
BRANCH   1   2
ATOM      2  C   UNL     1     163.227 176.312 179.379  1.00  0.00     0.000 C 
BRANCH   2   3
ATOM      3  C   UNL     1     162.709 175.834 180.749  1.00  0.00     0.000 C 
BRANCH   3   4
ATOM      4  C   UNL     1     161.226 176.169 180.979  1.00  0.00    -0.000 C 
BRANCH   4   5
ATOM      5  C   UNL     1     160.342 174.913 181.060  1.00  0.00    -0.000 C 
BRANCH   5   6
ATOM      6  C   UNL     1     160.959 173.700 180.346  1.00  0.00    -0.000 C 
BRANCH   6   7
ATOM      7  C   UNL     1     160.798 172.428 181.191  1.00  0.00    -0.000 C 
BRANCH   7   8
ATOM      8  C   UNL     1     161.125 172.655 182.679  1.00  0.00    -0.000 C 
BRANCH   8   9
ATOM      9  C   UNL     1     162.628 172.643 183.022  1.00  0.00    -0.000 C 
BRANCH   9  10
ATOM     10  C   UNL     1     163.523 171.888 182.019  1.00  0.00    -0.000 C 
BRANCH  10  11
ATOM     11  C   UNL     1     164.695 172.709 181.453  1.00  0.00    -0.003 C 
ATOM     12  C   UNL     1     165.928 171.860 181.152  1.00  0.00     0.004 C 
ENDBRANCH  10  11
ENDBRANCH   9  10
ENDBRANCH   8   9
ENDBRANCH   7   8
ENDBRANCH   6   7
ENDBRANCH   5   6
ENDBRANCH   4   5
ENDBRANCH   3   4
ENDBRANCH   2   3
ENDBRANCH   1   2
BRANCH   1  13
ATOM     13  C   UNL     1     162.305 178.144 177.838  1.00  0.00     0.000 C 
BRANCH  13  14
ATOM     14  C   UNL     1     161.363 179.116 178.562  1.00  0.00     0.000 C 
BRANCH  14  15
ATOM     15  C   UNL     1     162.106 180.081 179.505  1.00  0.00     0.000 C 
BRANCH  15  16
ATOM     16  C   UNL     1     161.952 179.772 181.005  1.00  0.00     0.000 C 
BRANCH  16  17
ATOM     17  C   UNL     1     163.279 179.381 181.676  1.00  0.00     0.000 C 
BRANCH  17  18
ATOM     18  C   UNL     1     164.492 179.589 180.743  1.00  0.00     0.000 C 
BRANCH  18  19
ATOM     19  C   UNL     1     165.527 178.451 180.809  1.00  0.00     0.000 C 
BRANCH  19  20
ATOM     20  C   UNL     1     166.686 178.567 179.800  1.00  0.00     0.006 C 
BRANCH  20  21
ATOM     21  C   UNL     1     167.782 177.503 179.973  1.00  0.00     0.053 C 
BRANCH  21  22
ATOM     22  C   UNL     1     169.154 178.095 179.881  1.00  0.00     0.041 C 
ATOM     23  O   UNL     1     170.148 177.460 180.322  1.00  0.00    -0.550 OA
ATOM     24  O   UNL     1     169.331 179.361 179.337  1.00  0.00    -0.550 OA
ENDBRANCH  21  22
ENDBRANCH  20  21
ENDBRANCH  19  20
ENDBRANCH  18  19
ENDBRANCH  17  18
ENDBRANCH  16  17
ENDBRANCH  15  16
ENDBRANCH  14  15
ENDBRANCH  13  14
ENDBRANCH   1  13
TORSDOF 20
ENDMDL
MODEL 7
REMARK VINA RESULT:    -3.589      3.189      5.121
REMARK INTER + INTRA:         -11.897
REMARK INTER:                  -7.990
REMARK INTRA:                  -3.907
REMARK UNBOUND:                -4.112
REMARK SMILES CCCCCCCCCCCCCCCCCCCCCC(=O)[O-]
REMARK SMILES IDX 12 1 11 2 10 3 9 4 8 5 7 6 6 7 5 8 4 9 3 10 2 11 1 12 13 13
REMARK SMILES IDX 14 14 15 15 16 16 17 17 18 18 19 19 20 20 21 21 22 22 23 23
REMARK SMILES IDX 24 24
REMARK H PARENT
REMARK Flexibility Score: inf
ROOT
ATOM      1  C   UNL     1     166.560 177.959 180.339  1.00  0.00     0.000 C 
ENDROOT
BRANCH   1   2
ATOM      2  C   UNL     1     165.807 177.283 179.179  1.00  0.00     0.000 C 
BRANCH   2   3
ATOM      3  C   UNL     1     165.113 175.954 179.531  1.00  0.00     0.000 C 
BRANCH   3   4
ATOM      4  C   UNL     1     164.976 175.733 181.047  1.00  0.00    -0.000 C 
BRANCH   4   5
ATOM      5  C   UNL     1     163.531 175.421 181.470  1.00  0.00    -0.000 C 
BRANCH   5   6
ATOM      6  C   UNL     1     163.306 173.934 181.786  1.00  0.00    -0.000 C 
BRANCH   6   7
ATOM      7  C   UNL     1     161.810 173.592 181.771  1.00  0.00    -0.000 C 
BRANCH   7   8
ATOM      8  C   UNL     1     160.964 174.642 181.028  1.00  0.00    -0.000 C 
BRANCH   8   9
ATOM      9  C   UNL     1     160.548 174.247 179.597  1.00  0.00    -0.000 C 
BRANCH   9  10
ATOM     10  C   UNL     1     160.756 172.761 179.241  1.00  0.00    -0.000 C 
BRANCH  10  11
ATOM     11  C   UNL     1     161.691 172.508 178.045  1.00  0.00    -0.003 C 
ATOM     12  C   UNL     1     162.989 173.311 178.122  1.00  0.00     0.004 C 
ENDBRANCH  10  11
ENDBRANCH   9  10
ENDBRANCH   8   9
ENDBRANCH   7   8
ENDBRANCH   6   7
ENDBRANCH   5   6
ENDBRANCH   4   5
ENDBRANCH   3   4
ENDBRANCH   2   3
ENDBRANCH   1   2
BRANCH   1  13
ATOM     13  C   UNL     1     166.259 179.461 180.457  1.00  0.00     0.000 C 
BRANCH  13  14
ATOM     14  C   UNL     1     164.768 179.745 180.231  1.00  0.00     0.000 C 
BRANCH  14  15
ATOM     15  C   UNL     1     163.889 179.321 181.422  1.00  0.00     0.000 C 
BRANCH  15  16
ATOM     16  C   UNL     1     162.437 178.956 181.062  1.00  0.00     0.000 C 
BRANCH  16  17
ATOM     17  C   UNL     1     161.845 179.863 179.970  1.00  0.00     0.000 C 
BRANCH  17  18
ATOM     18  C   UNL     1     161.597 179.106 178.648  1.00  0.00     0.000 C 
BRANCH  18  19
ATOM     19  C   UNL     1     161.815 177.585 178.756  1.00  0.00     0.000 C 
BRANCH  19  20
ATOM     20  C   UNL     1     162.207 176.889 177.437  1.00  0.00     0.006 C 
BRANCH  20  21
ATOM     21  C   UNL     1     161.013 176.361 176.625  1.00  0.00     0.053 C 
BRANCH  21  22
ATOM     22  C   UNL     1     161.427 175.893 175.264  1.00  0.00     0.041 C 
ATOM     23  O   UNL     1     162.326 175.020 175.142  1.00  0.00    -0.550 OA
ATOM     24  O   UNL     1     160.844 176.447 174.131  1.00  0.00    -0.550 OA
ENDBRANCH  21  22
ENDBRANCH  20  21
ENDBRANCH  19  20
ENDBRANCH  18  19
ENDBRANCH  17  18
ENDBRANCH  16  17
ENDBRANCH  15  16
ENDBRANCH  14  15
ENDBRANCH  13  14
ENDBRANCH   1  13
TORSDOF 20
ENDMDL
MODEL 8
REMARK VINA RESULT:    -3.575      5.047     10.446
REMARK INTER + INTRA:         -11.867
REMARK INTER:                 -10.095
REMARK INTRA:                  -1.772
REMARK UNBOUND:                -4.112
REMARK SMILES CCCCCCCCCCCCCCCCCCCCCC(=O)[O-]
REMARK SMILES IDX 12 1 11 2 10 3 9 4 8 5 7 6 6 7 5 8 4 9 3 10 2 11 1 12 13 13
REMARK SMILES IDX 14 14 15 15 16 16 17 17 18 18 19 19 20 20 21 21 22 22 23 23
REMARK SMILES IDX 24 24
REMARK H PARENT
REMARK Flexibility Score: inf
ROOT
ATOM      1  C   UNL     1     170.136 177.640 182.133  1.00  0.00     0.000 C 
ENDROOT
BRANCH   1   2
ATOM      2  C   UNL     1     171.541 177.701 181.508  1.00  0.00     0.000 C 
BRANCH   2   3
ATOM      3  C   UNL     1     172.016 179.107 181.095  1.00  0.00     0.000 C 
BRANCH   3   4
ATOM      4  C   UNL     1     173.547 179.250 181.108  1.00  0.00    -0.000 C 
BRANCH   4   5
ATOM      5  C   UNL     1     174.267 177.902 180.941  1.00  0.00    -0.000 C 
BRANCH   5   6
ATOM      6  C   UNL     1     175.736 177.947 181.390  1.00  0.00    -0.000 C 
BRANCH   6   7
ATOM      7  C   UNL     1     176.218 179.397 181.540  1.00  0.00    -0.000 C 
BRANCH   7   8
ATOM      8  C   UNL     1     177.284 179.782 180.498  1.00  0.00    -0.000 C 
BRANCH   8   9
ATOM      9  C   UNL     1     176.731 180.124 179.100  1.00  0.00    -0.000 C 
BRANCH   9  10
ATOM     10  C   UNL     1     176.879 179.008 178.046  1.00  0.00    -0.000 C 
BRANCH  10  11
ATOM     11  C   UNL     1     175.553 178.493 177.460  1.00  0.00    -0.003 C 
ATOM     12  C   UNL     1     175.417 176.973 177.538  1.00  0.00     0.004 C 
ENDBRANCH  10  11
ENDBRANCH   9  10
ENDBRANCH   8   9
ENDBRANCH   7   8
ENDBRANCH   6   7
ENDBRANCH   5   6
ENDBRANCH   4   5
ENDBRANCH   3   4
ENDBRANCH   2   3
ENDBRANCH   1   2
BRANCH   1  13
ATOM     13  C   UNL     1     169.145 178.617 181.480  1.00  0.00     0.000 C 
BRANCH  13  14
ATOM     14  C   UNL     1     168.019 177.862 180.759  1.00  0.00     0.000 C 
BRANCH  14  15
ATOM     15  C   UNL     1     167.461 178.631 179.547  1.00  0.00     0.000 C 
BRANCH  15  16
ATOM     16  C   UNL     1     165.925 178.678 179.458  1.00  0.00     0.000 C 
BRANCH  16  17
ATOM     17  C   UNL     1     165.304 179.748 180.372  1.00  0.00     0.000 C 
BRANCH  17  18
ATOM     18  C   UNL     1     164.439 179.131 181.493  1.00  0.00     0.000 C 
BRANCH  18  19
ATOM     19  C   UNL     1     162.956 179.542 181.427  1.00  0.00     0.000 C 
BRANCH  19  20
ATOM     20  C   UNL     1     161.963 178.371 181.286  1.00  0.00     0.006 C 
BRANCH  20  21
ATOM     21  C   UNL     1     162.582 177.085 180.713  1.00  0.00     0.053 C 
BRANCH  21  22
ATOM     22  C   UNL     1     161.536 176.099 180.297  1.00  0.00     0.041 C 
ATOM     23  O   UNL     1     161.008 176.179 179.156  1.00  0.00    -0.550 OA
ATOM     24  O   UNL     1     161.119 175.112 181.182  1.00  0.00    -0.550 OA
ENDBRANCH  21  22
ENDBRANCH  20  21
ENDBRANCH  19  20
ENDBRANCH  18  19
ENDBRANCH  17  18
ENDBRANCH  16  17
ENDBRANCH  15  16
ENDBRANCH  14  15
ENDBRANCH  13  14
ENDBRANCH   1  13
TORSDOF 20
ENDMDL
MODEL 9
REMARK VINA RESULT:    -3.570      3.801      8.354
REMARK INTER + INTRA:         -11.857
REMARK INTER:                  -9.759
REMARK INTRA:                  -2.097
REMARK UNBOUND:                -4.112
REMARK SMILES CCCCCCCCCCCCCCCCCCCCCC(=O)[O-]
REMARK SMILES IDX 12 1 11 2 10 3 9 4 8 5 7 6 6 7 5 8 4 9 3 10 2 11 1 12 13 13
REMARK SMILES IDX 14 14 15 15 16 16 17 17 18 18 19 19 20 20 21 21 22 22 23 23
REMARK SMILES IDX 24 24
REMARK H PARENT
REMARK Flexibility Score: inf
ROOT
ATOM      1  C   UNL     1     164.537 176.963 178.070  1.00  0.00     0.000 C 
ENDROOT
BRANCH   1   2
ATOM      2  C   UNL     1     165.563 177.171 179.199  1.00  0.00     0.000 C 
BRANCH   2   3
ATOM      3  C   UNL     1     166.484 178.395 179.033  1.00  0.00     0.000 C 
BRANCH   3   4
ATOM      4  C   UNL     1     167.163 178.816 180.347  1.00  0.00    -0.000 C 
BRANCH   4   5
ATOM      5  C   UNL     1     168.677 178.547 180.341  1.00  0.00    -0.000 C 
BRANCH   5   6
ATOM      6  C   UNL     1     169.306 178.623 181.741  1.00  0.00    -0.000 C 
BRANCH   6   7
ATOM      7  C   UNL     1     170.816 178.351 181.679  1.00  0.00    -0.000 C 
BRANCH   7   8
ATOM      8  C   UNL     1     171.640 179.621 181.402  1.00  0.00    -0.000 C 
BRANCH   8   9
ATOM      9  C   UNL     1     173.015 179.373 180.748  1.00  0.00    -0.000 C 
BRANCH   9  10
ATOM     10  C   UNL     1     173.657 178.009 181.070  1.00  0.00    -0.000 C 
BRANCH  10  11
ATOM     11  C   UNL     1     175.168 177.924 180.793  1.00  0.00    -0.003 C 
ATOM     12  C   UNL     1     175.958 179.059 181.444  1.00  0.00     0.004 C 
ENDBRANCH  10  11
ENDBRANCH   9  10
ENDBRANCH   8   9
ENDBRANCH   7   8
ENDBRANCH   6   7
ENDBRANCH   5   6
ENDBRANCH   4   5
ENDBRANCH   3   4
ENDBRANCH   2   3
ENDBRANCH   1   2
BRANCH   1  13
ATOM     13  C   UNL     1     164.040 178.283 177.460  1.00  0.00     0.000 C 
BRANCH  13  14
ATOM     14  C   UNL     1     162.548 178.499 177.753  1.00  0.00     0.000 C 
BRANCH  14  15
ATOM     15  C   UNL     1     162.240 179.908 178.292  1.00  0.00     0.000 C 
BRANCH  15  16
ATOM     16  C   UNL     1     161.968 179.980 179.806  1.00  0.00     0.000 C 
BRANCH  16  17
ATOM     17  C   UNL     1     163.214 179.675 180.654  1.00  0.00     0.000 C 
BRANCH  17  18
ATOM     18  C   UNL     1     163.033 178.419 181.533  1.00  0.00     0.000 C 
BRANCH  18  19
ATOM     19  C   UNL     1     161.819 177.558 181.139  1.00  0.00     0.000 C 
BRANCH  19  20
ATOM     20  C   UNL     1     162.093 176.042 181.065  1.00  0.00     0.006 C 
BRANCH  20  21
ATOM     21  C   UNL     1     160.826 175.172 181.066  1.00  0.00     0.053 C 
BRANCH  21  22
ATOM     22  C   UNL     1     160.629 174.472 179.758  1.00  0.00     0.041 C 
ATOM     23  O   UNL     1     160.605 175.131 178.685  1.00  0.00    -0.550 OA
ATOM     24  O   UNL     1     160.438 173.096 179.726  1.00  0.00    -0.550 OA
ENDBRANCH  21  22
ENDBRANCH  20  21
ENDBRANCH  19  20
ENDBRANCH  18  19
ENDBRANCH  17  18
ENDBRANCH  16  17
ENDBRANCH  15  16
ENDBRANCH  14  15
ENDBRANCH  13  14
ENDBRANCH   1  13
TORSDOF 20
ENDMDL
