MODEL 1
REMARK VINA RESULT:    -4.545      0.000      0.000
REMARK INTER + INTRA:         -18.295
REMARK INTER:                 -11.985
REMARK INTRA:                  -6.310
REMARK UNBOUND:                -6.310
REMARK SMILES CCCCCCCCCCCCCCCCCCCCCCCCCCCCCC(=O)[O-]
REMARK SMILES IDX 16 1 17 2 18 3 19 4 20 5 21 6 22 7 23 8 24 9 25 10 26 11
REMARK SMILES IDX 27 12 28 13 29 14 30 15 31 16 32 17 15 18 14 19 13 20 12 21
REMARK SMILES IDX 11 22 10 23 9 24 8 25 7 26 6 27 5 28 4 29 3 30 2 31 1 32
REMARK H PARENT
REMARK Flexibility Score: inf
ROOT
ATOM      1  C   UNL     1     -16.588  -4.569  22.372  1.00  0.00     0.000 C 
ENDROOT
BRANCH   1   2
ATOM      2  C   UNL     1     -18.120  -4.620  22.478  1.00  0.00     0.000 C 
BRANCH   2   3
ATOM      3  C   UNL     1     -18.728  -5.832  21.749  1.00  0.00     0.000 C 
BRANCH   3   4
ATOM      4  C   UNL     1     -19.266  -5.537  20.334  1.00  0.00     0.000 C 
BRANCH   4   5
ATOM      5  C   UNL     1     -18.811  -6.518  19.233  1.00  0.00     0.000 C 
BRANCH   5   6
ATOM      6  C   UNL     1     -18.946  -5.999  17.789  1.00  0.00     0.000 C 
BRANCH   6   7
ATOM      7  C   UNL     1     -20.047  -4.934  17.632  1.00  0.00     0.000 C 
BRANCH   7   8
ATOM      8  C   UNL     1     -19.622  -3.779  16.710  1.00  0.00     0.000 C 
BRANCH   8   9
ATOM      9  C   UNL     1     -18.423  -2.989  17.261  1.00  0.00     0.000 C 
BRANCH   9  10
ATOM     10  C   UNL     1     -18.714  -2.354  18.632  1.00  0.00     0.000 C 
BRANCH  10  11
ATOM     11  C   UNL     1     -17.533  -2.376  19.622  1.00  0.00     0.000 C 
BRANCH  11  12
ATOM     12  C   UNL     1     -17.543  -1.204  20.625  1.00  0.00     0.000 C 
BRANCH  12  13
ATOM     13  C   UNL     1     -16.136  -0.878  21.156  1.00  0.00     0.006 C 
BRANCH  13  14
ATOM     14  C   UNL     1     -15.699   0.549  20.804  1.00  0.00     0.053 C 
BRANCH  14  15
ATOM     15  C   UNL     1     -14.319   0.850  21.302  1.00  0.00     0.041 C 
ATOM     16  O   UNL     1     -13.769   1.948  21.023  1.00  0.00    -0.550 OA
ATOM     17  O   UNL     1     -13.626  -0.097  22.045  1.00  0.00    -0.550 OA
ENDBRANCH  14  15
ENDBRANCH  13  14
ENDBRANCH  12  13
ENDBRANCH  11  12
ENDBRANCH  10  11
ENDBRANCH   9  10
ENDBRANCH   8   9
ENDBRANCH   7   8
ENDBRANCH   6   7
ENDBRANCH   5   6
ENDBRANCH   4   5
ENDBRANCH   3   4
ENDBRANCH   2   3
ENDBRANCH   1   2
BRANCH   1  18
ATOM     18  C   UNL     1     -15.946  -5.968  22.379  1.00  0.00     0.000 C 
BRANCH  18  19
ATOM     19  C   UNL     1     -15.143  -6.263  21.100  1.00  0.00     0.000 C 
BRANCH  19  20
ATOM     20  C   UNL     1     -15.318  -5.183  20.021  1.00  0.00     0.000 C 
BRANCH  20  21
ATOM     21  C   UNL     1     -15.306  -5.763  18.593  1.00  0.00     0.000 C 
BRANCH  21  22
ATOM     22  C   UNL     1     -15.230  -4.674  17.503  1.00  0.00     0.000 C 
BRANCH  22  23
ATOM     23  C   UNL     1     -14.620  -3.345  17.980  1.00  0.00     0.000 C 
BRANCH  23  24
ATOM     24  C   UNL     1     -14.762  -2.214  16.952  1.00  0.00    -0.000 C 
BRANCH  24  25
ATOM     25  C   UNL     1     -14.344  -0.861  17.547  1.00  0.00    -0.000 C 
BRANCH  25  26
ATOM     26  C   UNL     1     -14.668   0.320  16.606  1.00  0.00    -0.000 C 
BRANCH  26  27
ATOM     27  C   UNL     1     -16.173   0.489  16.318  1.00  0.00    -0.000 C 
BRANCH  27  28
ATOM     28  C   UNL     1     -17.046   0.780  17.552  1.00  0.00    -0.000 C 
BRANCH  28  29
ATOM     29  C   UNL     1     -18.332   1.582  17.263  1.00  0.00    -0.000 C 
BRANCH  29  30
ATOM     30  C   UNL     1     -19.471   1.310  18.268  1.00  0.00    -0.000 C 
BRANCH  30  31
ATOM     31  C   UNL     1     -20.791   0.947  17.572  1.00  0.00    -0.003 C 
ATOM     32  C   UNL     1     -20.543   0.078  16.344  1.00  0.00     0.004 C 
ENDBRANCH  30  31
ENDBRANCH  29  30
ENDBRANCH  28  29
ENDBRANCH  27  28
ENDBRANCH  26  27
ENDBRANCH  25  26
ENDBRANCH  24  25
ENDBRANCH  23  24
ENDBRANCH  22  23
ENDBRANCH  21  22
ENDBRANCH  20  21
ENDBRANCH  19  20
ENDBRANCH  18  19
ENDBRANCH   1  18
TORSDOF 28
ENDMDL
MODEL 2
REMARK VINA RESULT:    -4.502      2.551      5.635
REMARK INTER + INTRA:         -18.182
REMARK INTER:                 -12.407
REMARK INTRA:                  -5.775
REMARK UNBOUND:                -6.310
REMARK SMILES CCCCCCCCCCCCCCCCCCCCCCCCCCCCCC(=O)[O-]
REMARK SMILES IDX 16 1 17 2 18 3 19 4 20 5 21 6 22 7 23 8 24 9 25 10 26 11
REMARK SMILES IDX 27 12 28 13 29 14 30 15 31 16 32 17 15 18 14 19 13 20 12 21
REMARK SMILES IDX 11 22 10 23 9 24 8 25 7 26 6 27 5 28 4 29 3 30 2 31 1 32
REMARK H PARENT
REMARK Flexibility Score: inf
ROOT
ATOM      1  C   UNL     1     -16.253  -2.360  19.579  1.00  0.00     0.000 C 
ENDROOT
BRANCH   1   2
ATOM      2  C   UNL     1     -16.894  -1.686  20.804  1.00  0.00     0.000 C 
BRANCH   2   3
ATOM      3  C   UNL     1     -16.426  -2.303  22.134  1.00  0.00     0.000 C 
BRANCH   3   4
ATOM      4  C   UNL     1     -17.166  -3.590  22.550  1.00  0.00     0.000 C 
BRANCH   4   5
ATOM      5  C   UNL     1     -16.358  -4.897  22.406  1.00  0.00     0.000 C 
BRANCH   5   6
ATOM      6  C   UNL     1     -17.056  -6.022  21.619  1.00  0.00     0.000 C 
BRANCH   6   7
ATOM      7  C   UNL     1     -16.103  -6.780  20.678  1.00  0.00     0.000 C 
BRANCH   7   8
ATOM      8  C   UNL     1     -15.040  -5.863  20.051  1.00  0.00     0.000 C 
BRANCH   8   9
ATOM      9  C   UNL     1     -15.134  -5.806  18.517  1.00  0.00     0.000 C 
BRANCH   9  10
ATOM     10  C   UNL     1     -16.419  -6.459  17.980  1.00  0.00     0.000 C 
BRANCH  10  11
ATOM     11  C   UNL     1     -17.517  -5.470  17.542  1.00  0.00     0.000 C 
BRANCH  11  12
ATOM     12  C   UNL     1     -18.940  -6.066  17.582  1.00  0.00     0.000 C 
BRANCH  12  13
ATOM     13  C   UNL     1     -19.649  -5.794  18.921  1.00  0.00     0.006 C 
BRANCH  13  14
ATOM     14  C   UNL     1     -19.300  -4.414  19.493  1.00  0.00     0.053 C 
BRANCH  14  15
ATOM     15  C   UNL     1     -20.234  -4.012  20.592  1.00  0.00     0.041 C 
ATOM     16  O   UNL     1     -20.757  -2.866  20.594  1.00  0.00    -0.550 OA
ATOM     17  O   UNL     1     -20.501  -4.891  21.634  1.00  0.00    -0.550 OA
ENDBRANCH  14  15
ENDBRANCH  13  14
ENDBRANCH  12  13
ENDBRANCH  11  12
ENDBRANCH  10  11
ENDBRANCH   9  10
ENDBRANCH   8   9
ENDBRANCH   7   8
ENDBRANCH   6   7
ENDBRANCH   5   6
ENDBRANCH   4   5
ENDBRANCH   3   4
ENDBRANCH   2   3
ENDBRANCH   1   2
BRANCH   1  18
ATOM     18  C   UNL     1     -14.730  -2.155  19.518  1.00  0.00     0.000 C 
BRANCH  18  19
ATOM     19  C   UNL     1     -14.169  -2.259  18.089  1.00  0.00     0.000 C 
BRANCH  19  20
ATOM     20  C   UNL     1     -15.138  -1.721  17.026  1.00  0.00     0.000 C 
BRANCH  20  21
ATOM     21  C   UNL     1     -14.703  -0.352  16.465  1.00  0.00     0.000 C 
BRANCH  21  22
ATOM     22  C   UNL     1     -15.832   0.699  16.506  1.00  0.00     0.000 C 
BRANCH  22  23
ATOM     23  C   UNL     1     -17.064   0.272  17.323  1.00  0.00     0.000 C 
BRANCH  23  24
ATOM     24  C   UNL     1     -18.358   0.955  16.862  1.00  0.00    -0.000 C 
BRANCH  24  25
ATOM     25  C   UNL     1     -19.596   0.132  17.253  1.00  0.00    -0.000 C 
BRANCH  25  26
ATOM     26  C   UNL     1     -19.321  -1.388  17.230  1.00  0.00    -0.000 C 
BRANCH  26  27
ATOM     27  C   UNL     1     -20.590  -2.245  17.052  1.00  0.00    -0.000 C 
BRANCH  27  28
ATOM     28  C   UNL     1     -20.621  -3.109  15.777  1.00  0.00    -0.000 C 
BRANCH  28  29
ATOM     29  C   UNL     1     -21.985  -3.757  15.465  1.00  0.00    -0.000 C 
BRANCH  29  30
ATOM     30  C   UNL     1     -22.173  -5.147  16.109  1.00  0.00    -0.000 C 
BRANCH  30  31
ATOM     31  C   UNL     1     -22.957  -5.079  17.428  1.00  0.00    -0.003 C 
ATOM     32  C   UNL     1     -23.638  -6.410  17.731  1.00  0.00     0.004 C 
ENDBRANCH  30  31
ENDBRANCH  29  30
ENDBRANCH  28  29
ENDBRANCH  27  28
ENDBRANCH  26  27
ENDBRANCH  25  26
ENDBRANCH  24  25
ENDBRANCH  23  24
ENDBRANCH  22  23
ENDBRANCH  21  22
ENDBRANCH  20  21
ENDBRANCH  19  20
ENDBRANCH  18  19
ENDBRANCH   1  18
TORSDOF 28
ENDMDL
MODEL 3
REMARK VINA RESULT:    -4.477      1.916      5.996
REMARK INTER + INTRA:         -18.116
REMARK INTER:                 -12.729
REMARK INTRA:                  -5.387
REMARK UNBOUND:                -6.310
REMARK SMILES CCCCCCCCCCCCCCCCCCCCCCCCCCCCCC(=O)[O-]
REMARK SMILES IDX 16 1 17 2 18 3 19 4 20 5 21 6 22 7 23 8 24 9 25 10 26 11
REMARK SMILES IDX 27 12 28 13 29 14 30 15 31 16 32 17 15 18 14 19 13 20 12 21
REMARK SMILES IDX 11 22 10 23 9 24 8 25 7 26 6 27 5 28 4 29 3 30 2 31 1 32
REMARK H PARENT
REMARK Flexibility Score: inf
ROOT
ATOM      1  C   UNL     1     -14.483  -1.490  16.574  1.00  0.00     0.000 C 
ENDROOT
BRANCH   1   2
ATOM      2  C   UNL     1     -14.708  -0.127  17.249  1.00  0.00     0.000 C 
BRANCH   2   3
ATOM      3  C   UNL     1     -15.472   0.863  16.351  1.00  0.00     0.000 C 
BRANCH   3   4
ATOM      4  C   UNL     1     -16.994   0.918  16.593  1.00  0.00     0.000 C 
BRANCH   4   5
ATOM      5  C   UNL     1     -17.497   0.159  17.840  1.00  0.00     0.000 C 
BRANCH   5   6
ATOM      6  C   UNL     1     -18.190  -1.188  17.558  1.00  0.00     0.000 C 
BRANCH   6   7
ATOM      7  C   UNL     1     -17.615  -2.348  18.391  1.00  0.00     0.000 C 
BRANCH   7   8
ATOM      8  C   UNL     1     -17.304  -1.937  19.839  1.00  0.00     0.000 C 
BRANCH   8   9
ATOM      9  C   UNL     1     -15.964  -2.498  20.342  1.00  0.00     0.000 C 
BRANCH   9  10
ATOM     10  C   UNL     1     -14.980  -1.392  20.760  1.00  0.00     0.000 C 
BRANCH  10  11
ATOM     11  C   UNL     1     -15.579   0.027  20.807  1.00  0.00     0.000 C 
BRANCH  11  12
ATOM     12  C   UNL     1     -14.602   1.094  21.344  1.00  0.00     0.000 C 
BRANCH  12  13
ATOM     13  C   UNL     1     -14.981   1.575  22.756  1.00  0.00     0.006 C 
BRANCH  13  14
ATOM     14  C   UNL     1     -15.099   0.415  23.752  1.00  0.00     0.053 C 
BRANCH  14  15
ATOM     15  C   UNL     1     -16.453   0.362  24.390  1.00  0.00     0.041 C 
ATOM     16  O   UNL     1     -17.492   0.403  23.679  1.00  0.00    -0.550 OA
ATOM     17  O   UNL     1     -16.569   0.302  25.773  1.00  0.00    -0.550 OA
ENDBRANCH  14  15
ENDBRANCH  13  14
ENDBRANCH  12  13
ENDBRANCH  11  12
ENDBRANCH  10  11
ENDBRANCH   9  10
ENDBRANCH   8   9
ENDBRANCH   7   8
ENDBRANCH   6   7
ENDBRANCH   5   6
ENDBRANCH   4   5
ENDBRANCH   3   4
ENDBRANCH   2   3
ENDBRANCH   1   2
BRANCH   1  18
ATOM     18  C   UNL     1     -13.952  -2.555  17.550  1.00  0.00     0.000 C 
BRANCH  18  19
ATOM     19  C   UNL     1     -14.343  -3.986  17.143  1.00  0.00     0.000 C 
BRANCH  19  20
ATOM     20  C   UNL     1     -14.746  -4.099  15.665  1.00  0.00     0.000 C 
BRANCH  20  21
ATOM     21  C   UNL     1     -15.813  -5.184  15.423  1.00  0.00     0.000 C 
BRANCH  21  22
ATOM     22  C   UNL     1     -15.951  -6.165  16.606  1.00  0.00     0.000 C 
BRANCH  22  23
ATOM     23  C   UNL     1     -17.227  -5.971  17.442  1.00  0.00     0.000 C 
BRANCH  23  24
ATOM     24  C   UNL     1     -17.011  -6.231  18.939  1.00  0.00    -0.000 C 
BRANCH  24  25
ATOM     25  C   UNL     1     -15.602  -6.779  19.214  1.00  0.00    -0.000 C 
BRANCH  25  26
ATOM     26  C   UNL     1     -14.893  -6.028  20.362  1.00  0.00    -0.000 C 
BRANCH  26  27
ATOM     27  C   UNL     1     -14.772  -6.851  21.660  1.00  0.00    -0.000 C 
BRANCH  27  28
ATOM     28  C   UNL     1     -15.806  -6.511  22.749  1.00  0.00    -0.000 C 
BRANCH  28  29
ATOM     29  C   UNL     1     -16.655  -5.254  22.467  1.00  0.00    -0.000 C 
BRANCH  29  30
ATOM     30  C   UNL     1     -18.168  -5.537  22.364  1.00  0.00    -0.000 C 
BRANCH  30  31
ATOM     31  C   UNL     1     -19.014  -4.267  22.540  1.00  0.00    -0.003 C 
ATOM     32  C   UNL     1     -18.219  -3.170  23.242  1.00  0.00     0.004 C 
ENDBRANCH  30  31
ENDBRANCH  29  30
ENDBRANCH  28  29
ENDBRANCH  27  28
ENDBRANCH  26  27
ENDBRANCH  25  26
ENDBRANCH  24  25
ENDBRANCH  23  24
ENDBRANCH  22  23
ENDBRANCH  21  22
ENDBRANCH  20  21
ENDBRANCH  19  20
ENDBRANCH  18  19
ENDBRANCH   1  18
TORSDOF 28
ENDMDL
MODEL 4
REMARK VINA RESULT:    -4.451      2.638      5.957
REMARK INTER + INTRA:         -18.048
REMARK INTER:                 -13.144
REMARK INTRA:                  -4.903
REMARK UNBOUND:                -6.310
REMARK SMILES CCCCCCCCCCCCCCCCCCCCCCCCCCCCCC(=O)[O-]
REMARK SMILES IDX 16 1 17 2 18 3 19 4 20 5 21 6 22 7 23 8 24 9 25 10 26 11
REMARK SMILES IDX 27 12 28 13 29 14 30 15 31 16 32 17 15 18 14 19 13 20 12 21
REMARK SMILES IDX 11 22 10 23 9 24 8 25 7 26 6 27 5 28 4 29 3 30 2 31 1 32
REMARK H PARENT
REMARK Flexibility Score: inf
ROOT
ATOM      1  C   UNL     1     -19.510  -0.061  17.270  1.00  0.00     0.000 C 
ENDROOT
BRANCH   1   2
ATOM      2  C   UNL     1     -18.862  -1.228  18.034  1.00  0.00     0.000 C 
BRANCH   2   3
ATOM      3  C   UNL     1     -18.873  -2.542  17.234  1.00  0.00     0.000 C 
BRANCH   3   4
ATOM      4  C   UNL     1     -17.861  -3.603  17.712  1.00  0.00     0.000 C 
BRANCH   4   5
ATOM      5  C   UNL     1     -17.712  -4.839  16.799  1.00  0.00     0.000 C 
BRANCH   5   6
ATOM      6  C   UNL     1     -16.285  -5.112  16.285  1.00  0.00     0.000 C 
BRANCH   6   7
ATOM      7  C   UNL     1     -15.297  -5.470  17.410  1.00  0.00     0.000 C 
BRANCH   7   8
ATOM      8  C   UNL     1     -15.689  -6.759  18.150  1.00  0.00     0.000 C 
BRANCH   8   9
ATOM      9  C   UNL     1     -15.201  -6.779  19.608  1.00  0.00     0.000 C 
BRANCH   9  10
ATOM     10  C   UNL     1     -15.545  -5.484  20.364  1.00  0.00     0.000 C 
BRANCH  10  11
ATOM     11  C   UNL     1     -15.894  -5.674  21.853  1.00  0.00     0.000 C 
BRANCH  11  12
ATOM     12  C   UNL     1     -16.579  -4.446  22.490  1.00  0.00     0.000 C 
BRANCH  12  13
ATOM     13  C   UNL     1     -18.040  -4.290  22.032  1.00  0.00     0.006 C 
BRANCH  13  14
ATOM     14  C   UNL     1     -18.868  -3.446  23.009  1.00  0.00     0.053 C 
BRANCH  14  15
ATOM     15  C   UNL     1     -19.938  -4.253  23.677  1.00  0.00     0.041 C 
ATOM     16  O   UNL     1     -20.089  -5.469  23.387  1.00  0.00    -0.550 OA
ATOM     17  O   UNL     1     -20.789  -3.654  24.596  1.00  0.00    -0.550 OA
ENDBRANCH  14  15
ENDBRANCH  13  14
ENDBRANCH  12  13
ENDBRANCH  11  12
ENDBRANCH  10  11
ENDBRANCH   9  10
ENDBRANCH   8   9
ENDBRANCH   7   8
ENDBRANCH   6   7
ENDBRANCH   5   6
ENDBRANCH   4   5
ENDBRANCH   3   4
ENDBRANCH   2   3
ENDBRANCH   1   2
BRANCH   1  18
ATOM     18  C   UNL     1     -18.529   1.095  17.010  1.00  0.00     0.000 C 
BRANCH  18  19
ATOM     19  C   UNL     1     -17.078   0.742  17.380  1.00  0.00     0.000 C 
BRANCH  19  20
ATOM     20  C   UNL     1     -16.097   0.945  16.215  1.00  0.00     0.000 C 
BRANCH  20  21
ATOM     21  C   UNL     1     -14.835   0.069  16.343  1.00  0.00     0.000 C 
BRANCH  21  22
ATOM     22  C   UNL     1     -15.133  -1.332  16.918  1.00  0.00     0.000 C 
BRANCH  22  23
ATOM     23  C   UNL     1     -13.976  -1.941  17.729  1.00  0.00     0.000 C 
BRANCH  23  24
ATOM     24  C   UNL     1     -14.415  -2.466  19.102  1.00  0.00    -0.000 C 
BRANCH  24  25
ATOM     25  C   UNL     1     -14.831  -1.317  20.034  1.00  0.00    -0.000 C 
BRANCH  25  26
ATOM     26  C   UNL     1     -16.334  -1.361  20.385  1.00  0.00    -0.000 C 
BRANCH  26  27
ATOM     27  C   UNL     1     -16.713  -0.497  21.604  1.00  0.00    -0.000 C 
BRANCH  27  28
ATOM     28  C   UNL     1     -15.773  -0.631  22.816  1.00  0.00    -0.000 C 
BRANCH  28  29
ATOM     29  C   UNL     1     -15.095   0.682  23.260  1.00  0.00    -0.000 C 
BRANCH  29  30
ATOM     30  C   UNL     1     -14.448   1.469  22.101  1.00  0.00    -0.000 C 
BRANCH  30  31
ATOM     31  C   UNL     1     -14.572   2.989  22.285  1.00  0.00    -0.003 C 
ATOM     32  C   UNL     1     -16.027   3.436  22.197  1.00  0.00     0.004 C 
ENDBRANCH  30  31
ENDBRANCH  29  30
ENDBRANCH  28  29
ENDBRANCH  27  28
ENDBRANCH  26  27
ENDBRANCH  25  26
ENDBRANCH  24  25
ENDBRANCH  23  24
ENDBRANCH  22  23
ENDBRANCH  21  22
ENDBRANCH  20  21
ENDBRANCH  19  20
ENDBRANCH  18  19
ENDBRANCH   1  18
TORSDOF 28
ENDMDL
MODEL 5
REMARK VINA RESULT:    -4.434      1.520      3.602
REMARK INTER + INTRA:         -18.001
REMARK INTER:                 -12.861
REMARK INTRA:                  -5.140
REMARK UNBOUND:                -6.310
REMARK SMILES CCCCCCCCCCCCCCCCCCCCCCCCCCCCCC(=O)[O-]
REMARK SMILES IDX 16 1 17 2 18 3 19 4 20 5 21 6 22 7 23 8 24 9 25 10 26 11
REMARK SMILES IDX 27 12 28 13 29 14 30 15 31 16 32 17 15 18 14 19 13 20 12 21
REMARK SMILES IDX 11 22 10 23 9 24 8 25 7 26 6 27 5 28 4 29 3 30 2 31 1 32
REMARK H PARENT
REMARK Flexibility Score: inf
ROOT
ATOM      1  C   UNL     1     -18.476  -5.498  17.252  1.00  0.00     0.000 C 
ENDROOT
BRANCH   1   2
ATOM      2  C   UNL     1     -18.367  -5.170  18.750  1.00  0.00     0.000 C 
BRANCH   2   3
ATOM      3  C   UNL     1     -17.602  -6.246  19.541  1.00  0.00     0.000 C 
BRANCH   3   4
ATOM      4  C   UNL     1     -16.076  -6.036  19.618  1.00  0.00     0.000 C 
BRANCH   4   5
ATOM      5  C   UNL     1     -15.584  -5.156  20.787  1.00  0.00     0.000 C 
BRANCH   5   6
ATOM      6  C   UNL     1     -16.550  -5.045  21.982  1.00  0.00     0.000 C 
BRANCH   6   7
ATOM      7  C   UNL     1     -16.606  -3.629  22.582  1.00  0.00     0.000 C 
BRANCH   7   8
ATOM      8  C   UNL     1     -17.669  -2.745  21.908  1.00  0.00     0.000 C 
BRANCH   8   9
ATOM      9  C   UNL     1     -17.205  -2.187  20.553  1.00  0.00     0.000 C 
BRANCH   9  10
ATOM     10  C   UNL     1     -17.204  -0.649  20.516  1.00  0.00     0.000 C 
BRANCH  10  11
ATOM     11  C   UNL     1     -15.812  -0.002  20.372  1.00  0.00     0.000 C 
BRANCH  11  12
ATOM     12  C   UNL     1     -14.724  -0.678  21.232  1.00  0.00     0.000 C 
BRANCH  12  13
ATOM     13  C   UNL     1     -13.912   0.341  22.051  1.00  0.00     0.006 C 
BRANCH  13  14
ATOM     14  C   UNL     1     -14.155   1.783  21.590  1.00  0.00     0.053 C 
BRANCH  14  15
ATOM     15  C   UNL     1     -14.941   2.567  22.595  1.00  0.00     0.041 C 
ATOM     16  O   UNL     1     -15.173   3.790  22.406  1.00  0.00    -0.550 OA
ATOM     17  O   UNL     1     -15.389   1.954  23.758  1.00  0.00    -0.550 OA
ENDBRANCH  14  15
ENDBRANCH  13  14
ENDBRANCH  12  13
ENDBRANCH  11  12
ENDBRANCH  10  11
ENDBRANCH   9  10
ENDBRANCH   8   9
ENDBRANCH   7   8
ENDBRANCH   6   7
ENDBRANCH   5   6
ENDBRANCH   4   5
ENDBRANCH   3   4
ENDBRANCH   2   3
ENDBRANCH   1   2
BRANCH   1  18
ATOM     18  C   UNL     1     -17.740  -4.478  16.367  1.00  0.00     0.000 C 
BRANCH  18  19
ATOM     19  C   UNL     1     -16.399  -5.009  15.831  1.00  0.00     0.000 C 
BRANCH  19  20
ATOM     20  C   UNL     1     -15.185  -4.312  16.463  1.00  0.00     0.000 C 
BRANCH  20  21
ATOM     21  C   UNL     1     -15.566  -3.017  17.208  1.00  0.00     0.000 C 
BRANCH  21  22
ATOM     22  C   UNL     1     -14.377  -2.386  17.961  1.00  0.00     0.000 C 
BRANCH  22  23
ATOM     23  C   UNL     1     -14.020  -0.962  17.499  1.00  0.00     0.000 C 
BRANCH  23  24
ATOM     24  C   UNL     1     -14.856  -0.492  16.301  1.00  0.00    -0.000 C 
BRANCH  24  25
ATOM     25  C   UNL     1     -15.309   0.966  16.473  1.00  0.00    -0.000 C 
BRANCH  25  26
ATOM     26  C   UNL     1     -16.798   1.164  16.115  1.00  0.00    -0.000 C 
BRANCH  26  27
ATOM     27  C   UNL     1     -17.760   0.902  17.292  1.00  0.00    -0.000 C 
BRANCH  27  28
ATOM     28  C   UNL     1     -19.170   0.433  16.891  1.00  0.00    -0.000 C 
BRANCH  28  29
ATOM     29  C   UNL     1     -19.817  -0.580  17.858  1.00  0.00    -0.000 C 
BRANCH  29  30
ATOM     30  C   UNL     1     -20.233  -1.904  17.184  1.00  0.00    -0.000 C 
BRANCH  30  31
ATOM     31  C   UNL     1     -21.220  -1.686  16.027  1.00  0.00    -0.003 C 
ATOM     32  C   UNL     1     -21.219  -2.877  15.073  1.00  0.00     0.004 C 
ENDBRANCH  30  31
ENDBRANCH  29  30
ENDBRANCH  28  29
ENDBRANCH  27  28
ENDBRANCH  26  27
ENDBRANCH  25  26
ENDBRANCH  24  25
ENDBRANCH  23  24
ENDBRANCH  22  23
ENDBRANCH  21  22
ENDBRANCH  20  21
ENDBRANCH  19  20
ENDBRANCH  18  19
ENDBRANCH   1  18
TORSDOF 28
ENDMDL
MODEL 6
REMARK VINA RESULT:    -4.431     10.829     14.495
REMARK INTER + INTRA:         -17.995
REMARK INTER:                 -14.285
REMARK INTRA:                  -3.710
REMARK UNBOUND:                -6.310
REMARK SMILES CCCCCCCCCCCCCCCCCCCCCCCCCCCCCC(=O)[O-]
REMARK SMILES IDX 16 1 17 2 18 3 19 4 20 5 21 6 22 7 23 8 24 9 25 10 26 11
REMARK SMILES IDX 27 12 28 13 29 14 30 15 31 16 32 17 15 18 14 19 13 20 12 21
REMARK SMILES IDX 11 22 10 23 9 24 8 25 7 26 6 27 5 28 4 29 3 30 2 31 1 32
REMARK H PARENT
REMARK Flexibility Score: inf
ROOT
ATOM      1  C   UNL     1     -14.518   6.313  28.547  1.00  0.00     0.000 C 
ENDROOT
BRANCH   1   2
ATOM      2  C   UNL     1     -13.676   5.100  28.117  1.00  0.00     0.000 C 
BRANCH   2   3
ATOM      3  C   UNL     1     -14.079   3.807  28.846  1.00  0.00     0.000 C 
BRANCH   3   4
ATOM      4  C   UNL     1     -13.250   2.562  28.469  1.00  0.00     0.000 C 
BRANCH   4   5
ATOM      5  C   UNL     1     -14.062   1.274  28.217  1.00  0.00     0.000 C 
BRANCH   5   6
ATOM      6  C   UNL     1     -15.128   1.371  27.109  1.00  0.00     0.000 C 
BRANCH   6   7
ATOM      7  C   UNL     1     -15.910   0.060  26.909  1.00  0.00     0.000 C 
BRANCH   7   8
ATOM      8  C   UNL     1     -16.053  -0.746  28.210  1.00  0.00     0.000 C 
BRANCH   8   9
ATOM      9  C   UNL     1     -17.214  -0.254  29.090  1.00  0.00     0.000 C 
BRANCH   9  10
ATOM     10  C   UNL     1     -16.908  -0.373  30.593  1.00  0.00     0.000 C 
BRANCH  10  11
ATOM     11  C   UNL     1     -18.149  -0.466  31.503  1.00  0.00     0.000 C 
BRANCH  11  12
ATOM     12  C   UNL     1     -19.322   0.423  31.043  1.00  0.00     0.000 C 
BRANCH  12  13
ATOM     13  C   UNL     1     -19.624   1.554  32.042  1.00  0.00     0.006 C 
BRANCH  13  14
ATOM     14  C   UNL     1     -19.845   2.903  31.345  1.00  0.00     0.053 C 
BRANCH  14  15
ATOM     15  C   UNL     1     -18.556   3.630  31.115  1.00  0.00     0.041 C 
ATOM     16  O   UNL     1     -17.557   3.020  30.650  1.00  0.00    -0.550 OA
ATOM     17  O   UNL     1     -18.448   4.974  31.446  1.00  0.00    -0.550 OA
ENDBRANCH  14  15
ENDBRANCH  13  14
ENDBRANCH  12  13
ENDBRANCH  11  12
ENDBRANCH  10  11
ENDBRANCH   9  10
ENDBRANCH   8   9
ENDBRANCH   7   8
ENDBRANCH   6   7
ENDBRANCH   5   6
ENDBRANCH   4   5
ENDBRANCH   3   4
ENDBRANCH   2   3
ENDBRANCH   1   2
BRANCH   1  18
ATOM     18  C   UNL     1     -15.317   6.053  29.836  1.00  0.00     0.000 C 
BRANCH  18  19
ATOM     19  C   UNL     1     -14.658   6.670  31.082  1.00  0.00     0.000 C 
BRANCH  19  20
ATOM     20  C   UNL     1     -14.040   8.050  30.810  1.00  0.00     0.000 C 
BRANCH  20  21
ATOM     21  C   UNL     1     -14.285   9.046  31.961  1.00  0.00     0.000 C 
BRANCH  21  22
ATOM     22  C   UNL     1     -15.555   8.721  32.776  1.00  0.00     0.000 C 
BRANCH  22  23
ATOM     23  C   UNL     1     -16.835   9.388  32.243  1.00  0.00     0.000 C 
BRANCH  23  24
ATOM     24  C   UNL     1     -17.707   8.438  31.411  1.00  0.00    -0.000 C 
BRANCH  24  25
ATOM     25  C   UNL     1     -18.205   9.117  30.126  1.00  0.00    -0.000 C 
BRANCH  25  26
ATOM     26  C   UNL     1     -17.046   9.659  29.261  1.00  0.00    -0.000 C 
BRANCH  26  27
ATOM     27  C   UNL     1     -17.346  11.022  28.603  1.00  0.00    -0.000 C 
BRANCH  27  28
ATOM     28  C   UNL     1     -16.152  11.991  28.537  1.00  0.00    -0.000 C 
BRANCH  28  29
ATOM     29  C   UNL     1     -14.914  11.552  29.344  1.00  0.00    -0.000 C 
BRANCH  29  30
ATOM     30  C   UNL     1     -13.673  11.268  28.471  1.00  0.00    -0.000 C 
BRANCH  30  31
ATOM     31  C   UNL     1     -14.040  10.638  27.120  1.00  0.00    -0.003 C 
ATOM     32  C   UNL     1     -13.282   9.333  26.898  1.00  0.00     0.004 C 
ENDBRANCH  30  31
ENDBRANCH  29  30
ENDBRANCH  28  29
ENDBRANCH  27  28
ENDBRANCH  26  27
ENDBRANCH  25  26
ENDBRANCH  24  25
ENDBRANCH  23  24
ENDBRANCH  22  23
ENDBRANCH  21  22
ENDBRANCH  20  21
ENDBRANCH  19  20
ENDBRANCH  18  19
ENDBRANCH   1  18
TORSDOF 28
ENDMDL
MODEL 7
REMARK VINA RESULT:    -4.394      2.945      5.054
REMARK INTER + INTRA:         -17.896
REMARK INTER:                 -11.694
REMARK INTRA:                  -6.202
REMARK UNBOUND:                -6.310
REMARK SMILES CCCCCCCCCCCCCCCCCCCCCCCCCCCCCC(=O)[O-]
REMARK SMILES IDX 16 1 17 2 18 3 19 4 20 5 21 6 22 7 23 8 24 9 25 10 26 11
REMARK SMILES IDX 27 12 28 13 29 14 30 15 31 16 32 17 15 18 14 19 13 20 12 21
REMARK SMILES IDX 11 22 10 23 9 24 8 25 7 26 6 27 5 28 4 29 3 30 2 31 1 32
REMARK H PARENT
REMARK Flexibility Score: inf
ROOT
ATOM      1  C   UNL     1     -17.900  -3.413  20.793  1.00  0.00     0.000 C 
ENDROOT
BRANCH   1   2
ATOM      2  C   UNL     1     -17.228  -3.949  22.068  1.00  0.00     0.000 C 
BRANCH   2   3
ATOM      3  C   UNL     1     -17.279  -5.484  22.168  1.00  0.00     0.000 C 
BRANCH   3   4
ATOM      4  C   UNL     1     -15.911  -6.168  22.369  1.00  0.00     0.000 C 
BRANCH   4   5
ATOM      5  C   UNL     1     -15.070  -6.358  21.089  1.00  0.00     0.000 C 
BRANCH   5   6
ATOM      6  C   UNL     1     -15.872  -6.438  19.776  1.00  0.00     0.000 C 
BRANCH   6   7
ATOM      7  C   UNL     1     -14.977  -6.537  18.528  1.00  0.00     0.000 C 
BRANCH   7   8
ATOM      8  C   UNL     1     -15.772  -6.389  17.220  1.00  0.00     0.000 C 
BRANCH   8   9
ATOM      9  C   UNL     1     -17.157  -5.757  17.434  1.00  0.00     0.000 C 
BRANCH   9  10
ATOM     10  C   UNL     1     -17.383  -4.516  16.554  1.00  0.00     0.000 C 
BRANCH  10  11
ATOM     11  C   UNL     1     -18.822  -3.963  16.567  1.00  0.00     0.000 C 
BRANCH  11  12
ATOM     12  C   UNL     1     -19.663  -4.456  17.763  1.00  0.00     0.000 C 
BRANCH  12  13
ATOM     13  C   UNL     1     -21.070  -3.833  17.782  1.00  0.00     0.006 C 
BRANCH  13  14
ATOM     14  C   UNL     1     -21.027  -2.300  17.758  1.00  0.00     0.053 C 
BRANCH  14  15
ATOM     15  C   UNL     1     -21.701  -1.741  16.543  1.00  0.00     0.041 C 
ATOM     16  O   UNL     1     -21.194  -0.765  15.929  1.00  0.00    -0.550 OA
ATOM     17  O   UNL     1     -22.907  -2.275  16.108  1.00  0.00    -0.550 OA
ENDBRANCH  14  15
ENDBRANCH  13  14
ENDBRANCH  12  13
ENDBRANCH  11  12
ENDBRANCH  10  11
ENDBRANCH   9  10
ENDBRANCH   8   9
ENDBRANCH   7   8
ENDBRANCH   6   7
ENDBRANCH   5   6
ENDBRANCH   4   5
ENDBRANCH   3   4
ENDBRANCH   2   3
ENDBRANCH   1   2
BRANCH   1  18
ATOM     18  C   UNL     1     -16.885  -2.869  19.772  1.00  0.00     0.000 C 
BRANCH  18  19
ATOM     19  C   UNL     1     -15.467  -2.733  20.354  1.00  0.00     0.000 C 
BRANCH  19  20
ATOM     20  C   UNL     1     -14.496  -2.020  19.400  1.00  0.00     0.000 C 
BRANCH  20  21
ATOM     21  C   UNL     1     -14.389  -2.720  18.031  1.00  0.00     0.000 C 
BRANCH  21  22
ATOM     22  C   UNL     1     -14.808  -1.810  16.857  1.00  0.00     0.000 C 
BRANCH  22  23
ATOM     23  C   UNL     1     -14.971  -0.328  17.235  1.00  0.00     0.000 C 
BRANCH  23  24
ATOM     24  C   UNL     1     -15.616   0.509  16.121  1.00  0.00    -0.000 C 
BRANCH  24  25
ATOM     25  C   UNL     1     -16.997   1.034  16.545  1.00  0.00    -0.000 C 
BRANCH  25  26
ATOM     26  C   UNL     1     -17.841  -0.044  17.260  1.00  0.00    -0.000 C 
BRANCH  26  27
ATOM     27  C   UNL     1     -18.746   0.516  18.376  1.00  0.00    -0.000 C 
BRANCH  27  28
ATOM     28  C   UNL     1     -18.035   1.416  19.404  1.00  0.00    -0.000 C 
BRANCH  28  29
ATOM     29  C   UNL     1     -16.938   0.715  20.231  1.00  0.00    -0.000 C 
BRANCH  29  30
ATOM     30  C   UNL     1     -17.371   0.375  21.673  1.00  0.00    -0.000 C 
BRANCH  30  31
ATOM     31  C   UNL     1     -16.172   0.122  22.600  1.00  0.00    -0.003 C 
ATOM     32  C   UNL     1     -16.559  -0.788  23.762  1.00  0.00     0.004 C 
ENDBRANCH  30  31
ENDBRANCH  29  30
ENDBRANCH  28  29
ENDBRANCH  27  28
ENDBRANCH  26  27
ENDBRANCH  25  26
ENDBRANCH  24  25
ENDBRANCH  23  24
ENDBRANCH  22  23
ENDBRANCH  21  22
ENDBRANCH  20  21
ENDBRANCH  19  20
ENDBRANCH  18  19
ENDBRANCH   1  18
TORSDOF 28
ENDMDL
MODEL 8
REMARK VINA RESULT:    -4.367     10.174     14.281
REMARK INTER + INTRA:         -17.824
REMARK INTER:                 -13.046
REMARK INTRA:                  -4.778
REMARK UNBOUND:                -6.310
REMARK SMILES CCCCCCCCCCCCCCCCCCCCCCCCCCCCCC(=O)[O-]
REMARK SMILES IDX 16 1 17 2 18 3 19 4 20 5 21 6 22 7 23 8 24 9 25 10 26 11
REMARK SMILES IDX 27 12 28 13 29 14 30 15 31 16 32 17 15 18 14 19 13 20 12 21
REMARK SMILES IDX 11 22 10 23 9 24 8 25 7 26 6 27 5 28 4 29 3 30 2 31 1 32
REMARK H PARENT
REMARK Flexibility Score: inf
ROOT
ATOM      1  C   UNL     1     -14.278   3.849  28.043  1.00  0.00     0.000 C 
ENDROOT
BRANCH   1   2
ATOM      2  C   UNL     1     -14.124   5.342  28.376  1.00  0.00     0.000 C 
BRANCH   2   3
ATOM      3  C   UNL     1     -15.233   5.862  29.308  1.00  0.00     0.000 C 
BRANCH   3   4
ATOM      4  C   UNL     1     -14.838   5.961  30.796  1.00  0.00     0.000 C 
BRANCH   4   5
ATOM      5  C   UNL     1     -15.205   7.288  31.494  1.00  0.00     0.000 C 
BRANCH   5   6
ATOM      6  C   UNL     1     -16.614   7.828  31.186  1.00  0.00     0.000 C 
BRANCH   6   7
ATOM      7  C   UNL     1     -16.722   9.356  31.343  1.00  0.00     0.000 C 
BRANCH   7   8
ATOM      8  C   UNL     1     -15.384  10.005  31.733  1.00  0.00     0.000 C 
BRANCH   8   9
ATOM      9  C   UNL     1     -14.857  10.972  30.661  1.00  0.00     0.000 C 
BRANCH   9  10
ATOM     10  C   UNL     1     -15.051  10.434  29.233  1.00  0.00     0.000 C 
BRANCH  10  11
ATOM     11  C   UNL     1     -13.931   9.501  28.732  1.00  0.00     0.000 C 
BRANCH  11  12
ATOM     12  C   UNL     1     -14.197   8.909  27.333  1.00  0.00     0.000 C 
BRANCH  12  13
ATOM     13  C   UNL     1     -15.593   9.277  26.800  1.00  0.00     0.006 C 
BRANCH  13  14
ATOM     14  C   UNL     1     -16.615   8.154  27.024  1.00  0.00     0.053 C 
BRANCH  14  15
ATOM     15  C   UNL     1     -17.548   8.007  25.862  1.00  0.00     0.041 C 
ATOM     16  O   UNL     1     -17.427   7.035  25.071  1.00  0.00    -0.550 OA
ATOM     17  O   UNL     1     -18.528   8.963  25.632  1.00  0.00    -0.550 OA
ENDBRANCH  14  15
ENDBRANCH  13  14
ENDBRANCH  12  13
ENDBRANCH  11  12
ENDBRANCH  10  11
ENDBRANCH   9  10
ENDBRANCH   8   9
ENDBRANCH   7   8
ENDBRANCH   6   7
ENDBRANCH   5   6
ENDBRANCH   4   5
ENDBRANCH   3   4
ENDBRANCH   2   3
ENDBRANCH   1   2
BRANCH   1  18
ATOM     18  C   UNL     1     -13.081   3.008  28.520  1.00  0.00     0.000 C 
BRANCH  18  19
ATOM     19  C   UNL     1     -13.376   1.498  28.524  1.00  0.00     0.000 C 
BRANCH  19  20
ATOM     20  C   UNL     1     -14.541   1.114  27.599  1.00  0.00     0.000 C 
BRANCH  20  21
ATOM     21  C   UNL     1     -15.356  -0.079  28.137  1.00  0.00     0.000 C 
BRANCH  21  22
ATOM     22  C   UNL     1     -16.812  -0.091  27.625  1.00  0.00     0.000 C 
BRANCH  22  23
ATOM     23  C   UNL     1     -17.873  -0.028  28.737  1.00  0.00     0.000 C 
BRANCH  23  24
ATOM     24  C   UNL     1     -17.439  -0.743  30.023  1.00  0.00    -0.000 C 
BRANCH  24  25
ATOM     25  C   UNL     1     -18.441  -0.501  31.163  1.00  0.00    -0.000 C 
BRANCH  25  26
ATOM     26  C   UNL     1     -19.623   0.392  30.726  1.00  0.00    -0.000 C 
BRANCH  26  27
ATOM     27  C   UNL     1     -20.035   1.437  31.782  1.00  0.00    -0.000 C 
BRANCH  27  28
ATOM     28  C   UNL     1     -20.051   2.895  31.286  1.00  0.00    -0.000 C 
BRANCH  28  29
ATOM     29  C   UNL     1     -18.902   3.774  31.821  1.00  0.00    -0.000 C 
BRANCH  29  30
ATOM     30  C   UNL     1     -17.638   2.977  32.207  1.00  0.00    -0.000 C 
BRANCH  30  31
ATOM     31  C   UNL     1     -16.681   2.786  31.020  1.00  0.00    -0.003 C 
ATOM     32  C   UNL     1     -15.352   2.194  31.477  1.00  0.00     0.004 C 
ENDBRANCH  30  31
ENDBRANCH  29  30
ENDBRANCH  28  29
ENDBRANCH  27  28
ENDBRANCH  26  27
ENDBRANCH  25  26
ENDBRANCH  24  25
ENDBRANCH  23  24
ENDBRANCH  22  23
ENDBRANCH  21  22
ENDBRANCH  20  21
ENDBRANCH  19  20
ENDBRANCH  18  19
ENDBRANCH   1  18
TORSDOF 28
ENDMDL
MODEL 9
REMARK VINA RESULT:    -4.363      1.494      5.199
REMARK INTER + INTRA:         -17.814
REMARK INTER:                 -12.232
REMARK INTRA:                  -5.582
REMARK UNBOUND:                -6.310
REMARK SMILES CCCCCCCCCCCCCCCCCCCCCCCCCCCCCC(=O)[O-]
REMARK SMILES IDX 16 1 17 2 18 3 19 4 20 5 21 6 22 7 23 8 24 9 25 10 26 11
REMARK SMILES IDX 27 12 28 13 29 14 30 15 31 16 32 17 15 18 14 19 13 20 12 21
REMARK SMILES IDX 11 22 10 23 9 24 8 25 7 26 6 27 5 28 4 29 3 30 2 31 1 32
REMARK H PARENT
REMARK Flexibility Score: inf
ROOT
ATOM      1  C   UNL     1     -14.873  -4.286  15.729  1.00  0.00     0.000 C 
ENDROOT
BRANCH   1   2
ATOM      2  C   UNL     1     -13.859  -4.165  16.879  1.00  0.00     0.000 C 
BRANCH   2   3
ATOM      3  C   UNL     1     -13.924  -2.801  17.589  1.00  0.00     0.000 C 
BRANCH   3   4
ATOM      4  C   UNL     1     -14.785  -1.738  16.877  1.00  0.00     0.000 C 
BRANCH   4   5
ATOM      5  C   UNL     1     -14.487  -0.274  17.264  1.00  0.00     0.000 C 
BRANCH   5   6
ATOM      6  C   UNL     1     -15.153   0.793  16.375  1.00  0.00     0.000 C 
BRANCH   6   7
ATOM      7  C   UNL     1     -16.690   0.759  16.439  1.00  0.00     0.000 C 
BRANCH   7   8
ATOM      8  C   UNL     1     -17.221   0.829  17.880  1.00  0.00     0.000 C 
BRANCH   8   9
ATOM      9  C   UNL     1     -18.043  -0.411  18.271  1.00  0.00     0.000 C 
BRANCH   9  10
ATOM     10  C   UNL     1     -17.753  -0.884  19.706  1.00  0.00     0.000 C 
BRANCH  10  11
ATOM     11  C   UNL     1     -16.802  -2.092  19.812  1.00  0.00     0.000 C 
BRANCH  11  12
ATOM     12  C   UNL     1     -15.561  -1.827  20.688  1.00  0.00     0.000 C 
BRANCH  12  13
ATOM     13  C   UNL     1     -15.801  -0.709  21.719  1.00  0.00     0.006 C 
BRANCH  13  14
ATOM     14  C   UNL     1     -14.512   0.043  22.071  1.00  0.00     0.053 C 
BRANCH  14  15
ATOM     15  C   UNL     1     -14.515   1.441  21.532  1.00  0.00     0.041 C 
ATOM     16  O   UNL     1     -15.599   1.991  21.203  1.00  0.00    -0.550 OA
ATOM     17  O   UNL     1     -13.318   2.123  21.361  1.00  0.00    -0.550 OA
ENDBRANCH  14  15
ENDBRANCH  13  14
ENDBRANCH  12  13
ENDBRANCH  11  12
ENDBRANCH  10  11
ENDBRANCH   9  10
ENDBRANCH   8   9
ENDBRANCH   7   8
ENDBRANCH   6   7
ENDBRANCH   5   6
ENDBRANCH   4   5
ENDBRANCH   3   4
ENDBRANCH   2   3
ENDBRANCH   1   2
BRANCH   1  18
ATOM     18  C   UNL     1     -16.013  -5.269  16.045  1.00  0.00     0.000 C 
BRANCH  18  19
ATOM     19  C   UNL     1     -16.988  -4.733  17.108  1.00  0.00     0.000 C 
BRANCH  19  20
ATOM     20  C   UNL     1     -17.121  -5.666  18.321  1.00  0.00     0.000 C 
BRANCH  20  21
ATOM     21  C   UNL     1     -15.984  -6.704  18.399  1.00  0.00     0.000 C 
BRANCH  21  22
ATOM     22  C   UNL     1     -15.191  -6.627  19.720  1.00  0.00     0.000 C 
BRANCH  22  23
ATOM     23  C   UNL     1     -15.518  -5.396  20.582  1.00  0.00     0.000 C 
BRANCH  23  24
ATOM     24  C   UNL     1     -15.926  -5.758  22.017  1.00  0.00    -0.000 C 
BRANCH  24  25
ATOM     25  C   UNL     1     -17.448  -5.935  22.138  1.00  0.00    -0.000 C 
BRANCH  25  26
ATOM     26  C   UNL     1     -18.220  -4.648  21.775  1.00  0.00    -0.000 C 
BRANCH  26  27
ATOM     27  C   UNL     1     -19.608  -4.911  21.156  1.00  0.00    -0.000 C 
BRANCH  27  28
ATOM     28  C   UNL     1     -20.106  -3.824  20.186  1.00  0.00    -0.000 C 
BRANCH  28  29
ATOM     29  C   UNL     1     -20.437  -4.325  18.764  1.00  0.00    -0.000 C 
BRANCH  29  30
ATOM     30  C   UNL     1     -20.330  -3.231  17.681  1.00  0.00    -0.000 C 
BRANCH  30  31
ATOM     31  C   UNL     1     -21.562  -3.194  16.764  1.00  0.00    -0.003 C 
ATOM     32  C   UNL     1     -21.161  -2.919  15.318  1.00  0.00     0.004 C 
ENDBRANCH  30  31
ENDBRANCH  29  30
ENDBRANCH  28  29
ENDBRANCH  27  28
ENDBRANCH  26  27
ENDBRANCH  25  26
ENDBRANCH  24  25
ENDBRANCH  23  24
ENDBRANCH  22  23
ENDBRANCH  21  22
ENDBRANCH  20  21
ENDBRANCH  19  20
ENDBRANCH  18  19
ENDBRANCH   1  18
TORSDOF 28
ENDMDL
