MODEL 1
REMARK VINA RESULT:    -5.255      0.000      0.000
REMARK INTER + INTRA:          -5.515
REMARK INTER:                  -5.716
REMARK INTRA:                   0.200
REMARK UNBOUND:                 0.200
REMARK SMILES C[C@H]1[C@H](C)CC[C@@]2(C(=O)[O-])CC[C@]3(C)C(=CC[C@@H]4[C@@]5(C)CC[C@@H](O)C(C)(C)[C@H]5CC[C@@]43C)[C@H]12
REMARK SMILES IDX 7 1 6 2 11 3 33 4 5 5 12 6 15 7 2 8 3 9 13 10 16 11 1 12
REMARK SMILES IDX 4 13 14 14 31 15 17 16 18 17 30 18 32 19 19 20 29 21 28 22
REMARK SMILES IDX 21 23 20 24 25 25 22 26 23 27 26 28 27 29 8 30 9 31 10 32
REMARK SMILES IDX 24 33
REMARK H PARENT 24 34
REMARK Flexibility Score: inf
ROOT
ATOM      1  C   UNL     1      26.540  27.886  11.485  1.00  0.00     0.017 C 
ATOM      2  C   UNL     1      25.309  27.628  12.387  1.00  0.00     0.014 C 
ATOM      3  C   UNL     1      27.306  29.144  12.032  1.00  0.00     0.014 C 
ATOM      4  C   UNL     1      27.492  26.647  11.534  1.00  0.00     0.030 C 
ATOM      5  C   UNL     1      24.558  26.365  11.971  1.00  0.00     0.004 C 
ATOM      6  C   UNL     1      28.849  28.999  12.129  1.00  0.00     0.013 C 
ATOM      7  C   UNL     1      28.732  26.962  10.666  1.00  0.00    -0.063 C 
ATOM      8  C   UNL     1      26.780  25.261  11.305  1.00  0.00    -0.003 C 
ATOM      9  C   UNL     1      25.456  25.133  12.126  1.00  0.00    -0.011 C 
ATOM     10  C   UNL     1      29.512  28.251  10.914  1.00  0.00    -0.006 C 
ATOM     11  C   UNL     1      29.178  26.128   9.716  1.00  0.00    -0.027 C 
ATOM     12  C   UNL     1      27.720  24.093  11.708  1.00  0.00     0.008 C 
ATOM     13  C   UNL     1      24.658  23.876  11.732  1.00  0.00     0.008 C 
ATOM     14  C   UNL     1      29.346  29.182   9.671  1.00  0.00     0.017 C 
ATOM     15  C   UNL     1      31.064  27.877  11.129  1.00  0.00    -0.020 C 
ATOM     16  C   UNL     1      30.596  26.122   9.227  1.00  0.00     0.032 C 
ATOM     17  C   UNL     1      31.629  27.162   9.822  1.00  0.00     0.006 C 
ATOM     18  C   UNL     1      31.233  26.877  12.308  1.00  0.00     0.008 C 
ATOM     19  C   UNL     1      31.859  29.192  11.439  1.00  0.00     0.012 C 
ATOM     20  C   UNL     1      33.101  26.514   9.912  1.00  0.00    -0.025 C 
ATOM     21  C   UNL     1      32.648  26.303  12.460  1.00  0.00     0.005 C 
ATOM     22  C   UNL     1      33.221  25.592  11.195  1.00  0.00     0.003 C 
ATOM     23  C   UNL     1      34.229  27.597   9.942  1.00  0.00     0.010 C 
ATOM     24  C   UNL     1      33.323  25.707   8.580  1.00  0.00     0.012 C 
ATOM     25  C   UNL     1      34.685  25.010  11.463  1.00  0.00    -0.006 C 
ATOM     26  C   UNL     1      35.654  27.039  10.140  1.00  0.00     0.033 C 
ATOM     27  C   UNL     1      35.788  26.122  11.378  1.00  0.00     0.120 C 
ATOM     28  C   UNL     1      35.025  23.875  10.451  1.00  0.00     0.014 C 
ATOM     29  C   UNL     1      34.771  24.321  12.858  1.00  0.00     0.014 C 
ENDROOT
BRANCH   1  30
ATOM     30  C   UNL     1      26.034  28.183  10.072  1.00  0.00     0.048 C 
ATOM     31  O   UNL     1      25.905  27.273   9.211  1.00  0.00    -0.550 OA
ATOM     32  O   UNL     1      25.680  29.483   9.726  1.00  0.00    -0.550 OA
ENDBRANCH   1  30
BRANCH  27  33
ATOM     33  O   UNL     1      35.889  26.860  12.580  1.00  0.00    -0.393 OA
ATOM     34  H   UNL     1      36.478  27.646  12.448  1.00  0.00     0.210 HD
ENDBRANCH  27  33
TORSDOF 2
ENDMDL
MODEL 2
REMARK VINA RESULT:    -4.949      2.037      7.983
REMARK INTER + INTRA:          -5.183
REMARK INTER:                  -5.440
REMARK INTRA:                   0.258
REMARK UNBOUND:                 0.200
REMARK SMILES C[C@H]1[C@H](C)CC[C@@]2(C(=O)[O-])CC[C@]3(C)C(=CC[C@@H]4[C@@]5(C)CC[C@@H](O)C(C)(C)[C@H]5CC[C@@]43C)[C@H]12
REMARK SMILES IDX 7 1 6 2 11 3 33 4 5 5 12 6 15 7 2 8 3 9 13 10 16 11 1 12
REMARK SMILES IDX 4 13 14 14 31 15 17 16 18 17 30 18 32 19 19 20 29 21 28 22
REMARK SMILES IDX 21 23 20 24 25 25 22 26 23 27 26 28 27 29 8 30 9 31 10 32
REMARK SMILES IDX 24 33
REMARK H PARENT 24 34
REMARK Flexibility Score: inf
ROOT
ATOM      1  C   UNL     1      32.415  26.128  13.434  1.00  0.00     0.017 C 
ATOM      2  C   UNL     1      33.607  27.014  13.870  1.00  0.00     0.014 C 
ATOM      3  C   UNL     1      31.524  25.835  14.694  1.00  0.00     0.014 C 
ATOM      4  C   UNL     1      31.562  26.889  12.369  1.00  0.00     0.030 C 
ATOM      5  C   UNL     1      34.478  27.416  12.681  1.00  0.00     0.004 C 
ATOM      6  C   UNL     1      29.994  25.995  14.483  1.00  0.00     0.013 C 
ATOM      7  C   UNL     1      30.355  25.997  11.998  1.00  0.00    -0.063 C 
ATOM      8  C   UNL     1      32.391  27.515  11.185  1.00  0.00    -0.003 C 
ATOM      9  C   UNL     1      33.670  28.260  11.688  1.00  0.00    -0.011 C 
ATOM     10  C   UNL     1      29.464  25.443  13.108  1.00  0.00    -0.006 C 
ATOM     11  C   UNL     1      30.031  25.711  10.729  1.00  0.00    -0.027 C 
ATOM     12  C   UNL     1      31.521  28.521  10.384  1.00  0.00     0.008 C 
ATOM     13  C   UNL     1      34.584  28.677  10.521  1.00  0.00     0.008 C 
ATOM     14  C   UNL     1      29.630  23.891  13.154  1.00  0.00     0.017 C 
ATOM     15  C   UNL     1      27.935  25.831  12.779  1.00  0.00    -0.020 C 
ATOM     16  C   UNL     1      28.649  25.314  10.302  1.00  0.00     0.032 C 
ATOM     17  C   UNL     1      27.506  25.187  11.387  1.00  0.00     0.006 C 
ATOM     18  C   UNL     1      27.775  27.372  12.639  1.00  0.00     0.008 C 
ATOM     19  C   UNL     1      27.024  25.313  13.944  1.00  0.00     0.012 C 
ATOM     20  C   UNL     1      26.085  25.634  10.772  1.00  0.00    -0.025 C 
ATOM     21  C   UNL     1      26.402  27.827  12.126  1.00  0.00     0.005 C 
ATOM     22  C   UNL     1      25.962  27.214  10.761  1.00  0.00     0.003 C 
ATOM     23  C   UNL     1      24.878  25.023  11.555  1.00  0.00     0.010 C 
ATOM     24  C   UNL     1      26.006  25.024   9.324  1.00  0.00     0.012 C 
ATOM     25  C   UNL     1      24.533  27.767  10.304  1.00  0.00    -0.006 C 
ATOM     26  C   UNL     1      23.490  25.505  11.081  1.00  0.00     0.033 C 
ATOM     27  C   UNL     1      23.355  27.046  11.046  1.00  0.00     0.120 C 
ATOM     28  C   UNL     1      24.343  27.608   8.766  1.00  0.00     0.014 C 
ATOM     29  C   UNL     1      24.419  29.302  10.549  1.00  0.00     0.014 C 
ENDROOT
BRANCH   1  30
ATOM     30  C   UNL     1      32.980  24.809  12.902  1.00  0.00     0.048 C 
ATOM     31  O   UNL     1      33.320  23.875  13.675  1.00  0.00    -0.550 OA
ATOM     32  O   UNL     1      33.104  24.618  11.530  1.00  0.00    -0.550 OA
ENDBRANCH   1  30
BRANCH  27  33
ATOM     33  O   UNL     1      23.126  27.590  12.330  1.00  0.00    -0.393 OA
ATOM     34  H   UNL     1      22.923  28.557  12.260  1.00  0.00     0.210 HD
ENDBRANCH  27  33
TORSDOF 2
ENDMDL
MODEL 3
REMARK VINA RESULT:    -4.887      1.760      7.540
REMARK INTER + INTRA:          -5.116
REMARK INTER:                  -5.328
REMARK INTRA:                   0.213
REMARK UNBOUND:                 0.200
REMARK SMILES C[C@H]1[C@H](C)CC[C@@]2(C(=O)[O-])CC[C@]3(C)C(=CC[C@@H]4[C@@]5(C)CC[C@@H](O)C(C)(C)[C@H]5CC[C@@]43C)[C@H]12
REMARK SMILES IDX 7 1 6 2 11 3 33 4 5 5 12 6 15 7 2 8 3 9 13 10 16 11 1 12
REMARK SMILES IDX 4 13 14 14 31 15 17 16 18 17 30 18 32 19 19 20 29 21 28 22
REMARK SMILES IDX 21 23 20 24 25 25 22 26 23 27 26 28 27 29 8 30 9 31 10 32
REMARK SMILES IDX 24 33
REMARK H PARENT 24 34
REMARK Flexibility Score: inf
ROOT
ATOM      1  C   UNL     1      33.621  27.077   9.071  1.00  0.00     0.017 C 
ATOM      2  C   UNL     1      34.917  26.272   8.811  1.00  0.00     0.014 C 
ATOM      3  C   UNL     1      32.632  26.833   7.875  1.00  0.00     0.014 C 
ATOM      4  C   UNL     1      32.955  26.580  10.395  1.00  0.00     0.030 C 
ATOM      5  C   UNL     1      35.898  26.388   9.975  1.00  0.00     0.004 C 
ATOM      6  C   UNL     1      31.160  26.539   8.273  1.00  0.00     0.013 C 
ATOM      7  C   UNL     1      31.640  27.368  10.593  1.00  0.00    -0.063 C 
ATOM      8  C   UNL     1      33.932  26.478  11.626  1.00  0.00    -0.003 C 
ATOM      9  C   UNL     1      35.288  25.797  11.251  1.00  0.00    -0.011 C 
ATOM     10  C   UNL     1      30.617  27.416   9.460  1.00  0.00    -0.006 C 
ATOM     11  C   UNL     1      31.338  27.991  11.742  1.00  0.00    -0.027 C 
ATOM     12  C   UNL     1      33.277  25.666  12.775  1.00  0.00     0.008 C 
ATOM     13  C   UNL     1      36.314  25.898  12.394  1.00  0.00     0.008 C 
ATOM     14  C   UNL     1      30.528  28.883   8.930  1.00  0.00     0.017 C 
ATOM     15  C   UNL     1      29.189  26.945  10.039  1.00  0.00    -0.020 C 
ATOM     16  C   UNL     1      29.933  28.308  12.161  1.00  0.00     0.032 C 
ATOM     17  C   UNL     1      28.731  27.928  11.204  1.00  0.00     0.006 C 
ATOM     18  C   UNL     1      29.287  25.519  10.654  1.00  0.00     0.008 C 
ATOM     19  C   UNL     1      28.150  26.939   8.866  1.00  0.00     0.012 C 
ATOM     20  C   UNL     1      27.434  27.506  12.062  1.00  0.00    -0.025 C 
ATOM     21  C   UNL     1      28.032  25.065  11.412  1.00  0.00     0.005 C 
ATOM     22  C   UNL     1      27.568  26.009  12.563  1.00  0.00     0.003 C 
ATOM     23  C   UNL     1      26.106  27.668  11.252  1.00  0.00     0.010 C 
ATOM     24  C   UNL     1      27.329  28.524  13.257  1.00  0.00     0.012 C 
ATOM     25  C   UNL     1      26.271  25.436  13.303  1.00  0.00    -0.006 C 
ATOM     26  C   UNL     1      24.840  27.173  11.983  1.00  0.00     0.033 C 
ATOM     27  C   UNL     1      24.957  25.718  12.496  1.00  0.00     0.120 C 
ATOM     28  C   UNL     1      26.135  26.044  14.731  1.00  0.00     0.014 C 
ATOM     29  C   UNL     1      26.394  23.902  13.547  1.00  0.00     0.014 C 
ENDROOT
BRANCH   1  30
ATOM     30  C   UNL     1      33.992  28.561   9.121  1.00  0.00     0.048 C 
ATOM     31  O   UNL     1      33.947  29.289   8.095  1.00  0.00    -0.550 OA
ATOM     32  O   UNL     1      34.365  29.137  10.331  1.00  0.00    -0.550 OA
ENDBRANCH   1  30
BRANCH  27  33
ATOM     33  O   UNL     1      24.755  24.772  11.465  1.00  0.00    -0.393 OA
ATOM     34  H   UNL     1      25.521  24.145  11.423  1.00  0.00     0.210 HD
ENDBRANCH  27  33
TORSDOF 2
ENDMDL
MODEL 4
REMARK VINA RESULT:    -4.881      2.033      7.998
REMARK INTER + INTRA:          -5.109
REMARK INTER:                  -5.305
REMARK INTRA:                   0.196
REMARK UNBOUND:                 0.200
REMARK SMILES C[C@H]1[C@H](C)CC[C@@]2(C(=O)[O-])CC[C@]3(C)C(=CC[C@@H]4[C@@]5(C)CC[C@@H](O)C(C)(C)[C@H]5CC[C@@]43C)[C@H]12
REMARK SMILES IDX 7 1 6 2 11 3 33 4 5 5 12 6 15 7 2 8 3 9 13 10 16 11 1 12
REMARK SMILES IDX 4 13 14 14 31 15 17 16 18 17 30 18 32 19 19 20 29 21 28 22
REMARK SMILES IDX 21 23 20 24 25 25 22 26 23 27 26 28 27 29 8 30 9 31 10 32
REMARK SMILES IDX 24 33
REMARK H PARENT 24 34
REMARK Flexibility Score: inf
ROOT
ATOM      1  C   UNL     1      32.536  27.257  11.180  1.00  0.00     0.017 C 
ATOM      2  C   UNL     1      33.697  28.265  11.356  1.00  0.00     0.014 C 
ATOM      3  C   UNL     1      31.992  26.868  12.601  1.00  0.00     0.014 C 
ATOM      4  C   UNL     1      31.386  27.924  10.358  1.00  0.00     0.030 C 
ATOM      5  C   UNL     1      34.225  28.761  10.012  1.00  0.00     0.004 C 
ATOM      6  C   UNL     1      30.446  26.862  12.749  1.00  0.00     0.013 C 
ATOM      7  C   UNL     1      30.225  26.909  10.248  1.00  0.00    -0.063 C 
ATOM      8  C   UNL     1      31.852  28.639   9.034  1.00  0.00    -0.003 C 
ATOM      9  C   UNL     1      33.127  29.515   9.251  1.00  0.00    -0.011 C 
ATOM     10  C   UNL     1      29.675  26.261  11.516  1.00  0.00    -0.006 C 
ATOM     11  C   UNL     1      29.651  26.593   9.078  1.00  0.00    -0.027 C 
ATOM     12  C   UNL     1      30.722  29.548   8.479  1.00  0.00     0.008 C 
ATOM     13  C   UNL     1      33.701  30.031   7.919  1.00  0.00     0.008 C 
ATOM     14  C   UNL     1      30.008  24.734  11.481  1.00  0.00     0.017 C 
ATOM     15  C   UNL     1      28.080  26.483  11.555  1.00  0.00    -0.020 C 
ATOM     16  C   UNL     1      28.257  26.051   8.967  1.00  0.00     0.032 C 
ATOM     17  C   UNL     1      27.412  25.800  10.281  1.00  0.00     0.006 C 
ATOM     18  C   UNL     1      27.733  27.998  11.497  1.00  0.00     0.008 C 
ATOM     19  C   UNL     1      27.519  25.867  12.882  1.00  0.00     0.012 C 
ATOM     20  C   UNL     1      25.850  26.093  10.017  1.00  0.00    -0.025 C 
ATOM     21  C   UNL     1      26.239  28.304  11.322  1.00  0.00     0.005 C 
ATOM     22  C   UNL     1      25.564  27.651  10.077  1.00  0.00     0.003 C 
ATOM     23  C   UNL     1      24.924  25.354  11.038  1.00  0.00     0.010 C 
ATOM     24  C   UNL     1      25.504  25.481   8.609  1.00  0.00     0.012 C 
ATOM     25  C   UNL     1      24.019  28.048   9.973  1.00  0.00    -0.006 C 
ATOM     26  C   UNL     1      23.423  25.686  10.905  1.00  0.00     0.033 C 
ATOM     27  C   UNL     1      23.124  27.203  10.944  1.00  0.00     0.120 C 
ATOM     28  C   UNL     1      23.499  27.873   8.515  1.00  0.00     0.014 C 
ATOM     29  C   UNL     1      23.805  29.561  10.279  1.00  0.00     0.014 C 
ENDROOT
BRANCH   1  30
ATOM     30  C   UNL     1      33.097  26.008  10.498  1.00  0.00     0.048 C 
ATOM     31  O   UNL     1      33.138  25.901   9.244  1.00  0.00    -0.550 OA
ATOM     32  O   UNL     1      33.601  24.968  11.272  1.00  0.00    -0.550 OA
ENDBRANCH   1  30
BRANCH  27  33
ATOM     33  O   UNL     1      23.140  27.716  12.261  1.00  0.00    -0.393 OA
ATOM     34  H   UNL     1      23.115  28.706  12.241  1.00  0.00     0.210 HD
ENDBRANCH  27  33
TORSDOF 2
ENDMDL
MODEL 5
REMARK VINA RESULT:    -4.536      1.849      3.641
REMARK INTER + INTRA:          -4.734
REMARK INTER:                  -4.930
REMARK INTRA:                   0.196
REMARK UNBOUND:                 0.200
REMARK SMILES C[C@H]1[C@H](C)CC[C@@]2(C(=O)[O-])CC[C@]3(C)C(=CC[C@@H]4[C@@]5(C)CC[C@@H](O)C(C)(C)[C@H]5CC[C@@]43C)[C@H]12
REMARK SMILES IDX 7 1 6 2 11 3 33 4 5 5 12 6 15 7 2 8 3 9 13 10 16 11 1 12
REMARK SMILES IDX 4 13 14 14 31 15 17 16 18 17 30 18 32 19 19 20 29 21 28 22
REMARK SMILES IDX 21 23 20 24 25 25 22 26 23 27 26 28 27 29 8 30 9 31 10 32
REMARK SMILES IDX 24 33
REMARK H PARENT 24 34
REMARK Flexibility Score: inf
ROOT
ATOM      1  C   UNL     1      25.820  25.189  11.488  1.00  0.00     0.017 C 
ATOM      2  C   UNL     1      24.648  24.535  10.717  1.00  0.00     0.014 C 
ATOM      3  C   UNL     1      26.697  24.052  12.125  1.00  0.00     0.014 C 
ATOM      4  C   UNL     1      26.700  26.018  10.496  1.00  0.00     0.030 C 
ATOM      5  C   UNL     1      23.796  25.576   9.994  1.00  0.00     0.004 C 
ATOM      6  C   UNL     1      28.232  24.214  11.955  1.00  0.00     0.013 C 
ATOM      7  C   UNL     1      27.886  26.611  11.290  1.00  0.00    -0.063 C 
ATOM      8  C   UNL     1      25.894  26.994   9.559  1.00  0.00    -0.003 C 
ATOM      9  C   UNL     1      24.631  26.313   8.940  1.00  0.00    -0.011 C 
ATOM     10  C   UNL     1      28.756  25.686  12.139  1.00  0.00    -0.006 C 
ATOM     11  C   UNL     1      28.210  27.911  11.240  1.00  0.00    -0.027 C 
ATOM     12  C   UNL     1      26.793  27.503   8.401  1.00  0.00     0.008 C 
ATOM     13  C   UNL     1      23.735  27.328   8.207  1.00  0.00     0.008 C 
ATOM     14  C   UNL     1      28.550  26.051  13.644  1.00  0.00     0.017 C 
ATOM     15  C   UNL     1      30.296  25.902  11.718  1.00  0.00    -0.020 C 
ATOM     16  C   UNL     1      29.584  28.428  11.546  1.00  0.00     0.032 C 
ATOM     17  C   UNL     1      30.717  27.415  11.984  1.00  0.00     0.006 C 
ATOM     18  C   UNL     1      30.496  25.632  10.199  1.00  0.00     0.008 C 
ATOM     19  C   UNL     1      31.186  24.915  12.547  1.00  0.00     0.012 C 
ATOM     20  C   UNL     1      32.153  27.892  11.428  1.00  0.00    -0.025 C 
ATOM     21  C   UNL     1      31.883  26.008   9.661  1.00  0.00     0.005 C 
ATOM     22  C   UNL     1      32.316  27.487   9.905  1.00  0.00     0.003 C 
ATOM     23  C   UNL     1      33.340  27.298  12.255  1.00  0.00     0.010 C 
ATOM     24  C   UNL     1      32.226  29.449  11.638  1.00  0.00     0.012 C 
ATOM     25  C   UNL     1      33.761  27.783   9.288  1.00  0.00    -0.006 C 
ATOM     26  C   UNL     1      34.741  27.629  11.700  1.00  0.00     0.033 C 
ATOM     27  C   UNL     1      34.916  27.257  10.209  1.00  0.00     0.120 C 
ATOM     28  C   UNL     1      33.956  29.308   9.042  1.00  0.00     0.014 C 
ATOM     29  C   UNL     1      33.912  27.142   7.875  1.00  0.00     0.014 C 
ENDROOT
BRANCH   1  30
ATOM     30  C   UNL     1      25.226  26.050  12.605  1.00  0.00     0.048 C 
ATOM     31  O   UNL     1      24.909  27.253  12.415  1.00  0.00    -0.550 OA
ATOM     32  O   UNL     1      25.002  25.491  13.859  1.00  0.00    -0.550 OA
ENDBRANCH   1  30
BRANCH  27  33
ATOM     33  O   UNL     1      35.151  25.876  10.029  1.00  0.00    -0.393 OA
ATOM     34  H   UNL     1      34.342  25.438   9.658  1.00  0.00     0.210 HD
ENDBRANCH  27  33
TORSDOF 2
ENDMDL
MODEL 6
REMARK VINA RESULT:    -4.514      1.533      7.784
REMARK INTER + INTRA:          -4.709
REMARK INTER:                  -5.025
REMARK INTRA:                   0.315
REMARK UNBOUND:                 0.200
REMARK SMILES C[C@H]1[C@H](C)CC[C@@]2(C(=O)[O-])CC[C@]3(C)C(=CC[C@@H]4[C@@]5(C)CC[C@@H](O)C(C)(C)[C@H]5CC[C@@]43C)[C@H]12
REMARK SMILES IDX 7 1 6 2 11 3 33 4 5 5 12 6 15 7 2 8 3 9 13 10 16 11 1 12
REMARK SMILES IDX 4 13 14 14 31 15 17 16 18 17 30 18 32 19 19 20 29 21 28 22
REMARK SMILES IDX 21 23 20 24 25 25 22 26 23 27 26 28 27 29 8 30 9 31 10 32
REMARK SMILES IDX 24 33
REMARK H PARENT 24 34
REMARK Flexibility Score: inf
ROOT
ATOM      1  C   UNL     1      34.934  25.064  10.109  1.00  0.00     0.017 C 
ATOM      2  C   UNL     1      35.845  23.882  10.519  1.00  0.00     0.014 C 
ATOM      3  C   UNL     1      34.123  24.649   8.830  1.00  0.00     0.014 C 
ATOM      4  C   UNL     1      33.935  25.379  11.269  1.00  0.00     0.030 C 
ATOM      5  C   UNL     1      36.606  24.176  11.811  1.00  0.00     0.004 C 
ATOM      6  C   UNL     1      32.609  24.992   8.857  1.00  0.00     0.013 C 
ATOM      7  C   UNL     1      33.009  26.526  10.803  1.00  0.00    -0.063 C 
ATOM      8  C   UNL     1      34.597  25.513  12.691  1.00  0.00    -0.003 C 
ATOM      9  C   UNL     1      35.628  24.373  12.975  1.00  0.00    -0.011 C 
ATOM     10  C   UNL     1      32.269  26.398   9.474  1.00  0.00    -0.006 C 
ATOM     11  C   UNL     1      32.797  27.626  11.540  1.00  0.00    -0.027 C 
ATOM     12  C   UNL     1      33.514  25.481  13.802  1.00  0.00     0.008 C 
ATOM     13  C   UNL     1      36.427  24.632  14.265  1.00  0.00     0.008 C 
ATOM     14  C   UNL     1      32.832  27.469   8.485  1.00  0.00     0.017 C 
ATOM     15  C   UNL     1      30.699  26.651   9.735  1.00  0.00    -0.020 C 
ATOM     16  C   UNL     1      31.576  28.485  11.403  1.00  0.00     0.032 C 
ATOM     17  C   UNL     1      30.482  28.115  10.321  1.00  0.00     0.006 C 
ATOM     18  C   UNL     1      30.148  25.648  10.788  1.00  0.00     0.008 C 
ATOM     19  C   UNL     1      29.930  26.466   8.382  1.00  0.00     0.012 C 
ATOM     20  C   UNL     1      29.007  28.487  10.854  1.00  0.00    -0.025 C 
ATOM     21  C   UNL     1      28.715  25.938  11.255  1.00  0.00     0.005 C 
ATOM     22  C   UNL     1      28.478  27.365  11.840  1.00  0.00     0.003 C 
ATOM     23  C   UNL     1      27.983  28.680   9.688  1.00  0.00     0.010 C 
ATOM     24  C   UNL     1      29.119  29.889  11.559  1.00  0.00     0.012 C 
ATOM     25  C   UNL     1      26.964  27.558  12.317  1.00  0.00    -0.006 C 
ATOM     26  C   UNL     1      26.529  28.928  10.141  1.00  0.00     0.033 C 
ATOM     27  C   UNL     1      25.998  27.852  11.118  1.00  0.00     0.120 C 
ATOM     28  C   UNL     1      26.855  28.712  13.358  1.00  0.00     0.014 C 
ATOM     29  C   UNL     1      26.450  26.300  13.081  1.00  0.00     0.014 C 
ENDROOT
BRANCH   1  30
ATOM     30  C   UNL     1      35.834  26.254   9.769  1.00  0.00     0.048 C 
ATOM     31  O   UNL     1      35.879  27.279  10.500  1.00  0.00    -0.550 OA
ATOM     32  O   UNL     1      36.644  26.204   8.640  1.00  0.00    -0.550 OA
ENDBRANCH   1  30
BRANCH  27  33
ATOM     33  O   UNL     1      25.609  26.670  10.448  1.00  0.00    -0.393 OA
ATOM     34  H   UNL     1      25.288  25.998  11.102  1.00  0.00     0.210 HD
ENDBRANCH  27  33
TORSDOF 2
ENDMDL
MODEL 7
REMARK VINA RESULT:    -4.473      1.800      7.701
REMARK INTER + INTRA:          -4.665
REMARK INTER:                  -4.881
REMARK INTRA:                   0.216
REMARK UNBOUND:                 0.200
REMARK SMILES C[C@H]1[C@H](C)CC[C@@]2(C(=O)[O-])CC[C@]3(C)C(=CC[C@@H]4[C@@]5(C)CC[C@@H](O)C(C)(C)[C@H]5CC[C@@]43C)[C@H]12
REMARK SMILES IDX 7 1 6 2 11 3 33 4 5 5 12 6 15 7 2 8 3 9 13 10 16 11 1 12
REMARK SMILES IDX 4 13 14 14 31 15 17 16 18 17 30 18 32 19 19 20 29 21 28 22
REMARK SMILES IDX 21 23 20 24 25 25 22 26 23 27 26 28 27 29 8 30 9 31 10 32
REMARK SMILES IDX 24 33
REMARK H PARENT 24 34
REMARK Flexibility Score: inf
ROOT
ATOM      1  C   UNL     1      32.124  28.165   9.359  1.00  0.00     0.017 C 
ATOM      2  C   UNL     1      33.316  27.695   8.489  1.00  0.00     0.014 C 
ATOM      3  C   UNL     1      31.226  29.125   8.499  1.00  0.00     0.014 C 
ATOM      4  C   UNL     1      31.277  26.926   9.796  1.00  0.00     0.030 C 
ATOM      5  C   UNL     1      34.192  26.686   9.229  1.00  0.00     0.004 C 
ATOM      6  C   UNL     1      29.697  28.866   8.585  1.00  0.00     0.013 C 
ATOM      7  C   UNL     1      30.070  27.438  10.615  1.00  0.00    -0.063 C 
ATOM      8  C   UNL     1      32.113  25.736  10.401  1.00  0.00    -0.003 C 
ATOM      9  C   UNL     1      33.391  25.421   9.558  1.00  0.00    -0.011 C 
ATOM     10  C   UNL     1      29.173  28.524  10.028  1.00  0.00    -0.006 C 
ATOM     11  C   UNL     1      29.752  26.939  11.819  1.00  0.00    -0.027 C 
ATOM     12  C   UNL     1      31.249  24.449  10.481  1.00  0.00     0.008 C 
ATOM     13  C   UNL     1      34.311  24.413  10.270  1.00  0.00     0.008 C 
ATOM     14  C   UNL     1      29.336  29.822  10.883  1.00  0.00     0.017 C 
ATOM     15  C   UNL     1      27.646  28.011  10.078  1.00  0.00    -0.020 C 
ATOM     16  C   UNL     1      28.371  27.013  12.401  1.00  0.00     0.032 C 
ATOM     17  C   UNL     1      27.223  27.736  11.589  1.00  0.00     0.006 C 
ATOM     18  C   UNL     1      27.490  26.670   9.307  1.00  0.00     0.008 C 
ATOM     19  C   UNL     1      26.729  29.102   9.426  1.00  0.00     0.012 C 
ATOM     20  C   UNL     1      25.806  27.010  11.839  1.00  0.00    -0.025 C 
ATOM     21  C   UNL     1      26.120  25.997   9.469  1.00  0.00     0.005 C 
ATOM     22  C   UNL     1      25.685  25.711  10.940  1.00  0.00     0.003 C 
ATOM     23  C   UNL     1      24.593  27.956  11.553  1.00  0.00     0.010 C 
ATOM     24  C   UNL     1      25.732  26.677  13.375  1.00  0.00     0.012 C 
ATOM     25  C   UNL     1      24.260  24.990  10.999  1.00  0.00    -0.006 C 
ATOM     26  C   UNL     1      23.209  27.282  11.668  1.00  0.00     0.033 C 
ATOM     27  C   UNL     1      23.077  26.002  10.810  1.00  0.00     0.120 C 
ATOM     28  C   UNL     1      24.077  24.235  12.350  1.00  0.00     0.014 C 
ATOM     29  C   UNL     1      24.147  23.875   9.916  1.00  0.00     0.014 C 
ENDROOT
BRANCH   1  30
ATOM     30  C   UNL     1      32.689  28.940  10.551  1.00  0.00     0.048 C 
ATOM     31  O   UNL     1      32.880  30.183  10.502  1.00  0.00    -0.550 OA
ATOM     32  O   UNL     1      32.980  28.267  11.734  1.00  0.00    -0.550 OA
ENDBRANCH   1  30
BRANCH  27  33
ATOM     33  O   UNL     1      22.843  26.295   9.448  1.00  0.00    -0.393 OA
ATOM     34  H   UNL     1      23.692  26.252   8.939  1.00  0.00     0.210 HD
ENDBRANCH  27  33
TORSDOF 2
ENDMDL
MODEL 8
REMARK VINA RESULT:    -4.360      1.722      7.542
REMARK INTER + INTRA:          -4.542
REMARK INTER:                  -4.765
REMARK INTRA:                   0.224
REMARK UNBOUND:                 0.200
REMARK SMILES C[C@H]1[C@H](C)CC[C@@]2(C(=O)[O-])CC[C@]3(C)C(=CC[C@@H]4[C@@]5(C)CC[C@@H](O)C(C)(C)[C@H]5CC[C@@]43C)[C@H]12
REMARK SMILES IDX 7 1 6 2 11 3 33 4 5 5 12 6 15 7 2 8 3 9 13 10 16 11 1 12
REMARK SMILES IDX 4 13 14 14 31 15 17 16 18 17 30 18 32 19 19 20 29 21 28 22
REMARK SMILES IDX 21 23 20 24 25 25 22 26 23 27 26 28 27 29 8 30 9 31 10 32
REMARK SMILES IDX 24 33
REMARK H PARENT 24 34
REMARK Flexibility Score: inf
ROOT
ATOM      1  C   UNL     1      33.268  26.644  11.144  1.00  0.00     0.017 C 
ATOM      2  C   UNL     1      34.405  25.697  11.598  1.00  0.00     0.014 C 
ATOM      3  C   UNL     1      33.095  26.509   9.589  1.00  0.00     0.014 C 
ATOM      4  C   UNL     1      31.933  26.231  11.845  1.00  0.00     0.030 C 
ATOM      5  C   UNL     1      34.577  25.706  13.116  1.00  0.00     0.004 C 
ATOM      6  C   UNL     1      31.632  26.385   9.086  1.00  0.00     0.013 C 
ATOM      7  C   UNL     1      30.814  27.163  11.328  1.00  0.00    -0.063 C 
ATOM      8  C   UNL     1      32.044  26.024  13.402  1.00  0.00    -0.003 C 
ATOM      9  C   UNL     1      33.305  25.192  13.802  1.00  0.00    -0.011 C 
ATOM     10  C   UNL     1      30.606  27.322   9.824  1.00  0.00    -0.006 C 
ATOM     11  C   UNL     1      29.984  27.820  12.152  1.00  0.00    -0.027 C 
ATOM     12  C   UNL     1      30.785  25.295  13.945  1.00  0.00     0.008 C 
ATOM     13  C   UNL     1      33.525  25.181  15.325  1.00  0.00     0.008 C 
ATOM     14  C   UNL     1      30.969  28.787   9.422  1.00  0.00     0.017 C 
ATOM     15  C   UNL     1      29.061  27.017   9.485  1.00  0.00    -0.020 C 
ATOM     16  C   UNL     1      28.623  28.296  11.741  1.00  0.00     0.032 C 
ATOM     17  C   UNL     1      28.128  28.050  10.258  1.00  0.00     0.006 C 
ATOM     18  C   UNL     1      28.662  25.592   9.964  1.00  0.00     0.008 C 
ATOM     19  C   UNL     1      28.857  27.125   7.935  1.00  0.00     0.012 C 
ATOM     20  C   UNL     1      26.540  27.781  10.226  1.00  0.00    -0.025 C 
ATOM     21  C   UNL     1      27.161  25.285   9.872  1.00  0.00     0.005 C 
ATOM     22  C   UNL     1      26.227  26.280  10.627  1.00  0.00     0.003 C 
ATOM     23  C   UNL     1      25.911  28.088   8.827  1.00  0.00     0.010 C 
ATOM     24  C   UNL     1      25.885  28.808  11.221  1.00  0.00     0.012 C 
ATOM     25  C   UNL     1      24.691  25.860  10.489  1.00  0.00    -0.006 C 
ATOM     26  C   UNL     1      24.412  27.742   8.703  1.00  0.00     0.033 C 
ATOM     27  C   UNL     1      24.083  26.286   9.107  1.00  0.00     0.120 C 
ATOM     28  C   UNL     1      23.841  26.484  11.635  1.00  0.00     0.014 C 
ATOM     29  C   UNL     1      24.509  24.323  10.667  1.00  0.00     0.014 C 
ENDROOT
BRANCH   1  30
ATOM     30  C   UNL     1      33.688  28.077  11.480  1.00  0.00     0.048 C 
ATOM     31  O   UNL     1      34.385  28.765  10.688  1.00  0.00    -0.550 OA
ATOM     32  O   UNL     1      33.275  28.653  12.677  1.00  0.00    -0.550 OA
ENDBRANCH   1  30
BRANCH  27  33
ATOM     33  O   UNL     1      24.400  25.365   8.083  1.00  0.00    -0.393 OA
ATOM     34  H   UNL     1      23.677  24.693   7.993  1.00  0.00     0.210 HD
ENDBRANCH  27  33
TORSDOF 2
ENDMDL
