MODEL 1
REMARK VINA RESULT:    -6.223      0.000      0.000
REMARK INTER + INTRA:          -7.516
REMARK INTER:                  -7.314
REMARK INTRA:                  -0.202
REMARK UNBOUND:                -0.202
REMARK SMILES O=c1c(O)c(-c2ccc(O)cc2)oc2cc(O)cc(O)c12
REMARK SMILES IDX 5 1 3 2 2 3 1 4 21 5 19 6 18 7 16 8 15 9 14 10 13 11 6 12
REMARK SMILES IDX 7 13 8 14 9 15 12 16 11 17 10 18 4 20 20 22 17 24
REMARK H PARENT 10 19 4 21 20 23 17 25
REMARK Flexibility Score: inf
ROOT
ATOM      1  C   UNL     1     -19.755  39.814  -3.192  1.00  0.00     0.180 A 
ATOM      2  C   UNL     1     -19.048  40.700  -4.024  1.00  0.00     0.208 A 
ATOM      3  C   UNL     1     -18.933  40.404  -5.391  1.00  0.00     0.238 A 
ATOM      4  O   UNL     1     -18.363  41.238  -6.143  1.00  0.00    -0.285 OA
ATOM      5  C   UNL     1     -19.475  39.199  -5.900  1.00  0.00     0.111 A 
ATOM      6  C   UNL     1     -19.377  38.774  -7.261  1.00  0.00     0.134 A 
ATOM      7  C   UNL     1     -20.044  37.614  -7.672  1.00  0.00     0.093 A 
ATOM      8  C   UNL     1     -20.751  36.828  -6.761  1.00  0.00     0.123 A 
ATOM      9  C   UNL     1     -20.806  37.204  -5.419  1.00  0.00     0.094 A 
ATOM     10  C   UNL     1     -20.184  38.376  -4.986  1.00  0.00     0.146 A 
ATOM     11  O   UNL     1     -20.280  38.708  -3.704  1.00  0.00    -0.452 OA
ENDROOT
BRANCH   1  12
ATOM     12  C   UNL     1     -19.933  40.064  -1.743  1.00  0.00     0.021 A 
ATOM     13  C   UNL     1     -20.796  41.088  -1.320  1.00  0.00     0.016 A 
ATOM     14  C   UNL     1     -20.962  41.357   0.042  1.00  0.00     0.047 A 
ATOM     15  C   UNL     1     -20.257  40.618   0.997  1.00  0.00     0.115 A 
ATOM     16  C   UNL     1     -19.211  39.338  -0.779  1.00  0.00     0.016 A 
ATOM     17  C   UNL     1     -19.379  39.609   0.583  1.00  0.00     0.047 A 
BRANCH  15  18
ATOM     18  O   UNL     1     -20.433  40.896   2.350  1.00  0.00    -0.508 OA
ATOM     19  H   UNL     1     -19.685  41.286   2.911  1.00  0.00     0.293 HD
ENDBRANCH  15  18
ENDBRANCH   1  12
BRANCH   2  20
ATOM     20  O   UNL     1     -18.455  41.846  -3.487  1.00  0.00    -0.502 OA
ATOM     21  H   UNL     1     -17.916  41.828  -2.629  1.00  0.00     0.293 HD
ENDBRANCH   2  20
BRANCH   6  22
ATOM     22  O   UNL     1     -18.624  39.436  -8.235  1.00  0.00    -0.507 OA
ATOM     23  H   UNL     1     -18.932  40.247  -8.750  1.00  0.00     0.293 HD
ENDBRANCH   6  22
BRANCH   8  24
ATOM     24  O   UNL     1     -21.388  35.670  -7.203  1.00  0.00    -0.508 OA
ATOM     25  H   UNL     1     -21.258  35.321  -8.146  1.00  0.00     0.293 HD
ENDBRANCH   8  24
TORSDOF 5
ENDMDL
MODEL 2
REMARK VINA RESULT:    -6.088      0.976      1.035
REMARK INTER + INTRA:          -7.358
REMARK INTER:                  -7.079
REMARK INTRA:                  -0.278
REMARK UNBOUND:                -0.202
REMARK SMILES O=c1c(O)c(-c2ccc(O)cc2)oc2cc(O)cc(O)c12
REMARK SMILES IDX 5 1 3 2 2 3 1 4 21 5 19 6 18 7 16 8 15 9 14 10 13 11 6 12
REMARK SMILES IDX 7 13 8 14 9 15 12 16 11 17 10 18 4 20 20 22 17 24
REMARK H PARENT 10 19 4 21 20 23 17 25
REMARK Flexibility Score: inf
ROOT
ATOM      1  C   UNL     1     -20.502  39.863  -3.702  1.00  0.00     0.180 A 
ATOM      2  C   UNL     1     -20.065  40.800  -4.654  1.00  0.00     0.208 A 
ATOM      3  C   UNL     1     -19.865  40.381  -5.979  1.00  0.00     0.238 A 
ATOM      4  O   UNL     1     -19.546  41.241  -6.841  1.00  0.00    -0.285 OA
ATOM      5  C   UNL     1     -20.047  39.020  -6.323  1.00  0.00     0.111 A 
ATOM      6  C   UNL     1     -19.827  38.475  -7.625  1.00  0.00     0.134 A 
ATOM      7  C   UNL     1     -20.142  37.133  -7.874  1.00  0.00     0.093 A 
ATOM      8  C   UNL     1     -20.607  36.301  -6.856  1.00  0.00     0.123 A 
ATOM      9  C   UNL     1     -20.772  36.809  -5.567  1.00  0.00     0.094 A 
ATOM     10  C   UNL     1     -20.503  38.152  -5.296  1.00  0.00     0.146 A 
ATOM     11  O   UNL     1     -20.695  38.600  -4.061  1.00  0.00    -0.452 OA
ENDROOT
BRANCH   1  12
ATOM     12  C   UNL     1     -20.750  40.231  -2.289  1.00  0.00     0.021 A 
ATOM     13  C   UNL     1     -21.982  40.801  -1.930  1.00  0.00     0.016 A 
ATOM     14  C   UNL     1     -22.230  41.178  -0.607  1.00  0.00     0.047 A 
ATOM     15  C   UNL     1     -21.247  41.003   0.371  1.00  0.00     0.115 A 
ATOM     16  C   UNL     1     -19.757  40.076  -1.305  1.00  0.00     0.016 A 
ATOM     17  C   UNL     1     -20.008  40.454   0.018  1.00  0.00     0.047 A 
BRANCH  15  18
ATOM     18  O   UNL     1     -21.508  41.382   1.686  1.00  0.00    -0.508 OA
ATOM     19  H   UNL     1     -20.844  41.203   2.430  1.00  0.00     0.293 HD
ENDBRANCH  15  18
ENDBRANCH   1  12
BRANCH   2  20
ATOM     20  O   UNL     1     -19.818  42.123  -4.277  1.00  0.00    -0.502 OA
ATOM     21  H   UNL     1     -20.310  42.572  -3.514  1.00  0.00     0.293 HD
ENDBRANCH   2  20
BRANCH   6  22
ATOM     22  O   UNL     1     -19.283  39.193  -8.694  1.00  0.00    -0.507 OA
ATOM     23  H   UNL     1     -18.297  39.301  -8.875  1.00  0.00     0.293 HD
ENDBRANCH   6  22
BRANCH   8  24
ATOM     24  O   UNL     1     -20.894  34.966  -7.137  1.00  0.00    -0.508 OA
ATOM     25  H   UNL     1     -21.237  34.679  -8.046  1.00  0.00     0.293 HD
ENDBRANCH   8  24
TORSDOF 5
ENDMDL
MODEL 3
REMARK VINA RESULT:    -5.828      2.862      4.773
REMARK INTER + INTRA:          -7.051
REMARK INTER:                  -6.892
REMARK INTRA:                  -0.159
REMARK UNBOUND:                -0.202
REMARK SMILES O=c1c(O)c(-c2ccc(O)cc2)oc2cc(O)cc(O)c12
REMARK SMILES IDX 5 1 3 2 2 3 1 4 21 5 19 6 18 7 16 8 15 9 14 10 13 11 6 12
REMARK SMILES IDX 7 13 8 14 9 15 12 16 11 17 10 18 4 20 20 22 17 24
REMARK H PARENT 10 19 4 21 20 23 17 25
REMARK Flexibility Score: inf
ROOT
ATOM      1  C   UNL     1     -19.933  40.437   0.780  1.00  0.00     0.180 A 
ATOM      2  C   UNL     1     -21.171  41.058   0.544  1.00  0.00     0.208 A 
ATOM      3  C   UNL     1     -21.856  40.779  -0.649  1.00  0.00     0.238 A 
ATOM      4  O   UNL     1     -22.998  41.280  -0.821  1.00  0.00    -0.285 OA
ATOM      5  C   UNL     1     -21.269  39.929  -1.618  1.00  0.00     0.111 A 
ATOM      6  C   UNL     1     -21.852  39.613  -2.883  1.00  0.00     0.134 A 
ATOM      7  C   UNL     1     -21.229  38.676  -3.716  1.00  0.00     0.093 A 
ATOM      8  C   UNL     1     -20.013  38.091  -3.361  1.00  0.00     0.123 A 
ATOM      9  C   UNL     1     -19.407  38.435  -2.152  1.00  0.00     0.094 A 
ATOM     10  C   UNL     1     -20.023  39.337  -1.282  1.00  0.00     0.146 A 
ATOM     11  O   UNL     1     -19.422  39.619  -0.132  1.00  0.00    -0.452 OA
ENDROOT
BRANCH   1  12
ATOM     12  C   UNL     1     -19.158  40.668   2.020  1.00  0.00     0.021 A 
ATOM     13  C   UNL     1     -19.030  39.631   2.958  1.00  0.00     0.016 A 
ATOM     14  C   UNL     1     -18.322  39.834   4.147  1.00  0.00     0.047 A 
ATOM     15  C   UNL     1     -17.747  41.078   4.421  1.00  0.00     0.115 A 
ATOM     16  C   UNL     1     -18.594  41.924   2.310  1.00  0.00     0.016 A 
ATOM     17  C   UNL     1     -17.887  42.124   3.500  1.00  0.00     0.047 A 
BRANCH  15  18
ATOM     18  O   UNL     1     -17.045  41.266   5.608  1.00  0.00    -0.508 OA
ATOM     19  H   UNL     1     -16.410  40.561   5.965  1.00  0.00     0.293 HD
ENDBRANCH  15  18
ENDBRANCH   1  12
BRANCH   2  20
ATOM     20  O   UNL     1     -21.698  41.954   1.478  1.00  0.00    -0.502 OA
ATOM     21  H   UNL     1     -22.377  42.664   1.228  1.00  0.00     0.293 HD
ENDBRANCH   2  20
BRANCH   6  22
ATOM     22  O   UNL     1     -23.019  40.204  -3.377  1.00  0.00    -0.507 OA
ATOM     23  H   UNL     1     -23.930  39.773  -3.373  1.00  0.00     0.293 HD
ENDBRANCH   6  22
BRANCH   8  24
ATOM     24  O   UNL     1     -19.414  37.175  -4.222  1.00  0.00    -0.508 OA
ATOM     25  H   UNL     1     -18.687  36.545  -3.903  1.00  0.00     0.293 HD
ENDBRANCH   8  24
TORSDOF 5
ENDMDL
MODEL 4
REMARK VINA RESULT:    -5.817      1.332      3.122
REMARK INTER + INTRA:          -7.039
REMARK INTER:                  -6.754
REMARK INTRA:                  -0.285
REMARK UNBOUND:                -0.202
REMARK SMILES O=c1c(O)c(-c2ccc(O)cc2)oc2cc(O)cc(O)c12
REMARK SMILES IDX 5 1 3 2 2 3 1 4 21 5 19 6 18 7 16 8 15 9 14 10 13 11 6 12
REMARK SMILES IDX 7 13 8 14 9 15 12 16 11 17 10 18 4 20 20 22 17 24
REMARK H PARENT 10 19 4 21 20 23 17 25
REMARK Flexibility Score: inf
ROOT
ATOM      1  C   UNL     1     -20.130  39.649  -2.421  1.00  0.00     0.180 A 
ATOM      2  C   UNL     1     -21.034  38.656  -2.838  1.00  0.00     0.208 A 
ATOM      3  C   UNL     1     -21.002  38.224  -4.173  1.00  0.00     0.238 A 
ATOM      4  O   UNL     1     -21.762  37.283  -4.521  1.00  0.00    -0.285 OA
ATOM      5  C   UNL     1     -20.107  38.829  -5.089  1.00  0.00     0.111 A 
ATOM      6  C   UNL     1     -20.020  38.502  -6.477  1.00  0.00     0.134 A 
ATOM      7  C   UNL     1     -19.024  39.092  -7.264  1.00  0.00     0.093 A 
ATOM      8  C   UNL     1     -18.153  40.043  -6.732  1.00  0.00     0.123 A 
ATOM      9  C   UNL     1     -18.265  40.410  -5.390  1.00  0.00     0.094 A 
ATOM     10  C   UNL     1     -19.224  39.812  -4.570  1.00  0.00     0.146 A 
ATOM     11  O   UNL     1     -19.281  40.175  -3.294  1.00  0.00    -0.452 OA
ENDROOT
BRANCH   1  12
ATOM     12  C   UNL     1     -20.093  40.146  -1.026  1.00  0.00     0.021 A 
ATOM     13  C   UNL     1     -19.227  39.541  -0.100  1.00  0.00     0.016 A 
ATOM     14  C   UNL     1     -19.191  39.979   1.227  1.00  0.00     0.047 A 
ATOM     15  C   UNL     1     -20.029  41.015   1.650  1.00  0.00     0.115 A 
ATOM     16  C   UNL     1     -20.948  41.175  -0.591  1.00  0.00     0.016 A 
ATOM     17  C   UNL     1     -20.910  41.610   0.738  1.00  0.00     0.047 A 
BRANCH  15  18
ATOM     18  O   UNL     1     -19.983  41.441   2.975  1.00  0.00    -0.508 OA
ATOM     19  H   UNL     1     -20.247  40.829   3.737  1.00  0.00     0.293 HD
ENDBRANCH  15  18
ENDBRANCH   1  12
BRANCH   2  20
ATOM     20  O   UNL     1     -21.961  38.126  -1.936  1.00  0.00    -0.502 OA
ATOM     21  H   UNL     1     -22.250  38.619  -1.100  1.00  0.00     0.293 HD
ENDBRANCH   2  20
BRANCH   6  22
ATOM     22  O   UNL     1     -20.896  37.631  -7.133  1.00  0.00    -0.507 OA
ATOM     23  H   UNL     1     -21.844  37.443  -6.846  1.00  0.00     0.293 HD
ENDBRANCH   6  22
BRANCH   8  24
ATOM     24  O   UNL     1     -17.184  40.621  -7.550  1.00  0.00    -0.508 OA
ATOM     25  H   UNL     1     -16.233  40.757  -7.229  1.00  0.00     0.293 HD
ENDBRANCH   8  24
TORSDOF 5
ENDMDL
MODEL 5
REMARK VINA RESULT:    -5.656      1.293      2.924
REMARK INTER + INTRA:          -6.850
REMARK INTER:                  -6.554
REMARK INTRA:                  -0.296
REMARK UNBOUND:                -0.202
REMARK SMILES O=c1c(O)c(-c2ccc(O)cc2)oc2cc(O)cc(O)c12
REMARK SMILES IDX 5 1 3 2 2 3 1 4 21 5 19 6 18 7 16 8 15 9 14 10 13 11 6 12
REMARK SMILES IDX 7 13 8 14 9 15 12 16 11 17 10 18 4 20 20 22 17 24
REMARK H PARENT 10 19 4 21 20 23 17 25
REMARK Flexibility Score: inf
ROOT
ATOM      1  C   UNL     1     -20.087  39.556  -2.613  1.00  0.00     0.180 A 
ATOM      2  C   UNL     1     -20.947  38.553  -3.090  1.00  0.00     0.208 A 
ATOM      3  C   UNL     1     -20.859  38.164  -4.436  1.00  0.00     0.238 A 
ATOM      4  O   UNL     1     -21.580  37.214  -4.838  1.00  0.00    -0.285 OA
ATOM      5  C   UNL     1     -19.953  38.823  -5.303  1.00  0.00     0.111 A 
ATOM      6  C   UNL     1     -19.813  38.543  -6.697  1.00  0.00     0.134 A 
ATOM      7  C   UNL     1     -18.808  39.185  -7.432  1.00  0.00     0.093 A 
ATOM      8  C   UNL     1     -17.983  40.142  -6.842  1.00  0.00     0.123 A 
ATOM      9  C   UNL     1     -18.149  40.464  -5.494  1.00  0.00     0.094 A 
ATOM     10  C   UNL     1     -19.116  39.813  -4.725  1.00  0.00     0.146 A 
ATOM     11  O   UNL     1     -19.225  40.133  -3.441  1.00  0.00    -0.452 OA
ENDROOT
BRANCH   1  12
ATOM     12  C   UNL     1     -20.108  40.009  -1.203  1.00  0.00     0.021 A 
ATOM     13  C   UNL     1     -20.919  41.096  -0.839  1.00  0.00     0.016 A 
ATOM     14  C   UNL     1     -20.938  41.555   0.481  1.00  0.00     0.047 A 
ATOM     15  C   UNL     1     -20.137  40.945   1.451  1.00  0.00     0.115 A 
ATOM     16  C   UNL     1     -19.289  39.411  -0.228  1.00  0.00     0.016 A 
ATOM     17  C   UNL     1     -19.310  39.873   1.092  1.00  0.00     0.047 A 
BRANCH  15  18
ATOM     18  O   UNL     1     -20.167  41.412   2.762  1.00  0.00    -0.508 OA
ATOM     19  H   UNL     1     -19.560  42.163   3.070  1.00  0.00     0.293 HD
ENDBRANCH  15  18
ENDBRANCH   1  12
BRANCH   2  20
ATOM     20  O   UNL     1     -21.887  37.968  -2.237  1.00  0.00    -0.502 OA
ATOM     21  H   UNL     1     -22.844  37.794  -2.520  1.00  0.00     0.293 HD
ENDBRANCH   2  20
BRANCH   6  22
ATOM     22  O   UNL     1     -20.641  37.670  -7.408  1.00  0.00    -0.507 OA
ATOM     23  H   UNL     1     -20.859  36.725  -7.129  1.00  0.00     0.293 HD
ENDBRANCH   6  22
BRANCH   8  24
ATOM     24  O   UNL     1     -17.006  40.773  -7.609  1.00  0.00    -0.508 OA
ATOM     25  H   UNL     1     -16.134  41.089  -7.200  1.00  0.00     0.293 HD
ENDBRANCH   8  24
TORSDOF 5
ENDMDL
MODEL 6
REMARK VINA RESULT:    -5.372      1.820      6.894
REMARK INTER + INTRA:          -6.516
REMARK INTER:                  -6.294
REMARK INTRA:                  -0.221
REMARK UNBOUND:                -0.202
REMARK SMILES O=c1c(O)c(-c2ccc(O)cc2)oc2cc(O)cc(O)c12
REMARK SMILES IDX 5 1 3 2 2 3 1 4 21 5 19 6 18 7 16 8 15 9 14 10 13 11 6 12
REMARK SMILES IDX 7 13 8 14 9 15 12 16 11 17 10 18 4 20 20 22 17 24
REMARK H PARENT 10 19 4 21 20 23 17 25
REMARK Flexibility Score: inf
ROOT
ATOM      1  C   UNL     1     -20.631  39.334  -3.070  1.00  0.00     0.180 A 
ATOM      2  C   UNL     1     -21.537  40.398  -2.912  1.00  0.00     0.208 A 
ATOM      3  C   UNL     1     -21.615  41.047  -1.670  1.00  0.00     0.238 A 
ATOM      4  O   UNL     1     -22.373  42.046  -1.558  1.00  0.00    -0.285 OA
ATOM      5  C   UNL     1     -20.830  40.589  -0.584  1.00  0.00     0.111 A 
ATOM      6  C   UNL     1     -20.863  41.142   0.733  1.00  0.00     0.134 A 
ATOM      7  C   UNL     1     -19.964  40.675   1.700  1.00  0.00     0.093 A 
ATOM      8  C   UNL     1     -19.079  39.634   1.419  1.00  0.00     0.123 A 
ATOM      9  C   UNL     1     -19.078  39.049   0.153  1.00  0.00     0.094 A 
ATOM     10  C   UNL     1     -19.935  39.518  -0.845  1.00  0.00     0.146 A 
ATOM     11  O   UNL     1     -19.885  38.947  -2.042  1.00  0.00    -0.452 OA
ENDROOT
BRANCH   1  12
ATOM     12  C   UNL     1     -20.480  38.610  -4.353  1.00  0.00     0.021 A 
ATOM     13  C   UNL     1     -19.817  39.232  -5.423  1.00  0.00     0.016 A 
ATOM     14  C   UNL     1     -19.683  38.577  -6.650  1.00  0.00     0.047 A 
ATOM     15  C   UNL     1     -20.221  37.299  -6.829  1.00  0.00     0.115 A 
ATOM     16  C   UNL     1     -21.037  37.332  -4.544  1.00  0.00     0.016 A 
ATOM     17  C   UNL     1     -20.901  36.679  -5.773  1.00  0.00     0.047 A 
BRANCH  15  18
ATOM     18  O   UNL     1     -20.079  36.657  -8.057  1.00  0.00    -0.508 OA
ATOM     19  H   UNL     1     -20.234  35.661  -8.154  1.00  0.00     0.293 HD
ENDBRANCH  15  18
ENDBRANCH   1  12
BRANCH   2  20
ATOM     20  O   UNL     1     -22.358  40.786  -3.975  1.00  0.00    -0.502 OA
ATOM     21  H   UNL     1     -23.363  40.665  -3.957  1.00  0.00     0.293 HD
ENDBRANCH   2  20
BRANCH   6  22
ATOM     22  O   UNL     1     -21.766  42.125   1.147  1.00  0.00    -0.507 OA
ATOM     23  H   UNL     1     -21.657  42.699   1.969  1.00  0.00     0.293 HD
ENDBRANCH   6  22
BRANCH   8  24
ATOM     24  O   UNL     1     -18.211  39.185   2.412  1.00  0.00    -0.508 OA
ATOM     25  H   UNL     1     -17.231  39.011   2.220  1.00  0.00     0.293 HD
ENDBRANCH   8  24
TORSDOF 5
ENDMDL
MODEL 7
REMARK VINA RESULT:    -5.208      2.161      7.281
REMARK INTER + INTRA:          -6.323
REMARK INTER:                  -6.076
REMARK INTRA:                  -0.247
REMARK UNBOUND:                -0.202
REMARK SMILES O=c1c(O)c(-c2ccc(O)cc2)oc2cc(O)cc(O)c12
REMARK SMILES IDX 5 1 3 2 2 3 1 4 21 5 19 6 18 7 16 8 15 9 14 10 13 11 6 12
REMARK SMILES IDX 7 13 8 14 9 15 12 16 11 17 10 18 4 20 20 22 17 24
REMARK H PARENT 10 19 4 21 20 23 17 25
REMARK Flexibility Score: inf
ROOT
ATOM      1  C   UNL     1     -20.023  40.749  -2.810  1.00  0.00     0.180 A 
ATOM      2  C   UNL     1     -21.403  40.649  -2.565  1.00  0.00     0.208 A 
ATOM      3  C   UNL     1     -21.881  40.869  -1.264  1.00  0.00     0.238 A 
ATOM      4  O   UNL     1     -23.124  40.852  -1.066  1.00  0.00    -0.285 OA
ATOM      5  C   UNL     1     -20.969  41.128  -0.212  1.00  0.00     0.111 A 
ATOM      6  C   UNL     1     -21.338  41.321   1.155  1.00  0.00     0.134 A 
ATOM      7  C   UNL     1     -20.358  41.676   2.091  1.00  0.00     0.093 A 
ATOM      8  C   UNL     1     -19.017  41.784   1.725  1.00  0.00     0.123 A 
ATOM      9  C   UNL     1     -18.638  41.543   0.404  1.00  0.00     0.094 A 
ATOM     10  C   UNL     1     -19.596  41.224  -0.561  1.00  0.00     0.146 A 
ATOM     11  O   UNL     1     -19.195  41.025  -1.811  1.00  0.00    -0.452 OA
ENDROOT
BRANCH   1  12
ATOM     12  C   UNL     1     -19.445  40.546  -4.158  1.00  0.00     0.021 A 
ATOM     13  C   UNL     1     -19.267  39.241  -4.645  1.00  0.00     0.016 A 
ATOM     14  C   UNL     1     -18.702  39.025  -5.906  1.00  0.00     0.047 A 
ATOM     15  C   UNL     1     -18.294  40.109  -6.689  1.00  0.00     0.115 A 
ATOM     16  C   UNL     1     -19.014  41.632  -4.943  1.00  0.00     0.016 A 
ATOM     17  C   UNL     1     -18.449  41.413  -6.203  1.00  0.00     0.047 A 
BRANCH  15  18
ATOM     18  O   UNL     1     -17.734  39.879  -7.943  1.00  0.00    -0.508 OA
ATOM     19  H   UNL     1     -17.933  40.484  -8.731  1.00  0.00     0.293 HD
ENDBRANCH  15  18
ENDBRANCH   1  12
BRANCH   2  20
ATOM     20  O   UNL     1     -22.280  40.317  -3.602  1.00  0.00    -0.502 OA
ATOM     21  H   UNL     1     -22.612  40.999  -4.273  1.00  0.00     0.293 HD
ENDBRANCH   2  20
BRANCH   6  22
ATOM     22  O   UNL     1     -22.635  41.153   1.647  1.00  0.00    -0.507 OA
ATOM     23  H   UNL     1     -23.220  40.350   1.472  1.00  0.00     0.293 HD
ENDBRANCH   6  22
BRANCH   8  24
ATOM     24  O   UNL     1     -18.068  42.123   2.687  1.00  0.00    -0.508 OA
ATOM     25  H   UNL     1     -17.358  41.465   2.985  1.00  0.00     0.293 HD
ENDBRANCH   8  24
TORSDOF 5
ENDMDL
MODEL 8
REMARK VINA RESULT:    -5.089      1.942      3.399
REMARK INTER + INTRA:          -6.183
REMARK INTER:                  -6.075
REMARK INTRA:                  -0.109
REMARK UNBOUND:                -0.202
REMARK SMILES O=c1c(O)c(-c2ccc(O)cc2)oc2cc(O)cc(O)c12
REMARK SMILES IDX 5 1 3 2 2 3 1 4 21 5 19 6 18 7 16 8 15 9 14 10 13 11 6 12
REMARK SMILES IDX 7 13 8 14 9 15 12 16 11 17 10 18 4 20 20 22 17 24
REMARK H PARENT 10 19 4 21 20 23 17 25
REMARK Flexibility Score: inf
ROOT
ATOM      1  C   UNL     1     -20.610  39.213  -4.763  1.00  0.00     0.180 A 
ATOM      2  C   UNL     1     -20.588  37.883  -5.217  1.00  0.00     0.208 A 
ATOM      3  C   UNL     1     -20.506  37.636  -6.597  1.00  0.00     0.238 A 
ATOM      4  O   UNL     1     -20.412  36.445  -6.992  1.00  0.00    -0.285 OA
ATOM      5  C   UNL     1     -20.504  38.720  -7.508  1.00  0.00     0.111 A 
ATOM      6  C   UNL     1     -20.470  38.587  -8.930  1.00  0.00     0.134 A 
ATOM      7  C   UNL     1     -20.364  39.732  -9.729  1.00  0.00     0.093 A 
ATOM      8  C   UNL     1     -20.356  41.007  -9.163  1.00  0.00     0.123 A 
ATOM      9  C   UNL     1     -20.445  41.151  -7.778  1.00  0.00     0.094 A 
ATOM     10  C   UNL     1     -20.513  40.027  -6.953  1.00  0.00     0.146 A 
ATOM     11  O   UNL     1     -20.574  40.209  -5.639  1.00  0.00    -0.452 OA
ENDROOT
BRANCH   1  12
ATOM     12  C   UNL     1     -20.680  39.553  -3.323  1.00  0.00     0.021 A 
ATOM     13  C   UNL     1     -21.737  40.349  -2.852  1.00  0.00     0.016 A 
ATOM     14  C   UNL     1     -21.811  40.701  -1.501  1.00  0.00     0.047 A 
ATOM     15  C   UNL     1     -20.823  40.277  -0.607  1.00  0.00     0.115 A 
ATOM     16  C   UNL     1     -19.678  39.146  -2.423  1.00  0.00     0.016 A 
ATOM     17  C   UNL     1     -19.754  39.500  -1.072  1.00  0.00     0.047 A 
BRANCH  15  18
ATOM     18  O   UNL     1     -20.910  40.635   0.736  1.00  0.00    -0.508 OA
ATOM     19  H   UNL     1     -20.939  39.936   1.469  1.00  0.00     0.293 HD
ENDBRANCH  15  18
ENDBRANCH   1  12
BRANCH   2  20
ATOM     20  O   UNL     1     -20.668  36.827  -4.306  1.00  0.00    -0.502 OA
ATOM     21  H   UNL     1     -21.424  36.742  -3.636  1.00  0.00     0.293 HD
ENDBRANCH   2  20
BRANCH   6  22
ATOM     22  O   UNL     1     -20.561  37.366  -9.604  1.00  0.00    -0.507 OA
ATOM     23  H   UNL     1     -20.720  36.473  -9.163  1.00  0.00     0.293 HD
ENDBRANCH   6  22
BRANCH   8  24
ATOM     24  O   UNL     1     -20.266  42.125  -9.991  1.00  0.00    -0.508 OA
ATOM     25  H   UNL     1     -20.482  43.054  -9.650  1.00  0.00     0.293 HD
ENDBRANCH   8  24
TORSDOF 5
ENDMDL
MODEL 9
REMARK VINA RESULT:    -4.628      1.783      6.746
REMARK INTER + INTRA:          -5.642
REMARK INTER:                  -5.397
REMARK INTRA:                  -0.245
REMARK UNBOUND:                -0.202
REMARK SMILES O=c1c(O)c(-c2ccc(O)cc2)oc2cc(O)cc(O)c12
REMARK SMILES IDX 5 1 3 2 2 3 1 4 21 5 19 6 18 7 16 8 15 9 14 10 13 11 6 12
REMARK SMILES IDX 7 13 8 14 9 15 12 16 11 17 10 18 4 20 20 22 17 24
REMARK H PARENT 10 19 4 21 20 23 17 25
REMARK Flexibility Score: inf
ROOT
ATOM      1  C   UNL     1     -20.311  38.254  -6.454  1.00  0.00     0.180 A 
ATOM      2  C   UNL     1     -19.289  39.158  -6.790  1.00  0.00     0.208 A 
ATOM      3  C   UNL     1     -18.849  40.077  -5.824  1.00  0.00     0.238 A 
ATOM      4  O   UNL     1     -17.883  40.834  -6.107  1.00  0.00    -0.285 OA
ATOM      5  C   UNL     1     -19.474  40.120  -4.554  1.00  0.00     0.111 A 
ATOM      6  C   UNL     1     -19.141  41.041  -3.514  1.00  0.00     0.134 A 
ATOM      7  C   UNL     1     -19.755  40.919  -2.261  1.00  0.00     0.093 A 
ATOM      8  C   UNL     1     -20.734  39.954  -2.029  1.00  0.00     0.123 A 
ATOM      9  C   UNL     1     -21.107  39.085  -3.055  1.00  0.00     0.094 A 
ATOM     10  C   UNL     1     -20.486  39.156  -4.304  1.00  0.00     0.146 A 
ATOM     11  O   UNL     1     -20.856  38.296  -5.245  1.00  0.00    -0.452 OA
ENDROOT
BRANCH   1  12
ATOM     12  C   UNL     1     -20.817  37.245  -7.412  1.00  0.00     0.021 A 
ATOM     13  C   UNL     1     -21.715  37.638  -8.418  1.00  0.00     0.016 A 
ATOM     14  C   UNL     1     -22.224  36.698  -9.320  1.00  0.00     0.047 A 
ATOM     15  C   UNL     1     -21.855  35.354  -9.220  1.00  0.00     0.115 A 
ATOM     16  C   UNL     1     -20.465  35.887  -7.304  1.00  0.00     0.016 A 
ATOM     17  C   UNL     1     -20.976  34.950  -8.207  1.00  0.00     0.047 A 
BRANCH  15  18
ATOM     18  O   UNL     1     -22.369  34.429 -10.125  1.00  0.00    -0.508 OA
ATOM     19  H   UNL     1     -22.001  33.487 -10.187  1.00  0.00     0.293 HD
ENDBRANCH  15  18
ENDBRANCH   1  12
BRANCH   2  20
ATOM     20  O   UNL     1     -18.737  39.151  -8.074  1.00  0.00    -0.502 OA
ATOM     21  H   UNL     1     -17.864  38.683  -8.288  1.00  0.00     0.293 HD
ENDBRANCH   2  20
BRANCH   6  22
ATOM     22  O   UNL     1     -18.240  42.099  -3.664  1.00  0.00    -0.507 OA
ATOM     23  H   UNL     1     -17.810  42.372  -4.535  1.00  0.00     0.293 HD
ENDBRANCH   6  22
BRANCH   8  24
ATOM     24  O   UNL     1     -21.336  39.874  -0.775  1.00  0.00    -0.508 OA
ATOM     25  H   UNL     1     -22.272  39.505  -0.659  1.00  0.00     0.293 HD
ENDBRANCH   8  24
TORSDOF 5
ENDMDL
