MODEL 1
REMARK VINA RESULT:    -6.097      0.000      0.000
REMARK INTER + INTRA:          -6.802
REMARK INTER:                  -6.632
REMARK INTRA:                  -0.170
REMARK UNBOUND:                -0.170
REMARK SMILES C[C@@H]1[C@@H](C)CC[C@@]2(C(=O)[O-])CC[C@]3(C)C(=CC[C@@H]4[C@]5(C)CC[C@@H](O)C(C)(C)[C@H]5CC[C@]43C)[C@@H]12
REMARK SMILES IDX 7 1 6 2 11 3 33 4 5 5 12 6 15 7 2 8 3 9 13 10 16 11 1 12
REMARK SMILES IDX 4 13 14 14 31 15 17 16 18 17 30 18 32 19 19 20 29 21 28 22
REMARK SMILES IDX 21 23 20 24 25 25 22 26 23 27 26 28 27 29 8 30 9 31 10 32
REMARK SMILES IDX 24 33
REMARK H PARENT 24 34
REMARK Flexibility Score: inf
ROOT
ATOM      1  C   UNL     1      15.738  19.058  46.124  1.00  0.00     0.017 C 
ATOM      2  C   UNL     1      16.401  20.095  45.203  1.00  0.00     0.014 C 
ATOM      3  C   UNL     1      16.655  18.814  47.376  1.00  0.00     0.014 C 
ATOM      4  C   UNL     1      14.291  19.609  46.561  1.00  0.00     0.030 C 
ATOM      5  C   UNL     1      15.630  20.405  43.901  1.00  0.00     0.004 C 
ATOM      6  C   UNL     1      15.889  18.395  48.638  1.00  0.00     0.013 C 
ATOM      7  C   UNL     1      14.372  20.330  47.963  1.00  0.00    -0.063 C 
ATOM      8  C   UNL     1      13.566  20.492  45.457  1.00  0.00    -0.003 C 
ATOM      9  C   UNL     1      14.076  20.314  43.997  1.00  0.00    -0.011 C 
ATOM     10  C   UNL     1      14.929  19.519  49.166  1.00  0.00    -0.006 C 
ATOM     11  C   UNL     1      13.810  21.566  48.189  1.00  0.00    -0.027 C 
ATOM     12  C   UNL     1      12.031  20.239  45.562  1.00  0.00     0.008 C 
ATOM     13  C   UNL     1      13.445  21.360  43.053  1.00  0.00     0.008 C 
ATOM     14  C   UNL     1      13.687  18.768  49.726  1.00  0.00     0.017 C 
ATOM     15  C   UNL     1      15.652  20.465  50.301  1.00  0.00    -0.020 C 
ATOM     16  C   UNL     1      14.508  22.462  49.149  1.00  0.00     0.032 C 
ATOM     17  C   UNL     1      14.788  21.777  50.490  1.00  0.00     0.006 C 
ATOM     18  C   UNL     1      15.776  19.716  51.715  1.00  0.00     0.008 C 
ATOM     19  C   UNL     1      17.086  20.847  49.803  1.00  0.00     0.012 C 
ATOM     20  C   UNL     1      15.231  22.795  51.617  1.00  0.00    -0.025 C 
ATOM     21  C   UNL     1      15.416  20.587  52.965  1.00  0.00     0.005 C 
ATOM     22  C   UNL     1      15.955  22.007  52.808  1.00  0.00     0.003 C 
ATOM     23  C   UNL     1      16.231  23.905  51.142  1.00  0.00     0.010 C 
ATOM     24  C   UNL     1      13.903  23.457  52.147  1.00  0.00     0.012 C 
ATOM     25  C   UNL     1      16.302  22.850  54.094  1.00  0.00    -0.006 C 
ATOM     26  C   UNL     1      17.288  24.344  52.170  1.00  0.00     0.033 C 
ATOM     27  C   UNL     1      16.788  24.297  53.615  1.00  0.00     0.120 C 
ATOM     28  C   UNL     1      17.456  22.175  54.876  1.00  0.00     0.014 C 
ATOM     29  C   UNL     1      15.141  22.924  55.103  1.00  0.00     0.014 C 
ENDROOT
BRANCH   1  30
ATOM     30  C   UNL     1      15.661  17.715  45.356  1.00  0.00     0.048 C 
ATOM     31  O   UNL     1      14.685  16.904  45.487  1.00  0.00    -0.550 OA
ATOM     32  O   UNL     1      16.654  17.366  44.423  1.00  0.00    -0.550 OA
ENDBRANCH   1  30
BRANCH  27  33
ATOM     33  O   UNL     1      15.818  25.279  53.860  1.00  0.00    -0.393 OA
ATOM     34  H   UNL     1      15.073  24.880  54.379  1.00  0.00     0.210 HD
ENDBRANCH  27  33
TORSDOF 2
ENDMDL
MODEL 2
REMARK VINA RESULT:    -5.582      2.981      4.368
REMARK INTER + INTRA:          -6.242
REMARK INTER:                  -5.957
REMARK INTRA:                  -0.285
REMARK UNBOUND:                -0.170
REMARK SMILES C[C@@H]1[C@@H](C)CC[C@@]2(C(=O)[O-])CC[C@]3(C)C(=CC[C@@H]4[C@]5(C)CC[C@@H](O)C(C)(C)[C@H]5CC[C@]43C)[C@@H]12
REMARK SMILES IDX 7 1 6 2 11 3 33 4 5 5 12 6 15 7 2 8 3 9 13 10 16 11 1 12
REMARK SMILES IDX 4 13 14 14 31 15 17 16 18 17 30 18 32 19 19 20 29 21 28 22
REMARK SMILES IDX 21 23 20 24 25 25 22 26 23 27 26 28 27 29 8 30 9 31 10 32
REMARK SMILES IDX 24 33
REMARK H PARENT 24 34
REMARK Flexibility Score: inf
ROOT
ATOM      1  C   UNL     1      15.137  19.373  49.386  1.00  0.00     0.017 C 
ATOM      2  C   UNL     1      16.440  19.387  48.570  1.00  0.00     0.014 C 
ATOM      3  C   UNL     1      15.324  20.249  50.677  1.00  0.00     0.014 C 
ATOM      4  C   UNL     1      13.946  19.938  48.465  1.00  0.00     0.030 C 
ATOM      5  C   UNL     1      16.420  18.526  47.288  1.00  0.00     0.004 C 
ATOM      6  C   UNL     1      14.026  20.882  51.194  1.00  0.00     0.013 C 
ATOM      7  C   UNL     1      13.721  21.478  48.733  1.00  0.00    -0.063 C 
ATOM      8  C   UNL     1      14.095  19.599  46.921  1.00  0.00    -0.003 C 
ATOM      9  C   UNL     1      15.039  18.412  46.570  1.00  0.00    -0.011 C 
ATOM     10  C   UNL     1      13.417  21.925  50.191  1.00  0.00    -0.006 C 
ATOM     11  C   UNL     1      13.608  22.394  47.713  1.00  0.00    -0.027 C 
ATOM     12  C   UNL     1      12.668  19.390  46.328  1.00  0.00     0.008 C 
ATOM     13  C   UNL     1      15.264  18.307  45.046  1.00  0.00     0.008 C 
ATOM     14  C   UNL     1      11.875  21.769  50.323  1.00  0.00     0.017 C 
ATOM     15  C   UNL     1      13.921  23.457  50.512  1.00  0.00    -0.020 C 
ATOM     16  C   UNL     1      14.143  23.759  47.967  1.00  0.00     0.032 C 
ATOM     17  C   UNL     1      13.597  24.369  49.260  1.00  0.00     0.006 C 
ATOM     18  C   UNL     1      13.191  24.069  51.805  1.00  0.00     0.008 C 
ATOM     19  C   UNL     1      15.466  23.440  50.764  1.00  0.00     0.012 C 
ATOM     20  C   UNL     1      13.894  25.918  49.381  1.00  0.00    -0.025 C 
ATOM     21  C   UNL     1      12.710  25.552  51.659  1.00  0.00     0.005 C 
ATOM     22  C   UNL     1      13.745  26.385  50.905  1.00  0.00     0.003 C 
ATOM     23  C   UNL     1      15.330  26.348  48.920  1.00  0.00     0.010 C 
ATOM     24  C   UNL     1      12.807  26.636  48.495  1.00  0.00     0.012 C 
ATOM     25  C   UNL     1      13.834  27.935  51.173  1.00  0.00    -0.006 C 
ATOM     26  C   UNL     1      15.972  27.502  49.709  1.00  0.00     0.033 C 
ATOM     27  C   UNL     1      14.961  28.535  50.210  1.00  0.00     0.120 C 
ATOM     28  C   UNL     1      14.250  28.198  52.642  1.00  0.00     0.014 C 
ATOM     29  C   UNL     1      12.482  28.658  51.018  1.00  0.00     0.014 C 
ENDROOT
BRANCH   1  30
ATOM     30  C   UNL     1      14.888  17.920  49.865  1.00  0.00     0.048 C 
ATOM     31  O   UNL     1      15.777  17.235  50.471  1.00  0.00    -0.550 OA
ATOM     32  O   UNL     1      13.628  17.317  49.698  1.00  0.00    -0.550 OA
ENDBRANCH   1  30
BRANCH  27  33
ATOM     33  O   UNL     1      14.405  29.269  49.153  1.00  0.00    -0.393 OA
ATOM     34  H   UNL     1      13.473  29.518  49.382  1.00  0.00     0.210 HD
ENDBRANCH  27  33
TORSDOF 2
ENDMDL
MODEL 3
REMARK VINA RESULT:    -5.189      3.229      7.895
REMARK INTER + INTRA:          -5.814
REMARK INTER:                  -5.584
REMARK INTRA:                  -0.230
REMARK UNBOUND:                -0.170
REMARK SMILES C[C@@H]1[C@@H](C)CC[C@@]2(C(=O)[O-])CC[C@]3(C)C(=CC[C@@H]4[C@]5(C)CC[C@@H](O)C(C)(C)[C@H]5CC[C@]43C)[C@@H]12
REMARK SMILES IDX 7 1 6 2 11 3 33 4 5 5 12 6 15 7 2 8 3 9 13 10 16 11 1 12
REMARK SMILES IDX 4 13 14 14 31 15 17 16 18 17 30 18 32 19 19 20 29 21 28 22
REMARK SMILES IDX 21 23 20 24 25 25 22 26 23 27 26 28 27 29 8 30 9 31 10 32
REMARK SMILES IDX 24 33
REMARK H PARENT 24 34
REMARK Flexibility Score: inf
ROOT
ATOM      1  C   UNL     1      13.878  27.145  49.513  1.00  0.00     0.017 C 
ATOM      2  C   UNL     1      15.274  27.559  49.020  1.00  0.00     0.014 C 
ATOM      3  C   UNL     1      13.243  26.137  48.489  1.00  0.00     0.014 C 
ATOM      4  C   UNL     1      14.023  26.480  50.970  1.00  0.00     0.030 C 
ATOM      5  C   UNL     1      16.005  28.588  49.909  1.00  0.00     0.004 C 
ATOM      6  C   UNL     1      12.251  25.150  49.118  1.00  0.00     0.013 C 
ATOM      7  C   UNL     1      14.098  24.907  50.858  1.00  0.00    -0.063 C 
ATOM      8  C   UNL     1      15.193  27.089  51.854  1.00  0.00    -0.003 C 
ATOM      9  C   UNL     1      15.701  28.500  51.437  1.00  0.00    -0.011 C 
ATOM     10  C   UNL     1      12.931  24.173  50.140  1.00  0.00    -0.006 C 
ATOM     11  C   UNL     1      15.052  24.166  51.518  1.00  0.00    -0.027 C 
ATOM     12  C   UNL     1      14.742  27.062  53.347  1.00  0.00     0.008 C 
ATOM     13  C   UNL     1      16.963  28.899  52.232  1.00  0.00     0.008 C 
ATOM     14  C   UNL     1      11.875  23.951  51.260  1.00  0.00     0.017 C 
ATOM     15  C   UNL     1      13.396  22.763  49.431  1.00  0.00    -0.020 C 
ATOM     16  C   UNL     1      15.542  22.936  50.840  1.00  0.00     0.032 C 
ATOM     17  C   UNL     1      14.399  22.017  50.400  1.00  0.00     0.006 C 
ATOM     18  C   UNL     1      12.146  21.801  49.133  1.00  0.00     0.008 C 
ATOM     19  C   UNL     1      14.116  23.090  48.080  1.00  0.00     0.012 C 
ATOM     20  C   UNL     1      14.899  20.577  49.976  1.00  0.00    -0.025 C 
ATOM     21  C   UNL     1      12.368  20.292  49.484  1.00  0.00     0.005 C 
ATOM     22  C   UNL     1      13.777  19.848  49.095  1.00  0.00     0.003 C 
ATOM     23  C   UNL     1      16.215  20.565  49.124  1.00  0.00     0.010 C 
ATOM     24  C   UNL     1      15.120  19.784  51.319  1.00  0.00     0.012 C 
ATOM     25  C   UNL     1      14.042  18.337  48.738  1.00  0.00    -0.006 C 
ATOM     26  C   UNL     1      16.306  19.474  48.042  1.00  0.00     0.033 C 
ATOM     27  C   UNL     1      15.603  18.172  48.429  1.00  0.00     0.120 C 
ATOM     28  C   UNL     1      13.243  17.942  47.471  1.00  0.00     0.014 C 
ATOM     29  C   UNL     1      13.553  17.361  49.826  1.00  0.00     0.014 C 
ENDROOT
BRANCH   1  30
ATOM     30  C   UNL     1      12.977  28.406  49.516  1.00  0.00     0.048 C 
ATOM     31  O   UNL     1      12.632  29.004  48.444  1.00  0.00    -0.550 OA
ATOM     32  O   UNL     1      12.450  28.907  50.719  1.00  0.00    -0.550 OA
ENDBRANCH   1  30
BRANCH  27  33
ATOM     33  O   UNL     1      16.273  17.512  49.469  1.00  0.00    -0.393 OA
ATOM     34  H   UNL     1      17.225  17.784  49.468  1.00  0.00     0.210 HD
ENDBRANCH  27  33
TORSDOF 2
ENDMDL
MODEL 4
REMARK VINA RESULT:    -5.144      3.975      7.612
REMARK INTER + INTRA:          -5.765
REMARK INTER:                  -5.489
REMARK INTRA:                  -0.276
REMARK UNBOUND:                -0.170
REMARK SMILES C[C@@H]1[C@@H](C)CC[C@@]2(C(=O)[O-])CC[C@]3(C)C(=CC[C@@H]4[C@]5(C)CC[C@@H](O)C(C)(C)[C@H]5CC[C@]43C)[C@@H]12
REMARK SMILES IDX 7 1 6 2 11 3 33 4 5 5 12 6 15 7 2 8 3 9 13 10 16 11 1 12
REMARK SMILES IDX 4 13 14 14 31 15 17 16 18 17 30 18 32 19 19 20 29 21 28 22
REMARK SMILES IDX 21 23 20 24 25 25 22 26 23 27 26 28 27 29 8 30 9 31 10 32
REMARK SMILES IDX 24 33
REMARK H PARENT 24 34
REMARK Flexibility Score: inf
ROOT
ATOM      1  C   UNL     1      14.527  27.284  52.020  1.00  0.00     0.017 C 
ATOM      2  C   UNL     1      13.045  27.577  51.732  1.00  0.00     0.014 C 
ATOM      3  C   UNL     1      14.641  26.418  53.326  1.00  0.00     0.014 C 
ATOM      4  C   UNL     1      15.155  26.514  50.755  1.00  0.00     0.030 C 
ATOM      5  C   UNL     1      12.780  28.462  50.495  1.00  0.00     0.004 C 
ATOM      6  C   UNL     1      15.874  25.505  53.363  1.00  0.00     0.013 C 
ATOM      7  C   UNL     1      15.132  24.953  50.988  1.00  0.00    -0.063 C 
ATOM      8  C   UNL     1      14.531  26.935  49.356  1.00  0.00    -0.003 C 
ATOM      9  C   UNL     1      13.797  28.308  49.321  1.00  0.00    -0.011 C 
ATOM     10  C   UNL     1      15.842  24.396  52.253  1.00  0.00    -0.006 C 
ATOM     11  C   UNL     1      14.671  24.072  50.036  1.00  0.00    -0.027 C 
ATOM     12  C   UNL     1      15.655  26.860  48.278  1.00  0.00     0.008 C 
ATOM     13  C   UNL     1      13.062  28.516  47.980  1.00  0.00     0.008 C 
ATOM     14  C   UNL     1      17.323  24.217  51.811  1.00  0.00     0.017 C 
ATOM     15  C   UNL     1      15.179  22.994  52.800  1.00  0.00    -0.020 C 
ATOM     16  C   UNL     1      13.990  22.843  50.523  1.00  0.00     0.032 C 
ATOM     17  C   UNL     1      14.827  22.083  51.556  1.00  0.00     0.006 C 
ATOM     18  C   UNL     1      16.181  22.193  53.765  1.00  0.00     0.008 C 
ATOM     19  C   UNL     1      13.872  23.329  53.594  1.00  0.00     0.012 C 
ATOM     20  C   UNL     1      14.274  20.628  51.841  1.00  0.00    -0.025 C 
ATOM     21  C   UNL     1      16.253  20.649  53.518  1.00  0.00     0.005 C 
ATOM     22  C   UNL     1      14.865  20.083  53.226  1.00  0.00     0.003 C 
ATOM     23  C   UNL     1      12.713  20.530  51.951  1.00  0.00     0.010 C 
ATOM     24  C   UNL     1      14.788  19.731  50.653  1.00  0.00     0.012 C 
ATOM     25  C   UNL     1      14.554  18.578  53.574  1.00  0.00    -0.006 C 
ATOM     26  C   UNL     1      12.173  19.508  52.967  1.00  0.00     0.033 C 
ATOM     27  C   UNL     1      13.055  18.267  53.111  1.00  0.00     0.120 C 
ATOM     28  C   UNL     1      14.655  18.354  55.104  1.00  0.00     0.014 C 
ATOM     29  C   UNL     1      15.572  17.592  52.970  1.00  0.00     0.014 C 
ENDROOT
BRANCH   1  30
ATOM     30  C   UNL     1      15.234  28.632  52.313  1.00  0.00     0.048 C 
ATOM     31  O   UNL     1      14.891  29.389  53.280  1.00  0.00    -0.550 OA
ATOM     32  O   UNL     1      16.338  29.043  51.546  1.00  0.00    -0.550 OA
ENDBRANCH   1  30
BRANCH  27  33
ATOM     33  O   UNL     1      13.022  17.472  51.956  1.00  0.00    -0.393 OA
ATOM     34  H   UNL     1      12.154  17.603  51.495  1.00  0.00     0.210 HD
ENDBRANCH  27  33
TORSDOF 2
ENDMDL
MODEL 5
REMARK VINA RESULT:    -5.057      2.580      3.892
REMARK INTER + INTRA:          -5.670
REMARK INTER:                  -5.413
REMARK INTRA:                  -0.257
REMARK UNBOUND:                -0.170
REMARK SMILES C[C@@H]1[C@@H](C)CC[C@@]2(C(=O)[O-])CC[C@]3(C)C(=CC[C@@H]4[C@]5(C)CC[C@@H](O)C(C)(C)[C@H]5CC[C@]43C)[C@@H]12
REMARK SMILES IDX 7 1 6 2 11 3 33 4 5 5 12 6 15 7 2 8 3 9 13 10 16 11 1 12
REMARK SMILES IDX 4 13 14 14 31 15 17 16 18 17 30 18 32 19 19 20 29 21 28 22
REMARK SMILES IDX 21 23 20 24 25 25 22 26 23 27 26 28 27 29 8 30 9 31 10 32
REMARK SMILES IDX 24 33
REMARK H PARENT 24 34
REMARK Flexibility Score: inf
ROOT
ATOM      1  C   UNL     1      15.028  19.683  49.493  1.00  0.00     0.017 C 
ATOM      2  C   UNL     1      16.376  19.740  48.756  1.00  0.00     0.014 C 
ATOM      3  C   UNL     1      15.224  20.172  50.973  1.00  0.00     0.014 C 
ATOM      4  C   UNL     1      13.974  20.610  48.708  1.00  0.00     0.030 C 
ATOM      5  C   UNL     1      16.347  19.243  47.294  1.00  0.00     0.004 C 
ATOM      6  C   UNL     1      13.972  20.812  51.589  1.00  0.00     0.013 C 
ATOM      7  C   UNL     1      13.905  22.047  49.360  1.00  0.00    -0.063 C 
ATOM      8  C   UNL     1      14.188  20.659  47.135  1.00  0.00    -0.003 C 
ATOM      9  C   UNL     1      15.014  19.491  46.522  1.00  0.00    -0.011 C 
ATOM     10  C   UNL     1      13.555  22.143  50.871  1.00  0.00    -0.006 C 
ATOM     11  C   UNL     1      13.966  23.199  48.610  1.00  0.00    -0.027 C 
ATOM     12  C   UNL     1      12.790  20.790  46.457  1.00  0.00     0.008 C 
ATOM     13  C   UNL     1      15.329  19.749  45.033  1.00  0.00     0.008 C 
ATOM     14  C   UNL     1      12.000  22.155  50.901  1.00  0.00     0.017 C 
ATOM     15  C   UNL     1      14.205  23.467  51.599  1.00  0.00    -0.020 C 
ATOM     16  C   UNL     1      14.632  24.376  49.230  1.00  0.00     0.032 C 
ATOM     17  C   UNL     1      14.071  24.700  50.617  1.00  0.00     0.006 C 
ATOM     18  C   UNL     1      13.462  23.817  52.979  1.00  0.00     0.008 C 
ATOM     19  C   UNL     1      15.717  23.191  51.894  1.00  0.00     0.012 C 
ATOM     20  C   UNL     1      14.532  26.118  51.148  1.00  0.00    -0.025 C 
ATOM     21  C   UNL     1      13.161  25.337  53.207  1.00  0.00     0.005 C 
ATOM     22  C   UNL     1      14.332  26.197  52.735  1.00  0.00     0.003 C 
ATOM     23  C   UNL     1      16.035  26.466  50.868  1.00  0.00     0.010 C 
ATOM     24  C   UNL     1      13.595  27.169  50.441  1.00  0.00     0.012 C 
ATOM     25  C   UNL     1      14.577  27.604  53.401  1.00  0.00    -0.006 C 
ATOM     26  C   UNL     1      16.748  27.291  51.954  1.00  0.00     0.033 C 
ATOM     27  C   UNL     1      15.827  28.282  52.669  1.00  0.00     0.120 C 
ATOM     28  C   UNL     1      14.919  27.429  54.902  1.00  0.00     0.014 C 
ATOM     29  C   UNL     1      13.329  28.507  53.389  1.00  0.00     0.014 C 
ENDROOT
BRANCH   1  30
ATOM     30  C   UNL     1      14.584  18.200  49.566  1.00  0.00     0.048 C 
ATOM     31  O   UNL     1      15.249  17.316  50.201  1.00  0.00    -0.550 OA
ATOM     32  O   UNL     1      13.378  17.783  48.977  1.00  0.00    -0.550 OA
ENDBRANCH   1  30
BRANCH  27  33
ATOM     33  O   UNL     1      15.431  29.325  51.820  1.00  0.00    -0.393 OA
ATOM     34  H   UNL     1      14.820  28.967  51.126  1.00  0.00     0.210 HD
ENDBRANCH  27  33
TORSDOF 2
ENDMDL
MODEL 6
REMARK VINA RESULT:    -4.928      2.018      8.266
REMARK INTER + INTRA:          -5.531
REMARK INTER:                  -5.252
REMARK INTRA:                  -0.279
REMARK UNBOUND:                -0.170
REMARK SMILES C[C@@H]1[C@@H](C)CC[C@@]2(C(=O)[O-])CC[C@]3(C)C(=CC[C@@H]4[C@]5(C)CC[C@@H](O)C(C)(C)[C@H]5CC[C@]43C)[C@@H]12
REMARK SMILES IDX 7 1 6 2 11 3 33 4 5 5 12 6 15 7 2 8 3 9 13 10 16 11 1 12
REMARK SMILES IDX 4 13 14 14 31 15 17 16 18 17 30 18 32 19 19 20 29 21 28 22
REMARK SMILES IDX 21 23 20 24 25 25 22 26 23 27 26 28 27 29 8 30 9 31 10 32
REMARK SMILES IDX 24 33
REMARK H PARENT 24 34
REMARK Flexibility Score: inf
ROOT
ATOM      1  C   UNL     1      14.458  25.826  51.171  1.00  0.00     0.017 C 
ATOM      2  C   UNL     1      15.758  26.408  50.593  1.00  0.00     0.014 C 
ATOM      3  C   UNL     1      13.465  25.506  49.997  1.00  0.00     0.014 C 
ATOM      4  C   UNL     1      14.815  24.501  52.009  1.00  0.00     0.030 C 
ATOM      5  C   UNL     1      16.818  26.814  51.640  1.00  0.00     0.004 C 
ATOM      6  C   UNL     1      12.494  24.357  50.297  1.00  0.00     0.013 C 
ATOM      7  C   UNL     1      14.618  23.212  51.119  1.00  0.00    -0.063 C 
ATOM      8  C   UNL     1      16.231  24.541  52.727  1.00  0.00    -0.003 C 
ATOM      9  C   UNL     1      16.848  25.954  52.942  1.00  0.00    -0.011 C 
ATOM     10  C   UNL     1      13.222  22.978  50.477  1.00  0.00    -0.006 C 
ATOM     11  C   UNL     1      15.566  22.217  51.043  1.00  0.00    -0.027 C 
ATOM     12  C   UNL     1      16.120  23.754  54.069  1.00  0.00     0.008 C 
ATOM     13  C   UNL     1      18.300  25.858  53.457  1.00  0.00     0.008 C 
ATOM     14  C   UNL     1      12.417  22.230  51.578  1.00  0.00     0.017 C 
ATOM     15  C   UNL     1      13.294  22.130  49.069  1.00  0.00    -0.020 C 
ATOM     16  C   UNL     1      15.698  21.505  49.743  1.00  0.00     0.032 C 
ATOM     17  C   UNL     1      14.357  20.970  49.233  1.00  0.00     0.006 C 
ATOM     18  C   UNL     1      11.875  21.486  48.684  1.00  0.00     0.008 C 
ATOM     19  C   UNL     1      13.741  23.094  47.920  1.00  0.00     0.012 C 
ATOM     20  C   UNL     1      14.521  19.947  48.037  1.00  0.00    -0.025 C 
ATOM     21  C   UNL     1      11.931  20.008  48.169  1.00  0.00     0.005 C 
ATOM     22  C   UNL     1      13.134  19.802  47.250  1.00  0.00     0.003 C 
ATOM     23  C   UNL     1      15.599  20.351  46.973  1.00  0.00     0.010 C 
ATOM     24  C   UNL     1      14.906  18.569  48.697  1.00  0.00     0.012 C 
ATOM     25  C   UNL     1      13.075  18.688  46.138  1.00  0.00    -0.006 C 
ATOM     26  C   UNL     1      15.279  19.976  45.515  1.00  0.00     0.033 C 
ATOM     27  C   UNL     1      14.484  18.675  45.381  1.00  0.00     0.120 C 
ATOM     28  C   UNL     1      11.966  19.021  45.109  1.00  0.00     0.014 C 
ATOM     29  C   UNL     1      12.691  17.300  46.687  1.00  0.00     0.014 C 
ENDROOT
BRANCH   1  30
ATOM     30  C   UNL     1      13.788  26.922  52.039  1.00  0.00     0.048 C 
ATOM     31  O   UNL     1      13.422  26.716  53.243  1.00  0.00    -0.550 OA
ATOM     32  O   UNL     1      13.614  28.224  51.538  1.00  0.00    -0.550 OA
ENDBRANCH   1  30
BRANCH  27  33
ATOM     33  O   UNL     1      15.255  17.559  45.735  1.00  0.00    -0.393 OA
ATOM     34  H   UNL     1      15.036  17.291  46.663  1.00  0.00     0.210 HD
ENDBRANCH  27  33
TORSDOF 2
ENDMDL
MODEL 7
REMARK VINA RESULT:    -4.661      3.118      7.699
REMARK INTER + INTRA:          -5.240
REMARK INTER:                  -4.948
REMARK INTRA:                  -0.292
REMARK UNBOUND:                -0.170
REMARK SMILES C[C@@H]1[C@@H](C)CC[C@@]2(C(=O)[O-])CC[C@]3(C)C(=CC[C@@H]4[C@]5(C)CC[C@@H](O)C(C)(C)[C@H]5CC[C@]43C)[C@@H]12
REMARK SMILES IDX 7 1 6 2 11 3 33 4 5 5 12 6 15 7 2 8 3 9 13 10 16 11 1 12
REMARK SMILES IDX 4 13 14 14 31 15 17 16 18 17 30 18 32 19 19 20 29 21 28 22
REMARK SMILES IDX 21 23 20 24 25 25 22 26 23 27 26 28 27 29 8 30 9 31 10 32
REMARK SMILES IDX 24 33
REMARK H PARENT 24 34
REMARK Flexibility Score: inf
ROOT
ATOM      1  C   UNL     1      15.019  17.897  51.793  1.00  0.00     0.017 C 
ATOM      2  C   UNL     1      16.070  16.853  51.382  1.00  0.00     0.014 C 
ATOM      3  C   UNL     1      15.440  19.305  51.237  1.00  0.00     0.014 C 
ATOM      4  C   UNL     1      13.590  17.445  51.211  1.00  0.00     0.030 C 
ATOM      5  C   UNL     1      15.811  15.422  51.899  1.00  0.00     0.004 C 
ATOM      6  C   UNL     1      14.258  20.243  50.955  1.00  0.00     0.013 C 
ATOM      7  C   UNL     1      13.298  18.163  49.836  1.00  0.00    -0.063 C 
ATOM      8  C   UNL     1      13.380  15.872  51.139  1.00  0.00    -0.003 C 
ATOM      9  C   UNL     1      14.311  15.017  52.046  1.00  0.00    -0.011 C 
ATOM     10  C   UNL     1      13.327  19.717  49.807  1.00  0.00    -0.006 C 
ATOM     11  C   UNL     1      12.851  17.480  48.728  1.00  0.00    -0.027 C 
ATOM     12  C   UNL     1      11.875  15.568  51.414  1.00  0.00     0.008 C 
ATOM     13  C   UNL     1      14.158  13.510  51.743  1.00  0.00     0.008 C 
ATOM     14  C   UNL     1      11.887  20.132  50.225  1.00  0.00     0.017 C 
ATOM     15  C   UNL     1      13.752  20.327  48.340  1.00  0.00    -0.020 C 
ATOM     16  C   UNL     1      13.305  17.973  47.400  1.00  0.00     0.032 C 
ATOM     17  C   UNL     1      13.044  19.470  47.213  1.00  0.00     0.006 C 
ATOM     18  C   UNL     1      13.314  21.863  48.179  1.00  0.00     0.008 C 
ATOM     19  C   UNL     1      15.306  20.224  48.180  1.00  0.00     0.012 C 
ATOM     20  C   UNL     1      13.219  19.940  45.712  1.00  0.00    -0.025 C 
ATOM     21  C   UNL     1      12.678  22.233  46.797  1.00  0.00     0.005 C 
ATOM     22  C   UNL     1      13.412  21.529  45.657  1.00  0.00     0.003 C 
ATOM     23  C   UNL     1      14.450  19.315  44.969  1.00  0.00     0.010 C 
ATOM     24  C   UNL     1      11.885  19.539  44.976  1.00  0.00     0.012 C 
ATOM     25  C   UNL     1      13.423  22.182  44.224  1.00  0.00    -0.006 C 
ATOM     26  C   UNL     1      15.160  20.229  43.955  1.00  0.00     0.033 C 
ATOM     27  C   UNL     1      14.214  21.198  43.242  1.00  0.00     0.120 C 
ATOM     28  C   UNL     1      14.165  23.541  44.264  1.00  0.00     0.014 C 
ATOM     29  C   UNL     1      12.014  22.525  43.701  1.00  0.00     0.014 C 
ENDROOT
BRANCH   1  30
ATOM     30  C   UNL     1      15.030  18.005  53.339  1.00  0.00     0.048 C 
ATOM     31  O   UNL     1      16.090  18.263  54.001  1.00  0.00    -0.550 OA
ATOM     32  O   UNL     1      13.838  17.881  54.074  1.00  0.00    -0.550 OA
ENDBRANCH   1  30
BRANCH  27  33
ATOM     33  O   UNL     1      13.348  20.527  42.368  1.00  0.00    -0.393 OA
ATOM     34  H   UNL     1      13.786  19.698  42.047  1.00  0.00     0.210 HD
ENDBRANCH  27  33
TORSDOF 2
ENDMDL
MODEL 8
REMARK VINA RESULT:    -4.645      1.674      2.302
REMARK INTER + INTRA:          -5.223
REMARK INTER:                  -4.942
REMARK INTRA:                  -0.281
REMARK UNBOUND:                -0.170
REMARK SMILES C[C@@H]1[C@@H](C)CC[C@@]2(C(=O)[O-])CC[C@]3(C)C(=CC[C@@H]4[C@]5(C)CC[C@@H](O)C(C)(C)[C@H]5CC[C@]43C)[C@@H]12
REMARK SMILES IDX 7 1 6 2 11 3 33 4 5 5 12 6 15 7 2 8 3 9 13 10 16 11 1 12
REMARK SMILES IDX 4 13 14 14 31 15 17 16 18 17 30 18 32 19 19 20 29 21 28 22
REMARK SMILES IDX 21 23 20 24 25 25 22 26 23 27 26 28 27 29 8 30 9 31 10 32
REMARK SMILES IDX 24 33
REMARK H PARENT 24 34
REMARK Flexibility Score: inf
ROOT
ATOM      1  C   UNL     1      14.679  19.987  46.363  1.00  0.00     0.017 C 
ATOM      2  C   UNL     1      15.889  20.496  45.561  1.00  0.00     0.014 C 
ATOM      3  C   UNL     1      15.105  19.760  47.858  1.00  0.00     0.014 C 
ATOM      4  C   UNL     1      13.496  21.071  46.252  1.00  0.00     0.030 C 
ATOM      5  C   UNL     1      15.631  20.722  44.056  1.00  0.00     0.004 C 
ATOM      6  C   UNL     1      13.960  19.931  48.865  1.00  0.00     0.013 C 
ATOM      7  C   UNL     1      13.510  22.037  47.500  1.00  0.00    -0.063 C 
ATOM      8  C   UNL     1      13.451  21.853  44.870  1.00  0.00    -0.003 C 
ATOM      9  C   UNL     1      14.186  21.174  43.677  1.00  0.00    -0.011 C 
ATOM     10  C   UNL     1      13.409  21.400  48.914  1.00  0.00    -0.006 C 
ATOM     11  C   UNL     1      13.429  23.405  47.374  1.00  0.00    -0.027 C 
ATOM     12  C   UNL     1      11.959  22.152  44.528  1.00  0.00     0.008 C 
ATOM     13  C   UNL     1      14.250  22.112  42.453  1.00  0.00     0.008 C 
ATOM     14  C   UNL     1      11.880  21.256  49.158  1.00  0.00     0.017 C 
ATOM     15  C   UNL     1      14.146  22.297  50.079  1.00  0.00    -0.020 C 
ATOM     16  C   UNL     1      14.167  24.223  48.373  1.00  0.00     0.032 C 
ATOM     17  C   UNL     1      13.834  23.825  49.813  1.00  0.00     0.006 C 
ATOM     18  C   UNL     1      13.633  21.909  51.550  1.00  0.00     0.008 C 
ATOM     19  C   UNL     1      15.691  22.055  50.003  1.00  0.00     0.012 C 
ATOM     20  C   UNL     1      14.351  24.878  50.875  1.00  0.00    -0.025 C 
ATOM     21  C   UNL     1      13.347  23.121  52.498  1.00  0.00     0.005 C 
ATOM     22  C   UNL     1      14.411  24.204  52.326  1.00  0.00     0.003 C 
ATOM     23  C   UNL     1      15.783  25.450  50.588  1.00  0.00     0.010 C 
ATOM     24  C   UNL     1      13.295  26.047  50.874  1.00  0.00     0.012 C 
ATOM     25  C   UNL     1      14.737  25.166  53.531  1.00  0.00    -0.006 C 
ATOM     26  C   UNL     1      16.649  25.748  51.824  1.00  0.00     0.033 C 
ATOM     27  C   UNL     1      15.840  26.214  53.036  1.00  0.00     0.120 C 
ATOM     28  C   UNL     1      15.321  24.357  54.715  1.00  0.00     0.014 C 
ATOM     29  C   UNL     1      13.489  25.857  54.111  1.00  0.00     0.014 C 
ENDROOT
BRANCH   1  30
ATOM     30  C   UNL     1      14.279  18.601  45.796  1.00  0.00     0.048 C 
ATOM     31  O   UNL     1      15.122  17.659  45.630  1.00  0.00    -0.550 OA
ATOM     32  O   UNL     1      12.936  18.310  45.500  1.00  0.00    -0.550 OA
ENDBRANCH   1  30
BRANCH  27  33
ATOM     33  O   UNL     1      15.293  27.489  52.834  1.00  0.00    -0.393 OA
ATOM     34  H   UNL     1      15.375  27.731  51.877  1.00  0.00     0.210 HD
ENDBRANCH  27  33
TORSDOF 2
ENDMDL
MODEL 9
REMARK VINA RESULT:    -4.620      4.769      7.760
REMARK INTER + INTRA:          -5.195
REMARK INTER:                  -4.910
REMARK INTRA:                  -0.285
REMARK UNBOUND:                -0.170
REMARK SMILES C[C@@H]1[C@@H](C)CC[C@@]2(C(=O)[O-])CC[C@]3(C)C(=CC[C@@H]4[C@]5(C)CC[C@@H](O)C(C)(C)[C@H]5CC[C@]43C)[C@@H]12
REMARK SMILES IDX 7 1 6 2 11 3 33 4 5 5 12 6 15 7 2 8 3 9 13 10 16 11 1 12
REMARK SMILES IDX 4 13 14 14 31 15 17 16 18 17 30 18 32 19 19 20 29 21 28 22
REMARK SMILES IDX 21 23 20 24 25 25 22 26 23 27 26 28 27 29 8 30 9 31 10 32
REMARK SMILES IDX 24 33
REMARK H PARENT 24 34
REMARK Flexibility Score: inf
ROOT
ATOM      1  C   UNL     1      14.665  27.058  50.519  1.00  0.00     0.017 C 
ATOM      2  C   UNL     1      16.121  27.519  50.702  1.00  0.00     0.014 C 
ATOM      3  C   UNL     1      14.646  25.695  49.738  1.00  0.00     0.014 C 
ATOM      4  C   UNL     1      13.986  26.908  51.969  1.00  0.00     0.030 C 
ATOM      5  C   UNL     1      16.294  28.876  51.419  1.00  0.00     0.004 C 
ATOM      6  C   UNL     1      13.441  24.805  50.066  1.00  0.00     0.013 C 
ATOM      7  C   UNL     1      14.060  25.411  52.464  1.00  0.00    -0.063 C 
ATOM      8  C   UNL     1      14.520  27.940  53.052  1.00  0.00    -0.003 C 
ATOM      9  C   UNL     1      15.216  29.216  52.494  1.00  0.00    -0.011 C 
ATOM     10  C   UNL     1      13.436  24.313  51.557  1.00  0.00    -0.006 C 
ATOM     11  C   UNL     1      14.488  25.073  53.727  1.00  0.00    -0.027 C 
ATOM     12  C   UNL     1      13.338  28.302  54.003  1.00  0.00     0.008 C 
ATOM     13  C   UNL     1      15.869  30.038  53.627  1.00  0.00     0.008 C 
ATOM     14  C   UNL     1      11.938  24.282  51.974  1.00  0.00     0.017 C 
ATOM     15  C   UNL     1      14.164  22.848  51.725  1.00  0.00    -0.020 C 
ATOM     16  C   UNL     1      15.225  23.789  53.872  1.00  0.00     0.032 C 
ATOM     17  C   UNL     1      14.467  22.609  53.260  1.00  0.00     0.006 C 
ATOM     18  C   UNL     1      13.238  21.653  51.185  1.00  0.00     0.008 C 
ATOM     19  C   UNL     1      15.505  22.853  50.919  1.00  0.00     0.012 C 
ATOM     20  C   UNL     1      15.071  21.208  53.681  1.00  0.00    -0.025 C 
ATOM     21  C   UNL     1      13.190  20.382  52.098  1.00  0.00     0.005 C 
ATOM     22  C   UNL     1      14.573  20.073  52.667  1.00  0.00     0.003 C 
ATOM     23  C   UNL     1      16.637  21.145  53.689  1.00  0.00     0.010 C 
ATOM     24  C   UNL     1      14.513  20.915  55.125  1.00  0.00     0.012 C 
ATOM     25  C   UNL     1      14.940  18.588  53.046  1.00  0.00    -0.006 C 
ATOM     26  C   UNL     1      17.259  19.803  53.264  1.00  0.00     0.033 C 
ATOM     27  C   UNL     1      16.417  18.589  53.659  1.00  0.00     0.120 C 
ATOM     28  C   UNL     1      14.931  17.698  51.778  1.00  0.00     0.014 C 
ATOM     29  C   UNL     1      13.913  17.931  53.988  1.00  0.00     0.014 C 
ENDROOT
BRANCH   1  30
ATOM     30  C   UNL     1      13.944  28.097  49.623  1.00  0.00     0.048 C 
ATOM     31  O   UNL     1      14.415  28.481  48.501  1.00  0.00    -0.550 OA
ATOM     32  O   UNL     1      12.690  28.614  49.993  1.00  0.00    -0.550 OA
ENDBRANCH   1  30
BRANCH  27  33
ATOM     33  O   UNL     1      16.405  18.398  55.048  1.00  0.00    -0.393 OA
ATOM     34  H   UNL     1      15.776  19.044  55.461  1.00  0.00     0.210 HD
ENDBRANCH  27  33
TORSDOF 2
ENDMDL
