MODEL 1
REMARK VINA RESULT:    -7.229      0.000      0.000
REMARK INTER + INTRA:         -14.520
REMARK INTER:                 -13.146
REMARK INTRA:                  -1.374
REMARK UNBOUND:                -1.374
REMARK SMILES CCCCCCCCCCCCCCCC(=O)[O-]
REMARK SMILES IDX 9 1 10 2 11 3 12 4 13 5 14 6 15 7 16 8 17 9 18 10 8 11 7 12
REMARK SMILES IDX 6 13 5 14 4 15 3 16 2 17 1 18
REMARK H PARENT
REMARK Flexibility Score: inf
ROOT
ATOM      1  C   UNL     1      29.375  -4.190  18.575  1.00  0.00     0.000 C 
ENDROOT
BRANCH   1   2
ATOM      2  C   UNL     1      28.215  -5.162  18.269  1.00  0.00     0.000 C 
BRANCH   2   3
ATOM      3  C   UNL     1      26.828  -4.501  18.332  1.00  0.00     0.000 C 
BRANCH   3   4
ATOM      4  C   UNL     1      25.914  -5.132  19.396  1.00  0.00     0.000 C 
BRANCH   4   5
ATOM      5  C   UNL     1      26.562  -6.340  20.090  1.00  0.00     0.000 C 
BRANCH   5   6
ATOM      6  C   UNL     1      25.893  -7.669  19.711  1.00  0.00     0.006 C 
BRANCH   6   7
ATOM      7  C   UNL     1      25.483  -8.452  20.962  1.00  0.00     0.053 C 
BRANCH   7   8
ATOM      8  C   UNL     1      24.087  -8.098  21.368  1.00  0.00     0.041 C 
ATOM      9  O   UNL     1      23.731  -8.204  22.571  1.00  0.00    -0.550 OA
ATOM     10  O   UNL     1      23.193  -7.604  20.427  1.00  0.00    -0.550 OA
ENDBRANCH   7   8
ENDBRANCH   6   7
ENDBRANCH   5   6
ENDBRANCH   4   5
ENDBRANCH   3   4
ENDBRANCH   2   3
ENDBRANCH   1   2
BRANCH   1  11
ATOM     11  C   UNL     1      29.066  -3.277  19.776  1.00  0.00     0.000 C 
BRANCH  11  12
ATOM     12  C   UNL     1      29.248  -1.786  19.452  1.00  0.00    -0.000 C 
BRANCH  12  13
ATOM     13  C   UNL     1      28.052  -0.933  19.906  1.00  0.00    -0.000 C 
BRANCH  13  14
ATOM     14  C   UNL     1      26.914  -1.776  20.507  1.00  0.00    -0.000 C 
BRANCH  14  15
ATOM     15  C   UNL     1      25.492  -1.340  20.100  1.00  0.00    -0.000 C 
BRANCH  15  16
ATOM     16  C   UNL     1      25.407   0.115  19.593  1.00  0.00    -0.000 C 
BRANCH  16  17
ATOM     17  C   UNL     1      23.961   0.549  19.309  1.00  0.00    -0.003 C 
ATOM     18  C   UNL     1      23.924   1.822  18.468  1.00  0.00     0.004 C 
ENDBRANCH  16  17
ENDBRANCH  15  16
ENDBRANCH  14  15
ENDBRANCH  13  14
ENDBRANCH  12  13
ENDBRANCH  11  12
ENDBRANCH   1  11
TORSDOF 14
ENDMDL
MODEL 2
REMARK VINA RESULT:    -7.217      3.419      7.014
REMARK INTER + INTRA:         -14.498
REMARK INTER:                 -13.145
REMARK INTRA:                  -1.353
REMARK UNBOUND:                -1.374
REMARK SMILES CCCCCCCCCCCCCCCC(=O)[O-]
REMARK SMILES IDX 9 1 10 2 11 3 12 4 13 5 14 6 15 7 16 8 17 9 18 10 8 11 7 12
REMARK SMILES IDX 6 13 5 14 4 15 3 16 2 17 1 18
REMARK H PARENT
REMARK Flexibility Score: inf
ROOT
ATOM      1  C   UNL     1      29.449  -3.392  19.752  1.00  0.00     0.000 C 
ENDROOT
BRANCH   1   2
ATOM      2  C   UNL     1      29.124  -1.926  19.396  1.00  0.00     0.000 C 
BRANCH   2   3
ATOM      3  C   UNL     1      28.165  -1.251  20.393  1.00  0.00     0.000 C 
BRANCH   3   4
ATOM      4  C   UNL     1      26.981  -0.555  19.704  1.00  0.00     0.000 C 
BRANCH   4   5
ATOM      5  C   UNL     1      25.642  -1.258  19.977  1.00  0.00     0.000 C 
BRANCH   5   6
ATOM      6  C   UNL     1      24.434  -0.335  19.757  1.00  0.00     0.006 C 
BRANCH   6   7
ATOM      7  C   UNL     1      24.883   1.054  19.290  1.00  0.00     0.053 C 
BRANCH   7   8
ATOM      8  C   UNL     1      23.738   1.794  18.674  1.00  0.00     0.041 C 
ATOM      9  O   UNL     1      23.940   2.594  17.723  1.00  0.00    -0.550 OA
ATOM     10  O   UNL     1      22.442   1.564  19.118  1.00  0.00    -0.550 OA
ENDBRANCH   7   8
ENDBRANCH   6   7
ENDBRANCH   5   6
ENDBRANCH   4   5
ENDBRANCH   3   4
ENDBRANCH   2   3
ENDBRANCH   1   2
BRANCH   1  11
ATOM     11  C   UNL     1      29.067  -4.364  18.620  1.00  0.00     0.000 C 
BRANCH  11  12
ATOM     12  C   UNL     1      27.547  -4.484  18.429  1.00  0.00    -0.000 C 
BRANCH  12  13
ATOM     13  C   UNL     1      26.812  -4.821  19.737  1.00  0.00    -0.000 C 
BRANCH  13  14
ATOM     14  C   UNL     1      25.289  -4.938  19.551  1.00  0.00    -0.000 C 
BRANCH  14  15
ATOM     15  C   UNL     1      24.756  -6.379  19.426  1.00  0.00    -0.000 C 
BRANCH  15  16
ATOM     16  C   UNL     1      24.550  -7.088  20.781  1.00  0.00    -0.000 C 
BRANCH  16  17
ATOM     17  C   UNL     1      25.237  -8.462  20.829  1.00  0.00    -0.003 C 
ATOM     18  C   UNL     1      26.609  -8.416  20.163  1.00  0.00     0.004 C 
ENDBRANCH  16  17
ENDBRANCH  15  16
ENDBRANCH  14  15
ENDBRANCH  13  14
ENDBRANCH  12  13
ENDBRANCH  11  12
ENDBRANCH   1  11
TORSDOF 14
ENDMDL
MODEL 3
REMARK VINA RESULT:    -7.038      0.849      1.219
REMARK INTER + INTRA:         -14.173
REMARK INTER:                 -13.000
REMARK INTRA:                  -1.173
REMARK UNBOUND:                -1.374
REMARK SMILES CCCCCCCCCCCCCCCC(=O)[O-]
REMARK SMILES IDX 9 1 10 2 11 3 12 4 13 5 14 6 15 7 16 8 17 9 18 10 8 11 7 12
REMARK SMILES IDX 6 13 5 14 4 15 3 16 2 17 1 18
REMARK H PARENT
REMARK Flexibility Score: inf
ROOT
ATOM      1  C   UNL     1      29.154  -3.354  19.671  1.00  0.00     0.000 C 
ENDROOT
BRANCH   1   2
ATOM      2  C   UNL     1      29.005  -4.507  18.656  1.00  0.00     0.000 C 
BRANCH   2   3
ATOM      3  C   UNL     1      27.543  -4.894  18.376  1.00  0.00     0.000 C 
BRANCH   3   4
ATOM      4  C   UNL     1      26.732  -5.129  19.661  1.00  0.00     0.000 C 
BRANCH   4   5
ATOM      5  C   UNL     1      25.240  -4.802  19.486  1.00  0.00     0.000 C 
BRANCH   5   6
ATOM      6  C   UNL     1      24.356  -6.057  19.484  1.00  0.00     0.006 C 
BRANCH   6   7
ATOM      7  C   UNL     1      25.055  -7.222  20.191  1.00  0.00     0.053 C 
BRANCH   7   8
ATOM      8  C   UNL     1      24.091  -7.955  21.071  1.00  0.00     0.041 C 
ATOM      9  O   UNL     1      24.439  -8.324  22.223  1.00  0.00    -0.550 OA
ATOM     10  O   UNL     1      22.792  -8.187  20.636  1.00  0.00    -0.550 OA
ENDBRANCH   7   8
ENDBRANCH   6   7
ENDBRANCH   5   6
ENDBRANCH   4   5
ENDBRANCH   3   4
ENDBRANCH   2   3
ENDBRANCH   1   2
BRANCH   1  11
ATOM     11  C   UNL     1      28.936  -1.975  19.021  1.00  0.00     0.000 C 
BRANCH  11  12
ATOM     12  C   UNL     1      28.736  -0.856  20.054  1.00  0.00    -0.000 C 
BRANCH  12  13
ATOM     13  C   UNL     1      27.321  -0.255  20.007  1.00  0.00    -0.000 C 
BRANCH  13  14
ATOM     14  C   UNL     1      26.218  -1.326  20.051  1.00  0.00    -0.000 C 
BRANCH  14  15
ATOM     15  C   UNL     1      24.794  -0.810  19.762  1.00  0.00    -0.000 C 
BRANCH  15  16
ATOM     16  C   UNL     1      24.693   0.727  19.681  1.00  0.00    -0.000 C 
BRANCH  16  17
ATOM     17  C   UNL     1      23.667   1.189  18.635  1.00  0.00    -0.003 C 
ATOM     18  C   UNL     1      24.082   2.515  18.004  1.00  0.00     0.004 C 
ENDBRANCH  16  17
ENDBRANCH  15  16
ENDBRANCH  14  15
ENDBRANCH  13  14
ENDBRANCH  12  13
ENDBRANCH  11  12
ENDBRANCH   1  11
TORSDOF 14
ENDMDL
MODEL 4
REMARK VINA RESULT:    -6.987      3.744      7.247
REMARK INTER + INTRA:         -14.079
REMARK INTER:                 -12.964
REMARK INTRA:                  -1.115
REMARK UNBOUND:                -1.374
REMARK SMILES CCCCCCCCCCCCCCCC(=O)[O-]
REMARK SMILES IDX 9 1 10 2 11 3 12 4 13 5 14 6 15 7 16 8 17 9 18 10 8 11 7 12
REMARK SMILES IDX 6 13 5 14 4 15 3 16 2 17 1 18
REMARK H PARENT
REMARK Flexibility Score: inf
ROOT
ATOM      1  C   UNL     1      29.001  -1.884  19.072  1.00  0.00     0.000 C 
ENDROOT
BRANCH   1   2
ATOM      2  C   UNL     1      28.752  -0.819  20.161  1.00  0.00     0.000 C 
BRANCH   2   3
ATOM      3  C   UNL     1      27.338  -0.215  20.116  1.00  0.00     0.000 C 
BRANCH   3   4
ATOM      4  C   UNL     1      26.233  -1.283  20.086  1.00  0.00     0.000 C 
BRANCH   4   5
ATOM      5  C   UNL     1      24.853  -0.696  19.747  1.00  0.00     0.000 C 
BRANCH   5   6
ATOM      6  C   UNL     1      24.910   0.806  19.432  1.00  0.00     0.006 C 
BRANCH   6   7
ATOM      7  C   UNL     1      23.539   1.325  18.988  1.00  0.00     0.053 C 
BRANCH   7   8
ATOM      8  C   UNL     1      23.679   2.221  17.798  1.00  0.00     0.041 C 
ATOM      9  O   UNL     1      23.304   1.829  16.662  1.00  0.00    -0.550 OA
ATOM     10  O   UNL     1      24.179   3.508  17.952  1.00  0.00    -0.550 OA
ENDBRANCH   7   8
ENDBRANCH   6   7
ENDBRANCH   5   6
ENDBRANCH   4   5
ENDBRANCH   3   4
ENDBRANCH   2   3
ENDBRANCH   1   2
BRANCH   1  11
ATOM     11  C   UNL     1      29.143  -3.299  19.665  1.00  0.00     0.000 C 
BRANCH  11  12
ATOM     12  C   UNL     1      29.105  -4.399  18.593  1.00  0.00    -0.000 C 
BRANCH  12  13
ATOM     13  C   UNL     1      27.709  -5.024  18.437  1.00  0.00    -0.000 C 
BRANCH  13  14
ATOM     14  C   UNL     1      26.875  -4.948  19.727  1.00  0.00    -0.000 C 
BRANCH  14  15
ATOM     15  C   UNL     1      25.361  -5.174  19.541  1.00  0.00    -0.000 C 
BRANCH  15  16
ATOM     16  C   UNL     1      24.967  -6.656  19.378  1.00  0.00    -0.000 C 
BRANCH  16  17
ATOM     17  C   UNL     1      25.500  -7.530  20.524  1.00  0.00    -0.003 C 
ATOM     18  C   UNL     1      26.607  -8.461  20.038  1.00  0.00     0.004 C 
ENDBRANCH  16  17
ENDBRANCH  15  16
ENDBRANCH  14  15
ENDBRANCH  13  14
ENDBRANCH  12  13
ENDBRANCH  11  12
ENDBRANCH   1  11
TORSDOF 14
ENDMDL
MODEL 5
REMARK VINA RESULT:    -6.657      2.991      7.026
REMARK INTER + INTRA:         -13.480
REMARK INTER:                 -12.404
REMARK INTRA:                  -1.076
REMARK UNBOUND:                -1.374
REMARK SMILES CCCCCCCCCCCCCCCC(=O)[O-]
REMARK SMILES IDX 9 1 10 2 11 3 12 4 13 5 14 6 15 7 16 8 17 9 18 10 8 11 7 12
REMARK SMILES IDX 6 13 5 14 4 15 3 16 2 17 1 18
REMARK H PARENT
REMARK Flexibility Score: inf
ROOT
ATOM      1  C   UNL     1      25.574  -2.738  20.135  1.00  0.00     0.000 C 
ENDROOT
BRANCH   1   2
ATOM      2  C   UNL     1      24.749  -1.487  19.767  1.00  0.00     0.000 C 
BRANCH   2   3
ATOM      3  C   UNL     1      25.578  -0.191  19.744  1.00  0.00     0.000 C 
BRANCH   3   4
ATOM      4  C   UNL     1      26.944  -0.343  20.430  1.00  0.00     0.000 C 
BRANCH   4   5
ATOM      5  C   UNL     1      28.119  -0.158  19.457  1.00  0.00     0.000 C 
BRANCH   5   6
ATOM      6  C   UNL     1      29.331  -1.028  19.821  1.00  0.00     0.006 C 
BRANCH   6   7
ATOM      7  C   UNL     1      28.974  -2.516  19.767  1.00  0.00     0.053 C 
BRANCH   7   8
ATOM      8  C   UNL     1      30.031  -3.282  19.034  1.00  0.00     0.041 C 
ATOM      9  O   UNL     1      31.240  -2.948  19.136  1.00  0.00    -0.550 OA
ATOM     10  O   UNL     1      29.684  -4.395  18.279  1.00  0.00    -0.550 OA
ENDBRANCH   7   8
ENDBRANCH   6   7
ENDBRANCH   5   6
ENDBRANCH   4   5
ENDBRANCH   3   4
ENDBRANCH   2   3
ENDBRANCH   1   2
BRANCH   1  11
ATOM     11  C   UNL     1      25.122  -3.983  19.349  1.00  0.00     0.000 C 
BRANCH  11  12
ATOM     12  C   UNL     1      26.294  -4.726  18.688  1.00  0.00    -0.000 C 
BRANCH  12  13
ATOM     13  C   UNL     1      26.831  -5.875  19.559  1.00  0.00    -0.000 C 
BRANCH  13  14
ATOM     14  C   UNL     1      26.570  -7.260  18.944  1.00  0.00    -0.000 C 
BRANCH  14  15
ATOM     15  C   UNL     1      26.700  -8.445  19.922  1.00  0.00    -0.000 C 
BRANCH  15  16
ATOM     16  C   UNL     1      25.794  -8.330  21.165  1.00  0.00    -0.000 C 
BRANCH  16  17
ATOM     17  C   UNL     1      24.326  -8.655  20.847  1.00  0.00    -0.003 C 
ATOM     18  C   UNL     1      23.501  -8.779  22.125  1.00  0.00     0.004 C 
ENDBRANCH  16  17
ENDBRANCH  15  16
ENDBRANCH  14  15
ENDBRANCH  13  14
ENDBRANCH  12  13
ENDBRANCH  11  12
ENDBRANCH   1  11
TORSDOF 14
ENDMDL
MODEL 6
REMARK VINA RESULT:    -6.540      3.321      7.331
REMARK INTER + INTRA:         -13.267
REMARK INTER:                 -12.490
REMARK INTRA:                  -0.777
REMARK UNBOUND:                -1.374
REMARK SMILES CCCCCCCCCCCCCCCC(=O)[O-]
REMARK SMILES IDX 9 1 10 2 11 3 12 4 13 5 14 6 15 7 16 8 17 9 18 10 8 11 7 12
REMARK SMILES IDX 6 13 5 14 4 15 3 16 2 17 1 18
REMARK H PARENT
REMARK Flexibility Score: inf
ROOT
ATOM      1  C   UNL     1      29.341  -4.173  18.586  1.00  0.00     0.000 C 
ENDROOT
BRANCH   1   2
ATOM      2  C   UNL     1      28.921  -3.289  19.779  1.00  0.00     0.000 C 
BRANCH   2   3
ATOM      3  C   UNL     1      28.744  -1.806  19.412  1.00  0.00     0.000 C 
BRANCH   3   4
ATOM      4  C   UNL     1      27.346  -1.268  19.756  1.00  0.00     0.000 C 
BRANCH   4   5
ATOM      5  C   UNL     1      27.368   0.210  20.174  1.00  0.00     0.000 C 
BRANCH   5   6
ATOM      6  C   UNL     1      26.329   1.054  19.419  1.00  0.00     0.006 C 
BRANCH   6   7
ATOM      7  C   UNL     1      24.915   0.510  19.643  1.00  0.00     0.053 C 
BRANCH   7   8
ATOM      8  C   UNL     1      23.907   1.369  18.946  1.00  0.00     0.041 C 
ATOM      9  O   UNL     1      22.682   1.247  19.207  1.00  0.00    -0.550 OA
ATOM     10  O   UNL     1      24.325   2.337  18.043  1.00  0.00    -0.550 OA
ENDBRANCH   7   8
ENDBRANCH   6   7
ENDBRANCH   5   6
ENDBRANCH   4   5
ENDBRANCH   3   4
ENDBRANCH   2   3
ENDBRANCH   1   2
BRANCH   1  11
ATOM     11  C   UNL     1      28.268  -5.221  18.235  1.00  0.00     0.000 C 
BRANCH  11  12
ATOM     12  C   UNL     1      26.854  -4.784  18.645  1.00  0.00    -0.000 C 
BRANCH  12  13
ATOM     13  C   UNL     1      26.177  -5.789  19.592  1.00  0.00    -0.000 C 
BRANCH  13  14
ATOM     14  C   UNL     1      26.598  -7.243  19.317  1.00  0.00    -0.000 C 
BRANCH  14  15
ATOM     15  C   UNL     1      26.158  -8.264  20.386  1.00  0.00    -0.000 C 
BRANCH  15  16
ATOM     16  C   UNL     1      24.880  -7.857  21.149  1.00  0.00    -0.000 C 
BRANCH  16  17
ATOM     17  C   UNL     1      23.877  -9.015  21.262  1.00  0.00    -0.003 C 
ATOM     18  C   UNL     1      23.213  -9.036  22.635  1.00  0.00     0.004 C 
ENDBRANCH  16  17
ENDBRANCH  15  16
ENDBRANCH  14  15
ENDBRANCH  13  14
ENDBRANCH  12  13
ENDBRANCH  11  12
ENDBRANCH   1  11
TORSDOF 14
ENDMDL
MODEL 7
REMARK VINA RESULT:    -6.453      1.145      2.070
REMARK INTER + INTRA:         -13.108
REMARK INTER:                 -12.375
REMARK INTRA:                  -0.733
REMARK UNBOUND:                -1.374
REMARK SMILES CCCCCCCCCCCCCCCC(=O)[O-]
REMARK SMILES IDX 9 1 10 2 11 3 12 4 13 5 14 6 15 7 16 8 17 9 18 10 8 11 7 12
REMARK SMILES IDX 6 13 5 14 4 15 3 16 2 17 1 18
REMARK H PARENT
REMARK Flexibility Score: inf
ROOT
ATOM      1  C   UNL     1      27.761  -4.666  18.381  1.00  0.00     0.000 C 
ENDROOT
BRANCH   1   2
ATOM      2  C   UNL     1      26.972  -4.732  19.706  1.00  0.00     0.000 C 
BRANCH   2   3
ATOM      3  C   UNL     1      26.171  -6.034  19.879  1.00  0.00     0.000 C 
BRANCH   3   4
ATOM      4  C   UNL     1      24.682  -5.868  19.539  1.00  0.00     0.000 C 
BRANCH   4   5
ATOM      5  C   UNL     1      23.856  -7.120  19.874  1.00  0.00     0.000 C 
BRANCH   5   6
ATOM      6  C   UNL     1      24.597  -8.084  20.812  1.00  0.00     0.006 C 
BRANCH   6   7
ATOM      7  C   UNL     1      23.663  -9.191  21.310  1.00  0.00     0.053 C 
BRANCH   7   8
ATOM      8  C   UNL     1      23.337  -8.990  22.757  1.00  0.00     0.041 C 
ATOM      9  O   UNL     1      23.384  -7.838  23.262  1.00  0.00    -0.550 OA
ATOM     10  O   UNL     1      22.933 -10.068  23.534  1.00  0.00    -0.550 OA
ENDBRANCH   7   8
ENDBRANCH   6   7
ENDBRANCH   5   6
ENDBRANCH   4   5
ENDBRANCH   3   4
ENDBRANCH   2   3
ENDBRANCH   1   2
BRANCH   1  11
ATOM     11  C   UNL     1      29.245  -4.321  18.606  1.00  0.00     0.000 C 
BRANCH  11  12
ATOM     12  C   UNL     1      29.464  -3.396  19.813  1.00  0.00    -0.000 C 
BRANCH  12  13
ATOM     13  C   UNL     1      29.459  -1.908  19.426  1.00  0.00    -0.000 C 
BRANCH  13  14
ATOM     14  C   UNL     1      28.049  -1.292  19.446  1.00  0.00    -0.000 C 
BRANCH  14  15
ATOM     15  C   UNL     1      28.009   0.249  19.417  1.00  0.00    -0.000 C 
BRANCH  15  16
ATOM     16  C   UNL     1      26.646   0.845  19.826  1.00  0.00    -0.000 C 
BRANCH  16  17
ATOM     17  C   UNL     1      25.510  -0.185  19.736  1.00  0.00    -0.003 C 
ATOM     18  C   UNL     1      24.175   0.493  19.441  1.00  0.00     0.004 C 
ENDBRANCH  16  17
ENDBRANCH  15  16
ENDBRANCH  14  15
ENDBRANCH  13  14
ENDBRANCH  12  13
ENDBRANCH  11  12
ENDBRANCH   1  11
TORSDOF 14
ENDMDL
MODEL 8
REMARK VINA RESULT:    -6.157      3.217      7.302
REMARK INTER + INTRA:         -12.570
REMARK INTER:                 -11.662
REMARK INTRA:                  -0.907
REMARK UNBOUND:                -1.374
REMARK SMILES CCCCCCCCCCCCCCCC(=O)[O-]
REMARK SMILES IDX 9 1 10 2 11 3 12 4 13 5 14 6 15 7 16 8 17 9 18 10 8 11 7 12
REMARK SMILES IDX 6 13 5 14 4 15 3 16 2 17 1 18
REMARK H PARENT
REMARK Flexibility Score: inf
ROOT
ATOM      1  C   UNL     1      26.966  -4.727  18.124  1.00  0.00     0.000 C 
ENDROOT
BRANCH   1   2
ATOM      2  C   UNL     1      28.461  -4.765  18.504  1.00  0.00     0.000 C 
BRANCH   2   3
ATOM      3  C   UNL     1      28.799  -3.929  19.751  1.00  0.00     0.000 C 
BRANCH   3   4
ATOM      4  C   UNL     1      29.573  -2.644  19.417  1.00  0.00     0.000 C 
BRANCH   4   5
ATOM      5  C   UNL     1      28.658  -1.414  19.312  1.00  0.00     0.000 C 
BRANCH   5   6
ATOM      6  C   UNL     1      27.584  -1.381  20.409  1.00  0.00     0.006 C 
BRANCH   6   7
ATOM      7  C   UNL     1      26.182  -1.263  19.801  1.00  0.00     0.053 C 
BRANCH   7   8
ATOM      8  C   UNL     1      25.732   0.164  19.795  1.00  0.00     0.041 C 
ATOM      9  O   UNL     1      26.579   1.095  19.779  1.00  0.00    -0.550 OA
ATOM     10  O   UNL     1      24.377   0.465  19.757  1.00  0.00    -0.550 OA
ENDBRANCH   7   8
ENDBRANCH   6   7
ENDBRANCH   5   6
ENDBRANCH   4   5
ENDBRANCH   3   4
ENDBRANCH   2   3
ENDBRANCH   1   2
BRANCH   1  11
ATOM     11  C   UNL     1      26.121  -5.674  18.996  1.00  0.00     0.000 C 
BRANCH  11  12
ATOM     12  C   UNL     1      26.818  -7.018  19.261  1.00  0.00    -0.000 C 
BRANCH  12  13
ATOM     13  C   UNL     1      26.126  -7.834  20.365  1.00  0.00    -0.000 C 
BRANCH  13  14
ATOM     14  C   UNL     1      24.620  -7.538  20.469  1.00  0.00    -0.000 C 
BRANCH  14  15
ATOM     15  C   UNL     1      23.785  -8.633  21.163  1.00  0.00    -0.000 C 
BRANCH  15  16
ATOM     16  C   UNL     1      23.641  -8.436  22.686  1.00  0.00    -0.000 C 
BRANCH  16  17
ATOM     17  C   UNL     1      22.897  -9.602  23.356  1.00  0.00    -0.003 C 
ATOM     18  C   UNL     1      21.734  -9.098  24.205  1.00  0.00     0.004 C 
ENDBRANCH  16  17
ENDBRANCH  15  16
ENDBRANCH  14  15
ENDBRANCH  13  14
ENDBRANCH  12  13
ENDBRANCH  11  12
ENDBRANCH   1  11
TORSDOF 14
ENDMDL
MODEL 9
REMARK VINA RESULT:    -6.128      1.101      3.609
REMARK INTER + INTRA:         -12.517
REMARK INTER:                 -11.212
REMARK INTRA:                  -1.305
REMARK UNBOUND:                -1.374
REMARK SMILES CCCCCCCCCCCCCCCC(=O)[O-]
REMARK SMILES IDX 9 1 10 2 11 3 12 4 13 5 14 6 15 7 16 8 17 9 18 10 8 11 7 12
REMARK SMILES IDX 6 13 5 14 4 15 3 16 2 17 1 18
REMARK H PARENT
REMARK Flexibility Score: inf
ROOT
ATOM      1  C   UNL     1      25.537  -2.336  20.181  1.00  0.00     0.000 C 
ENDROOT
BRANCH   1   2
ATOM      2  C   UNL     1      25.413  -3.816  19.759  1.00  0.00     0.000 C 
BRANCH   2   3
ATOM      3  C   UNL     1      26.287  -4.183  18.548  1.00  0.00     0.000 C 
BRANCH   3   4
ATOM      4  C   UNL     1      26.976  -5.549  18.701  1.00  0.00     0.000 C 
BRANCH   4   5
ATOM      5  C   UNL     1      26.637  -6.235  20.034  1.00  0.00     0.000 C 
BRANCH   5   6
ATOM      6  C   UNL     1      25.725  -7.458  19.854  1.00  0.00     0.006 C 
BRANCH   6   7
ATOM      7  C   UNL     1      24.249  -7.056  19.932  1.00  0.00     0.053 C 
BRANCH   7   8
ATOM      8  C   UNL     1      23.515  -7.939  20.892  1.00  0.00     0.041 C 
ATOM      9  O   UNL     1      22.440  -8.494  20.548  1.00  0.00    -0.550 OA
ATOM     10  O   UNL     1      24.046  -8.187  22.152  1.00  0.00    -0.550 OA
ENDBRANCH   7   8
ENDBRANCH   6   7
ENDBRANCH   5   6
ENDBRANCH   4   5
ENDBRANCH   3   4
ENDBRANCH   2   3
ENDBRANCH   1   2
BRANCH   1  11
ATOM     11  C   UNL     1      24.770  -1.396  19.233  1.00  0.00     0.000 C 
BRANCH  11  12
ATOM     12  C   UNL     1      24.585   0.014  19.815  1.00  0.00    -0.000 C 
BRANCH  12  13
ATOM     13  C   UNL     1      25.705   0.979  19.390  1.00  0.00    -0.000 C 
BRANCH  13  14
ATOM     14  C   UNL     1      27.023   0.730  20.143  1.00  0.00    -0.000 C 
BRANCH  14  15
ATOM     15  C   UNL     1      28.155   0.118  19.293  1.00  0.00    -0.000 C 
BRANCH  15  16
ATOM     16  C   UNL     1      28.896  -1.044  19.986  1.00  0.00    -0.000 C 
BRANCH  16  17
ATOM     17  C   UNL     1      29.275  -2.161  19.002  1.00  0.00    -0.003 C 
ATOM     18  C   UNL     1      29.639  -3.446  19.741  1.00  0.00     0.004 C 
ENDBRANCH  16  17
ENDBRANCH  15  16
ENDBRANCH  14  15
ENDBRANCH  13  14
ENDBRANCH  12  13
ENDBRANCH  11  12
ENDBRANCH   1  11
TORSDOF 14
ENDMDL
