MODEL 1
REMARK VINA RESULT:    33.519      0.000      0.000
REMARK INTER + INTRA:          40.814
REMARK INTER:                  40.377
REMARK INTRA:                   0.436
REMARK UNBOUND:                 0.436
REMARK SMILES O=c1c(O)c(-c2ccc(O)c(O)c2)oc2cc(O)cc(O)c12
REMARK SMILES IDX 5 1 3 2 2 3 1 4 22 5 20 6 19 7 17 8 16 9 15 10 14 11 6 12
REMARK SMILES IDX 7 13 8 14 9 15 13 16 11 17 10 18 12 20 4 22 21 24 18 26
REMARK H PARENT 10 19 12 21 4 23 21 25 18 27
REMARK Flexibility Score: inf
ROOT
ATOM      1  C   UNL     1     -35.430  24.949   5.893  1.00  0.00     0.180 A 
ATOM      2  C   UNL     1     -35.737  24.219   7.054  1.00  0.00     0.208 A 
ATOM      3  C   UNL     1     -36.935  23.489   7.103  1.00  0.00     0.238 A 
ATOM      4  O   UNL     1     -37.177  22.794   8.124  1.00  0.00    -0.285 OA
ATOM      5  C   UNL     1     -37.819  23.511   5.997  1.00  0.00     0.111 A 
ATOM      6  C   UNL     1     -39.079  22.841   5.954  1.00  0.00     0.134 A 
ATOM      7  C   UNL     1     -39.811  22.823   4.761  1.00  0.00     0.093 A 
ATOM      8  C   UNL     1     -39.362  23.506   3.630  1.00  0.00     0.123 A 
ATOM      9  C   UNL     1     -38.161  24.215   3.681  1.00  0.00     0.094 A 
ATOM     10  C   UNL     1     -37.390  24.220   4.845  1.00  0.00     0.146 A 
ATOM     11  O   UNL     1     -36.248  24.896   4.848  1.00  0.00    -0.452 OA
ENDROOT
BRANCH   1  12
ATOM     12  C   UNL     1     -34.198  25.763   5.775  1.00  0.00     0.025 A 
ATOM     13  C   UNL     1     -33.140  25.624   6.689  1.00  0.00     0.016 A 
ATOM     14  C   UNL     1     -31.997  26.419   6.572  1.00  0.00     0.051 A 
ATOM     15  C   UNL     1     -31.899  27.373   5.554  1.00  0.00     0.157 A 
ATOM     16  C   UNL     1     -34.106  26.736   4.766  1.00  0.00     0.062 A 
ATOM     17  C   UNL     1     -32.960  27.535   4.648  1.00  0.00     0.158 A 
BRANCH  15  18
ATOM     18  O   UNL     1     -30.745  28.151   5.463  1.00  0.00    -0.504 OA
ATOM     19  H   UNL     1     -30.667  29.053   5.919  1.00  0.00     0.293 HD
ENDBRANCH  15  18
BRANCH  17  20
ATOM     20  O   UNL     1     -32.873  28.489   3.635  1.00  0.00    -0.504 OA
ATOM     21  H   UNL     1     -32.252  29.286   3.709  1.00  0.00     0.293 HD
ENDBRANCH  17  20
ENDBRANCH   1  12
BRANCH   2  22
ATOM     22  O   UNL     1     -34.839  24.194   8.125  1.00  0.00    -0.502 OA
ATOM     23  H   UNL     1     -33.837  24.128   7.993  1.00  0.00     0.293 HD
ENDBRANCH   2  22
BRANCH   6  24
ATOM     24  O   UNL     1     -39.663  22.205   7.054  1.00  0.00    -0.507 OA
ATOM     25  H   UNL     1     -40.627  21.915   7.104  1.00  0.00     0.293 HD
ENDBRANCH   6  24
BRANCH   8  26
ATOM     26  O   UNL     1     -40.124  23.481   2.464  1.00  0.00    -0.508 OA
ATOM     27  H   UNL     1     -40.942  22.889   2.378  1.00  0.00     0.293 HD
ENDBRANCH   8  26
TORSDOF 6
ENDMDL
