MODEL 1
REMARK VINA RESULT:     1.165      0.000      0.000
REMARK INTER + INTRA:           1.664
REMARK INTER:                   1.404
REMARK INTRA:                   0.260
REMARK UNBOUND:                 0.260
REMARK SMILES O=c1c(O)c(-c2ccc(O)c(O)c2)oc2cc(O)cc(O)c12
REMARK SMILES IDX 5 1 3 2 2 3 1 4 22 5 20 6 19 7 17 8 16 9 15 10 14 11 6 12
REMARK SMILES IDX 7 13 8 14 9 15 13 16 11 17 10 18 12 20 4 22 21 24 18 26
REMARK H PARENT 10 19 12 21 4 23 21 25 18 27
REMARK Flexibility Score: inf
ROOT
ATOM      1  C   UNL     1     154.922 142.065 147.751  1.00  0.00     0.180 A 
ATOM      2  C   UNL     1     155.386 142.491 149.007  1.00  0.00     0.208 A 
ATOM      3  C   UNL     1     154.534 142.390 150.118  1.00  0.00     0.238 A 
ATOM      4  O   UNL     1     154.934 142.824 151.230  1.00  0.00    -0.285 OA
ATOM      5  C   UNL     1     153.234 141.850 149.963  1.00  0.00     0.111 A 
ATOM      6  C   UNL     1     152.300 141.664 151.025  1.00  0.00     0.134 A 
ATOM      7  C   UNL     1     150.997 141.242 150.735  1.00  0.00     0.093 A 
ATOM      8  C   UNL     1     150.614 140.937 149.427  1.00  0.00     0.123 A 
ATOM      9  C   UNL     1     151.535 141.059 148.389  1.00  0.00     0.094 A 
ATOM     10  C   UNL     1     152.832 141.512 148.644  1.00  0.00     0.146 A 
ATOM     11  O   UNL     1     153.676 141.624 147.625  1.00  0.00    -0.452 OA
ENDROOT
BRANCH   1  12
ATOM     12  C   UNL     1     155.771 142.116 146.539  1.00  0.00     0.025 A 
ATOM     13  C   UNL     1     157.170 142.006 146.620  1.00  0.00     0.016 A 
ATOM     14  C   UNL     1     157.949 142.033 145.460  1.00  0.00     0.051 A 
ATOM     15  C   UNL     1     157.343 142.156 144.203  1.00  0.00     0.157 A 
ATOM     16  C   UNL     1     155.167 142.218 145.275  1.00  0.00     0.062 A 
ATOM     17  C   UNL     1     155.944 142.246 144.111  1.00  0.00     0.158 A 
BRANCH  15  18
ATOM     18  O   UNL     1     158.124 142.184 143.048  1.00  0.00    -0.504 OA
ATOM     19  H   UNL     1     159.133 142.252 143.092  1.00  0.00     0.293 HD
ENDBRANCH  15  18
BRANCH  17  20
ATOM     20  O   UNL     1     155.309 142.362 142.875  1.00  0.00    -0.504 OA
ATOM     21  H   UNL     1     155.808 142.245 142.001  1.00  0.00     0.293 HD
ENDBRANCH  17  20
ENDBRANCH   1  12
BRANCH   2  22
ATOM     22  O   UNL     1     156.664 143.041 149.135  1.00  0.00    -0.502 OA
ATOM     23  H   UNL     1     157.474 142.650 148.669  1.00  0.00     0.293 HD
ENDBRANCH   2  22
BRANCH   6  24
ATOM     24  O   UNL     1     152.609 141.851 152.376  1.00  0.00    -0.507 OA
ATOM     25  H   UNL     1     151.964 142.193 153.071  1.00  0.00     0.293 HD
ENDBRANCH   6  24
BRANCH   8  26
ATOM     26  O   UNL     1     149.320 140.504 149.148  1.00  0.00    -0.508 OA
ATOM     27  H   UNL     1     148.507 141.017 149.471  1.00  0.00     0.293 HD
ENDBRANCH   8  26
TORSDOF 6
ENDMDL
MODEL 2
REMARK VINA RESULT:     4.110      1.329      2.900
REMARK INTER + INTRA:           5.211
REMARK INTER:                   5.024
REMARK INTRA:                   0.187
REMARK UNBOUND:                 0.260
REMARK SMILES O=c1c(O)c(-c2ccc(O)c(O)c2)oc2cc(O)cc(O)c12
REMARK SMILES IDX 5 1 3 2 2 3 1 4 22 5 20 6 19 7 17 8 16 9 15 10 14 11 6 12
REMARK SMILES IDX 7 13 8 14 9 15 13 16 11 17 10 18 12 20 4 22 21 24 18 26
REMARK H PARENT 10 19 12 21 4 23 21 25 18 27
REMARK Flexibility Score: inf
ROOT
ATOM      1  C   UNL     1     153.966 141.925 147.703  1.00  0.00     0.180 A 
ATOM      2  C   UNL     1     152.807 141.252 147.279  1.00  0.00     0.208 A 
ATOM      3  C   UNL     1     151.798 140.975 148.216  1.00  0.00     0.238 A 
ATOM      4  O   UNL     1     150.788 140.324 147.844  1.00  0.00    -0.285 OA
ATOM      5  C   UNL     1     151.953 141.390 149.562  1.00  0.00     0.111 A 
ATOM      6  C   UNL     1     150.979 141.199 150.586  1.00  0.00     0.134 A 
ATOM      7  C   UNL     1     151.293 141.532 151.910  1.00  0.00     0.093 A 
ATOM      8  C   UNL     1     152.522 142.111 152.234  1.00  0.00     0.123 A 
ATOM      9  C   UNL     1     153.458 142.356 151.231  1.00  0.00     0.094 A 
ATOM     10  C   UNL     1     153.187 142.001 149.908  1.00  0.00     0.146 A 
ATOM     11  O   UNL     1     154.110 142.243 148.984  1.00  0.00    -0.452 OA
ENDROOT
BRANCH   1  12
ATOM     12  C   UNL     1     155.060 142.274 146.769  1.00  0.00     0.025 A 
ATOM     13  C   UNL     1     156.409 142.129 147.135  1.00  0.00     0.016 A 
ATOM     14  C   UNL     1     157.425 142.441 146.228  1.00  0.00     0.051 A 
ATOM     15  C   UNL     1     157.109 142.890 144.939  1.00  0.00     0.157 A 
ATOM     16  C   UNL     1     154.748 142.703 145.469  1.00  0.00     0.062 A 
ATOM     17  C   UNL     1     155.762 143.018 144.557  1.00  0.00     0.158 A 
BRANCH  15  18
ATOM     18  O   UNL     1     158.124 143.202 144.036  1.00  0.00    -0.504 OA
ATOM     19  H   UNL     1     158.955 143.704 144.326  1.00  0.00     0.293 HD
ENDBRANCH  15  18
BRANCH  17  20
ATOM     20  O   UNL     1     155.413 143.455 143.279  1.00  0.00    -0.504 OA
ATOM     21  H   UNL     1     154.452 143.466 142.959  1.00  0.00     0.293 HD
ENDBRANCH  17  20
ENDBRANCH   1  12
BRANCH   2  22
ATOM     22  O   UNL     1     152.684 140.832 145.953  1.00  0.00    -0.502 OA
ATOM     23  H   UNL     1     152.177 141.367 145.257  1.00  0.00     0.293 HD
ENDBRANCH   2  22
BRANCH   6  24
ATOM     24  O   UNL     1     149.688 140.714 150.355  1.00  0.00    -0.507 OA
ATOM     25  H   UNL     1     149.458 139.746 150.194  1.00  0.00     0.293 HD
ENDBRANCH   6  24
BRANCH   8  26
ATOM     26  O   UNL     1     152.821 142.454 153.550  1.00  0.00    -0.508 OA
ATOM     27  H   UNL     1     152.129 142.875 154.159  1.00  0.00     0.293 HD
ENDBRANCH   8  26
TORSDOF 6
ENDMDL
