MODEL 1
REMARK VINA RESULT:    -4.228      0.000      0.000
REMARK INTER + INTRA:          -8.824
REMARK INTER:                  -7.194
REMARK INTRA:                  -1.630
REMARK UNBOUND:                -1.630
REMARK SMILES CCCCCCCCCCCCCC(=O)[O-]
REMARK SMILES IDX 8 1 9 2 10 3 11 4 12 5 13 6 14 7 15 8 16 9 7 10 6 11 5 12
REMARK SMILES IDX 4 13 3 14 2 15 1 16
REMARK H PARENT
REMARK Flexibility Score: inf
ROOT
ATOM      1  C   UNL     1       4.272   7.951  29.536  1.00  0.00     0.000 C 
ENDROOT
BRANCH   1   2
ATOM      2  C   UNL     1       4.632   7.884  28.045  1.00  0.00     0.000 C 
BRANCH   2   3
ATOM      3  C   UNL     1       3.564   7.110  27.257  1.00  0.00     0.000 C 
BRANCH   3   4
ATOM      4  C   UNL     1       4.162   6.267  26.120  1.00  0.00     0.000 C 
BRANCH   4   5
ATOM      5  C   UNL     1       3.134   5.316  25.484  1.00  0.00     0.006 C 
BRANCH   5   6
ATOM      6  C   UNL     1       1.777   5.369  26.198  1.00  0.00     0.053 C 
BRANCH   6   7
ATOM      7  C   UNL     1       1.097   4.034  26.195  1.00  0.00     0.041 C 
ATOM      8  O   UNL     1       0.021   3.872  25.562  1.00  0.00    -0.550 OA
ATOM      9  O   UNL     1       1.636   2.978  26.917  1.00  0.00    -0.550 OA
ENDBRANCH   6   7
ENDBRANCH   5   6
ENDBRANCH   4   5
ENDBRANCH   3   4
ENDBRANCH   2   3
ENDBRANCH   1   2
BRANCH   1  10
ATOM     10  C   UNL     1       5.288   7.218  30.431  1.00  0.00     0.000 C 
BRANCH  10  11
ATOM     11  C   UNL     1       5.408   5.702  30.173  1.00  0.00    -0.000 C 
BRANCH  11  12
ATOM     12  C   UNL     1       4.260   4.847  30.748  1.00  0.00    -0.000 C 
BRANCH  12  13
ATOM     13  C   UNL     1       3.188   4.433  29.724  1.00  0.00    -0.000 C 
BRANCH  13  14
ATOM     14  C   UNL     1       1.769   4.842  30.151  1.00  0.00    -0.000 C 
BRANCH  14  15
ATOM     15  C   UNL     1       1.632   4.987  31.674  1.00  0.00    -0.003 C 
ATOM     16  C   UNL     1       1.245   6.404  32.099  1.00  0.00     0.004 C 
ENDBRANCH  14  15
ENDBRANCH  13  14
ENDBRANCH  12  13
ENDBRANCH  11  12
ENDBRANCH  10  11
ENDBRANCH   1  10
TORSDOF 12
ENDMDL
MODEL 2
REMARK VINA RESULT:    -4.207      2.480      4.675
REMARK INTER + INTRA:          -8.788
REMARK INTER:                  -7.109
REMARK INTRA:                  -1.679
REMARK UNBOUND:                -1.630
REMARK SMILES CCCCCCCCCCCCCC(=O)[O-]
REMARK SMILES IDX 8 1 9 2 10 3 11 4 12 5 13 6 14 7 15 8 16 9 7 10 6 11 5 12
REMARK SMILES IDX 4 13 3 14 2 15 1 16
REMARK H PARENT
REMARK Flexibility Score: inf
ROOT
ATOM      1  C   UNL     1       3.710   4.655  25.854  1.00  0.00     0.000 C 
ENDROOT
BRANCH   1   2
ATOM      2  C   UNL     1       3.793   4.000  27.240  1.00  0.00     0.000 C 
BRANCH   2   3
ATOM      3  C   UNL     1       2.429   3.430  27.660  1.00  0.00     0.000 C 
BRANCH   3   4
ATOM      4  C   UNL     1       2.070   3.767  29.115  1.00  0.00     0.000 C 
BRANCH   4   5
ATOM      5  C   UNL     1       0.791   4.615  29.228  1.00  0.00     0.006 C 
BRANCH   5   6
ATOM      6  C   UNL     1       1.096   6.079  29.575  1.00  0.00     0.053 C 
BRANCH   6   7
ATOM      7  C   UNL     1       0.749   6.394  30.998  1.00  0.00     0.041 C 
ATOM      8  O   UNL     1       1.199   5.682  31.933  1.00  0.00    -0.550 OA
ATOM      9  O   UNL     1      -0.099   7.455  31.287  1.00  0.00    -0.550 OA
ENDBRANCH   6   7
ENDBRANCH   5   6
ENDBRANCH   4   5
ENDBRANCH   3   4
ENDBRANCH   2   3
ENDBRANCH   1   2
BRANCH   1  10
ATOM     10  C   UNL     1       4.155   6.128  25.860  1.00  0.00     0.000 C 
BRANCH  10  11
ATOM     11  C   UNL     1       3.546   6.988  26.986  1.00  0.00    -0.000 C 
BRANCH  11  12
ATOM     12  C   UNL     1       4.567   7.760  27.847  1.00  0.00    -0.000 C 
BRANCH  12  13
ATOM     13  C   UNL     1       4.106   8.059  29.284  1.00  0.00    -0.000 C 
BRANCH  13  14
ATOM     14  C   UNL     1       4.966   7.352  30.345  1.00  0.00    -0.000 C 
BRANCH  14  15
ATOM     15  C   UNL     1       4.748   5.831  30.359  1.00  0.00    -0.003 C 
ATOM     16  C   UNL     1       6.032   5.055  30.651  1.00  0.00     0.004 C 
ENDBRANCH  14  15
ENDBRANCH  13  14
ENDBRANCH  12  13
ENDBRANCH  11  12
ENDBRANCH  10  11
ENDBRANCH   1  10
TORSDOF 12
ENDMDL
MODEL 3
REMARK VINA RESULT:    -4.168      2.364      4.395
REMARK INTER + INTRA:          -8.722
REMARK INTER:                  -7.110
REMARK INTRA:                  -1.612
REMARK UNBOUND:                -1.630
REMARK SMILES CCCCCCCCCCCCCC(=O)[O-]
REMARK SMILES IDX 8 1 9 2 10 3 11 4 12 5 13 6 14 7 15 8 16 9 7 10 6 11 5 12
REMARK SMILES IDX 4 13 3 14 2 15 1 16
REMARK H PARENT
REMARK Flexibility Score: inf
ROOT
ATOM      1  C   UNL     1       2.198   4.563  31.188  1.00  0.00     0.000 C 
ENDROOT
BRANCH   1   2
ATOM      2  C   UNL     1       1.448   5.653  31.967  1.00  0.00     0.000 C 
BRANCH   2   3
ATOM      3  C   UNL     1       0.499   6.433  31.043  1.00  0.00     0.000 C 
BRANCH   3   4
ATOM      4  C   UNL     1       0.319   5.757  29.675  1.00  0.00     0.000 C 
BRANCH   4   5
ATOM      5  C   UNL     1      -0.949   6.232  28.942  1.00  0.00     0.006 C 
BRANCH   5   6
ATOM      6  C   UNL     1      -1.863   5.062  28.551  1.00  0.00     0.053 C 
BRANCH   6   7
ATOM      7  C   UNL     1      -2.545   5.308  27.241  1.00  0.00     0.041 C 
ATOM      8  O   UNL     1      -2.153   6.236  26.486  1.00  0.00    -0.550 OA
ATOM      9  O   UNL     1      -3.635   4.533  26.869  1.00  0.00    -0.550 OA
ENDBRANCH   6   7
ENDBRANCH   5   6
ENDBRANCH   4   5
ENDBRANCH   3   4
ENDBRANCH   2   3
ENDBRANCH   1   2
BRANCH   1  10
ATOM     10  C   UNL     1       3.670   4.926  30.917  1.00  0.00     0.000 C 
BRANCH  10  11
ATOM     11  C   UNL     1       4.190   4.536  29.519  1.00  0.00    -0.000 C 
BRANCH  11  12
ATOM     12  C   UNL     1       3.849   5.532  28.392  1.00  0.00    -0.000 C 
BRANCH  12  13
ATOM     13  C   UNL     1       3.403   4.883  27.069  1.00  0.00    -0.000 C 
BRANCH  13  14
ATOM     14  C   UNL     1       2.988   3.413  27.238  1.00  0.00    -0.000 C 
BRANCH  14  15
ATOM     15  C   UNL     1       1.470   3.212  27.116  1.00  0.00    -0.003 C 
ATOM     16  C   UNL     1       0.836   4.128  26.069  1.00  0.00     0.004 C 
ENDBRANCH  14  15
ENDBRANCH  13  14
ENDBRANCH  12  13
ENDBRANCH  11  12
ENDBRANCH  10  11
ENDBRANCH   1  10
TORSDOF 12
ENDMDL
MODEL 4
REMARK VINA RESULT:    -4.152      2.668      4.714
REMARK INTER + INTRA:          -8.695
REMARK INTER:                  -6.988
REMARK INTRA:                  -1.707
REMARK UNBOUND:                -1.630
REMARK SMILES CCCCCCCCCCCCCC(=O)[O-]
REMARK SMILES IDX 8 1 9 2 10 3 11 4 12 5 13 6 14 7 15 8 16 9 7 10 6 11 5 12
REMARK SMILES IDX 4 13 3 14 2 15 1 16
REMARK H PARENT
REMARK Flexibility Score: inf
ROOT
ATOM      1  C   UNL     1       2.418   7.204  31.085  1.00  0.00     0.000 C 
ENDROOT
BRANCH   1   2
ATOM      2  C   UNL     1       1.502   6.452  32.062  1.00  0.00     0.000 C 
BRANCH   2   3
ATOM      3  C   UNL     1       1.580   4.935  31.830  1.00  0.00     0.000 C 
BRANCH   3   4
ATOM      4  C   UNL     1       2.694   4.544  30.847  1.00  0.00     0.000 C 
BRANCH   4   5
ATOM      5  C   UNL     1       2.147   3.922  29.550  1.00  0.00     0.006 C 
BRANCH   5   6
ATOM      6  C   UNL     1       2.576   4.709  28.304  1.00  0.00     0.053 C 
BRANCH   6   7
ATOM      7  C   UNL     1       3.605   3.967  27.508  1.00  0.00     0.041 C 
ATOM      8  O   UNL     1       4.355   3.126  28.069  1.00  0.00    -0.550 OA
ATOM      9  O   UNL     1       3.757   4.230  26.153  1.00  0.00    -0.550 OA
ENDBRANCH   6   7
ENDBRANCH   5   6
ENDBRANCH   4   5
ENDBRANCH   3   4
ENDBRANCH   2   3
ENDBRANCH   1   2
BRANCH   1  10
ATOM     10  C   UNL     1       1.638   8.050  30.063  1.00  0.00     0.000 C 
BRANCH  10  11
ATOM     11  C   UNL     1       0.103   7.970  30.188  1.00  0.00    -0.000 C 
BRANCH  11  12
ATOM     12  C   UNL     1      -0.610   7.223  29.043  1.00  0.00    -0.000 C 
BRANCH  12  13
ATOM     13  C   UNL     1      -1.148   5.830  29.417  1.00  0.00    -0.000 C 
BRANCH  13  14
ATOM     14  C   UNL     1      -1.258   4.890  28.205  1.00  0.00    -0.000 C 
BRANCH  14  15
ATOM     15  C   UNL     1      -2.710   4.489  27.902  1.00  0.00    -0.003 C 
ATOM     16  C   UNL     1      -3.223   5.078  26.588  1.00  0.00     0.004 C 
ENDBRANCH  14  15
ENDBRANCH  13  14
ENDBRANCH  12  13
ENDBRANCH  11  12
ENDBRANCH  10  11
ENDBRANCH   1  10
TORSDOF 12
ENDMDL
MODEL 5
REMARK VINA RESULT:    -4.152      2.069      4.096
REMARK INTER + INTRA:          -8.694
REMARK INTER:                  -6.629
REMARK INTRA:                  -2.065
REMARK UNBOUND:                -1.630
REMARK SMILES CCCCCCCCCCCCCC(=O)[O-]
REMARK SMILES IDX 8 1 9 2 10 3 11 4 12 5 13 6 14 7 15 8 16 9 7 10 6 11 5 12
REMARK SMILES IDX 4 13 3 14 2 15 1 16
REMARK H PARENT
REMARK Flexibility Score: inf
ROOT
ATOM      1  C   UNL     1       1.326   5.729  31.891  1.00  0.00     0.000 C 
ENDROOT
BRANCH   1   2
ATOM      2  C   UNL     1       1.221   6.995  31.029  1.00  0.00     0.000 C 
BRANCH   2   3
ATOM      3  C   UNL     1      -0.222   7.214  30.550  1.00  0.00     0.000 C 
BRANCH   3   4
ATOM      4  C   UNL     1      -0.446   6.731  29.108  1.00  0.00     0.000 C 
BRANCH   4   5
ATOM      5  C   UNL     1      -1.599   5.718  28.995  1.00  0.00     0.006 C 
BRANCH   5   6
ATOM      6  C   UNL     1      -1.187   4.457  28.223  1.00  0.00     0.053 C 
BRANCH   6   7
ATOM      7  C   UNL     1      -1.676   4.491  26.808  1.00  0.00     0.041 C 
ATOM      8  O   UNL     1      -0.857   4.570  25.855  1.00  0.00    -0.550 OA
ATOM      9  O   UNL     1      -3.040   4.468  26.543  1.00  0.00    -0.550 OA
ENDBRANCH   6   7
ENDBRANCH   5   6
ENDBRANCH   4   5
ENDBRANCH   3   4
ENDBRANCH   2   3
ENDBRANCH   1   2
BRANCH   1  10
ATOM     10  C   UNL     1       2.358   4.721  31.352  1.00  0.00     0.000 C 
BRANCH  10  11
ATOM     11  C   UNL     1       1.954   4.013  30.043  1.00  0.00    -0.000 C 
BRANCH  11  12
ATOM     12  C   UNL     1       2.968   4.140  28.888  1.00  0.00    -0.000 C 
BRANCH  12  13
ATOM     13  C   UNL     1       2.478   4.962  27.683  1.00  0.00    -0.000 C 
BRANCH  13  14
ATOM     14  C   UNL     1       2.957   6.422  27.725  1.00  0.00    -0.000 C 
BRANCH  14  15
ATOM     15  C   UNL     1       4.198   6.609  28.611  1.00  0.00    -0.003 C 
ATOM     16  C   UNL     1       4.308   8.024  29.180  1.00  0.00     0.004 C 
ENDBRANCH  14  15
ENDBRANCH  13  14
ENDBRANCH  12  13
ENDBRANCH  11  12
ENDBRANCH  10  11
ENDBRANCH   1  10
TORSDOF 12
ENDMDL
MODEL 6
REMARK VINA RESULT:    -4.141      6.659      9.715
REMARK INTER + INTRA:          -8.675
REMARK INTER:                  -6.839
REMARK INTRA:                  -1.836
REMARK UNBOUND:                -1.630
REMARK SMILES CCCCCCCCCCCCCC(=O)[O-]
REMARK SMILES IDX 8 1 9 2 10 3 11 4 12 5 13 6 14 7 15 8 16 9 7 10 6 11 5 12
REMARK SMILES IDX 4 13 3 14 2 15 1 16
REMARK H PARENT
REMARK Flexibility Score: inf
ROOT
ATOM      1  C   UNL     1      -3.230   6.937  21.193  1.00  0.00     0.000 C 
ENDROOT
BRANCH   1   2
ATOM      2  C   UNL     1      -2.216   6.602  22.296  1.00  0.00     0.000 C 
BRANCH   2   3
ATOM      3  C   UNL     1      -1.136   5.641  21.776  1.00  0.00     0.000 C 
BRANCH   3   4
ATOM      4  C   UNL     1      -0.869   4.475  22.741  1.00  0.00     0.000 C 
BRANCH   4   5
ATOM      5  C   UNL     1      -1.039   4.876  24.216  1.00  0.00     0.006 C 
BRANCH   5   6
ATOM      6  C   UNL     1      -1.970   3.918  24.972  1.00  0.00     0.053 C 
BRANCH   6   7
ATOM      7  C   UNL     1      -3.017   4.659  25.746  1.00  0.00     0.041 C 
ATOM      8  O   UNL     1      -3.189   4.421  26.970  1.00  0.00    -0.550 OA
ATOM      9  O   UNL     1      -3.824   5.591  25.107  1.00  0.00    -0.550 OA
ENDBRANCH   6   7
ENDBRANCH   5   6
ENDBRANCH   4   5
ENDBRANCH   3   4
ENDBRANCH   2   3
ENDBRANCH   1   2
BRANCH   1  10
ATOM     10  C   UNL     1      -2.805   6.411  19.810  1.00  0.00     0.000 C 
BRANCH  10  11
ATOM     11  C   UNL     1      -3.875   5.580  19.072  1.00  0.00    -0.000 C 
BRANCH  11  12
ATOM     12  C   UNL     1      -4.835   4.789  19.984  1.00  0.00    -0.000 C 
BRANCH  12  13
ATOM     13  C   UNL     1      -4.283   3.445  20.492  1.00  0.00    -0.000 C 
BRANCH  13  14
ATOM     14  C   UNL     1      -4.192   3.381  22.025  1.00  0.00    -0.000 C 
BRANCH  14  15
ATOM     15  C   UNL     1      -5.524   3.728  22.709  1.00  0.00    -0.003 C 
ATOM     16  C   UNL     1      -5.933   2.697  23.760  1.00  0.00     0.004 C 
ENDBRANCH  14  15
ENDBRANCH  13  14
ENDBRANCH  12  13
ENDBRANCH  11  12
ENDBRANCH  10  11
ENDBRANCH   1  10
TORSDOF 12
ENDMDL
MODEL 7
REMARK VINA RESULT:    -4.140      2.366      4.616
REMARK INTER + INTRA:          -8.673
REMARK INTER:                  -6.857
REMARK INTRA:                  -1.817
REMARK UNBOUND:                -1.630
REMARK SMILES CCCCCCCCCCCCCC(=O)[O-]
REMARK SMILES IDX 8 1 9 2 10 3 11 4 12 5 13 6 14 7 15 8 16 9 7 10 6 11 5 12
REMARK SMILES IDX 4 13 3 14 2 15 1 16
REMARK H PARENT
REMARK Flexibility Score: inf
ROOT
ATOM      1  C   UNL     1       4.513   7.625  28.391  1.00  0.00     0.000 C 
ENDROOT
BRANCH   1   2
ATOM      2  C   UNL     1       4.850   7.012  29.757  1.00  0.00     0.000 C 
BRANCH   2   3
ATOM      3  C   UNL     1       4.777   5.478  29.704  1.00  0.00     0.000 C 
BRANCH   3   4
ATOM      4  C   UNL     1       4.052   4.878  30.919  1.00  0.00     0.000 C 
BRANCH   4   5
ATOM      5  C   UNL     1       2.565   4.598  30.643  1.00  0.00     0.006 C 
BRANCH   5   6
ATOM      6  C   UNL     1       1.652   5.214  31.712  1.00  0.00     0.053 C 
BRANCH   6   7
ATOM      7  C   UNL     1       1.190   6.584  31.322  1.00  0.00     0.041 C 
ATOM      8  O   UNL     1       1.884   7.594  31.612  1.00  0.00    -0.550 OA
ATOM      9  O   UNL     1      -0.023   6.749  30.665  1.00  0.00    -0.550 OA
ENDBRANCH   6   7
ENDBRANCH   5   6
ENDBRANCH   4   5
ENDBRANCH   3   4
ENDBRANCH   2   3
ENDBRANCH   1   2
BRANCH   1  10
ATOM     10  C   UNL     1       3.518   6.772  27.582  1.00  0.00     0.000 C 
BRANCH  10  11
ATOM     11  C   UNL     1       4.025   6.320  26.198  1.00  0.00    -0.000 C 
BRANCH  11  12
ATOM     12  C   UNL     1       3.517   4.939  25.733  1.00  0.00    -0.000 C 
BRANCH  12  13
ATOM     13  C   UNL     1       3.697   3.806  26.758  1.00  0.00    -0.000 C 
BRANCH  13  14
ATOM     14  C   UNL     1       2.358   3.234  27.253  1.00  0.00    -0.000 C 
BRANCH  14  15
ATOM     15  C   UNL     1       1.149   3.985  26.676  1.00  0.00    -0.003 C 
ATOM     16  C   UNL     1       0.327   4.694  27.752  1.00  0.00     0.004 C 
ENDBRANCH  14  15
ENDBRANCH  13  14
ENDBRANCH  12  13
ENDBRANCH  11  12
ENDBRANCH  10  11
ENDBRANCH   1  10
TORSDOF 12
ENDMDL
MODEL 8
REMARK VINA RESULT:    -4.118      8.145     10.828
REMARK INTER + INTRA:          -8.637
REMARK INTER:                  -6.569
REMARK INTRA:                  -2.068
REMARK UNBOUND:                -1.630
REMARK SMILES CCCCCCCCCCCCCC(=O)[O-]
REMARK SMILES IDX 8 1 9 2 10 3 11 4 12 5 13 6 14 7 15 8 16 9 7 10 6 11 5 12
REMARK SMILES IDX 4 13 3 14 2 15 1 16
REMARK H PARENT
REMARK Flexibility Score: inf
ROOT
ATOM      1  C   UNL     1      -5.542   5.143  20.037  1.00  0.00     0.000 C 
ENDROOT
BRANCH   1   2
ATOM      2  C   UNL     1      -6.386   3.981  20.578  1.00  0.00     0.000 C 
BRANCH   2   3
ATOM      3  C   UNL     1      -6.794   4.231  22.038  1.00  0.00     0.000 C 
BRANCH   3   4
ATOM      4  C   UNL     1      -6.265   3.150  22.993  1.00  0.00     0.000 C 
BRANCH   4   5
ATOM      5  C   UNL     1      -4.729   3.054  22.987  1.00  0.00     0.006 C 
BRANCH   5   6
ATOM      6  C   UNL     1      -4.176   2.542  24.324  1.00  0.00     0.053 C 
BRANCH   6   7
ATOM      7  C   UNL     1      -3.619   3.656  25.155  1.00  0.00     0.041 C 
ATOM      8  O   UNL     1      -2.379   3.869  25.183  1.00  0.00    -0.550 OA
ATOM      9  O   UNL     1      -4.469   4.440  25.925  1.00  0.00    -0.550 OA
ENDBRANCH   6   7
ENDBRANCH   5   6
ENDBRANCH   4   5
ENDBRANCH   3   4
ENDBRANCH   2   3
ENDBRANCH   1   2
BRANCH   1  10
ATOM     10  C   UNL     1      -4.052   4.785  19.893  1.00  0.00     0.000 C 
BRANCH  10  11
ATOM     11  C   UNL     1      -3.094   5.629  20.758  1.00  0.00    -0.000 C 
BRANCH  11  12
ATOM     12  C   UNL     1      -3.752   6.800  21.515  1.00  0.00    -0.000 C 
BRANCH  12  13
ATOM     13  C   UNL     1      -3.853   6.610  23.039  1.00  0.00    -0.000 C 
BRANCH  13  14
ATOM     14  C   UNL     1      -5.208   7.062  23.607  1.00  0.00    -0.000 C 
BRANCH  14  15
ATOM     15  C   UNL     1      -5.988   7.953  22.627  1.00  0.00    -0.003 C 
ATOM     16  C   UNL     1      -7.502   7.788  22.758  1.00  0.00     0.004 C 
ENDBRANCH  14  15
ENDBRANCH  13  14
ENDBRANCH  12  13
ENDBRANCH  11  12
ENDBRANCH  10  11
ENDBRANCH   1  10
TORSDOF 12
ENDMDL
MODEL 9
REMARK VINA RESULT:    -4.078      1.596      3.076
REMARK INTER + INTRA:          -8.569
REMARK INTER:                  -6.370
REMARK INTRA:                  -2.198
REMARK UNBOUND:                -1.630
REMARK SMILES CCCCCCCCCCCCCC(=O)[O-]
REMARK SMILES IDX 8 1 9 2 10 3 11 4 12 5 13 6 14 7 15 8 16 9 7 10 6 11 5 12
REMARK SMILES IDX 4 13 3 14 2 15 1 16
REMARK H PARENT
REMARK Flexibility Score: inf
ROOT
ATOM      1  C   UNL     1       4.607   4.971  29.462  1.00  0.00     0.000 C 
ENDROOT
BRANCH   1   2
ATOM      2  C   UNL     1       4.030   3.953  28.468  1.00  0.00     0.000 C 
BRANCH   2   3
ATOM      3  C   UNL     1       3.870   4.578  27.074  1.00  0.00     0.000 C 
BRANCH   3   4
ATOM      4  C   UNL     1       2.456   4.392  26.501  1.00  0.00     0.000 C 
BRANCH   4   5
ATOM      5  C   UNL     1       1.584   3.464  27.365  1.00  0.00     0.006 C 
BRANCH   5   6
ATOM      6  C   UNL     1       0.218   4.085  27.684  1.00  0.00     0.053 C 
BRANCH   6   7
ATOM      7  C   UNL     1      -0.586   4.320  26.442  1.00  0.00     0.041 C 
ATOM      8  O   UNL     1      -0.963   3.348  25.737  1.00  0.00    -0.550 OA
ATOM      9  O   UNL     1      -0.892   5.616  26.047  1.00  0.00    -0.550 OA
ENDBRANCH   6   7
ENDBRANCH   5   6
ENDBRANCH   4   5
ENDBRANCH   3   4
ENDBRANCH   2   3
ENDBRANCH   1   2
BRANCH   1  10
ATOM     10  C   UNL     1       3.978   4.862  30.863  1.00  0.00     0.000 C 
BRANCH  10  11
ATOM     11  C   UNL     1       2.505   4.407  30.882  1.00  0.00    -0.000 C 
BRANCH  11  12
ATOM     12  C   UNL     1       1.532   5.364  31.602  1.00  0.00    -0.000 C 
BRANCH  12  13
ATOM     13  C   UNL     1       0.624   6.185  30.669  1.00  0.00    -0.000 C 
BRANCH  13  14
ATOM     14  C   UNL     1       1.316   7.446  30.124  1.00  0.00    -0.000 C 
BRANCH  14  15
ATOM     15  C   UNL     1       1.626   7.344  28.623  1.00  0.00    -0.003 C 
ATOM     16  C   UNL     1       2.929   8.047  28.241  1.00  0.00     0.004 C 
ENDBRANCH  14  15
ENDBRANCH  13  14
ENDBRANCH  12  13
ENDBRANCH  11  12
ENDBRANCH  10  11
ENDBRANCH   1  10
TORSDOF 12
ENDMDL
