MODEL 1
REMARK VINA RESULT:    -4.646      0.000      0.000
REMARK INTER + INTRA:         -10.518
REMARK INTER:                  -8.720
REMARK INTRA:                  -1.798
REMARK UNBOUND:                -1.798
REMARK SMILES CCCCCCCCC=CCCCCCCCC(=O)[O-]
REMARK SMILES IDX 10 1 9 2 11 3 12 4 13 5 14 6 15 7 16 8 17 9 18 10 19 11
REMARK SMILES IDX 20 12 8 13 7 14 6 15 5 16 4 17 3 18 2 19 1 20
REMARK H PARENT
REMARK Flexibility Score: inf
ROOT
ATOM      1  C   UNL     1       6.286   2.414  -4.630  1.00  0.00    -0.031 C 
ATOM      2  C   UNL     1       5.613   2.622  -5.778  1.00  0.00    -0.031 C 
ENDROOT
BRANCH   1   3
ATOM      3  C   UNL     1       7.673   2.927  -4.329  1.00  0.00     0.027 C 
BRANCH   3   4
ATOM      4  C   UNL     1       8.553   1.792  -3.787  1.00  0.00     0.004 C 
BRANCH   4   5
ATOM      5  C   UNL     1       7.732   0.637  -3.186  1.00  0.00     0.000 C 
BRANCH   5   6
ATOM      6  C   UNL     1       8.567  -0.504  -2.572  1.00  0.00     0.000 C 
BRANCH   6   7
ATOM      7  C   UNL     1       8.234  -0.838  -1.106  1.00  0.00     0.000 C 
BRANCH   7   8
ATOM      8  C   UNL     1       9.319  -1.691  -0.428  1.00  0.00     0.006 C 
BRANCH   8   9
ATOM      9  C   UNL     1       9.193  -3.177  -0.784  1.00  0.00     0.053 C 
BRANCH   9  10
ATOM     10  C   UNL     1       8.172  -3.865   0.070  1.00  0.00     0.041 C 
ATOM     11  O   UNL     1       8.257  -3.814   1.326  1.00  0.00    -0.550 OA
ATOM     12  O   UNL     1       7.110  -4.536  -0.521  1.00  0.00    -0.550 OA
ENDBRANCH   9  10
ENDBRANCH   8   9
ENDBRANCH   7   8
ENDBRANCH   6   7
ENDBRANCH   5   6
ENDBRANCH   4   5
ENDBRANCH   3   4
ENDBRANCH   1   3
BRANCH   2  13
ATOM     13  C   UNL     1       6.124   3.425  -6.948  1.00  0.00     0.027 C 
BRANCH  13  14
ATOM     14  C   UNL     1       5.030   4.342  -7.516  1.00  0.00     0.004 C 
BRANCH  14  15
ATOM     15  C   UNL     1       4.152   4.959  -6.417  1.00  0.00     0.000 C 
BRANCH  15  16
ATOM     16  C   UNL     1       4.010   6.485  -6.567  1.00  0.00     0.000 C 
BRANCH  16  17
ATOM     17  C   UNL     1       4.748   7.258  -5.462  1.00  0.00    -0.000 C 
BRANCH  17  18
ATOM     18  C   UNL     1       5.500   6.332  -4.495  1.00  0.00    -0.000 C 
BRANCH  18  19
ATOM     19  C   UNL     1       6.964   6.765  -4.349  1.00  0.00    -0.003 C 
ATOM     20  C   UNL     1       7.745   6.511  -5.636  1.00  0.00     0.004 C 
ENDBRANCH  18  19
ENDBRANCH  17  18
ENDBRANCH  16  17
ENDBRANCH  15  16
ENDBRANCH  14  15
ENDBRANCH  13  14
ENDBRANCH   2  13
TORSDOF 15
ENDMDL
MODEL 2
REMARK VINA RESULT:    -4.522      0.710      1.424
REMARK INTER + INTRA:         -10.286
REMARK INTER:                  -8.702
REMARK INTRA:                  -1.583
REMARK UNBOUND:                -1.798
REMARK SMILES CCCCCCCCC=CCCCCCCCC(=O)[O-]
REMARK SMILES IDX 10 1 9 2 11 3 12 4 13 5 14 6 15 7 16 8 17 9 18 10 19 11
REMARK SMILES IDX 20 12 8 13 7 14 6 15 5 16 4 17 3 18 2 19 1 20
REMARK H PARENT
REMARK Flexibility Score: inf
ROOT
ATOM      1  C   UNL     1       6.016   1.824  -6.035  1.00  0.00    -0.031 C 
ATOM      2  C   UNL     1       5.955   2.458  -7.222  1.00  0.00    -0.031 C 
ENDROOT
BRANCH   1   3
ATOM      3  C   UNL     1       6.180   2.498  -4.695  1.00  0.00     0.027 C 
BRANCH   3   4
ATOM      4  C   UNL     1       7.643   2.911  -4.485  1.00  0.00     0.004 C 
BRANCH   4   5
ATOM      5  C   UNL     1       8.487   1.802  -3.830  1.00  0.00     0.000 C 
BRANCH   5   6
ATOM      6  C   UNL     1       7.677   0.703  -3.116  1.00  0.00     0.000 C 
BRANCH   6   7
ATOM      7  C   UNL     1       8.502  -0.503  -2.632  1.00  0.00     0.000 C 
BRANCH   7   8
ATOM      8  C   UNL     1       8.247  -0.847  -1.155  1.00  0.00     0.006 C 
BRANCH   8   9
ATOM      9  C   UNL     1       9.352  -1.734  -0.569  1.00  0.00     0.053 C 
BRANCH   9  10
ATOM     10  C   UNL     1       8.793  -2.984   0.039  1.00  0.00     0.041 C 
ATOM     11  O   UNL     1       7.741  -3.499  -0.424  1.00  0.00    -0.550 OA
ATOM     12  O   UNL     1       9.450  -3.597   1.097  1.00  0.00    -0.550 OA
ENDBRANCH   9  10
ENDBRANCH   8   9
ENDBRANCH   7   8
ENDBRANCH   6   7
ENDBRANCH   5   6
ENDBRANCH   4   5
ENDBRANCH   3   4
ENDBRANCH   1   3
BRANCH   2  13
ATOM     13  C   UNL     1       6.020   3.954  -7.409  1.00  0.00     0.027 C 
BRANCH  13  14
ATOM     14  C   UNL     1       4.613   4.565  -7.506  1.00  0.00     0.004 C 
BRANCH  14  15
ATOM     15  C   UNL     1       4.110   5.096  -6.156  1.00  0.00     0.000 C 
BRANCH  15  16
ATOM     16  C   UNL     1       4.000   6.632  -6.133  1.00  0.00     0.000 C 
BRANCH  16  17
ATOM     17  C   UNL     1       4.853   7.268  -5.024  1.00  0.00    -0.000 C 
BRANCH  17  18
ATOM     18  C   UNL     1       5.905   6.301  -4.460  1.00  0.00    -0.000 C 
BRANCH  18  19
ATOM     19  C   UNL     1       7.304   6.649  -4.981  1.00  0.00    -0.003 C 
ATOM     20  C   UNL     1       8.363   6.436  -3.903  1.00  0.00     0.004 C 
ENDBRANCH  18  19
ENDBRANCH  17  18
ENDBRANCH  16  17
ENDBRANCH  15  16
ENDBRANCH  14  15
ENDBRANCH  13  14
ENDBRANCH   2  13
TORSDOF 15
ENDMDL
MODEL 3
REMARK VINA RESULT:    -4.489      1.178      2.613
REMARK INTER + INTRA:         -10.223
REMARK INTER:                  -8.029
REMARK INTRA:                  -2.194
REMARK UNBOUND:                -1.798
REMARK SMILES CCCCCCCCC=CCCCCCCCC(=O)[O-]
REMARK SMILES IDX 10 1 9 2 11 3 12 4 13 5 14 6 15 7 16 8 17 9 18 10 19 11
REMARK SMILES IDX 20 12 8 13 7 14 6 15 5 16 4 17 3 18 2 19 1 20
REMARK H PARENT
REMARK Flexibility Score: inf
ROOT
ATOM      1  C   UNL     1       4.785   3.448  -6.444  1.00  0.00    -0.031 C 
ATOM      2  C   UNL     1       4.447   4.212  -7.501  1.00  0.00    -0.031 C 
ENDROOT
BRANCH   1   3
ATOM      3  C   UNL     1       6.170   2.921  -6.158  1.00  0.00     0.027 C 
BRANCH   3   4
ATOM      4  C   UNL     1       6.344   2.672  -4.654  1.00  0.00     0.004 C 
BRANCH   4   5
ATOM      5  C   UNL     1       7.790   2.894  -4.176  1.00  0.00     0.000 C 
BRANCH   5   6
ATOM      6  C   UNL     1       8.547   1.612  -3.775  1.00  0.00     0.000 C 
BRANCH   6   7
ATOM      7  C   UNL     1       7.695   0.554  -3.049  1.00  0.00     0.000 C 
BRANCH   7   8
ATOM      8  C   UNL     1       8.521  -0.653  -2.573  1.00  0.00     0.006 C 
BRANCH   8   9
ATOM      9  C   UNL     1       8.441  -0.845  -1.053  1.00  0.00     0.053 C 
BRANCH   9  10
ATOM     10  C   UNL     1       8.590  -2.285  -0.670  1.00  0.00     0.041 C 
ATOM     11  O   UNL     1       9.229  -3.077  -1.412  1.00  0.00    -0.550 OA
ATOM     12  O   UNL     1       8.048  -2.747   0.522  1.00  0.00    -0.550 OA
ENDBRANCH   9  10
ENDBRANCH   8   9
ENDBRANCH   7   8
ENDBRANCH   6   7
ENDBRANCH   5   6
ENDBRANCH   4   5
ENDBRANCH   3   4
ENDBRANCH   1   3
BRANCH   2  13
ATOM     13  C   UNL     1       5.402   4.689  -8.566  1.00  0.00     0.027 C 
BRANCH  13  14
ATOM     14  C   UNL     1       5.814   6.150  -8.332  1.00  0.00     0.004 C 
BRANCH  14  15
ATOM     15  C   UNL     1       7.247   6.277  -7.792  1.00  0.00     0.000 C 
BRANCH  15  16
ATOM     16  C   UNL     1       7.340   7.237  -6.592  1.00  0.00     0.000 C 
BRANCH  16  17
ATOM     17  C   UNL     1       7.368   6.497  -5.245  1.00  0.00    -0.000 C 
BRANCH  17  18
ATOM     18  C   UNL     1       5.978   6.392  -4.600  1.00  0.00    -0.000 C 
BRANCH  18  19
ATOM     19  C   UNL     1       5.104   7.591  -4.982  1.00  0.00    -0.003 C 
ATOM     20  C   UNL     1       3.697   7.146  -5.373  1.00  0.00     0.004 C 
ENDBRANCH  18  19
ENDBRANCH  17  18
ENDBRANCH  16  17
ENDBRANCH  15  16
ENDBRANCH  14  15
ENDBRANCH  13  14
ENDBRANCH   2  13
TORSDOF 15
ENDMDL
MODEL 4
REMARK VINA RESULT:    -4.422     13.083     15.034
REMARK INTER + INTRA:         -10.097
REMARK INTER:                  -7.745
REMARK INTRA:                  -2.352
REMARK UNBOUND:                -1.798
REMARK SMILES CCCCCCCCC=CCCCCCCCC(=O)[O-]
REMARK SMILES IDX 10 1 9 2 11 3 12 4 13 5 14 6 15 7 16 8 17 9 18 10 19 11
REMARK SMILES IDX 20 12 8 13 7 14 6 15 5 16 4 17 3 18 2 19 1 20
REMARK H PARENT
REMARK Flexibility Score: inf
ROOT
ATOM      1  C   UNL     1      -7.855   5.148  -2.052  1.00  0.00    -0.031 C 
ATOM      2  C   UNL     1      -6.695   5.057  -2.730  1.00  0.00    -0.031 C 
ENDROOT
BRANCH   1   3
ATOM      3  C   UNL     1      -9.151   5.682  -2.610  1.00  0.00     0.027 C 
BRANCH   3   4
ATOM      4  C   UNL     1      -9.999   4.534  -3.174  1.00  0.00     0.004 C 
BRANCH   4   5
ATOM      5  C   UNL     1      -9.996   4.491  -4.713  1.00  0.00     0.000 C 
BRANCH   5   6
ATOM      6  C   UNL     1      -9.714   3.105  -5.325  1.00  0.00     0.000 C 
BRANCH   6   7
ATOM      7  C   UNL     1      -9.275   2.026  -4.318  1.00  0.00     0.000 C 
BRANCH   7   8
ATOM      8  C   UNL     1      -7.747   1.866  -4.242  1.00  0.00     0.006 C 
BRANCH   8   9
ATOM      9  C   UNL     1      -7.067   2.171  -5.582  1.00  0.00     0.053 C 
BRANCH   9  10
ATOM     10  C   UNL     1      -5.588   1.942  -5.515  1.00  0.00     0.041 C 
ATOM     11  O   UNL     1      -5.118   1.044  -4.767  1.00  0.00    -0.550 OA
ATOM     12  O   UNL     1      -4.730   2.700  -6.301  1.00  0.00    -0.550 OA
ENDBRANCH   9  10
ENDBRANCH   8   9
ENDBRANCH   7   8
ENDBRANCH   6   7
ENDBRANCH   5   6
ENDBRANCH   4   5
ENDBRANCH   3   4
ENDBRANCH   1   3
BRANCH   2  13
ATOM     13  C   UNL     1      -6.502   5.453  -4.173  1.00  0.00     0.027 C 
BRANCH  13  14
ATOM     14  C   UNL     1      -6.340   6.974  -4.317  1.00  0.00     0.004 C 
BRANCH  14  15
ATOM     15  C   UNL     1      -4.872   7.419  -4.230  1.00  0.00     0.000 C 
BRANCH  15  16
ATOM     16  C   UNL     1      -4.555   8.141  -2.908  1.00  0.00     0.000 C 
BRANCH  16  17
ATOM     17  C   UNL     1      -5.819   8.631  -2.185  1.00  0.00    -0.000 C 
BRANCH  17  18
ATOM     18  C   UNL     1      -5.848   8.229  -0.704  1.00  0.00    -0.000 C 
BRANCH  18  19
ATOM     19  C   UNL     1      -4.525   8.583  -0.014  1.00  0.00    -0.003 C 
ATOM     20  C   UNL     1      -4.534   8.151   1.450  1.00  0.00     0.004 C 
ENDBRANCH  18  19
ENDBRANCH  17  18
ENDBRANCH  16  17
ENDBRANCH  15  16
ENDBRANCH  14  15
ENDBRANCH  13  14
ENDBRANCH   2  13
TORSDOF 15
ENDMDL
MODEL 5
REMARK VINA RESULT:    -4.414     13.432     16.227
REMARK INTER + INTRA:         -10.083
REMARK INTER:                  -7.269
REMARK INTRA:                  -2.814
REMARK UNBOUND:                -1.798
REMARK SMILES CCCCCCCCC=CCCCCCCCC(=O)[O-]
REMARK SMILES IDX 10 1 9 2 11 3 12 4 13 5 14 6 15 7 16 8 17 9 18 10 19 11
REMARK SMILES IDX 20 12 8 13 7 14 6 15 5 16 4 17 3 18 2 19 1 20
REMARK H PARENT
REMARK Flexibility Score: inf
ROOT
ATOM      1  C   UNL     1      -8.132   4.998  -1.965  1.00  0.00    -0.031 C 
ATOM      2  C   UNL     1      -7.032   4.768  -2.708  1.00  0.00    -0.031 C 
ENDROOT
BRANCH   1   3
ATOM      3  C   UNL     1      -9.322   5.819  -2.402  1.00  0.00     0.027 C 
BRANCH   3   4
ATOM      4  C   UNL     1      -9.571   6.961  -1.409  1.00  0.00     0.004 C 
BRANCH   4   5
ATOM      5  C   UNL     1      -8.934   6.703  -0.031  1.00  0.00     0.000 C 
BRANCH   5   6
ATOM      6  C   UNL     1      -8.261   7.930   0.615  1.00  0.00     0.000 C 
BRANCH   6   7
ATOM      7  C   UNL     1      -7.320   8.720  -0.313  1.00  0.00     0.000 C 
BRANCH   7   8
ATOM      8  C   UNL     1      -6.097   7.901  -0.759  1.00  0.00     0.006 C 
BRANCH   8   9
ATOM      9  C   UNL     1      -5.673   8.231  -2.196  1.00  0.00     0.053 C 
BRANCH   9  10
ATOM     10  C   UNL     1      -4.271   8.757  -2.251  1.00  0.00     0.041 C 
ATOM     11  O   UNL     1      -3.357   8.074  -2.783  1.00  0.00    -0.550 OA
ATOM     12  O   UNL     1      -3.981  10.016  -1.741  1.00  0.00    -0.550 OA
ENDBRANCH   9  10
ENDBRANCH   8   9
ENDBRANCH   7   8
ENDBRANCH   6   7
ENDBRANCH   5   6
ENDBRANCH   4   5
ENDBRANCH   3   4
ENDBRANCH   1   3
BRANCH   2  13
ATOM     13  C   UNL     1      -6.813   5.274  -4.111  1.00  0.00     0.027 C 
BRANCH  13  14
ATOM     14  C   UNL     1      -5.808   4.395  -4.871  1.00  0.00     0.004 C 
BRANCH  14  15
ATOM     15  C   UNL     1      -5.716   2.974  -4.294  1.00  0.00     0.000 C 
BRANCH  15  16
ATOM     16  C   UNL     1      -6.181   1.903  -5.297  1.00  0.00     0.000 C 
BRANCH  16  17
ATOM     17  C   UNL     1      -7.712   1.816  -5.401  1.00  0.00    -0.000 C 
BRANCH  17  18
ATOM     18  C   UNL     1      -8.394   1.735  -4.027  1.00  0.00    -0.000 C 
BRANCH  18  19
ATOM     19  C   UNL     1      -9.766   2.418  -4.055  1.00  0.00    -0.003 C 
ATOM     20  C   UNL     1      -9.873   3.393  -5.225  1.00  0.00     0.004 C 
ENDBRANCH  18  19
ENDBRANCH  17  18
ENDBRANCH  16  17
ENDBRANCH  15  16
ENDBRANCH  14  15
ENDBRANCH  13  14
ENDBRANCH   2  13
TORSDOF 15
ENDMDL
MODEL 6
REMARK VINA RESULT:    -4.336     13.435     15.411
REMARK INTER + INTRA:          -9.936
REMARK INTER:                  -7.827
REMARK INTRA:                  -2.109
REMARK UNBOUND:                -1.798
REMARK SMILES CCCCCCCCC=CCCCCCCCC(=O)[O-]
REMARK SMILES IDX 10 1 9 2 11 3 12 4 13 5 14 6 15 7 16 8 17 9 18 10 19 11
REMARK SMILES IDX 20 12 8 13 7 14 6 15 5 16 4 17 3 18 2 19 1 20
REMARK H PARENT
REMARK Flexibility Score: inf
ROOT
ATOM      1  C   UNL     1      -5.625   3.756  -4.196  1.00  0.00    -0.031 C 
ATOM      2  C   UNL     1      -6.234   2.597  -4.514  1.00  0.00    -0.031 C 
ENDROOT
BRANCH   1   3
ATOM      3  C   UNL     1      -5.616   4.999  -5.052  1.00  0.00     0.027 C 
BRANCH   3   4
ATOM      4  C   UNL     1      -5.962   6.230  -4.204  1.00  0.00     0.004 C 
BRANCH   4   5
ATOM      5  C   UNL     1      -4.924   7.359  -4.340  1.00  0.00     0.000 C 
BRANCH   5   6
ATOM      6  C   UNL     1      -4.568   8.078  -3.024  1.00  0.00     0.000 C 
BRANCH   6   7
ATOM      7  C   UNL     1      -5.775   8.534  -2.185  1.00  0.00     0.000 C 
BRANCH   7   8
ATOM      8  C   UNL     1      -5.764   7.956  -0.759  1.00  0.00     0.006 C 
BRANCH   8   9
ATOM      9  C   UNL     1      -4.608   8.513   0.081  1.00  0.00     0.053 C 
BRANCH   9  10
ATOM     10  C   UNL     1      -4.804   8.238   1.540  1.00  0.00     0.041 C 
ATOM     11  O   UNL     1      -5.966   8.143   2.018  1.00  0.00    -0.550 OA
ATOM     12  O   UNL     1      -3.704   8.055   2.367  1.00  0.00    -0.550 OA
ENDBRANCH   9  10
ENDBRANCH   8   9
ENDBRANCH   7   8
ENDBRANCH   6   7
ENDBRANCH   5   6
ENDBRANCH   4   5
ENDBRANCH   3   4
ENDBRANCH   1   3
BRANCH   2  13
ATOM     13  C   UNL     1      -7.030   2.355  -5.772  1.00  0.00     0.027 C 
BRANCH  13  14
ATOM     14  C   UNL     1      -8.396   1.728  -5.455  1.00  0.00     0.004 C 
BRANCH  14  15
ATOM     15  C   UNL     1      -9.174   2.519  -4.393  1.00  0.00     0.000 C 
BRANCH  15  16
ATOM     16  C   UNL     1      -9.498   3.953  -4.850  1.00  0.00     0.000 C 
BRANCH  16  17
ATOM     17  C   UNL     1      -9.489   4.959  -3.688  1.00  0.00    -0.000 C 
BRANCH  17  18
ATOM     18  C   UNL     1      -8.862   4.382  -2.411  1.00  0.00    -0.000 C 
BRANCH  18  19
ATOM     19  C   UNL     1      -8.152   5.476  -1.606  1.00  0.00    -0.003 C 
ATOM     20  C   UNL     1      -9.127   6.203  -0.684  1.00  0.00     0.004 C 
ENDBRANCH  18  19
ENDBRANCH  17  18
ENDBRANCH  16  17
ENDBRANCH  15  16
ENDBRANCH  14  15
ENDBRANCH  13  14
ENDBRANCH   2  13
TORSDOF 15
ENDMDL
MODEL 7
REMARK VINA RESULT:    -4.307     13.045     15.082
REMARK INTER + INTRA:          -9.883
REMARK INTER:                  -7.134
REMARK INTRA:                  -2.748
REMARK UNBOUND:                -1.798
REMARK SMILES CCCCCCCCC=CCCCCCCCC(=O)[O-]
REMARK SMILES IDX 10 1 9 2 11 3 12 4 13 5 14 6 15 7 16 8 17 9 18 10 19 11
REMARK SMILES IDX 20 12 8 13 7 14 6 15 5 16 4 17 3 18 2 19 1 20
REMARK H PARENT
REMARK Flexibility Score: inf
ROOT
ATOM      1  C   UNL     1      -7.086   5.447  -3.410  1.00  0.00    -0.031 C 
ATOM      2  C   UNL     1      -6.128   6.257  -3.900  1.00  0.00    -0.031 C 
ENDROOT
BRANCH   1   3
ATOM      3  C   UNL     1      -8.570   5.716  -3.473  1.00  0.00     0.027 C 
BRANCH   3   4
ATOM      4  C   UNL     1      -9.355   4.452  -3.100  1.00  0.00     0.004 C 
BRANCH   4   5
ATOM      5  C   UNL     1     -10.008   3.775  -4.319  1.00  0.00     0.000 C 
BRANCH   5   6
ATOM      6  C   UNL     1      -9.373   2.434  -4.736  1.00  0.00     0.000 C 
BRANCH   6   7
ATOM      7  C   UNL     1      -8.268   1.917  -3.797  1.00  0.00     0.000 C 
BRANCH   7   8
ATOM      8  C   UNL     1      -6.920   1.724  -4.511  1.00  0.00     0.006 C 
BRANCH   8   9
ATOM      9  C   UNL     1      -6.779   2.634  -5.737  1.00  0.00     0.053 C 
BRANCH   9  10
ATOM     10  C   UNL     1      -5.360   3.070  -5.941  1.00  0.00     0.041 C 
ATOM     11  O   UNL     1      -4.435   2.560  -5.255  1.00  0.00    -0.550 OA
ATOM     12  O   UNL     1      -5.056   4.016  -6.911  1.00  0.00    -0.550 OA
ENDBRANCH   9  10
ENDBRANCH   8   9
ENDBRANCH   7   8
ENDBRANCH   6   7
ENDBRANCH   5   6
ENDBRANCH   4   5
ENDBRANCH   3   4
ENDBRANCH   1   3
BRANCH   2  13
ATOM     13  C   UNL     1      -6.378   7.561  -4.616  1.00  0.00     0.027 C 
BRANCH  13  14
ATOM     14  C   UNL     1      -5.479   8.679  -4.069  1.00  0.00     0.004 C 
BRANCH  14  15
ATOM     15  C   UNL     1      -4.254   8.134  -3.319  1.00  0.00     0.000 C 
BRANCH  15  16
ATOM     16  C   UNL     1      -4.085   8.774  -1.929  1.00  0.00     0.000 C 
BRANCH  16  17
ATOM     17  C   UNL     1      -5.428   9.007  -1.219  1.00  0.00    -0.000 C 
BRANCH  17  18
ATOM     18  C   UNL     1      -5.955   7.745  -0.520  1.00  0.00    -0.000 C 
BRANCH  18  19
ATOM     19  C   UNL     1      -7.473   7.820  -0.324  1.00  0.00    -0.003 C 
ATOM     20  C   UNL     1      -8.128   8.672  -1.408  1.00  0.00     0.004 C 
ENDBRANCH  18  19
ENDBRANCH  17  18
ENDBRANCH  16  17
ENDBRANCH  15  16
ENDBRANCH  14  15
ENDBRANCH  13  14
ENDBRANCH   2  13
TORSDOF 15
ENDMDL
MODEL 8
REMARK VINA RESULT:    -4.306     13.204     15.549
REMARK INTER + INTRA:          -9.880
REMARK INTER:                  -7.192
REMARK INTRA:                  -2.688
REMARK UNBOUND:                -1.798
REMARK SMILES CCCCCCCCC=CCCCCCCCC(=O)[O-]
REMARK SMILES IDX 10 1 9 2 11 3 12 4 13 5 14 6 15 7 16 8 17 9 18 10 19 11
REMARK SMILES IDX 20 12 8 13 7 14 6 15 5 16 4 17 3 18 2 19 1 20
REMARK H PARENT
REMARK Flexibility Score: inf
ROOT
ATOM      1  C   UNL     1      -6.718   5.641  -3.882  1.00  0.00    -0.031 C 
ATOM      2  C   UNL     1      -6.065   6.746  -4.292  1.00  0.00    -0.031 C 
ENDROOT
BRANCH   1   3
ATOM      3  C   UNL     1      -7.016   5.289  -2.445  1.00  0.00     0.027 C 
BRANCH   3   4
ATOM      4  C   UNL     1      -8.452   4.766  -2.313  1.00  0.00     0.004 C 
BRANCH   4   5
ATOM      5  C   UNL     1      -9.116   4.500  -3.676  1.00  0.00     0.000 C 
BRANCH   5   6
ATOM      6  C   UNL     1      -9.547   3.039  -3.916  1.00  0.00     0.000 C 
BRANCH   6   7
ATOM      7  C   UNL     1      -8.392   2.025  -3.999  1.00  0.00     0.000 C 
BRANCH   7   8
ATOM      8  C   UNL     1      -7.946   1.745  -5.444  1.00  0.00     0.006 C 
BRANCH   8   9
ATOM      9  C   UNL     1      -6.622   2.440  -5.785  1.00  0.00     0.053 C 
BRANCH   9  10
ATOM     10  C   UNL     1      -5.525   2.026  -4.852  1.00  0.00     0.041 C 
ATOM     11  O   UNL     1      -4.953   2.882  -4.126  1.00  0.00    -0.550 OA
ATOM     12  O   UNL     1      -5.157   0.690  -4.762  1.00  0.00    -0.550 OA
ENDBRANCH   9  10
ENDBRANCH   8   9
ENDBRANCH   7   8
ENDBRANCH   6   7
ENDBRANCH   5   6
ENDBRANCH   4   5
ENDBRANCH   3   4
ENDBRANCH   1   3
BRANCH   2  13
ATOM     13  C   UNL     1      -5.540   7.829  -3.383  1.00  0.00     0.027 C 
BRANCH  13  14
ATOM     14  C   UNL     1      -6.585   8.936  -3.174  1.00  0.00     0.004 C 
BRANCH  14  15
ATOM     15  C   UNL     1      -7.742   8.850  -4.181  1.00  0.00     0.000 C 
BRANCH  15  16
ATOM     16  C   UNL     1      -9.097   8.588  -3.498  1.00  0.00     0.000 C 
BRANCH  16  17
ATOM     17  C   UNL     1      -9.044   8.813  -1.978  1.00  0.00    -0.000 C 
BRANCH  17  18
ATOM     18  C   UNL     1      -9.924   7.821  -1.203  1.00  0.00    -0.000 C 
BRANCH  18  19
ATOM     19  C   UNL     1      -9.290   7.463   0.146  1.00  0.00    -0.003 C 
ATOM     20  C   UNL     1      -7.793   7.765   0.149  1.00  0.00     0.004 C 
ENDBRANCH  18  19
ENDBRANCH  17  18
ENDBRANCH  16  17
ENDBRANCH  15  16
ENDBRANCH  14  15
ENDBRANCH  13  14
ENDBRANCH   2  13
TORSDOF 15
ENDMDL
MODEL 9
REMARK VINA RESULT:    -4.301     13.034     15.551
REMARK INTER + INTRA:          -9.870
REMARK INTER:                  -7.672
REMARK INTRA:                  -2.198
REMARK UNBOUND:                -1.798
REMARK SMILES CCCCCCCCC=CCCCCCCCC(=O)[O-]
REMARK SMILES IDX 10 1 9 2 11 3 12 4 13 5 14 6 15 7 16 8 17 9 18 10 19 11
REMARK SMILES IDX 20 12 8 13 7 14 6 15 5 16 4 17 3 18 2 19 1 20
REMARK H PARENT
REMARK Flexibility Score: inf
ROOT
ATOM      1  C   UNL     1      -5.089   2.544  -5.717  1.00  0.00    -0.031 C 
ATOM      2  C   UNL     1      -5.979   1.633  -5.277  1.00  0.00    -0.031 C 
ENDROOT
BRANCH   1   3
ATOM      3  C   UNL     1      -5.438   3.847  -6.394  1.00  0.00     0.027 C 
BRANCH   3   4
ATOM      4  C   UNL     1      -5.248   5.018  -5.422  1.00  0.00     0.004 C 
BRANCH   4   5
ATOM      5  C   UNL     1      -6.319   5.054  -4.316  1.00  0.00     0.000 C 
BRANCH   5   6
ATOM      6  C   UNL     1      -6.264   6.290  -3.396  1.00  0.00     0.000 C 
BRANCH   6   7
ATOM      7  C   UNL     1      -6.732   7.605  -4.045  1.00  0.00     0.000 C 
BRANCH   7   8
ATOM      8  C   UNL     1      -5.636   8.683  -4.066  1.00  0.00     0.006 C 
BRANCH   8   9
ATOM      9  C   UNL     1      -4.259   8.115  -3.701  1.00  0.00     0.053 C 
BRANCH   9  10
ATOM     10  C   UNL     1      -3.765   8.660  -2.396  1.00  0.00     0.041 C 
ATOM     11  O   UNL     1      -4.101   8.113  -1.312  1.00  0.00    -0.550 OA
ATOM     12  O   UNL     1      -2.909   9.754  -2.378  1.00  0.00    -0.550 OA
ENDBRANCH   9  10
ENDBRANCH   8   9
ENDBRANCH   7   8
ENDBRANCH   6   7
ENDBRANCH   5   6
ENDBRANCH   4   5
ENDBRANCH   3   4
ENDBRANCH   1   3
BRANCH   2  13
ATOM     13  C   UNL     1      -7.478   1.774  -5.368  1.00  0.00     0.027 C 
BRANCH  13  14
ATOM     14  C   UNL     1      -8.117   1.857  -3.974  1.00  0.00     0.004 C 
BRANCH  14  15
ATOM     15  C   UNL     1      -9.540   2.433  -4.013  1.00  0.00     0.000 C 
BRANCH  15  16
ATOM     16  C   UNL     1      -9.671   3.610  -4.997  1.00  0.00     0.000 C 
BRANCH  16  17
ATOM     17  C   UNL     1      -9.888   4.954  -4.283  1.00  0.00    -0.000 C 
BRANCH  17  18
ATOM     18  C   UNL     1      -9.691   4.855  -2.763  1.00  0.00    -0.000 C 
BRANCH  18  19
ATOM     19  C   UNL     1      -9.731   6.243  -2.113  1.00  0.00    -0.003 C 
ATOM     20  C   UNL     1      -8.997   6.246  -0.775  1.00  0.00     0.004 C 
ENDBRANCH  18  19
ENDBRANCH  17  18
ENDBRANCH  16  17
ENDBRANCH  15  16
ENDBRANCH  14  15
ENDBRANCH  13  14
ENDBRANCH   2  13
TORSDOF 15
ENDMDL
