MODEL 1
REMARK VINA RESULT:    -4.453      0.000      0.000
REMARK INTER + INTRA:         -10.879
REMARK INTER:                  -8.618
REMARK INTRA:                  -2.261
REMARK UNBOUND:                -2.261
REMARK SMILES CCCCCCCCCCCCCCCCCC(=O)[O-]
REMARK SMILES IDX 10 1 11 2 12 3 13 4 14 5 15 6 16 7 17 8 18 9 19 10 20 11
REMARK SMILES IDX 9 12 8 13 7 14 6 15 5 16 4 17 3 18 2 19 1 20
REMARK H PARENT
REMARK Flexibility Score: inf
ROOT
ATOM      1  C   UNL     1       7.151  -5.955 -31.555  1.00  0.00     0.000 C 
ENDROOT
BRANCH   1   2
ATOM      2  C   UNL     1       8.321  -6.030 -32.549  1.00  0.00     0.000 C 
BRANCH   2   3
ATOM      3  C   UNL     1       8.249  -4.937 -33.630  1.00  0.00     0.000 C 
BRANCH   3   4
ATOM      4  C   UNL     1       7.378  -3.745 -33.205  1.00  0.00     0.000 C 
BRANCH   4   5
ATOM      5  C   UNL     1       7.135  -2.753 -34.357  1.00  0.00     0.000 C 
BRANCH   5   6
ATOM      6  C   UNL     1       7.998  -3.058 -35.592  1.00  0.00     0.000 C 
BRANCH   6   7
ATOM      7  C   UNL     1       9.047  -1.965 -35.863  1.00  0.00     0.006 C 
BRANCH   7   8
ATOM      8  C   UNL     1       9.981  -1.748 -34.664  1.00  0.00     0.053 C 
BRANCH   8   9
ATOM      9  C   UNL     1      11.423  -1.776 -35.068  1.00  0.00     0.041 C 
ATOM     10  O   UNL     1      11.740  -1.976 -36.271  1.00  0.00    -0.550 OA
ATOM     11  O   UNL     1      12.418  -1.613 -34.112  1.00  0.00    -0.550 OA
ENDBRANCH   8   9
ENDBRANCH   7   8
ENDBRANCH   6   7
ENDBRANCH   5   6
ENDBRANCH   4   5
ENDBRANCH   3   4
ENDBRANCH   2   3
ENDBRANCH   1   2
BRANCH   1  12
ATOM     12  C   UNL     1       6.183  -7.141 -31.692  1.00  0.00     0.000 C 
BRANCH  12  13
ATOM     13  C   UNL     1       5.226  -6.930 -32.876  1.00  0.00    -0.000 C 
BRANCH  13  14
ATOM     14  C   UNL     1       4.900  -8.238 -33.616  1.00  0.00    -0.000 C 
BRANCH  14  15
ATOM     15  C   UNL     1       5.126  -8.129 -35.134  1.00  0.00    -0.000 C 
BRANCH  15  16
ATOM     16  C   UNL     1       6.614  -8.014 -35.510  1.00  0.00    -0.000 C 
BRANCH  16  17
ATOM     17  C   UNL     1       6.990  -6.767 -36.337  1.00  0.00    -0.000 C 
BRANCH  17  18
ATOM     18  C   UNL     1       5.951  -6.344 -37.390  1.00  0.00    -0.000 C 
BRANCH  18  19
ATOM     19  C   UNL     1       5.487  -4.890 -37.219  1.00  0.00    -0.003 C 
ATOM     20  C   UNL     1       4.085  -4.829 -36.622  1.00  0.00     0.004 C 
ENDBRANCH  18  19
ENDBRANCH  17  18
ENDBRANCH  16  17
ENDBRANCH  15  16
ENDBRANCH  14  15
ENDBRANCH  13  14
ENDBRANCH  12  13
ENDBRANCH   1  12
TORSDOF 16
ENDMDL
MODEL 2
REMARK VINA RESULT:    -4.375      4.756      7.583
REMARK INTER + INTRA:         -10.727
REMARK INTER:                  -8.303
REMARK INTRA:                  -2.425
REMARK UNBOUND:                -2.261
REMARK SMILES CCCCCCCCCCCCCCCCCC(=O)[O-]
REMARK SMILES IDX 10 1 11 2 12 3 13 4 14 5 15 6 16 7 17 8 18 9 19 10 20 11
REMARK SMILES IDX 9 12 8 13 7 14 6 15 5 16 4 17 3 18 2 19 1 20
REMARK H PARENT
REMARK Flexibility Score: inf
ROOT
ATOM      1  C   UNL     1       5.059  -8.605 -34.587  1.00  0.00     0.000 C 
ENDROOT
BRANCH   1   2
ATOM      2  C   UNL     1       5.327  -7.348 -35.430  1.00  0.00     0.000 C 
BRANCH   2   3
ATOM      3  C   UNL     1       4.155  -7.002 -36.366  1.00  0.00     0.000 C 
BRANCH   3   4
ATOM      4  C   UNL     1       2.937  -7.912 -36.145  1.00  0.00     0.000 C 
BRANCH   4   5
ATOM      5  C   UNL     1       1.722  -7.145 -35.592  1.00  0.00     0.000 C 
BRANCH   5   6
ATOM      6  C   UNL     1       1.006  -7.905 -34.465  1.00  0.00     0.000 C 
BRANCH   6   7
ATOM      7  C   UNL     1       1.418  -9.386 -34.396  1.00  0.00     0.006 C 
BRANCH   7   8
ATOM      8  C   UNL     1       1.600  -9.870 -32.950  1.00  0.00     0.053 C 
BRANCH   8   9
ATOM      9  C   UNL     1       2.524 -11.046 -32.868  1.00  0.00     0.041 C 
ATOM     10  O   UNL     1       3.272 -11.194 -31.866  1.00  0.00    -0.550 OA
ATOM     11  O   UNL     1       2.582 -11.962 -33.911  1.00  0.00    -0.550 OA
ENDBRANCH   8   9
ENDBRANCH   7   8
ENDBRANCH   6   7
ENDBRANCH   5   6
ENDBRANCH   4   5
ENDBRANCH   3   4
ENDBRANCH   2   3
ENDBRANCH   1   2
BRANCH   1  12
ATOM     12  C   UNL     1       4.998  -8.305 -33.081  1.00  0.00     0.000 C 
BRANCH  12  13
ATOM     13  C   UNL     1       5.440  -6.862 -32.794  1.00  0.00    -0.000 C 
BRANCH  13  14
ATOM     14  C   UNL     1       6.243  -6.736 -31.490  1.00  0.00    -0.000 C 
BRANCH  14  15
ATOM     15  C   UNL     1       7.576  -5.993 -31.687  1.00  0.00    -0.000 C 
BRANCH  15  16
ATOM     16  C   UNL     1       8.028  -5.954 -33.157  1.00  0.00    -0.000 C 
BRANCH  16  17
ATOM     17  C   UNL     1       8.154  -4.545 -33.771  1.00  0.00    -0.000 C 
BRANCH  17  18
ATOM     18  C   UNL     1       7.219  -3.483 -33.165  1.00  0.00    -0.000 C 
BRANCH  18  19
ATOM     19  C   UNL     1       6.345  -2.787 -34.219  1.00  0.00    -0.003 C 
ATOM     20  C   UNL     1       5.632  -3.807 -35.099  1.00  0.00     0.004 C 
ENDBRANCH  18  19
ENDBRANCH  17  18
ENDBRANCH  16  17
ENDBRANCH  15  16
ENDBRANCH  14  15
ENDBRANCH  13  14
ENDBRANCH  12  13
ENDBRANCH   1  12
TORSDOF 16
ENDMDL
MODEL 3
REMARK VINA RESULT:    -4.331     14.818     17.233
REMARK INTER + INTRA:         -10.643
REMARK INTER:                  -8.365
REMARK INTRA:                  -2.278
REMARK UNBOUND:                -2.261
REMARK SMILES CCCCCCCCCCCCCCCCCC(=O)[O-]
REMARK SMILES IDX 10 1 11 2 12 3 13 4 14 5 15 6 16 7 17 8 18 9 19 10 20 11
REMARK SMILES IDX 9 12 8 13 7 14 6 15 5 16 4 17 3 18 2 19 1 20
REMARK H PARENT
REMARK Flexibility Score: inf
ROOT
ATOM      1  C   UNL     1      20.387  -5.304 -19.921  1.00  0.00     0.000 C 
ENDROOT
BRANCH   1   2
ATOM      2  C   UNL     1      19.425  -5.760 -18.813  1.00  0.00     0.000 C 
BRANCH   2   3
ATOM      3  C   UNL     1      18.705  -4.582 -18.133  1.00  0.00     0.000 C 
BRANCH   3   4
ATOM      4  C   UNL     1      17.186  -4.609 -18.362  1.00  0.00     0.000 C 
BRANCH   4   5
ATOM      5  C   UNL     1      16.652  -3.279 -18.922  1.00  0.00     0.000 C 
BRANCH   5   6
ATOM      6  C   UNL     1      15.296  -3.437 -19.628  1.00  0.00     0.000 C 
BRANCH   6   7
ATOM      7  C   UNL     1      15.031  -2.321 -20.654  1.00  0.00     0.006 C 
BRANCH   7   8
ATOM      8  C   UNL     1      14.263  -2.834 -21.882  1.00  0.00     0.053 C 
BRANCH   8   9
ATOM      9  C   UNL     1      12.980  -3.506 -21.497  1.00  0.00     0.041 C 
ATOM     10  O   UNL     1      12.025  -2.827 -21.036  1.00  0.00    -0.550 OA
ATOM     11  O   UNL     1      12.852  -4.884 -21.619  1.00  0.00    -0.550 OA
ENDBRANCH   8   9
ENDBRANCH   7   8
ENDBRANCH   6   7
ENDBRANCH   5   6
ENDBRANCH   4   5
ENDBRANCH   3   4
ENDBRANCH   2   3
ENDBRANCH   1   2
BRANCH   1  12
ATOM     12  C   UNL     1      20.982  -6.482 -20.709  1.00  0.00     0.000 C 
BRANCH  12  13
ATOM     13  C   UNL     1      20.155  -6.768 -21.971  1.00  0.00    -0.000 C 
BRANCH  13  14
ATOM     14  C   UNL     1      19.758  -8.248 -22.097  1.00  0.00    -0.000 C 
BRANCH  14  15
ATOM     15  C   UNL     1      18.639  -8.645 -21.118  1.00  0.00    -0.000 C 
BRANCH  15  16
ATOM     16  C   UNL     1      17.234  -8.301 -21.644  1.00  0.00    -0.000 C 
BRANCH  16  17
ATOM     17  C   UNL     1      16.575  -7.062 -21.003  1.00  0.00    -0.000 C 
BRANCH  17  18
ATOM     18  C   UNL     1      16.244  -5.920 -21.980  1.00  0.00    -0.000 C 
BRANCH  18  19
ATOM     19  C   UNL     1      16.214  -6.380 -23.446  1.00  0.00    -0.003 C 
ATOM     20  C   UNL     1      14.859  -6.095 -24.082  1.00  0.00     0.004 C 
ENDBRANCH  18  19
ENDBRANCH  17  18
ENDBRANCH  16  17
ENDBRANCH  15  16
ENDBRANCH  14  15
ENDBRANCH  13  14
ENDBRANCH  12  13
ENDBRANCH   1  12
TORSDOF 16
ENDMDL
MODEL 4
REMARK VINA RESULT:    -4.328      4.583      7.053
REMARK INTER + INTRA:         -10.636
REMARK INTER:                  -8.303
REMARK INTRA:                  -2.333
REMARK UNBOUND:                -2.261
REMARK SMILES CCCCCCCCCCCCCCCCCC(=O)[O-]
REMARK SMILES IDX 10 1 11 2 12 3 13 4 14 5 15 6 16 7 17 8 18 9 19 10 20 11
REMARK SMILES IDX 9 12 8 13 7 14 6 15 5 16 4 17 3 18 2 19 1 20
REMARK H PARENT
REMARK Flexibility Score: inf
ROOT
ATOM      1  C   UNL     1       5.289  -6.828 -32.985  1.00  0.00     0.000 C 
ENDROOT
BRANCH   1   2
ATOM      2  C   UNL     1       5.630  -7.620 -34.257  1.00  0.00     0.000 C 
BRANCH   2   3
ATOM      3  C   UNL     1       5.577  -6.752 -35.526  1.00  0.00     0.000 C 
BRANCH   3   4
ATOM      4  C   UNL     1       5.099  -7.537 -36.757  1.00  0.00     0.000 C 
BRANCH   4   5
ATOM      5  C   UNL     1       3.724  -8.193 -36.540  1.00  0.00     0.000 C 
BRANCH   5   6
ATOM      6  C   UNL     1       2.601  -7.162 -36.343  1.00  0.00     0.000 C 
BRANCH   6   7
ATOM      7  C   UNL     1       1.595  -7.584 -35.258  1.00  0.00     0.006 C 
BRANCH   7   8
ATOM      8  C   UNL     1       1.878  -8.994 -34.722  1.00  0.00     0.053 C 
BRANCH   8   9
ATOM      9  C   UNL     1       1.455  -9.144 -33.293  1.00  0.00     0.041 C 
ATOM     10  O   UNL     1       1.597 -10.247 -32.703  1.00  0.00    -0.550 OA
ATOM     11  O   UNL     1       0.875  -8.073 -32.622  1.00  0.00    -0.550 OA
ENDBRANCH   8   9
ENDBRANCH   7   8
ENDBRANCH   6   7
ENDBRANCH   5   6
ENDBRANCH   4   5
ENDBRANCH   3   4
ENDBRANCH   2   3
ENDBRANCH   1   2
BRANCH   1  12
ATOM     12  C   UNL     1       6.373  -6.954 -31.903  1.00  0.00     0.000 C 
BRANCH  12  13
ATOM     13  C   UNL     1       7.286  -5.718 -31.898  1.00  0.00    -0.000 C 
BRANCH  13  14
ATOM     14  C   UNL     1       8.300  -5.726 -33.054  1.00  0.00    -0.000 C 
BRANCH  14  15
ATOM     15  C   UNL     1       8.209  -4.464 -33.929  1.00  0.00    -0.000 C 
BRANCH  15  16
ATOM     16  C   UNL     1       7.184  -3.444 -33.402  1.00  0.00    -0.000 C 
BRANCH  16  17
ATOM     17  C   UNL     1       5.929  -3.258 -34.279  1.00  0.00    -0.000 C 
BRANCH  17  18
ATOM     18  C   UNL     1       6.205  -3.068 -35.781  1.00  0.00    -0.000 C 
BRANCH  18  19
ATOM     19  C   UNL     1       4.977  -2.561 -36.553  1.00  0.00    -0.003 C 
ATOM     20  C   UNL     1       3.910  -3.645 -36.658  1.00  0.00     0.004 C 
ENDBRANCH  18  19
ENDBRANCH  17  18
ENDBRANCH  16  17
ENDBRANCH  15  16
ENDBRANCH  14  15
ENDBRANCH  13  14
ENDBRANCH  12  13
ENDBRANCH   1  12
TORSDOF 16
ENDMDL
MODEL 5
REMARK VINA RESULT:    -4.313      4.814      8.014
REMARK INTER + INTRA:         -10.608
REMARK INTER:                  -8.513
REMARK INTRA:                  -2.095
REMARK UNBOUND:                -2.261
REMARK SMILES CCCCCCCCCCCCCCCCCC(=O)[O-]
REMARK SMILES IDX 10 1 11 2 12 3 13 4 14 5 15 6 16 7 17 8 18 9 19 10 20 11
REMARK SMILES IDX 9 12 8 13 7 14 6 15 5 16 4 17 3 18 2 19 1 20
REMARK H PARENT
REMARK Flexibility Score: inf
ROOT
ATOM      1  C   UNL     1       4.878  -4.722 -36.455  1.00  0.00     0.000 C 
ENDROOT
BRANCH   1   2
ATOM      2  C   UNL     1       4.355  -6.165 -36.526  1.00  0.00     0.000 C 
BRANCH   2   3
ATOM      3  C   UNL     1       3.046  -6.281 -37.327  1.00  0.00     0.000 C 
BRANCH   3   4
ATOM      4  C   UNL     1       2.105  -7.357 -36.763  1.00  0.00     0.000 C 
BRANCH   4   5
ATOM      5  C   UNL     1       2.271  -7.548 -35.245  1.00  0.00     0.000 C 
BRANCH   5   6
ATOM      6  C   UNL     1       0.928  -7.719 -34.520  1.00  0.00     0.000 C 
BRANCH   6   7
ATOM      7  C   UNL     1       0.951  -8.867 -33.495  1.00  0.00     0.006 C 
BRANCH   7   8
ATOM      8  C   UNL     1       1.925  -9.983 -33.898  1.00  0.00     0.053 C 
BRANCH   8   9
ATOM      9  C   UNL     1       2.386 -10.776 -32.713  1.00  0.00     0.041 C 
ATOM     10  O   UNL     1       3.606 -10.796 -32.401  1.00  0.00    -0.550 OA
ATOM     11  O   UNL     1       1.474 -11.518 -31.973  1.00  0.00    -0.550 OA
ENDBRANCH   8   9
ENDBRANCH   7   8
ENDBRANCH   6   7
ENDBRANCH   5   6
ENDBRANCH   4   5
ENDBRANCH   3   4
ENDBRANCH   2   3
ENDBRANCH   1   2
BRANCH   1  12
ATOM     12  C   UNL     1       6.151  -4.596 -35.603  1.00  0.00     0.000 C 
BRANCH  12  13
ATOM     13  C   UNL     1       5.950  -3.581 -34.468  1.00  0.00    -0.000 C 
BRANCH  13  14
ATOM     14  C   UNL     1       7.084  -3.618 -33.430  1.00  0.00    -0.000 C 
BRANCH  14  15
ATOM     15  C   UNL     1       8.198  -4.609 -33.809  1.00  0.00    -0.000 C 
BRANCH  15  16
ATOM     16  C   UNL     1       8.279  -5.812 -32.853  1.00  0.00    -0.000 C 
BRANCH  16  17
ATOM     17  C   UNL     1       7.335  -5.751 -31.636  1.00  0.00    -0.000 C 
BRANCH  17  18
ATOM     18  C   UNL     1       6.314  -6.899 -31.544  1.00  0.00    -0.000 C 
BRANCH  18  19
ATOM     19  C   UNL     1       5.279  -6.869 -32.679  1.00  0.00    -0.003 C 
ATOM     20  C   UNL     1       5.467  -8.052 -33.623  1.00  0.00     0.004 C 
ENDBRANCH  18  19
ENDBRANCH  17  18
ENDBRANCH  16  17
ENDBRANCH  15  16
ENDBRANCH  14  15
ENDBRANCH  13  14
ENDBRANCH  12  13
ENDBRANCH   1  12
TORSDOF 16
ENDMDL
MODEL 6
REMARK VINA RESULT:    -4.291      4.275      6.557
REMARK INTER + INTRA:         -10.566
REMARK INTER:                  -8.326
REMARK INTRA:                  -2.240
REMARK UNBOUND:                -2.261
REMARK SMILES CCCCCCCCCCCCCCCCCC(=O)[O-]
REMARK SMILES IDX 10 1 11 2 12 3 13 4 14 5 15 6 16 7 17 8 18 9 19 10 20 11
REMARK SMILES IDX 9 12 8 13 7 14 6 15 5 16 4 17 3 18 2 19 1 20
REMARK H PARENT
REMARK Flexibility Score: inf
ROOT
ATOM      1  C   UNL     1       6.318  -6.572 -31.505  1.00  0.00     0.000 C 
ENDROOT
BRANCH   1   2
ATOM      2  C   UNL     1       5.372  -6.670 -32.713  1.00  0.00     0.000 C 
BRANCH   2   3
ATOM      3  C   UNL     1       5.343  -8.080 -33.329  1.00  0.00     0.000 C 
BRANCH   3   4
ATOM      4  C   UNL     1       5.574  -8.064 -34.848  1.00  0.00     0.000 C 
BRANCH   4   5
ATOM      5  C   UNL     1       5.224  -6.706 -35.482  1.00  0.00     0.000 C 
BRANCH   5   6
ATOM      6  C   UNL     1       4.342  -6.847 -36.732  1.00  0.00     0.000 C 
BRANCH   6   7
ATOM      7  C   UNL     1       2.859  -6.553 -36.445  1.00  0.00     0.006 C 
BRANCH   7   8
ATOM      8  C   UNL     1       2.004  -7.828 -36.449  1.00  0.00     0.053 C 
BRANCH   8   9
ATOM      9  C   UNL     1       1.661  -8.274 -35.060  1.00  0.00     0.041 C 
ATOM     10  O   UNL     1       0.878  -7.589 -34.351  1.00  0.00    -0.550 OA
ATOM     11  O   UNL     1       2.231  -9.429 -34.539  1.00  0.00    -0.550 OA
ENDBRANCH   8   9
ENDBRANCH   7   8
ENDBRANCH   6   7
ENDBRANCH   5   6
ENDBRANCH   4   5
ENDBRANCH   3   4
ENDBRANCH   2   3
ENDBRANCH   1   2
BRANCH   1  12
ATOM     12  C   UNL     1       7.734  -6.124 -31.899  1.00  0.00     0.000 C 
BRANCH  12  13
ATOM     13  C   UNL     1       7.699  -5.253 -33.164  1.00  0.00    -0.000 C 
BRANCH  13  14
ATOM     14  C   UNL     1       7.242  -3.813 -32.880  1.00  0.00    -0.000 C 
BRANCH  14  15
ATOM     15  C   UNL     1       7.457  -2.877 -34.083  1.00  0.00    -0.000 C 
BRANCH  15  16
ATOM     16  C   UNL     1       7.434  -3.621 -35.430  1.00  0.00    -0.000 C 
BRANCH  16  17
ATOM     17  C   UNL     1       6.283  -3.230 -36.379  1.00  0.00    -0.000 C 
BRANCH  17  18
ATOM     18  C   UNL     1       4.915  -3.038 -35.701  1.00  0.00    -0.000 C 
BRANCH  18  19
ATOM     19  C   UNL     1       3.749  -3.046 -36.701  1.00  0.00    -0.003 C 
ATOM     20  C   UNL     1       3.317  -1.625 -37.049  1.00  0.00     0.004 C 
ENDBRANCH  18  19
ENDBRANCH  17  18
ENDBRANCH  16  17
ENDBRANCH  15  16
ENDBRANCH  14  15
ENDBRANCH  13  14
ENDBRANCH  12  13
ENDBRANCH   1  12
TORSDOF 16
ENDMDL
MODEL 7
REMARK VINA RESULT:    -4.243      3.067      5.662
REMARK INTER + INTRA:         -10.473
REMARK INTER:                  -7.871
REMARK INTRA:                  -2.602
REMARK UNBOUND:                -2.261
REMARK SMILES CCCCCCCCCCCCCCCCCC(=O)[O-]
REMARK SMILES IDX 10 1 11 2 12 3 13 4 14 5 15 6 16 7 17 8 18 9 19 10 20 11
REMARK SMILES IDX 9 12 8 13 7 14 6 15 5 16 4 17 3 18 2 19 1 20
REMARK H PARENT
REMARK Flexibility Score: inf
ROOT
ATOM      1  C   UNL     1       4.862  -3.441 -36.523  1.00  0.00     0.000 C 
ENDROOT
BRANCH   1   2
ATOM      2  C   UNL     1       5.668  -4.281 -35.520  1.00  0.00     0.000 C 
BRANCH   2   3
ATOM      3  C   UNL     1       6.706  -5.186 -36.206  1.00  0.00     0.000 C 
BRANCH   3   4
ATOM      4  C   UNL     1       6.859  -6.544 -35.504  1.00  0.00     0.000 C 
BRANCH   4   5
ATOM      5  C   UNL     1       5.509  -7.127 -35.049  1.00  0.00     0.000 C 
BRANCH   5   6
ATOM      6  C   UNL     1       5.573  -7.740 -33.642  1.00  0.00     0.000 C 
BRANCH   6   7
ATOM      7  C   UNL     1       5.258  -6.716 -32.537  1.00  0.00     0.006 C 
BRANCH   7   8
ATOM      8  C   UNL     1       6.436  -6.525 -31.571  1.00  0.00     0.053 C 
BRANCH   8   9
ATOM      9  C   UNL     1       7.497  -5.642 -32.153  1.00  0.00     0.041 C 
ATOM     10  O   UNL     1       8.624  -6.119 -32.451  1.00  0.00    -0.550 OA
ATOM     11  O   UNL     1       7.252  -4.286 -32.336  1.00  0.00    -0.550 OA
ENDBRANCH   8   9
ENDBRANCH   7   8
ENDBRANCH   6   7
ENDBRANCH   5   6
ENDBRANCH   4   5
ENDBRANCH   3   4
ENDBRANCH   2   3
ENDBRANCH   1   2
BRANCH   1  12
ATOM     12  C   UNL     1       4.230  -4.294 -37.635  1.00  0.00     0.000 C 
BRANCH  12  13
ATOM     13  C   UNL     1       3.108  -5.179 -37.073  1.00  0.00    -0.000 C 
BRANCH  13  14
ATOM     14  C   UNL     1       3.118  -6.598 -37.665  1.00  0.00    -0.000 C 
BRANCH  14  15
ATOM     15  C   UNL     1       2.124  -7.539 -36.963  1.00  0.00    -0.000 C 
BRANCH  15  16
ATOM     16  C   UNL     1       1.593  -6.966 -35.637  1.00  0.00    -0.000 C 
BRANCH  16  17
ATOM     17  C   UNL     1       0.956  -7.996 -34.682  1.00  0.00    -0.000 C 
BRANCH  17  18
ATOM     18  C   UNL     1       1.768  -8.295 -33.409  1.00  0.00    -0.000 C 
BRANCH  18  19
ATOM     19  C   UNL     1       2.093  -9.787 -33.246  1.00  0.00    -0.003 C 
ATOM     20  C   UNL     1       2.776 -10.338 -34.493  1.00  0.00     0.004 C 
ENDBRANCH  18  19
ENDBRANCH  17  18
ENDBRANCH  16  17
ENDBRANCH  15  16
ENDBRANCH  14  15
ENDBRANCH  13  14
ENDBRANCH  12  13
ENDBRANCH   1  12
TORSDOF 16
ENDMDL
MODEL 8
REMARK VINA RESULT:    -4.213      4.577      7.640
REMARK INTER + INTRA:         -10.414
REMARK INTER:                  -7.726
REMARK INTRA:                  -2.687
REMARK UNBOUND:                -2.261
REMARK SMILES CCCCCCCCCCCCCCCCCC(=O)[O-]
REMARK SMILES IDX 10 1 11 2 12 3 13 4 14 5 15 6 16 7 17 8 18 9 19 10 20 11
REMARK SMILES IDX 9 12 8 13 7 14 6 15 5 16 4 17 3 18 2 19 1 20
REMARK H PARENT
REMARK Flexibility Score: inf
ROOT
ATOM      1  C   UNL     1       6.279  -7.889 -35.419  1.00  0.00     0.000 C 
ENDROOT
BRANCH   1   2
ATOM      2  C   UNL     1       5.203  -6.970 -34.819  1.00  0.00     0.000 C 
BRANCH   2   3
ATOM      3  C   UNL     1       4.139  -6.554 -35.849  1.00  0.00     0.000 C 
BRANCH   3   4
ATOM      4  C   UNL     1       3.727  -7.712 -36.771  1.00  0.00     0.000 C 
BRANCH   4   5
ATOM      5  C   UNL     1       2.273  -8.160 -36.539  1.00  0.00     0.000 C 
BRANCH   5   6
ATOM      6  C   UNL     1       1.497  -7.202 -35.622  1.00  0.00     0.000 C 
BRANCH   6   7
ATOM      7  C   UNL     1       1.117  -7.848 -34.278  1.00  0.00     0.006 C 
BRANCH   7   8
ATOM      8  C   UNL     1       1.154  -9.381 -34.341  1.00  0.00     0.053 C 
BRANCH   8   9
ATOM      9  C   UNL     1       2.073  -9.960 -33.309  1.00  0.00     0.041 C 
ATOM     10  O   UNL     1       1.616 -10.707 -32.403  1.00  0.00    -0.550 OA
ATOM     11  O   UNL     1       3.427  -9.650 -33.328  1.00  0.00    -0.550 OA
ENDBRANCH   8   9
ENDBRANCH   7   8
ENDBRANCH   6   7
ENDBRANCH   5   6
ENDBRANCH   4   5
ENDBRANCH   3   4
ENDBRANCH   2   3
ENDBRANCH   1   2
BRANCH   1  12
ATOM     12  C   UNL     1       7.562  -7.130 -35.793  1.00  0.00     0.000 C 
BRANCH  12  13
ATOM     13  C   UNL     1       7.548  -6.732 -37.276  1.00  0.00    -0.000 C 
BRANCH  13  14
ATOM     14  C   UNL     1       7.183  -5.254 -37.491  1.00  0.00    -0.000 C 
BRANCH  14  15
ATOM     15  C   UNL     1       7.501  -4.383 -36.263  1.00  0.00    -0.000 C 
BRANCH  15  16
ATOM     16  C   UNL     1       6.309  -3.516 -35.819  1.00  0.00    -0.000 C 
BRANCH  16  17
ATOM     17  C   UNL     1       6.152  -3.343 -34.295  1.00  0.00    -0.000 C 
BRANCH  17  18
ATOM     18  C   UNL     1       7.402  -3.690 -33.466  1.00  0.00    -0.000 C 
BRANCH  18  19
ATOM     19  C   UNL     1       7.141  -4.793 -32.429  1.00  0.00    -0.003 C 
ATOM     20  C   UNL     1       8.184  -5.900 -32.534  1.00  0.00     0.004 C 
ENDBRANCH  18  19
ENDBRANCH  17  18
ENDBRANCH  16  17
ENDBRANCH  15  16
ENDBRANCH  14  15
ENDBRANCH  13  14
ENDBRANCH  12  13
ENDBRANCH   1  12
TORSDOF 16
ENDMDL
MODEL 9
REMARK VINA RESULT:    -4.182      4.397      7.543
REMARK INTER + INTRA:         -10.354
REMARK INTER:                  -8.167
REMARK INTRA:                  -2.187
REMARK UNBOUND:                -2.261
REMARK SMILES CCCCCCCCCCCCCCCCCC(=O)[O-]
REMARK SMILES IDX 10 1 11 2 12 3 13 4 14 5 15 6 16 7 17 8 18 9 19 10 20 11
REMARK SMILES IDX 9 12 8 13 7 14 6 15 5 16 4 17 3 18 2 19 1 20
REMARK H PARENT
REMARK Flexibility Score: inf
ROOT
ATOM      1  C   UNL     1       7.439  -6.263 -36.068  1.00  0.00     0.000 C 
ENDROOT
BRANCH   1   2
ATOM      2  C   UNL     1       6.377  -7.374 -36.051  1.00  0.00     0.000 C 
BRANCH   2   3
ATOM      3  C   UNL     1       4.994  -6.864 -35.609  1.00  0.00     0.000 C 
BRANCH   3   4
ATOM      4  C   UNL     1       4.026  -6.690 -36.789  1.00  0.00     0.000 C 
BRANCH   4   5
ATOM      5  C   UNL     1       2.558  -6.589 -36.336  1.00  0.00     0.000 C 
BRANCH   5   6
ATOM      6  C   UNL     1       1.869  -7.960 -36.252  1.00  0.00     0.000 C 
BRANCH   6   7
ATOM      7  C   UNL     1       1.000  -8.109 -34.991  1.00  0.00     0.006 C 
BRANCH   7   8
ATOM      8  C   UNL     1       1.837  -8.083 -33.704  1.00  0.00     0.053 C 
BRANCH   8   9
ATOM      9  C   UNL     1       2.461  -9.415 -33.417  1.00  0.00     0.041 C 
ATOM     10  O   UNL     1       3.683  -9.605 -33.654  1.00  0.00    -0.550 OA
ATOM     11  O   UNL     1       1.686 -10.455 -32.919  1.00  0.00    -0.550 OA
ENDBRANCH   8   9
ENDBRANCH   7   8
ENDBRANCH   6   7
ENDBRANCH   5   6
ENDBRANCH   4   5
ENDBRANCH   3   4
ENDBRANCH   2   3
ENDBRANCH   1   2
BRANCH   1  12
ATOM     12  C   UNL     1       7.203  -5.238 -37.188  1.00  0.00     0.000 C 
BRANCH  12  13
ATOM     13  C   UNL     1       7.339  -3.804 -36.654  1.00  0.00    -0.000 C 
BRANCH  13  14
ATOM     14  C   UNL     1       5.984  -3.175 -36.293  1.00  0.00    -0.000 C 
BRANCH  14  15
ATOM     15  C   UNL     1       5.670  -3.269 -34.790  1.00  0.00    -0.000 C 
BRANCH  15  16
ATOM     16  C   UNL     1       6.806  -2.724 -33.907  1.00  0.00    -0.000 C 
BRANCH  16  17
ATOM     17  C   UNL     1       7.498  -3.767 -33.005  1.00  0.00    -0.000 C 
BRANCH  17  18
ATOM     18  C   UNL     1       6.683  -5.046 -32.742  1.00  0.00    -0.000 C 
BRANCH  18  19
ATOM     19  C   UNL     1       7.334  -5.962 -31.695  1.00  0.00    -0.003 C 
ATOM     20  C   UNL     1       6.387  -7.084 -31.284  1.00  0.00     0.004 C 
ENDBRANCH  18  19
ENDBRANCH  17  18
ENDBRANCH  16  17
ENDBRANCH  15  16
ENDBRANCH  14  15
ENDBRANCH  13  14
ENDBRANCH  12  13
ENDBRANCH   1  12
TORSDOF 16
ENDMDL
