MODEL 1
REMARK VINA RESULT:    -6.529      0.000      0.000
REMARK INTER + INTRA:          -6.720
REMARK INTER:                  -6.720
REMARK INTRA:                   0.000
REMARK UNBOUND:                 0.000
REMARK SMILES O=c1ccc2ccc(O)cc2o1
REMARK SMILES IDX 6 1 7 2 8 3 10 4 11 5 5 6 4 7 3 8 2 9 1 10 12 11 9 12
REMARK H PARENT 9 13
REMARK Flexibility Score: inf
ROOT
ATOM      1  C   UNL     1     -13.086   2.929  -9.383  1.00  0.00     0.016 A 
ATOM      2  C   UNL     1     -11.778   3.417  -9.316  1.00  0.00     0.047 A 
ATOM      3  C   UNL     1     -10.688   2.540  -9.439  1.00  0.00     0.119 A 
ATOM      4  C   UNL     1     -10.912   1.172  -9.629  1.00  0.00     0.094 A 
ATOM      5  C   UNL     1     -12.218   0.674  -9.697  1.00  0.00     0.142 A 
ATOM      6  C   UNL     1     -13.312   1.559  -9.573  1.00  0.00     0.018 A 
ATOM      7  C   UNL     1     -14.606   1.033  -9.645  1.00  0.00     0.019 A 
ATOM      8  C   UNL     1     -14.777  -0.339  -9.836  1.00  0.00     0.094 A 
ATOM      9  C   UNL     1     -13.646  -1.154  -9.950  1.00  0.00     0.336 A 
ATOM     10  O   UNL     1     -13.780  -2.394 -10.121  1.00  0.00    -0.246 OA
ATOM     11  O   UNL     1     -12.426  -0.628  -9.877  1.00  0.00    -0.423 OA
ENDROOT
BRANCH   3  12
ATOM     12  O   UNL     1      -9.383   3.020  -9.373  1.00  0.00    -0.508 OA
ATOM     13  H   UNL     1      -8.684   2.754 -10.057  1.00  0.00     0.293 HD
ENDBRANCH   3  12
TORSDOF 1
ENDMDL
MODEL 2
REMARK VINA RESULT:    -6.149      1.660      2.578
REMARK INTER + INTRA:          -6.328
REMARK INTER:                  -6.328
REMARK INTRA:                   0.000
REMARK UNBOUND:                 0.000
REMARK SMILES O=c1ccc2ccc(O)cc2o1
REMARK SMILES IDX 6 1 7 2 8 3 10 4 11 5 5 6 4 7 3 8 2 9 1 10 12 11 9 12
REMARK H PARENT 9 13
REMARK Flexibility Score: inf
ROOT
ATOM      1  C   UNL     1     -10.837   2.235  -9.600  1.00  0.00     0.016 A 
ATOM      2  C   UNL     1     -11.660   3.337  -9.351  1.00  0.00     0.047 A 
ATOM      3  C   UNL     1     -13.050   3.172  -9.240  1.00  0.00     0.119 A 
ATOM      4  C   UNL     1     -13.615   1.900  -9.381  1.00  0.00     0.094 A 
ATOM      5  C   UNL     1     -12.799   0.791  -9.631  1.00  0.00     0.142 A 
ATOM      6  C   UNL     1     -11.400   0.960  -9.742  1.00  0.00     0.018 A 
ATOM      7  C   UNL     1     -10.610  -0.167  -9.992  1.00  0.00     0.019 A 
ATOM      8  C   UNL     1     -11.221  -1.414 -10.125  1.00  0.00     0.094 A 
ATOM      9  C   UNL     1     -12.611  -1.505 -10.003  1.00  0.00     0.336 A 
ATOM     10  O   UNL     1     -13.180  -2.622 -10.120  1.00  0.00    -0.246 OA
ATOM     11  O   UNL     1     -13.340  -0.418  -9.765  1.00  0.00    -0.423 OA
ENDROOT
BRANCH   3  12
ATOM     12  O   UNL     1     -13.875   4.266  -8.992  1.00  0.00    -0.508 OA
ATOM     13  H   UNL     1     -14.725   4.421  -9.522  1.00  0.00     0.293 HD
ENDBRANCH   3  12
TORSDOF 1
ENDMDL
MODEL 3
REMARK VINA RESULT:    -5.631      1.747      4.504
REMARK INTER + INTRA:          -5.796
REMARK INTER:                  -5.796
REMARK INTRA:                   0.000
REMARK UNBOUND:                 0.000
REMARK SMILES O=c1ccc2ccc(O)cc2o1
REMARK SMILES IDX 6 1 7 2 8 3 10 4 11 5 5 6 4 7 3 8 2 9 1 10 12 11 9 12
REMARK H PARENT 9 13
REMARK Flexibility Score: inf
ROOT
ATOM      1  C   UNL     1     -10.805  -0.412  -9.995  1.00  0.00     0.016 A 
ATOM      2  C   UNL     1     -11.555  -1.585 -10.119  1.00  0.00     0.047 A 
ATOM      3  C   UNL     1     -12.953  -1.547 -10.003  1.00  0.00     0.119 A 
ATOM      4  C   UNL     1     -13.600  -0.330  -9.761  1.00  0.00     0.094 A 
ATOM      5  C   UNL     1     -12.857   0.850  -9.636  1.00  0.00     0.142 A 
ATOM      6  C   UNL     1     -11.450   0.808  -9.753  1.00  0.00     0.018 A 
ATOM      7  C   UNL     1     -10.734   2.003  -9.623  1.00  0.00     0.019 A 
ATOM      8  C   UNL     1     -11.425   3.191  -9.383  1.00  0.00     0.094 A 
ATOM      9  C   UNL     1     -12.819   3.156  -9.278  1.00  0.00     0.336 A 
ATOM     10  O   UNL     1     -13.460   4.217  -9.061  1.00  0.00    -0.246 OA
ATOM     11  O   UNL     1     -13.476   2.005  -9.405  1.00  0.00    -0.423 OA
ENDROOT
BRANCH   3  12
ATOM     12  O   UNL     1     -13.706  -2.712 -10.125  1.00  0.00    -0.508 OA
ATOM     13  H   UNL     1     -14.198  -2.939 -10.982  1.00  0.00     0.293 HD
ENDBRANCH   3  12
TORSDOF 1
ENDMDL
MODEL 4
REMARK VINA RESULT:    -5.392     16.581     17.170
REMARK INTER + INTRA:          -5.550
REMARK INTER:                  -5.550
REMARK INTRA:                   0.000
REMARK UNBOUND:                 0.000
REMARK SMILES O=c1ccc2ccc(O)cc2o1
REMARK SMILES IDX 6 1 7 2 8 3 10 4 11 5 5 6 4 7 3 8 2 9 1 10 12 11 9 12
REMARK H PARENT 9 13
REMARK Flexibility Score: inf
ROOT
ATOM      1  C   UNL     1     -10.784   5.096   6.203  1.00  0.00     0.016 A 
ATOM      2  C   UNL     1     -10.926   4.670   4.879  1.00  0.00     0.047 A 
ATOM      3  C   UNL     1     -11.548   3.445   4.592  1.00  0.00     0.119 A 
ATOM      4  C   UNL     1     -12.027   2.644   5.635  1.00  0.00     0.094 A 
ATOM      5  C   UNL     1     -11.889   3.062   6.964  1.00  0.00     0.142 A 
ATOM      6  C   UNL     1     -11.264   4.296   7.250  1.00  0.00     0.018 A 
ATOM      7  C   UNL     1     -11.140   4.686   8.587  1.00  0.00     0.019 A 
ATOM      8  C   UNL     1     -11.634   3.853   9.591  1.00  0.00     0.094 A 
ATOM      9  C   UNL     1     -12.242   2.646   9.233  1.00  0.00     0.336 A 
ATOM     10  O   UNL     1     -12.694   1.881  10.125  1.00  0.00    -0.246 OA
ATOM     11  O   UNL     1     -12.346   2.297   7.953  1.00  0.00    -0.423 OA
ENDROOT
BRANCH   3  12
ATOM     12  O   UNL     1     -11.692   3.016   3.275  1.00  0.00    -0.508 OA
ATOM     13  H   UNL     1     -11.477   3.623   2.493  1.00  0.00     0.293 HD
ENDBRANCH   3  12
TORSDOF 1
ENDMDL
MODEL 5
REMARK VINA RESULT:    -5.288     17.164     17.960
REMARK INTER + INTRA:          -5.443
REMARK INTER:                  -5.443
REMARK INTRA:                   0.000
REMARK UNBOUND:                 0.000
REMARK SMILES O=c1ccc2ccc(O)cc2o1
REMARK SMILES IDX 6 1 7 2 8 3 10 4 11 5 5 6 4 7 3 8 2 9 1 10 12 11 9 12
REMARK H PARENT 9 13
REMARK Flexibility Score: inf
ROOT
ATOM      1  C   UNL     1     -11.260   4.519   9.518  1.00  0.00     0.016 A 
ATOM      2  C   UNL     1     -11.826   3.394  10.125  1.00  0.00     0.047 A 
ATOM      3  C   UNL     1     -12.202   2.285   9.350  1.00  0.00     0.119 A 
ATOM      4  C   UNL     1     -12.009   2.305   7.964  1.00  0.00     0.094 A 
ATOM      5  C   UNL     1     -11.443   3.427   7.348  1.00  0.00     0.142 A 
ATOM      6  C   UNL     1     -11.066   4.541   8.130  1.00  0.00     0.018 A 
ATOM      7  C   UNL     1     -10.503   5.648   7.486  1.00  0.00     0.019 A 
ATOM      8  C   UNL     1     -10.332   5.619   6.102  1.00  0.00     0.094 A 
ATOM      9  C   UNL     1     -10.729   4.482   5.392  1.00  0.00     0.336 A 
ATOM     10  O   UNL     1     -10.583   4.437   4.143  1.00  0.00    -0.246 OA
ATOM     11  O   UNL     1     -11.263   3.442   6.029  1.00  0.00    -0.423 OA
ENDROOT
BRANCH   3  12
ATOM     12  O   UNL     1     -12.767   1.162   9.949  1.00  0.00    -0.508 OA
ATOM     13  H   UNL     1     -12.453   0.225   9.722  1.00  0.00     0.293 HD
ENDBRANCH   3  12
TORSDOF 1
ENDMDL
MODEL 6
REMARK VINA RESULT:    -4.916     15.223     16.331
REMARK INTER + INTRA:          -5.060
REMARK INTER:                  -5.060
REMARK INTRA:                   0.000
REMARK UNBOUND:                 0.000
REMARK SMILES O=c1ccc2ccc(O)cc2o1
REMARK SMILES IDX 6 1 7 2 8 3 10 4 11 5 5 6 4 7 3 8 2 9 1 10 12 11 9 12
REMARK H PARENT 9 13
REMARK Flexibility Score: inf
ROOT
ATOM      1  C   UNL     1     -13.343   4.857   6.101  1.00  0.00     0.016 A 
ATOM      2  C   UNL     1     -13.202   3.478   5.920  1.00  0.00     0.047 A 
ATOM      3  C   UNL     1     -11.993   2.946   5.446  1.00  0.00     0.119 A 
ATOM      4  C   UNL     1     -10.923   3.799   5.152  1.00  0.00     0.094 A 
ATOM      5  C   UNL     1     -11.055   5.181   5.331  1.00  0.00     0.142 A 
ATOM      6  C   UNL     1     -12.273   5.713   5.808  1.00  0.00     0.018 A 
ATOM      7  C   UNL     1     -12.376   7.098   5.976  1.00  0.00     0.019 A 
ATOM      8  C   UNL     1     -11.281   7.907   5.670  1.00  0.00     0.094 A 
ATOM      9  C   UNL     1     -10.107   7.309   5.202  1.00  0.00     0.336 A 
ATOM     10  O   UNL     1      -9.108   8.023   4.920  1.00  0.00    -0.246 OA
ATOM     11  O   UNL     1     -10.035   5.989   5.050  1.00  0.00    -0.423 OA
ENDROOT
BRANCH   3  12
ATOM     12  O   UNL     1     -11.846   1.573   5.263  1.00  0.00    -0.508 OA
ATOM     13  H   UNL     1     -11.282   1.012   5.890  1.00  0.00     0.293 HD
ENDBRANCH   3  12
TORSDOF 1
ENDMDL
MODEL 7
REMARK VINA RESULT:    -4.779     15.471     16.353
REMARK INTER + INTRA:          -4.919
REMARK INTER:                  -4.919
REMARK INTRA:                   0.000
REMARK UNBOUND:                 0.000
REMARK SMILES O=c1ccc2ccc(O)cc2o1
REMARK SMILES IDX 6 1 7 2 8 3 10 4 11 5 5 6 4 7 3 8 2 9 1 10 12 11 9 12
REMARK H PARENT 9 13
REMARK Flexibility Score: inf
ROOT
ATOM      1  C   UNL     1     -11.301   4.761   6.872  1.00  0.00     0.016 A 
ATOM      2  C   UNL     1     -11.198   3.405   6.544  1.00  0.00     0.047 A 
ATOM      3  C   UNL     1     -12.100   2.825   5.639  1.00  0.00     0.119 A 
ATOM      4  C   UNL     1     -13.108   3.606   5.061  1.00  0.00     0.094 A 
ATOM      5  C   UNL     1     -13.219   4.964   5.383  1.00  0.00     0.142 A 
ATOM      6  C   UNL     1     -12.309   5.545   6.294  1.00  0.00     0.018 A 
ATOM      7  C   UNL     1     -12.445   6.904   6.597  1.00  0.00     0.019 A 
ATOM      8  C   UNL     1     -13.466   7.640   5.995  1.00  0.00     0.094 A 
ATOM      9  C   UNL     1     -14.329   6.997   5.102  1.00  0.00     0.336 A 
ATOM     10  O   UNL     1     -15.256   7.644   4.549  1.00  0.00    -0.246 OA
ATOM     11  O   UNL     1     -14.178   5.703   4.832  1.00  0.00    -0.423 OA
ENDROOT
BRANCH   3  12
ATOM     12  O   UNL     1     -12.003   1.476   5.309  1.00  0.00    -0.508 OA
ATOM     13  H   UNL     1     -12.659   0.793   5.670  1.00  0.00     0.293 HD
ENDBRANCH   3  12
TORSDOF 1
ENDMDL
MODEL 8
REMARK VINA RESULT:    -4.638     16.474     17.264
REMARK INTER + INTRA:          -4.774
REMARK INTER:                  -4.774
REMARK INTRA:                   0.000
REMARK UNBOUND:                 0.000
REMARK SMILES O=c1ccc2ccc(O)cc2o1
REMARK SMILES IDX 6 1 7 2 8 3 10 4 11 5 5 6 4 7 3 8 2 9 1 10 12 11 9 12
REMARK H PARENT 9 13
REMARK Flexibility Score: inf
ROOT
ATOM      1  C   UNL     1     -10.535   4.362   4.906  1.00  0.00     0.016 A 
ATOM      2  C   UNL     1      -9.841   5.502   4.489  1.00  0.00     0.047 A 
ATOM      3  C   UNL     1      -9.526   6.515   5.408  1.00  0.00     0.119 A 
ATOM      4  C   UNL     1      -9.910   6.386   6.747  1.00  0.00     0.094 A 
ATOM      5  C   UNL     1     -10.605   5.249   7.174  1.00  0.00     0.142 A 
ATOM      6  C   UNL     1     -10.920   4.230   6.247  1.00  0.00     0.018 A 
ATOM      7  C   UNL     1     -11.616   3.106   6.702  1.00  0.00     0.019 A 
ATOM      8  C   UNL     1     -11.976   3.023   8.048  1.00  0.00     0.094 A 
ATOM      9  C   UNL     1     -11.631   4.070   8.908  1.00  0.00     0.336 A 
ATOM     10  O   UNL     1     -11.947   4.014  10.125  1.00  0.00    -0.246 OA
ATOM     11  O   UNL     1     -10.969   5.129   8.449  1.00  0.00    -0.423 OA
ENDROOT
BRANCH   3  12
ATOM     12  O   UNL     1      -8.835   7.653   4.998  1.00  0.00    -0.508 OA
ATOM     13  H   UNL     1      -8.990   8.554   5.436  1.00  0.00     0.293 HD
ENDBRANCH   3  12
TORSDOF 1
ENDMDL
MODEL 9
REMARK VINA RESULT:    -4.621     15.882     16.204
REMARK INTER + INTRA:          -4.756
REMARK INTER:                  -4.756
REMARK INTRA:                   0.000
REMARK UNBOUND:                 0.000
REMARK SMILES O=c1ccc2ccc(O)cc2o1
REMARK SMILES IDX 6 1 7 2 8 3 10 4 11 5 5 6 4 7 3 8 2 9 1 10 12 11 9 12
REMARK H PARENT 9 13
REMARK Flexibility Score: inf
ROOT
ATOM      1  C   UNL     1     -11.778   8.360   5.642  1.00  0.00     0.016 A 
ATOM      2  C   UNL     1     -10.629   9.035   5.220  1.00  0.00     0.047 A 
ATOM      3  C   UNL     1      -9.473   8.318   4.875  1.00  0.00     0.119 A 
ATOM      4  C   UNL     1      -9.469   6.921   4.954  1.00  0.00     0.094 A 
ATOM      5  C   UNL     1     -10.614   6.236   5.376  1.00  0.00     0.142 A 
ATOM      6  C   UNL     1     -11.776   6.960   5.722  1.00  0.00     0.018 A 
ATOM      7  C   UNL     1     -12.906   6.249   6.141  1.00  0.00     0.019 A 
ATOM      8  C   UNL     1     -12.852   4.856   6.203  1.00  0.00     0.094 A 
ATOM      9  C   UNL     1     -11.667   4.206   5.844  1.00  0.00     0.336 A 
ATOM     10  O   UNL     1     -11.599   2.950   5.894  1.00  0.00    -0.246 OA
ATOM     11  O   UNL     1     -10.606   4.907   5.450  1.00  0.00    -0.423 OA
ENDROOT
BRANCH   3  12
ATOM     12  O   UNL     1      -8.326   8.985   4.453  1.00  0.00    -0.508 OA
ATOM     13  H   UNL     1      -8.049   9.872   4.858  1.00  0.00     0.293 HD
ENDBRANCH   3  12
TORSDOF 1
ENDMDL
