MODEL 1
REMARK VINA RESULT:    -5.111      0.000      0.000
REMARK INTER + INTRA:          -6.296
REMARK INTER:                  -6.007
REMARK INTRA:                  -0.289
REMARK UNBOUND:                -0.289
REMARK SMILES O=c1cc(-c2ccc(O)c(O)c2)oc2cc(O)cc(O)c12
REMARK SMILES IDX 4 1 3 2 2 3 1 4 21 5 19 6 18 7 16 8 15 9 14 10 13 11 5 12
REMARK SMILES IDX 6 13 7 14 8 15 12 16 10 17 9 18 11 20 20 22 17 24
REMARK H PARENT 9 19 11 21 20 23 17 25
REMARK Flexibility Score: inf
ROOT
ATOM      1  C   UNL     1     118.778 106.163 122.725  1.00  0.00     0.138 A 
ATOM      2  C   UNL     1     119.051 104.834 123.076  1.00  0.00     0.100 A 
ATOM      3  C   UNL     1     118.010 104.000 123.486  1.00  0.00     0.197 A 
ATOM      4  O   UNL     1     118.294 102.831 123.855  1.00  0.00    -0.289 OA
ATOM      5  C   UNL     1     116.684 104.494 123.515  1.00  0.00     0.107 A 
ATOM      6  C   UNL     1     115.538 103.724 123.876  1.00  0.00     0.134 A 
ATOM      7  C   UNL     1     114.290 104.352 123.980  1.00  0.00     0.093 A 
ATOM      8  C   UNL     1     114.136 105.704 123.677  1.00  0.00     0.123 A 
ATOM      9  C   UNL     1     115.240 106.453 123.270  1.00  0.00     0.094 A 
ATOM     10  C   UNL     1     116.504 105.865 123.190  1.00  0.00     0.146 A 
ATOM     11  O   UNL     1     117.533 106.616 122.812  1.00  0.00    -0.456 OA
ENDROOT
BRANCH   1  12
ATOM     12  C   UNL     1     119.848 107.091 122.281  1.00  0.00     0.021 A 
ATOM     13  C   UNL     1     119.561 108.242 121.522  1.00  0.00     0.016 A 
ATOM     14  C   UNL     1     120.587 109.105 121.127  1.00  0.00     0.051 A 
ATOM     15  C   UNL     1     121.914 108.840 121.487  1.00  0.00     0.157 A 
ATOM     16  C   UNL     1     121.182 106.839 122.649  1.00  0.00     0.062 A 
ATOM     17  C   UNL     1     122.211 107.701 122.254  1.00  0.00     0.158 A 
BRANCH  15  18
ATOM     18  O   UNL     1     122.935 109.701 121.089  1.00  0.00    -0.504 OA
ATOM     19  H   UNL     1     123.789 109.353 120.672  1.00  0.00     0.293 HD
ENDBRANCH  15  18
BRANCH  17  20
ATOM     20  O   UNL     1     123.521 107.409 122.633  1.00  0.00    -0.504 OA
ATOM     21  H   UNL     1     123.941 106.502 122.464  1.00  0.00     0.293 HD
ENDBRANCH  17  20
ENDBRANCH   1  12
BRANCH   6  22
ATOM     22  O   UNL     1     115.566 102.348 124.118  1.00  0.00    -0.507 OA
ATOM     23  H   UNL     1     114.993 101.869 124.796  1.00  0.00     0.293 HD
ENDBRANCH   6  22
BRANCH   8  24
ATOM     24  O   UNL     1     112.877 106.291 123.777  1.00  0.00    -0.508 OA
ATOM     25  H   UNL     1     112.751 107.208 124.188  1.00  0.00     0.293 HD
ENDBRANCH   8  24
TORSDOF 5
ENDMDL
MODEL 2
REMARK VINA RESULT:    -4.923      1.867      7.066
REMARK INTER + INTRA:          -6.076
REMARK INTER:                  -5.793
REMARK INTRA:                  -0.283
REMARK UNBOUND:                -0.289
REMARK SMILES O=c1cc(-c2ccc(O)c(O)c2)oc2cc(O)cc(O)c12
REMARK SMILES IDX 4 1 3 2 2 3 1 4 21 5 19 6 18 7 16 8 15 9 14 10 13 11 5 12
REMARK SMILES IDX 6 13 7 14 8 15 12 16 10 17 9 18 11 20 20 22 17 24
REMARK H PARENT 9 19 11 21 20 23 17 25
REMARK Flexibility Score: inf
ROOT
ATOM      1  C   UNL     1     119.236 105.555 122.447  1.00  0.00     0.138 A 
ATOM      2  C   UNL     1     119.833 104.689 121.521  1.00  0.00     0.100 A 
ATOM      3  C   UNL     1     121.162 104.888 121.146  1.00  0.00     0.197 A 
ATOM      4  O   UNL     1     121.651 104.132 120.266  1.00  0.00    -0.289 OA
ATOM      5  C   UNL     1     121.906 105.943 121.726  1.00  0.00     0.107 A 
ATOM      6  C   UNL     1     123.280 106.216 121.451  1.00  0.00     0.134 A 
ATOM      7  C   UNL     1     123.878 107.358 121.997  1.00  0.00     0.093 A 
ATOM      8  C   UNL     1     123.174 108.201 122.855  1.00  0.00     0.123 A 
ATOM      9  C   UNL     1     121.846 107.914 123.174  1.00  0.00     0.094 A 
ATOM     10  C   UNL     1     121.210 106.802 122.618  1.00  0.00     0.146 A 
ATOM     11  O   UNL     1     119.940 106.570 122.936  1.00  0.00    -0.456 OA
ENDROOT
BRANCH   1  12
ATOM     12  C   UNL     1     117.826 105.388 122.881  1.00  0.00     0.021 A 
ATOM     13  C   UNL     1     117.368 104.190 123.462  1.00  0.00     0.016 A 
ATOM     14  C   UNL     1     116.038 104.065 123.872  1.00  0.00     0.051 A 
ATOM     15  C   UNL     1     115.145 105.133 123.717  1.00  0.00     0.157 A 
ATOM     16  C   UNL     1     116.927 106.460 122.741  1.00  0.00     0.062 A 
ATOM     17  C   UNL     1     115.594 106.337 123.149  1.00  0.00     0.158 A 
BRANCH  15  18
ATOM     18  O   UNL     1     113.818 105.003 124.124  1.00  0.00    -0.504 OA
ATOM     19  H   UNL     1     113.164 105.773 124.053  1.00  0.00     0.293 HD
ENDBRANCH  15  18
BRANCH  17  20
ATOM     20  O   UNL     1     114.732 107.420 122.983  1.00  0.00    -0.504 OA
ATOM     21  H   UNL     1     113.734 107.344 123.146  1.00  0.00     0.293 HD
ENDBRANCH  17  20
ENDBRANCH   1  12
BRANCH   6  22
ATOM     22  O   UNL     1     124.099 105.392 120.674  1.00  0.00    -0.507 OA
ATOM     23  H   UNL     1     123.936 104.411 120.504  1.00  0.00     0.293 HD
ENDBRANCH   6  22
BRANCH   8  24
ATOM     24  O   UNL     1     123.807 109.321 123.391  1.00  0.00    -0.508 OA
ATOM     25  H   UNL     1     124.815 109.372 123.471  1.00  0.00     0.293 HD
ENDBRANCH   8  24
TORSDOF 5
ENDMDL
MODEL 3
REMARK VINA RESULT:    -4.770     14.987     16.469
REMARK INTER + INTRA:          -5.895
REMARK INTER:                  -5.580
REMARK INTRA:                  -0.316
REMARK UNBOUND:                -0.289
REMARK SMILES O=c1cc(-c2ccc(O)c(O)c2)oc2cc(O)cc(O)c12
REMARK SMILES IDX 4 1 3 2 2 3 1 4 21 5 19 6 18 7 16 8 15 9 14 10 13 11 5 12
REMARK SMILES IDX 6 13 7 14 8 15 12 16 10 17 9 18 11 20 20 22 17 24
REMARK H PARENT 9 19 11 21 20 23 17 25
REMARK Flexibility Score: inf
ROOT
ATOM      1  C   UNL     1     123.691 110.611 108.482  1.00  0.00     0.138 A 
ATOM      2  C   UNL     1     122.370 110.210 108.719  1.00  0.00     0.100 A 
ATOM      3  C   UNL     1     122.068 108.851 108.818  1.00  0.00     0.197 A 
ATOM      4  O   UNL     1     120.863 108.520 108.969  1.00  0.00    -0.289 OA
ATOM      5  C   UNL     1     123.102 107.891 108.708  1.00  0.00     0.107 A 
ATOM      6  C   UNL     1     122.918 106.481 108.832  1.00  0.00     0.134 A 
ATOM      7  C   UNL     1     123.996 105.621 108.589  1.00  0.00     0.093 A 
ATOM      8  C   UNL     1     125.263 106.121 108.287  1.00  0.00     0.123 A 
ATOM      9  C   UNL     1     125.466 107.499 108.216  1.00  0.00     0.094 A 
ATOM     10  C   UNL     1     124.403 108.382 108.419  1.00  0.00     0.146 A 
ATOM     11  O   UNL     1     124.634 109.688 108.329  1.00  0.00    -0.456 OA
ENDROOT
BRANCH   1  12
ATOM     12  C   UNL     1     124.068 112.043 108.369  1.00  0.00     0.021 A 
ATOM     13  C   UNL     1     123.097 113.055 108.243  1.00  0.00     0.016 A 
ATOM     14  C   UNL     1     123.480 114.396 108.150  1.00  0.00     0.051 A 
ATOM     15  C   UNL     1     124.834 114.751 108.190  1.00  0.00     0.157 A 
ATOM     16  C   UNL     1     125.425 112.408 108.421  1.00  0.00     0.062 A 
ATOM     17  C   UNL     1     125.811 113.751 108.328  1.00  0.00     0.158 A 
BRANCH  15  18
ATOM     18  O   UNL     1     125.212 116.089 108.095  1.00  0.00    -0.504 OA
ATOM     19  H   UNL     1     125.040 116.743 108.848  1.00  0.00     0.293 HD
ENDBRANCH  15  18
BRANCH  17  20
ATOM     20  O   UNL     1     127.167 114.070 108.374  1.00  0.00    -0.504 OA
ATOM     21  H   UNL     1     127.506 115.009 108.197  1.00  0.00     0.293 HD
ENDBRANCH  17  20
ENDBRANCH   1  12
BRANCH   6  22
ATOM     22  O   UNL     1     121.714 105.881 109.212  1.00  0.00    -0.507 OA
ATOM     23  H   UNL     1     120.842 106.370 109.344  1.00  0.00     0.293 HD
ENDBRANCH   6  22
BRANCH   8  24
ATOM     24  O   UNL     1     126.315 105.235 108.065  1.00  0.00    -0.508 OA
ATOM     25  H   UNL     1     126.779 104.761 108.831  1.00  0.00     0.293 HD
ENDBRANCH   8  24
TORSDOF 5
ENDMDL
MODEL 4
REMARK VINA RESULT:    -4.713      1.432      7.451
REMARK INTER + INTRA:          -5.829
REMARK INTER:                  -5.550
REMARK INTRA:                  -0.279
REMARK UNBOUND:                -0.289
REMARK SMILES O=c1cc(-c2ccc(O)c(O)c2)oc2cc(O)cc(O)c12
REMARK SMILES IDX 4 1 3 2 2 3 1 4 21 5 19 6 18 7 16 8 15 9 14 10 13 11 5 12
REMARK SMILES IDX 6 13 7 14 8 15 12 16 10 17 9 18 11 20 20 22 17 24
REMARK H PARENT 9 19 11 21 20 23 17 25
REMARK Flexibility Score: inf
ROOT
ATOM      1  C   UNL     1     117.515 106.784 122.176  1.00  0.00     0.138 A 
ATOM      2  C   UNL     1     117.298 107.826 121.266  1.00  0.00     0.100 A 
ATOM      3  C   UNL     1     118.377 108.596 120.828  1.00  0.00     0.197 A 
ATOM      4  O   UNL     1     118.143 109.564 120.059  1.00  0.00    -0.289 OA
ATOM      5  C   UNL     1     119.684 108.298 121.282  1.00  0.00     0.107 A 
ATOM      6  C   UNL     1     120.864 108.989 120.872  1.00  0.00     0.134 A 
ATOM      7  C   UNL     1     122.088 108.681 121.478  1.00  0.00     0.093 A 
ATOM      8  C   UNL     1     122.187 107.669 122.432  1.00  0.00     0.123 A 
ATOM      9  C   UNL     1     121.049 106.951 122.801  1.00  0.00     0.094 A 
ATOM     10  C   UNL     1     119.807 107.257 122.240  1.00  0.00     0.146 A 
ATOM     11  O   UNL     1     118.744 106.559 122.629  1.00  0.00    -0.456 OA
ENDROOT
BRANCH   1  12
ATOM     12  C   UNL     1     116.404 105.933 122.674  1.00  0.00     0.021 A 
ATOM     13  C   UNL     1     116.564 104.548 122.871  1.00  0.00     0.016 A 
ATOM     14  C   UNL     1     115.504 103.774 123.351  1.00  0.00     0.051 A 
ATOM     15  C   UNL     1     114.271 104.368 123.649  1.00  0.00     0.157 A 
ATOM     16  C   UNL     1     115.167 106.524 122.987  1.00  0.00     0.062 A 
ATOM     17  C   UNL     1     114.104 105.751 123.467  1.00  0.00     0.158 A 
BRANCH  15  18
ATOM     18  O   UNL     1     113.215 103.592 124.125  1.00  0.00    -0.504 OA
ATOM     19  H   UNL     1     113.255 103.143 125.031  1.00  0.00     0.293 HD
ENDBRANCH  15  18
BRANCH  17  20
ATOM     20  O   UNL     1     112.890 106.374 123.757  1.00  0.00    -0.504 OA
ATOM     21  H   UNL     1     112.808 107.085 124.475  1.00  0.00     0.293 HD
ENDBRANCH  17  20
ENDBRANCH   1  12
BRANCH   6  22
ATOM     22  O   UNL     1     120.891 109.959 119.866  1.00  0.00    -0.507 OA
ATOM     23  H   UNL     1     120.934 109.764 118.878  1.00  0.00     0.293 HD
ENDBRANCH   6  22
BRANCH   8  24
ATOM     24  O   UNL     1     123.424 107.381 123.003  1.00  0.00    -0.508 OA
ATOM     25  H   UNL     1     123.854 106.468 122.904  1.00  0.00     0.293 HD
ENDBRANCH   8  24
TORSDOF 5
ENDMDL
MODEL 5
REMARK VINA RESULT:    -4.557     15.186     16.508
REMARK INTER + INTRA:          -5.645
REMARK INTER:                  -5.336
REMARK INTRA:                  -0.309
REMARK UNBOUND:                -0.289
REMARK SMILES O=c1cc(-c2ccc(O)c(O)c2)oc2cc(O)cc(O)c12
REMARK SMILES IDX 4 1 3 2 2 3 1 4 21 5 19 6 18 7 16 8 15 9 14 10 13 11 5 12
REMARK SMILES IDX 6 13 7 14 8 15 12 16 10 17 9 18 11 20 20 22 17 24
REMARK H PARENT 9 19 11 21 20 23 17 25
REMARK Flexibility Score: inf
ROOT
ATOM      1  C   UNL     1     124.819 110.171 108.776  1.00  0.00     0.138 A 
ATOM      2  C   UNL     1     125.573 109.589 109.803  1.00  0.00     0.100 A 
ATOM      3  C   UNL     1     125.548 108.205 109.979  1.00  0.00     0.197 A 
ATOM      4  O   UNL     1     126.185 107.717 110.949  1.00  0.00    -0.289 OA
ATOM      5  C   UNL     1     124.787 107.398 109.099  1.00  0.00     0.107 A 
ATOM      6  C   UNL     1     124.719 105.973 109.157  1.00  0.00     0.134 A 
ATOM      7  C   UNL     1     123.840 105.290 108.307  1.00  0.00     0.093 A 
ATOM      8  C   UNL     1     123.075 105.972 107.361  1.00  0.00     0.123 A 
ATOM      9  C   UNL     1     123.174 107.360 107.260  1.00  0.00     0.094 A 
ATOM     10  C   UNL     1     124.015 108.074 108.117  1.00  0.00     0.146 A 
ATOM     11  O   UNL     1     124.071 109.397 107.998  1.00  0.00    -0.456 OA
ENDROOT
BRANCH   1  12
ATOM     12  C   UNL     1     124.810 111.638 108.544  1.00  0.00     0.021 A 
ATOM     13  C   UNL     1     125.910 112.447 108.891  1.00  0.00     0.016 A 
ATOM     14  C   UNL     1     125.879 113.824 108.651  1.00  0.00     0.051 A 
ATOM     15  C   UNL     1     124.756 114.415 108.057  1.00  0.00     0.157 A 
ATOM     16  C   UNL     1     123.693 112.237 107.936  1.00  0.00     0.062 A 
ATOM     17  C   UNL     1     123.659 113.615 107.696  1.00  0.00     0.158 A 
BRANCH  15  18
ATOM     18  O   UNL     1     124.728 115.788 107.821  1.00  0.00    -0.504 OA
ATOM     19  H   UNL     1     125.126 116.447 108.480  1.00  0.00     0.293 HD
ENDBRANCH  15  18
BRANCH  17  20
ATOM     20  O   UNL     1     122.528 114.171 107.099  1.00  0.00    -0.504 OA
ATOM     21  H   UNL     1     121.812 113.599 106.666  1.00  0.00     0.293 HD
ENDBRANCH  17  20
ENDBRANCH   1  12
BRANCH   6  22
ATOM     22  O   UNL     1     125.503 105.188 110.006  1.00  0.00    -0.507 OA
ATOM     23  H   UNL     1     125.706 104.211 109.864  1.00  0.00     0.293 HD
ENDBRANCH   6  22
BRANCH   8  24
ATOM     24  O   UNL     1     122.224 105.258 106.522  1.00  0.00    -0.508 OA
ATOM     25  H   UNL     1     121.243 105.498 106.433  1.00  0.00     0.293 HD
ENDBRANCH   8  24
TORSDOF 5
ENDMDL
MODEL 6
REMARK VINA RESULT:    -4.498     14.984     16.134
REMARK INTER + INTRA:          -5.576
REMARK INTER:                  -5.281
REMARK INTRA:                  -0.295
REMARK UNBOUND:                -0.289
REMARK SMILES O=c1cc(-c2ccc(O)c(O)c2)oc2cc(O)cc(O)c12
REMARK SMILES IDX 4 1 3 2 2 3 1 4 21 5 19 6 18 7 16 8 15 9 14 10 13 11 5 12
REMARK SMILES IDX 6 13 7 14 8 15 12 16 10 17 9 18 11 20 20 22 17 24
REMARK H PARENT 9 19 11 21 20 23 17 25
REMARK Flexibility Score: inf
ROOT
ATOM      1  C   UNL     1     123.880 110.559 108.350  1.00  0.00     0.138 A 
ATOM      2  C   UNL     1     124.868 109.569 108.432  1.00  0.00     0.100 A 
ATOM      3  C   UNL     1     124.496 108.224 108.474  1.00  0.00     0.197 A 
ATOM      4  O   UNL     1     125.402 107.361 108.611  1.00  0.00    -0.289 OA
ATOM      5  C   UNL     1     123.128 107.870 108.402  1.00  0.00     0.107 A 
ATOM      6  C   UNL     1     122.634 106.531 108.395  1.00  0.00     0.134 A 
ATOM      7  C   UNL     1     121.253 106.305 108.439  1.00  0.00     0.093 A 
ATOM      8  C   UNL     1     120.348 107.366 108.426  1.00  0.00     0.123 A 
ATOM      9  C   UNL     1     120.819 108.679 108.378  1.00  0.00     0.094 A 
ATOM     10  C   UNL     1     122.192 108.938 108.370  1.00  0.00     0.146 A 
ATOM     11  O   UNL     1     122.600 110.202 108.338  1.00  0.00    -0.456 OA
ENDROOT
BRANCH   1  12
ATOM     12  C   UNL     1     124.220 112.003 108.301  1.00  0.00     0.021 A 
ATOM     13  C   UNL     1     123.223 112.995 108.220  1.00  0.00     0.016 A 
ATOM     14  C   UNL     1     123.572 114.348 108.187  1.00  0.00     0.051 A 
ATOM     15  C   UNL     1     124.917 114.735 108.241  1.00  0.00     0.157 A 
ATOM     16  C   UNL     1     125.567 112.400 108.367  1.00  0.00     0.062 A 
ATOM     17  C   UNL     1     125.919 113.755 108.333  1.00  0.00     0.158 A 
BRANCH  15  18
ATOM     18  O   UNL     1     125.261 116.086 108.205  1.00  0.00    -0.504 OA
ATOM     19  H   UNL     1     126.194 116.388 107.953  1.00  0.00     0.293 HD
ENDBRANCH  15  18
BRANCH  17  20
ATOM     20  O   UNL     1     127.267 114.106 108.392  1.00  0.00    -0.504 OA
ATOM     21  H   UNL     1     127.607 114.997 108.048  1.00  0.00     0.293 HD
ENDBRANCH  17  20
ENDBRANCH   1  12
BRANCH   6  22
ATOM     22  O   UNL     1     123.450 105.398 108.323  1.00  0.00    -0.507 OA
ATOM     23  H   UNL     1     123.688 104.808 109.105  1.00  0.00     0.293 HD
ENDBRANCH   6  22
BRANCH   8  24
ATOM     24  O   UNL     1     118.980 107.103 108.455  1.00  0.00    -0.508 OA
ATOM     25  H   UNL     1     118.460 107.097 109.324  1.00  0.00     0.293 HD
ENDBRANCH   8  24
TORSDOF 5
ENDMDL
MODEL 7
REMARK VINA RESULT:    -4.464      1.707      7.580
REMARK INTER + INTRA:          -5.535
REMARK INTER:                  -5.257
REMARK INTRA:                  -0.278
REMARK UNBOUND:                -0.289
REMARK SMILES O=c1cc(-c2ccc(O)c(O)c2)oc2cc(O)cc(O)c12
REMARK SMILES IDX 4 1 3 2 2 3 1 4 21 5 19 6 18 7 16 8 15 9 14 10 13 11 5 12
REMARK SMILES IDX 6 13 7 14 8 15 12 16 10 17 9 18 11 20 20 22 17 24
REMARK H PARENT 9 19 11 21 20 23 17 25
REMARK Flexibility Score: inf
ROOT
ATOM      1  C   UNL     1     119.412 107.086 122.230  1.00  0.00     0.138 A 
ATOM      2  C   UNL     1     118.855 108.110 121.453  1.00  0.00     0.100 A 
ATOM      3  C   UNL     1     119.623 109.231 121.135  1.00  0.00     0.197 A 
ATOM      4  O   UNL     1     119.076 110.163 120.489  1.00  0.00    -0.289 OA
ATOM      5  C   UNL     1     120.966 109.311 121.573  1.00  0.00     0.107 A 
ATOM      6  C   UNL     1     121.856 110.387 121.275  1.00  0.00     0.134 A 
ATOM      7  C   UNL     1     123.128 110.412 121.861  1.00  0.00     0.093 A 
ATOM      8  C   UNL     1     123.564 109.373 122.683  1.00  0.00     0.123 A 
ATOM      9  C   UNL     1     122.722 108.290 122.938  1.00  0.00     0.094 A 
ATOM     10  C   UNL     1     121.435 108.253 122.396  1.00  0.00     0.146 A 
ATOM     11  O   UNL     1     120.658 107.210 122.675  1.00  0.00    -0.456 OA
ENDROOT
BRANCH   1  12
ATOM     12  C   UNL     1     118.641 105.872 122.597  1.00  0.00     0.021 A 
ATOM     13  C   UNL     1     119.233 104.594 122.607  1.00  0.00     0.016 A 
ATOM     14  C   UNL     1     118.485 103.469 122.967  1.00  0.00     0.051 A 
ATOM     15  C   UNL     1     117.139 103.600 123.329  1.00  0.00     0.157 A 
ATOM     16  C   UNL     1     117.292 105.996 122.974  1.00  0.00     0.062 A 
ATOM     17  C   UNL     1     116.540 104.871 123.334  1.00  0.00     0.158 A 
BRANCH  15  18
ATOM     18  O   UNL     1     116.396 102.476 123.684  1.00  0.00    -0.504 OA
ATOM     19  H   UNL     1     116.126 102.301 124.645  1.00  0.00     0.293 HD
ENDBRANCH  15  18
BRANCH  17  20
ATOM     20  O   UNL     1     115.203 105.036 123.692  1.00  0.00    -0.504 OA
ATOM     21  H   UNL     1     114.497 105.321 123.022  1.00  0.00     0.293 HD
ENDBRANCH  17  20
ENDBRANCH   1  12
BRANCH   6  22
ATOM     22  O   UNL     1     121.551 111.432 120.399  1.00  0.00    -0.507 OA
ATOM     23  H   UNL     1     121.850 111.484 119.437  1.00  0.00     0.293 HD
ENDBRANCH   6  22
BRANCH   8  24
ATOM     24  O   UNL     1     124.841 109.425 123.236  1.00  0.00    -0.508 OA
ATOM     25  H   UNL     1     124.994 109.299 124.230  1.00  0.00     0.293 HD
ENDBRANCH   8  24
TORSDOF 5
ENDMDL
MODEL 8
REMARK VINA RESULT:    -4.413     15.805     17.800
REMARK INTER + INTRA:          -5.476
REMARK INTER:                  -5.185
REMARK INTRA:                  -0.291
REMARK UNBOUND:                -0.289
REMARK SMILES O=c1cc(-c2ccc(O)c(O)c2)oc2cc(O)cc(O)c12
REMARK SMILES IDX 4 1 3 2 2 3 1 4 21 5 19 6 18 7 16 8 15 9 14 10 13 11 5 12
REMARK SMILES IDX 6 13 7 14 8 15 12 16 10 17 9 18 11 20 20 22 17 24
REMARK H PARENT 9 19 11 21 20 23 17 25
REMARK Flexibility Score: inf
ROOT
ATOM      1  C   UNL     1     125.168 114.366 108.874  1.00  0.00     0.138 A 
ATOM      2  C   UNL     1     123.788 114.509 108.676  1.00  0.00     0.100 A 
ATOM      3  C   UNL     1     122.980 113.374 108.600  1.00  0.00     0.197 A 
ATOM      4  O   UNL     1     121.755 113.531 108.359  1.00  0.00    -0.289 OA
ATOM      5  C   UNL     1     123.555 112.090 108.755  1.00  0.00     0.107 A 
ATOM      6  C   UNL     1     122.824 110.864 108.738  1.00  0.00     0.134 A 
ATOM      7  C   UNL     1     123.516 109.647 108.785  1.00  0.00     0.093 A 
ATOM      8  C   UNL     1     124.904 109.612 108.912  1.00  0.00     0.123 A 
ATOM      9  C   UNL     1     125.624 110.805 108.984  1.00  0.00     0.094 A 
ATOM     10  C   UNL     1     124.967 112.034 108.904  1.00  0.00     0.146 A 
ATOM     11  O   UNL     1     125.690 113.148 108.963  1.00  0.00    -0.456 OA
ENDROOT
BRANCH   1  12
ATOM     12  C   UNL     1     126.073 115.540 108.964  1.00  0.00     0.021 A 
ATOM     13  C   UNL     1     127.369 115.435 109.504  1.00  0.00     0.016 A 
ATOM     14  C   UNL     1     128.203 116.555 109.566  1.00  0.00     0.051 A 
ATOM     15  C   UNL     1     127.763 117.794 109.083  1.00  0.00     0.157 A 
ATOM     16  C   UNL     1     125.644 116.784 108.469  1.00  0.00     0.062 A 
ATOM     17  C   UNL     1     126.477 117.907 108.530  1.00  0.00     0.158 A 
BRANCH  15  18
ATOM     18  O   UNL     1     128.598 118.909 109.148  1.00  0.00    -0.504 OA
ATOM     19  H   UNL     1     128.229 119.850 109.096  1.00  0.00     0.293 HD
ENDBRANCH  15  18
BRANCH  17  20
ATOM     20  O   UNL     1     126.009 119.125 108.038  1.00  0.00    -0.504 OA
ATOM     21  H   UNL     1     125.351 119.177 107.268  1.00  0.00     0.293 HD
ENDBRANCH  17  20
ENDBRANCH   1  12
BRANCH   6  22
ATOM     22  O   UNL     1     121.429 110.788 108.699  1.00  0.00    -0.507 OA
ATOM     23  H   UNL     1     120.843 110.544 109.483  1.00  0.00     0.293 HD
ENDBRANCH   6  22
BRANCH   8  24
ATOM     24  O   UNL     1     125.557 108.383 108.971  1.00  0.00    -0.508 OA
ATOM     25  H   UNL     1     126.529 108.312 109.252  1.00  0.00     0.293 HD
ENDBRANCH   8  24
TORSDOF 5
ENDMDL
MODEL 9
REMARK VINA RESULT:    -4.408     16.525     20.051
REMARK INTER + INTRA:          -5.471
REMARK INTER:                  -5.190
REMARK INTRA:                  -0.281
REMARK UNBOUND:                -0.289
REMARK SMILES O=c1cc(-c2ccc(O)c(O)c2)oc2cc(O)cc(O)c12
REMARK SMILES IDX 4 1 3 2 2 3 1 4 21 5 19 6 18 7 16 8 15 9 14 10 13 11 5 12
REMARK SMILES IDX 6 13 7 14 8 15 12 16 10 17 9 18 11 20 20 22 17 24
REMARK H PARENT 9 19 11 21 20 23 17 25
REMARK Flexibility Score: inf
ROOT
ATOM      1  C   UNL     1     126.858 115.135 109.301  1.00  0.00     0.138 A 
ATOM      2  C   UNL     1     126.591 116.498 109.481  1.00  0.00     0.100 A 
ATOM      3  C   UNL     1     127.643 117.382 109.725  1.00  0.00     0.197 A 
ATOM      4  O   UNL     1     127.367 118.590 109.945  1.00  0.00    -0.289 OA
ATOM      5  C   UNL     1     128.974 116.900 109.757  1.00  0.00     0.107 A 
ATOM      6  C   UNL     1     130.129 117.714 109.956  1.00  0.00     0.134 A 
ATOM      7  C   UNL     1     131.385 117.109 110.084  1.00  0.00     0.093 A 
ATOM      8  C   UNL     1     131.536 115.728 109.959  1.00  0.00     0.123 A 
ATOM      9  C   UNL     1     130.421 114.928 109.711  1.00  0.00     0.094 A 
ATOM     10  C   UNL     1     129.150 115.498 109.612  1.00  0.00     0.146 A 
ATOM     11  O   UNL     1     128.110 114.699 109.389  1.00  0.00    -0.456 OA
ENDROOT
BRANCH   1  12
ATOM     12  C   UNL     1     125.777 114.152 109.038  1.00  0.00     0.021 A 
ATOM     13  C   UNL     1     125.789 112.867 109.614  1.00  0.00     0.016 A 
ATOM     14  C   UNL     1     124.752 111.966 109.357  1.00  0.00     0.051 A 
ATOM     15  C   UNL     1     123.683 112.333 108.530  1.00  0.00     0.157 A 
ATOM     16  C   UNL     1     124.694 114.517 108.219  1.00  0.00     0.062 A 
ATOM     17  C   UNL     1     123.654 113.616 107.960  1.00  0.00     0.158 A 
BRANCH  15  18
ATOM     18  O   UNL     1     122.651 111.431 108.275  1.00  0.00    -0.504 OA
ATOM     19  H   UNL     1     122.426 110.686 108.923  1.00  0.00     0.293 HD
ENDBRANCH  15  18
BRANCH  17  20
ATOM     20  O   UNL     1     122.603 114.015 107.134  1.00  0.00    -0.504 OA
ATOM     21  H   UNL     1     121.763 113.457 107.025  1.00  0.00     0.293 HD
ENDBRANCH  17  20
ENDBRANCH   1  12
BRANCH   6  22
ATOM     22  O   UNL     1     130.100 119.110 110.010  1.00  0.00    -0.507 OA
ATOM     23  H   UNL     1     130.646 119.674 110.643  1.00  0.00     0.293 HD
ENDBRANCH   6  22
BRANCH   8  24
ATOM     24  O   UNL     1     132.804 115.162 110.078  1.00  0.00    -0.508 OA
ATOM     25  H   UNL     1     133.645 115.711 109.937  1.00  0.00     0.293 HD
ENDBRANCH   8  24
TORSDOF 5
ENDMDL
