MODEL 1
REMARK VINA RESULT:    -4.445      0.000      0.000
REMARK INTER + INTRA:         -10.337
REMARK INTER:                  -8.343
REMARK INTRA:                  -1.994
REMARK UNBOUND:                -1.994
REMARK SMILES CCCCCCCCC=CCCCCCCCC(=O)[O-]
REMARK SMILES IDX 10 1 9 2 11 3 12 4 13 5 14 6 15 7 16 8 17 9 18 10 19 11
REMARK SMILES IDX 20 12 8 13 7 14 6 15 5 16 4 17 3 18 2 19 1 20
REMARK H PARENT
REMARK Flexibility Score: inf
ROOT
ATOM      1  C   UNL     1    -102.352  24.852  14.337  1.00  0.00    -0.031 C 
ATOM      2  C   UNL     1    -102.754  23.675  13.832  1.00  0.00    -0.031 C 
ENDROOT
BRANCH   1   3
ATOM      3  C   UNL     1    -102.020  25.016  15.795  1.00  0.00     0.027 C 
BRANCH   3   4
ATOM      4  C   UNL     1    -102.588  23.864  16.640  1.00  0.00     0.004 C 
BRANCH   4   5
ATOM      5  C   UNL     1    -103.855  24.227  17.441  1.00  0.00     0.000 C 
BRANCH   5   6
ATOM      6  C   UNL     1    -105.161  23.612  16.905  1.00  0.00     0.000 C 
BRANCH   6   7
ATOM      7  C   UNL     1    -105.878  24.523  15.895  1.00  0.00     0.000 C 
BRANCH   7   8
ATOM      8  C   UNL     1    -105.745  26.013  16.245  1.00  0.00     0.006 C 
BRANCH   8   9
ATOM      9  C   UNL     1    -105.642  26.903  14.998  1.00  0.00     0.053 C 
BRANCH   9  10
ATOM     10  C   UNL     1    -104.518  27.879  15.146  1.00  0.00     0.041 C 
ATOM     11  O   UNL     1    -104.223  28.654  14.199  1.00  0.00    -0.550 OA
ATOM     12  O   UNL     1    -103.829  27.970  16.349  1.00  0.00    -0.550 OA
ENDBRANCH   9  10
ENDBRANCH   8   9
ENDBRANCH   7   8
ENDBRANCH   6   7
ENDBRANCH   5   6
ENDBRANCH   4   5
ENDBRANCH   3   4
ENDBRANCH   1   3
BRANCH   2  13
ATOM     13  C   UNL     1    -103.040  23.505  12.364  1.00  0.00     0.027 C 
BRANCH  13  14
ATOM     14  C   UNL     1    -103.506  22.080  12.018  1.00  0.00     0.004 C 
BRANCH  14  15
ATOM     15  C   UNL     1    -104.452  21.459  13.063  1.00  0.00     0.000 C 
BRANCH  15  16
ATOM     16  C   UNL     1    -104.934  20.054  12.665  1.00  0.00     0.000 C 
BRANCH  16  17
ATOM     17  C   UNL     1    -105.088  19.113  13.871  1.00  0.00    -0.000 C 
BRANCH  17  18
ATOM     18  C   UNL     1    -104.167  19.466  15.057  1.00  0.00    -0.000 C 
BRANCH  18  19
ATOM     19  C   UNL     1    -103.932  18.267  15.987  1.00  0.00    -0.003 C 
ATOM     20  C   UNL     1    -102.669  17.508  15.600  1.00  0.00     0.004 C 
ENDBRANCH  18  19
ENDBRANCH  17  18
ENDBRANCH  16  17
ENDBRANCH  15  16
ENDBRANCH  14  15
ENDBRANCH  13  14
ENDBRANCH   2  13
TORSDOF 15
ENDMDL
MODEL 2
REMARK VINA RESULT:    -4.314      3.231      6.555
REMARK INTER + INTRA:         -10.090
REMARK INTER:                  -7.262
REMARK INTRA:                  -2.829
REMARK UNBOUND:                -1.994
REMARK SMILES CCCCCCCCC=CCCCCCCCC(=O)[O-]
REMARK SMILES IDX 10 1 9 2 11 3 12 4 13 5 14 6 15 7 16 8 17 9 18 10 19 11
REMARK SMILES IDX 20 12 8 13 7 14 6 15 5 16 4 17 3 18 2 19 1 20
REMARK H PARENT
REMARK Flexibility Score: inf
ROOT
ATOM      1  C   UNL     1    -102.328  24.861  15.289  1.00  0.00    -0.031 C 
ATOM      2  C   UNL     1    -102.607  23.800  16.062  1.00  0.00    -0.031 C 
ENDROOT
BRANCH   1   3
ATOM      3  C   UNL     1    -101.913  24.707  13.851  1.00  0.00     0.027 C 
BRANCH   3   4
ATOM      4  C   UNL     1    -103.111  24.374  12.948  1.00  0.00     0.004 C 
BRANCH   4   5
ATOM      5  C   UNL     1    -102.832  23.280  11.896  1.00  0.00     0.000 C 
BRANCH   5   6
ATOM      6  C   UNL     1    -103.696  22.013  12.032  1.00  0.00     0.000 C 
BRANCH   6   7
ATOM      7  C   UNL     1    -104.786  22.147  13.110  1.00  0.00     0.000 C 
BRANCH   7   8
ATOM      8  C   UNL     1    -105.107  20.810  13.795  1.00  0.00     0.006 C 
BRANCH   8   9
ATOM      9  C   UNL     1    -104.121  20.476  14.923  1.00  0.00     0.053 C 
BRANCH   9  10
ATOM     10  C   UNL     1    -104.378  19.098  15.448  1.00  0.00     0.041 C 
ATOM     11  O   UNL     1    -105.516  18.790  15.887  1.00  0.00    -0.550 OA
ATOM     12  O   UNL     1    -103.374  18.140  15.404  1.00  0.00    -0.550 OA
ENDBRANCH   9  10
ENDBRANCH   8   9
ENDBRANCH   7   8
ENDBRANCH   6   7
ENDBRANCH   5   6
ENDBRANCH   4   5
ENDBRANCH   3   4
ENDBRANCH   1   3
BRANCH   2  13
ATOM     13  C   UNL     1    -103.066  23.962  17.486  1.00  0.00     0.027 C 
BRANCH  13  14
ATOM     14  C   UNL     1    -104.576  24.235  17.588  1.00  0.00     0.004 C 
BRANCH  14  15
ATOM     15  C   UNL     1    -105.432  23.393  16.623  1.00  0.00     0.000 C 
BRANCH  15  16
ATOM     16  C   UNL     1    -106.625  24.177  16.052  1.00  0.00     0.000 C 
BRANCH  16  17
ATOM     17  C   UNL     1    -106.220  25.137  14.920  1.00  0.00    -0.000 C 
BRANCH  17  18
ATOM     18  C   UNL     1    -106.402  26.627  15.274  1.00  0.00    -0.000 C 
BRANCH  18  19
ATOM     19  C   UNL     1    -105.083  27.290  15.696  1.00  0.00    -0.003 C 
ATOM     20  C   UNL     1    -104.466  28.073  14.543  1.00  0.00     0.004 C 
ENDBRANCH  18  19
ENDBRANCH  17  18
ENDBRANCH  16  17
ENDBRANCH  15  16
ENDBRANCH  14  15
ENDBRANCH  13  14
ENDBRANCH   2  13
TORSDOF 15
ENDMDL
MODEL 3
REMARK VINA RESULT:    -4.137      3.387      6.645
REMARK INTER + INTRA:          -9.758
REMARK INTER:                  -7.387
REMARK INTRA:                  -2.371
REMARK UNBOUND:                -1.994
REMARK SMILES CCCCCCCCC=CCCCCCCCC(=O)[O-]
REMARK SMILES IDX 10 1 9 2 11 3 12 4 13 5 14 6 15 7 16 8 17 9 18 10 19 11
REMARK SMILES IDX 20 12 8 13 7 14 6 15 5 16 4 17 3 18 2 19 1 20
REMARK H PARENT
REMARK Flexibility Score: inf
ROOT
ATOM      1  C   UNL     1    -102.734  23.787  13.706  1.00  0.00    -0.031 C 
ATOM      2  C   UNL     1    -101.907  24.698  14.244  1.00  0.00    -0.031 C 
ENDROOT
BRANCH   1   3
ATOM      3  C   UNL     1    -102.814  23.571  12.219  1.00  0.00     0.027 C 
BRANCH   3   4
ATOM      4  C   UNL     1    -103.522  22.252  11.875  1.00  0.00     0.004 C 
BRANCH   4   5
ATOM      5  C   UNL     1    -104.234  21.581  13.068  1.00  0.00     0.000 C 
BRANCH   5   6
ATOM      6  C   UNL     1    -105.381  20.628  12.687  1.00  0.00     0.000 C 
BRANCH   6   7
ATOM      7  C   UNL     1    -106.030  19.957  13.910  1.00  0.00     0.000 C 
BRANCH   7   8
ATOM      8  C   UNL     1    -105.819  18.436  13.930  1.00  0.00     0.006 C 
BRANCH   8   9
ATOM      9  C   UNL     1    -104.337  18.050  14.034  1.00  0.00     0.053 C 
BRANCH   9  10
ATOM     10  C   UNL     1    -103.958  17.816  15.463  1.00  0.00     0.041 C 
ATOM     11  O   UNL     1    -104.622  17.015  16.171  1.00  0.00    -0.550 OA
ATOM     12  O   UNL     1    -102.839  18.442  15.996  1.00  0.00    -0.550 OA
ENDBRANCH   9  10
ENDBRANCH   8   9
ENDBRANCH   7   8
ENDBRANCH   6   7
ENDBRANCH   5   6
ENDBRANCH   4   5
ENDBRANCH   3   4
ENDBRANCH   1   3
BRANCH   2  13
ATOM     13  C   UNL     1    -101.797  24.878  15.734  1.00  0.00     0.027 C 
BRANCH  13  14
ATOM     14  C   UNL     1    -103.127  25.315  16.372  1.00  0.00     0.004 C 
BRANCH  14  15
ATOM     15  C   UNL     1    -103.581  24.426  17.545  1.00  0.00     0.000 C 
BRANCH  15  16
ATOM     16  C   UNL     1    -105.066  24.039  17.454  1.00  0.00     0.000 C 
BRANCH  16  17
ATOM     17  C   UNL     1    -105.344  22.997  16.358  1.00  0.00    -0.000 C 
BRANCH  17  18
ATOM     18  C   UNL     1    -106.441  23.422  15.360  1.00  0.00    -0.000 C 
BRANCH  18  19
ATOM     19  C   UNL     1    -106.490  24.945  15.165  1.00  0.00    -0.003 C 
ATOM     20  C   UNL     1    -106.063  25.334  13.755  1.00  0.00     0.004 C 
ENDBRANCH  18  19
ENDBRANCH  17  18
ENDBRANCH  16  17
ENDBRANCH  15  16
ENDBRANCH  14  15
ENDBRANCH  13  14
ENDBRANCH   2  13
TORSDOF 15
ENDMDL
MODEL 4
REMARK VINA RESULT:    -4.130      3.099      6.005
REMARK INTER + INTRA:          -9.746
REMARK INTER:                  -8.830
REMARK INTRA:                  -0.916
REMARK UNBOUND:                -1.994
REMARK SMILES CCCCCCCCC=CCCCCCCCC(=O)[O-]
REMARK SMILES IDX 10 1 9 2 11 3 12 4 13 5 14 6 15 7 16 8 17 9 18 10 19 11
REMARK SMILES IDX 20 12 8 13 7 14 6 15 5 16 4 17 3 18 2 19 1 20
REMARK H PARENT
REMARK Flexibility Score: inf
ROOT
ATOM      1  C   UNL     1    -104.636  18.639  14.495  1.00  0.00    -0.031 C 
ATOM      2  C   UNL     1    -103.896  17.786  15.219  1.00  0.00    -0.031 C 
ENDROOT
BRANCH   1   3
ATOM      3  C   UNL     1    -104.734  18.528  12.997  1.00  0.00     0.027 C 
BRANCH   3   4
ATOM      4  C   UNL     1    -104.604  19.900  12.317  1.00  0.00     0.004 C 
BRANCH   4   5
ATOM      5  C   UNL     1    -104.484  21.087  13.295  1.00  0.00     0.000 C 
BRANCH   5   6
ATOM      6  C   UNL     1    -103.912  22.378  12.682  1.00  0.00     0.000 C 
BRANCH   6   7
ATOM      7  C   UNL     1    -103.088  23.202  13.688  1.00  0.00     0.000 C 
BRANCH   7   8
ATOM      8  C   UNL     1    -103.366  22.802  15.145  1.00  0.00     0.006 C 
BRANCH   8   9
ATOM      9  C   UNL     1    -102.444  23.524  16.137  1.00  0.00     0.053 C 
BRANCH   9  10
ATOM     10  C   UNL     1    -103.217  24.536  16.924  1.00  0.00     0.041 C 
ATOM     11  O   UNL     1    -103.065  25.765  16.696  1.00  0.00    -0.550 OA
ATOM     12  O   UNL     1    -104.143  24.121  17.871  1.00  0.00    -0.550 OA
ENDBRANCH   9  10
ENDBRANCH   8   9
ENDBRANCH   7   8
ENDBRANCH   6   7
ENDBRANCH   5   6
ENDBRANCH   4   5
ENDBRANCH   3   4
ENDBRANCH   1   3
BRANCH   2  13
ATOM     13  C   UNL     1    -103.838  17.873  16.721  1.00  0.00     0.027 C 
BRANCH  13  14
ATOM     14  C   UNL     1    -105.206  17.615  17.376  1.00  0.00     0.004 C 
BRANCH  14  15
ATOM     15  C   UNL     1    -105.130  16.817  18.692  1.00  0.00     0.000 C 
BRANCH  15  16
ATOM     16  C   UNL     1    -105.432  15.322  18.496  1.00  0.00     0.000 C 
BRANCH  16  17
ATOM     17  C   UNL     1    -104.254  14.552  17.877  1.00  0.00    -0.000 C 
BRANCH  17  18
ATOM     18  C   UNL     1    -104.212  13.060  18.269  1.00  0.00    -0.000 C 
BRANCH  18  19
ATOM     19  C   UNL     1    -102.791  12.591  18.615  1.00  0.00    -0.003 C 
ATOM     20  C   UNL     1    -102.710  12.090  20.052  1.00  0.00     0.004 C 
ENDBRANCH  18  19
ENDBRANCH  17  18
ENDBRANCH  16  17
ENDBRANCH  15  16
ENDBRANCH  14  15
ENDBRANCH  13  14
ENDBRANCH   2  13
TORSDOF 15
ENDMDL
MODEL 5
REMARK VINA RESULT:    -4.126      2.611      5.632
REMARK INTER + INTRA:          -9.737
REMARK INTER:                  -7.765
REMARK INTRA:                  -1.973
REMARK UNBOUND:                -1.994
REMARK SMILES CCCCCCCCC=CCCCCCCCC(=O)[O-]
REMARK SMILES IDX 10 1 9 2 11 3 12 4 13 5 14 6 15 7 16 8 17 9 18 10 19 11
REMARK SMILES IDX 20 12 8 13 7 14 6 15 5 16 4 17 3 18 2 19 1 20
REMARK H PARENT
REMARK Flexibility Score: inf
ROOT
ATOM      1  C   UNL     1    -105.168  19.111  13.794  1.00  0.00    -0.031 C 
ATOM      2  C   UNL     1    -104.731  19.002  15.059  1.00  0.00    -0.031 C 
ENDROOT
BRANCH   1   3
ATOM      3  C   UNL     1    -106.206  20.126  13.399  1.00  0.00     0.027 C 
BRANCH   3   4
ATOM      4  C   UNL     1    -105.771  20.932  12.165  1.00  0.00     0.004 C 
BRANCH   4   5
ATOM      5  C   UNL     1    -104.252  21.183  12.071  1.00  0.00     0.000 C 
BRANCH   5   6
ATOM      6  C   UNL     1    -103.844  22.665  11.977  1.00  0.00     0.000 C 
BRANCH   6   7
ATOM      7  C   UNL     1    -103.058  23.146  13.210  1.00  0.00     0.000 C 
BRANCH   7   8
ATOM      8  C   UNL     1    -103.492  22.435  14.501  1.00  0.00     0.006 C 
BRANCH   8   9
ATOM      9  C   UNL     1    -103.740  23.416  15.655  1.00  0.00     0.053 C 
BRANCH   9  10
ATOM     10  C   UNL     1    -102.440  23.875  16.237  1.00  0.00     0.041 C 
ATOM     11  O   UNL     1    -101.738  23.086  16.921  1.00  0.00    -0.550 OA
ATOM     12  O   UNL     1    -101.978  25.159  15.979  1.00  0.00    -0.550 OA
ENDBRANCH   9  10
ENDBRANCH   8   9
ENDBRANCH   7   8
ENDBRANCH   6   7
ENDBRANCH   5   6
ENDBRANCH   4   5
ENDBRANCH   3   4
ENDBRANCH   1   3
BRANCH   2  13
ATOM     13  C   UNL     1    -103.659  18.016  15.439  1.00  0.00     0.027 C 
BRANCH  13  14
ATOM     14  C   UNL     1    -103.834  17.481  16.870  1.00  0.00     0.004 C 
BRANCH  14  15
ATOM     15  C   UNL     1    -104.393  16.047  16.939  1.00  0.00     0.000 C 
BRANCH  15  16
ATOM     16  C   UNL     1    -105.001  15.714  18.311  1.00  0.00     0.000 C 
BRANCH  16  17
ATOM     17  C   UNL     1    -105.342  16.968  19.133  1.00  0.00    -0.000 C 
BRANCH  17  18
ATOM     18  C   UNL     1    -106.843  17.321  19.133  1.00  0.00    -0.000 C 
BRANCH  18  19
ATOM     19  C   UNL     1    -107.181  18.423  18.118  1.00  0.00    -0.003 C 
ATOM     20  C   UNL     1    -107.744  17.833  16.831  1.00  0.00     0.004 C 
ENDBRANCH  18  19
ENDBRANCH  17  18
ENDBRANCH  16  17
ENDBRANCH  15  16
ENDBRANCH  14  15
ENDBRANCH  13  14
ENDBRANCH   2  13
TORSDOF 15
ENDMDL
MODEL 6
REMARK VINA RESULT:    -4.105      3.481      6.827
REMARK INTER + INTRA:          -9.699
REMARK INTER:                  -7.247
REMARK INTRA:                  -2.452
REMARK UNBOUND:                -1.994
REMARK SMILES CCCCCCCCC=CCCCCCCCC(=O)[O-]
REMARK SMILES IDX 10 1 9 2 11 3 12 4 13 5 14 6 15 7 16 8 17 9 18 10 19 11
REMARK SMILES IDX 20 12 8 13 7 14 6 15 5 16 4 17 3 18 2 19 1 20
REMARK H PARENT
REMARK Flexibility Score: inf
ROOT
ATOM      1  C   UNL     1    -104.084  16.473  16.852  1.00  0.00    -0.031 C 
ATOM      2  C   UNL     1    -104.612  17.052  17.941  1.00  0.00    -0.031 C 
ENDROOT
BRANCH   1   3
ATOM      3  C   UNL     1    -103.223  17.242  15.885  1.00  0.00     0.027 C 
BRANCH   3   4
ATOM      4  C   UNL     1    -103.949  18.482  15.341  1.00  0.00     0.004 C 
BRANCH   4   5
ATOM      5  C   UNL     1    -104.898  18.198  14.159  1.00  0.00     0.000 C 
BRANCH   5   6
ATOM      6  C   UNL     1    -104.836  19.227  13.015  1.00  0.00     0.000 C 
BRANCH   6   7
ATOM      7  C   UNL     1    -105.962  20.274  13.094  1.00  0.00     0.000 C 
BRANCH   7   8
ATOM      8  C   UNL     1    -105.495  21.675  12.674  1.00  0.00     0.006 C 
BRANCH   8   9
ATOM      9  C   UNL     1    -104.059  21.977  13.126  1.00  0.00     0.053 C 
BRANCH   9  10
ATOM     10  C   UNL     1    -104.060  22.581  14.495  1.00  0.00     0.041 C 
ATOM     11  O   UNL     1    -103.273  22.150  15.378  1.00  0.00    -0.550 OA
ATOM     12  O   UNL     1    -104.893  23.654  14.781  1.00  0.00    -0.550 OA
ENDBRANCH   9  10
ENDBRANCH   8   9
ENDBRANCH   7   8
ENDBRANCH   6   7
ENDBRANCH   5   6
ENDBRANCH   4   5
ENDBRANCH   3   4
ENDBRANCH   1   3
BRANCH   2  13
ATOM     13  C   UNL     1    -105.433  16.269  18.929  1.00  0.00     0.027 C 
BRANCH  13  14
ATOM     14  C   UNL     1    -106.045  17.160  20.023  1.00  0.00     0.004 C 
BRANCH  14  15
ATOM     15  C   UNL     1    -107.583  17.113  20.084  1.00  0.00     0.000 C 
BRANCH  15  16
ATOM     16  C   UNL     1    -108.208  16.511  18.814  1.00  0.00     0.000 C 
BRANCH  16  17
ATOM     17  C   UNL     1    -108.776  17.580  17.865  1.00  0.00    -0.000 C 
BRANCH  17  18
ATOM     18  C   UNL     1    -107.974  17.739  16.557  1.00  0.00    -0.000 C 
BRANCH  18  19
ATOM     19  C   UNL     1    -107.804  19.211  16.156  1.00  0.00    -0.003 C 
ATOM     20  C   UNL     1    -106.848  19.933  17.098  1.00  0.00     0.004 C 
ENDBRANCH  18  19
ENDBRANCH  17  18
ENDBRANCH  16  17
ENDBRANCH  15  16
ENDBRANCH  14  15
ENDBRANCH  13  14
ENDBRANCH   2  13
TORSDOF 15
ENDMDL
MODEL 7
REMARK VINA RESULT:    -4.087      1.585      3.370
REMARK INTER + INTRA:          -9.665
REMARK INTER:                  -8.492
REMARK INTRA:                  -1.173
REMARK UNBOUND:                -1.994
REMARK SMILES CCCCCCCCC=CCCCCCCCC(=O)[O-]
REMARK SMILES IDX 10 1 9 2 11 3 12 4 13 5 14 6 15 7 16 8 17 9 18 10 19 11
REMARK SMILES IDX 20 12 8 13 7 14 6 15 5 16 4 17 3 18 2 19 1 20
REMARK H PARENT
REMARK Flexibility Score: inf
ROOT
ATOM      1  C   UNL     1    -103.629  21.979  12.779  1.00  0.00    -0.031 C 
ATOM      2  C   UNL     1    -104.754  21.392  12.340  1.00  0.00    -0.031 C 
ENDROOT
BRANCH   1   3
ATOM      3  C   UNL     1    -103.119  23.262  12.179  1.00  0.00     0.027 C 
BRANCH   3   4
ATOM      4  C   UNL     1    -103.256  24.439  13.157  1.00  0.00     0.004 C 
BRANCH   4   5
ATOM      5  C   UNL     1    -101.926  24.907  13.782  1.00  0.00     0.000 C 
BRANCH   5   6
ATOM      6  C   UNL     1    -101.855  24.799  15.316  1.00  0.00     0.000 C 
BRANCH   6   7
ATOM      7  C   UNL     1    -103.137  24.209  15.931  1.00  0.00     0.000 C 
BRANCH   7   8
ATOM      8  C   UNL     1    -103.779  25.145  16.967  1.00  0.00     0.006 C 
BRANCH   8   9
ATOM      9  C   UNL     1    -104.946  25.953  16.384  1.00  0.00     0.053 C 
BRANCH   9  10
ATOM     10  C   UNL     1    -104.459  27.269  15.863  1.00  0.00     0.041 C 
ATOM     11  O   UNL     1    -104.873  27.704  14.757  1.00  0.00    -0.550 OA
ATOM     12  O   UNL     1    -103.588  28.039  16.623  1.00  0.00    -0.550 OA
ENDBRANCH   9  10
ENDBRANCH   8   9
ENDBRANCH   7   8
ENDBRANCH   6   7
ENDBRANCH   5   6
ENDBRANCH   4   5
ENDBRANCH   3   4
ENDBRANCH   1   3
BRANCH   2  13
ATOM     13  C   UNL     1    -105.284  20.135  12.974  1.00  0.00     0.027 C 
BRANCH  13  14
ATOM     14  C   UNL     1    -104.640  19.850  14.341  1.00  0.00     0.004 C 
BRANCH  14  15
ATOM     15  C   UNL     1    -104.223  18.381  14.543  1.00  0.00     0.000 C 
BRANCH  15  16
ATOM     16  C   UNL     1    -103.519  18.145  15.890  1.00  0.00     0.000 C 
BRANCH  16  17
ATOM     17  C   UNL     1    -104.459  17.568  16.961  1.00  0.00    -0.000 C 
BRANCH  17  18
ATOM     18  C   UNL     1    -104.207  16.078  17.272  1.00  0.00    -0.000 C 
BRANCH  18  19
ATOM     19  C   UNL     1    -105.025  15.590  18.477  1.00  0.00    -0.003 C 
ATOM     20  C   UNL     1    -105.471  16.757  19.349  1.00  0.00     0.004 C 
ENDBRANCH  18  19
ENDBRANCH  17  18
ENDBRANCH  16  17
ENDBRANCH  15  16
ENDBRANCH  14  15
ENDBRANCH  13  14
ENDBRANCH   2  13
TORSDOF 15
ENDMDL
MODEL 8
REMARK VINA RESULT:    -4.033      2.386      4.852
REMARK INTER + INTRA:          -9.564
REMARK INTER:                  -8.538
REMARK INTRA:                  -1.026
REMARK UNBOUND:                -1.994
REMARK SMILES CCCCCCCCC=CCCCCCCCC(=O)[O-]
REMARK SMILES IDX 10 1 9 2 11 3 12 4 13 5 14 6 15 7 16 8 17 9 18 10 19 11
REMARK SMILES IDX 20 12 8 13 7 14 6 15 5 16 4 17 3 18 2 19 1 20
REMARK H PARENT
REMARK Flexibility Score: inf
ROOT
ATOM      1  C   UNL     1    -104.670  20.011  13.354  1.00  0.00    -0.031 C 
ATOM      2  C   UNL     1    -104.622  18.706  13.665  1.00  0.00    -0.031 C 
ENDROOT
BRANCH   1   3
ATOM      3  C   UNL     1    -104.531  20.493  11.935  1.00  0.00     0.027 C 
BRANCH   3   4
ATOM      4  C   UNL     1    -104.036  21.947  11.876  1.00  0.00     0.004 C 
BRANCH   4   5
ATOM      5  C   UNL     1    -104.346  22.778  13.138  1.00  0.00     0.000 C 
BRANCH   5   6
ATOM      6  C   UNL     1    -103.110  23.274  13.909  1.00  0.00     0.000 C 
BRANCH   6   7
ATOM      7  C   UNL     1    -103.081  22.785  15.368  1.00  0.00     0.000 C 
BRANCH   7   8
ATOM      8  C   UNL     1    -103.406  23.903  16.371  1.00  0.00     0.006 C 
BRANCH   8   9
ATOM      9  C   UNL     1    -102.597  25.180  16.109  1.00  0.00     0.053 C 
BRANCH   9  10
ATOM     10  C   UNL     1    -103.514  26.346  15.905  1.00  0.00     0.041 C 
ATOM     11  O   UNL     1    -104.383  26.316  14.995  1.00  0.00    -0.550 OA
ATOM     12  O   UNL     1    -103.445  27.442  16.755  1.00  0.00    -0.550 OA
ENDBRANCH   9  10
ENDBRANCH   8   9
ENDBRANCH   7   8
ENDBRANCH   6   7
ENDBRANCH   5   6
ENDBRANCH   4   5
ENDBRANCH   3   4
ENDBRANCH   1   3
BRANCH   2  13
ATOM     13  C   UNL     1    -104.808  18.227  15.079  1.00  0.00     0.027 C 
BRANCH  13  14
ATOM     14  C   UNL     1    -103.598  17.429  15.592  1.00  0.00     0.004 C 
BRANCH  14  15
ATOM     15  C   UNL     1    -103.939  16.420  16.706  1.00  0.00     0.000 C 
BRANCH  15  16
ATOM     16  C   UNL     1    -105.252  15.665  16.440  1.00  0.00     0.000 C 
BRANCH  16  17
ATOM     17  C   UNL     1    -106.148  15.572  17.686  1.00  0.00    -0.000 C 
BRANCH  17  18
ATOM     18  C   UNL     1    -105.417  15.900  19.004  1.00  0.00    -0.000 C 
BRANCH  18  19
ATOM     19  C   UNL     1    -105.794  17.285  19.548  1.00  0.00    -0.003 C 
ATOM     20  C   UNL     1    -106.584  17.172  20.846  1.00  0.00     0.004 C 
ENDBRANCH  18  19
ENDBRANCH  17  18
ENDBRANCH  16  17
ENDBRANCH  15  16
ENDBRANCH  14  15
ENDBRANCH  13  14
ENDBRANCH   2  13
TORSDOF 15
ENDMDL
MODEL 9
REMARK VINA RESULT:    -4.028      3.611      6.936
REMARK INTER + INTRA:          -9.555
REMARK INTER:                  -6.778
REMARK INTRA:                  -2.776
REMARK UNBOUND:                -1.994
REMARK SMILES CCCCCCCCC=CCCCCCCCC(=O)[O-]
REMARK SMILES IDX 10 1 9 2 11 3 12 4 13 5 14 6 15 7 16 8 17 9 18 10 19 11
REMARK SMILES IDX 20 12 8 13 7 14 6 15 5 16 4 17 3 18 2 19 1 20
REMARK H PARENT
REMARK Flexibility Score: inf
ROOT
ATOM      1  C   UNL     1    -103.323  23.266  13.780  1.00  0.00    -0.031 C 
ATOM      2  C   UNL     1    -103.147  22.737  15.001  1.00  0.00    -0.031 C 
ENDROOT
BRANCH   1   3
ATOM      3  C   UNL     1    -103.519  22.403  12.563  1.00  0.00     0.027 C 
BRANCH   3   4
ATOM      4  C   UNL     1    -104.893  22.638  11.916  1.00  0.00     0.004 C 
BRANCH   4   5
ATOM      5  C   UNL     1    -105.824  21.408  11.934  1.00  0.00     0.000 C 
BRANCH   5   6
ATOM      6  C   UNL     1    -106.596  21.197  13.249  1.00  0.00     0.000 C 
BRANCH   6   7
ATOM      7  C   UNL     1    -106.393  19.791  13.840  1.00  0.00     0.000 C 
BRANCH   7   8
ATOM      8  C   UNL     1    -105.059  19.652  14.588  1.00  0.00     0.006 C 
BRANCH   8   9
ATOM      9  C   UNL     1    -104.311  18.363  14.222  1.00  0.00     0.053 C 
BRANCH   9  10
ATOM     10  C   UNL     1    -103.669  17.770  15.437  1.00  0.00     0.041 C 
ATOM     11  O   UNL     1    -104.348  17.569  16.478  1.00  0.00    -0.550 OA
ATOM     12  O   UNL     1    -102.334  17.389  15.403  1.00  0.00    -0.550 OA
ENDBRANCH   9  10
ENDBRANCH   8   9
ENDBRANCH   7   8
ENDBRANCH   6   7
ENDBRANCH   5   6
ENDBRANCH   4   5
ENDBRANCH   3   4
ENDBRANCH   1   3
BRANCH   2  13
ATOM     13  C   UNL     1    -102.998  23.605  16.221  1.00  0.00     0.027 C 
BRANCH  13  14
ATOM     14  C   UNL     1    -102.710  25.073  15.865  1.00  0.00     0.004 C 
BRANCH  14  15
ATOM     15  C   UNL     1    -103.549  26.088  16.665  1.00  0.00     0.000 C 
BRANCH  15  16
ATOM     16  C   UNL     1    -104.242  27.124  15.765  1.00  0.00     0.000 C 
BRANCH  16  17
ATOM     17  C   UNL     1    -105.698  26.752  15.439  1.00  0.00    -0.000 C 
BRANCH  17  18
ATOM     18  C   UNL     1    -105.850  25.890  14.169  1.00  0.00    -0.000 C 
BRANCH  18  19
ATOM     19  C   UNL     1    -106.847  24.739  14.365  1.00  0.00    -0.003 C 
ATOM     20  C   UNL     1    -106.624  24.037  15.699  1.00  0.00     0.004 C 
ENDBRANCH  18  19
ENDBRANCH  17  18
ENDBRANCH  16  17
ENDBRANCH  15  16
ENDBRANCH  14  15
ENDBRANCH  13  14
ENDBRANCH   2  13
TORSDOF 15
ENDMDL
