MODEL 1
REMARK VINA RESULT:    -6.963      0.000      0.000
REMARK INTER + INTRA:          -8.475
REMARK INTER:                  -8.185
REMARK INTRA:                  -0.291
REMARK UNBOUND:                -0.291
REMARK SMILES O=c1c(O)c(-c2ccc(O)cc2)oc2cc(O)cc(O)c12
REMARK SMILES IDX 5 1 3 2 2 3 1 4 21 5 19 6 18 7 16 8 15 9 14 10 13 11 6 12
REMARK SMILES IDX 7 13 8 14 9 15 12 16 11 17 10 18 4 20 20 22 17 24
REMARK H PARENT 10 19 4 21 20 23 17 25
REMARK Flexibility Score: inf
ROOT
ATOM      1  C   UNL     1      14.567  17.814  30.270  1.00  0.00     0.180 A 
ATOM      2  C   UNL     1      13.587  17.668  31.271  1.00  0.00     0.208 A 
ATOM      3  C   UNL     1      13.612  16.523  32.083  1.00  0.00     0.238 A 
ATOM      4  O   UNL     1      12.746  16.387  32.989  1.00  0.00    -0.285 OA
ATOM      5  C   UNL     1      14.598  15.538  31.869  1.00  0.00     0.111 A 
ATOM      6  C   UNL     1      14.689  14.354  32.640  1.00  0.00     0.134 A 
ATOM      7  C   UNL     1      15.695  13.417  32.360  1.00  0.00     0.093 A 
ATOM      8  C   UNL     1      16.609  13.641  31.323  1.00  0.00     0.123 A 
ATOM      9  C   UNL     1      16.522  14.807  30.560  1.00  0.00     0.094 A 
ATOM     10  C   UNL     1      15.528  15.754  30.825  1.00  0.00     0.146 A 
ATOM     11  O   UNL     1      15.473  16.857  30.088  1.00  0.00    -0.452 OA
ENDROOT
BRANCH   1  12
ATOM     12  C   UNL     1      14.619  19.000  29.387  1.00  0.00     0.021 A 
ATOM     13  C   UNL     1      13.922  19.037  28.165  1.00  0.00     0.016 A 
ATOM     14  C   UNL     1      13.968  20.179  27.359  1.00  0.00     0.047 A 
ATOM     15  C   UNL     1      14.697  21.302  27.770  1.00  0.00     0.115 A 
ATOM     16  C   UNL     1      15.331  20.139  29.800  1.00  0.00     0.016 A 
ATOM     17  C   UNL     1      15.376  21.279  28.992  1.00  0.00     0.047 A 
BRANCH  15  18
ATOM     18  O   UNL     1      14.750  22.444  26.974  1.00  0.00    -0.508 OA
ATOM     19  H   UNL     1      14.032  23.158  27.023  1.00  0.00     0.293 HD
ENDBRANCH  15  18
ENDBRANCH   1  12
BRANCH   2  20
ATOM     20  O   UNL     1      12.591  18.634  31.431  1.00  0.00    -0.502 OA
ATOM     21  H   UNL     1      11.931  18.861  30.696  1.00  0.00     0.293 HD
ENDBRANCH   2  20
BRANCH   6  22
ATOM     22  O   UNL     1      13.794  14.102  33.680  1.00  0.00    -0.507 OA
ATOM     23  H   UNL     1      14.104  13.762  34.582  1.00  0.00     0.293 HD
ENDBRANCH   6  22
BRANCH   8  24
ATOM     24  O   UNL     1      17.607  12.711  31.042  1.00  0.00    -0.508 OA
ATOM     25  H   UNL     1      18.311  12.466  31.729  1.00  0.00     0.293 HD
ENDBRANCH   8  24
TORSDOF 5
ENDMDL
MODEL 2
REMARK VINA RESULT:    -6.815      2.680      3.161
REMARK INTER + INTRA:          -8.301
REMARK INTER:                  -8.189
REMARK INTRA:                  -0.112
REMARK UNBOUND:                -0.291
REMARK SMILES O=c1c(O)c(-c2ccc(O)cc2)oc2cc(O)cc(O)c12
REMARK SMILES IDX 5 1 3 2 2 3 1 4 21 5 19 6 18 7 16 8 15 9 14 10 13 11 6 12
REMARK SMILES IDX 7 13 8 14 9 15 12 16 11 17 10 18 4 20 20 22 17 24
REMARK H PARENT 10 19 4 21 20 23 17 25
REMARK Flexibility Score: inf
ROOT
ATOM      1  C   UNL     1      14.587  17.197  32.904  1.00  0.00     0.180 A 
ATOM      2  C   UNL     1      14.215  16.457  34.043  1.00  0.00     0.208 A 
ATOM      3  C   UNL     1      14.547  15.095  34.105  1.00  0.00     0.238 A 
ATOM      4  O   UNL     1      14.228  14.425  35.125  1.00  0.00    -0.285 OA
ATOM      5  C   UNL     1      15.225  14.492  33.026  1.00  0.00     0.111 A 
ATOM      6  C   UNL     1      15.592  13.125  33.008  1.00  0.00     0.134 A 
ATOM      7  C   UNL     1      16.258  12.598  31.891  1.00  0.00     0.093 A 
ATOM      8  C   UNL     1      16.561  13.411  30.792  1.00  0.00     0.123 A 
ATOM      9  C   UNL     1      16.200  14.760  30.806  1.00  0.00     0.094 A 
ATOM     10  C   UNL     1      15.538  15.304  31.910  1.00  0.00     0.146 A 
ATOM     11  O   UNL     1      15.213  16.592  31.899  1.00  0.00    -0.452 OA
ENDROOT
BRANCH   1  12
ATOM     12  C   UNL     1      14.290  18.641  32.772  1.00  0.00     0.021 A 
ATOM     13  C   UNL     1      13.413  19.122  31.782  1.00  0.00     0.016 A 
ATOM     14  C   UNL     1      13.130  20.489  31.692  1.00  0.00     0.047 A 
ATOM     15  C   UNL     1      13.706  21.389  32.598  1.00  0.00     0.115 A 
ATOM     16  C   UNL     1      14.846  19.548  33.689  1.00  0.00     0.016 A 
ATOM     17  C   UNL     1      14.562  20.914  33.596  1.00  0.00     0.047 A 
BRANCH  15  18
ATOM     18  O   UNL     1      13.430  22.752  32.517  1.00  0.00    -0.508 OA
ATOM     19  H   UNL     1      12.499  23.093  32.308  1.00  0.00     0.293 HD
ENDBRANCH  15  18
ENDBRANCH   1  12
BRANCH   2  20
ATOM     20  O   UNL     1      13.500  17.065  35.079  1.00  0.00    -0.502 OA
ATOM     21  H   UNL     1      13.714  17.998  35.411  1.00  0.00     0.293 HD
ENDBRANCH   2  20
BRANCH   6  22
ATOM     22  O   UNL     1      15.304  12.289  34.087  1.00  0.00    -0.507 OA
ATOM     23  H   UNL     1      14.434  12.362  34.601  1.00  0.00     0.293 HD
ENDBRANCH   6  22
BRANCH   8  24
ATOM     24  O   UNL     1      17.220  12.888  29.682  1.00  0.00    -0.508 OA
ATOM     25  H   UNL     1      17.857  12.104  29.765  1.00  0.00     0.293 HD
ENDBRANCH   8  24
TORSDOF 5
ENDMDL
MODEL 3
REMARK VINA RESULT:    -6.797      1.868      6.726
REMARK INTER + INTRA:          -8.280
REMARK INTER:                  -8.018
REMARK INTRA:                  -0.262
REMARK UNBOUND:                -0.291
REMARK SMILES O=c1c(O)c(-c2ccc(O)cc2)oc2cc(O)cc(O)c12
REMARK SMILES IDX 5 1 3 2 2 3 1 4 21 5 19 6 18 7 16 8 15 9 14 10 13 11 6 12
REMARK SMILES IDX 7 13 8 14 9 15 12 16 11 17 10 18 4 20 20 22 17 24
REMARK H PARENT 10 19 4 21 20 23 17 25
REMARK Flexibility Score: inf
ROOT
ATOM      1  C   UNL     1      14.770  18.524  30.434  1.00  0.00     0.180 A 
ATOM      2  C   UNL     1      13.827  19.095  29.557  1.00  0.00     0.208 A 
ATOM      3  C   UNL     1      14.197  20.217  28.801  1.00  0.00     0.238 A 
ATOM      4  O   UNL     1      13.364  20.730  28.005  1.00  0.00    -0.285 OA
ATOM      5  C   UNL     1      15.489  20.762  28.947  1.00  0.00     0.111 A 
ATOM      6  C   UNL     1      15.939  21.893  28.225  1.00  0.00     0.134 A 
ATOM      7  C   UNL     1      17.238  22.380  28.433  1.00  0.00     0.093 A 
ATOM      8  C   UNL     1      18.094  21.758  29.349  1.00  0.00     0.123 A 
ATOM      9  C   UNL     1      17.655  20.642  30.063  1.00  0.00     0.094 A 
ATOM     10  C   UNL     1      16.365  20.140  29.869  1.00  0.00     0.146 A 
ATOM     11  O   UNL     1      15.975  19.074  30.557  1.00  0.00    -0.452 OA
ENDROOT
BRANCH   1  12
ATOM     12  C   UNL     1      14.462  17.329  31.252  1.00  0.00     0.021 A 
ATOM     13  C   UNL     1      14.921  16.050  30.883  1.00  0.00     0.016 A 
ATOM     14  C   UNL     1      14.637  14.940  31.684  1.00  0.00     0.047 A 
ATOM     15  C   UNL     1      13.905  15.094  32.869  1.00  0.00     0.115 A 
ATOM     16  C   UNL     1      13.747  17.477  32.452  1.00  0.00     0.016 A 
ATOM     17  C   UNL     1      13.464  16.365  33.250  1.00  0.00     0.047 A 
BRANCH  15  18
ATOM     18  O   UNL     1      13.616  13.994  33.674  1.00  0.00    -0.508 OA
ATOM     19  H   UNL     1      13.748  13.046  33.342  1.00  0.00     0.293 HD
ENDBRANCH  15  18
ENDBRANCH   1  12
BRANCH   2  20
ATOM     20  O   UNL     1      12.536  18.567  29.467  1.00  0.00    -0.502 OA
ATOM     21  H   UNL     1      11.765  18.920  30.020  1.00  0.00     0.293 HD
ENDBRANCH   2  20
BRANCH   6  22
ATOM     22  O   UNL     1      15.110  22.536  27.305  1.00  0.00    -0.507 OA
ATOM     23  H   UNL     1      14.121  22.668  27.479  1.00  0.00     0.293 HD
ENDBRANCH   6  22
BRANCH   8  24
ATOM     24  O   UNL     1      19.384  22.242  29.558  1.00  0.00    -0.508 OA
ATOM     25  H   UNL     1      19.641  23.189  29.306  1.00  0.00     0.293 HD
ENDBRANCH   8  24
TORSDOF 5
ENDMDL
MODEL 4
REMARK VINA RESULT:    -6.792      2.657      4.058
REMARK INTER + INTRA:          -8.274
REMARK INTER:                  -7.995
REMARK INTRA:                  -0.279
REMARK UNBOUND:                -0.291
REMARK SMILES O=c1c(O)c(-c2ccc(O)cc2)oc2cc(O)cc(O)c12
REMARK SMILES IDX 5 1 3 2 2 3 1 4 21 5 19 6 18 7 16 8 15 9 14 10 13 11 6 12
REMARK SMILES IDX 7 13 8 14 9 15 12 16 11 17 10 18 4 20 20 22 17 24
REMARK H PARENT 10 19 4 21 20 23 17 25
REMARK Flexibility Score: inf
ROOT
ATOM      1  C   UNL     1      15.679  21.108  30.183  1.00  0.00     0.180 A 
ATOM      2  C   UNL     1      14.309  21.032  29.864  1.00  0.00     0.208 A 
ATOM      3  C   UNL     1      13.629  19.824  30.082  1.00  0.00     0.238 A 
ATOM      4  O   UNL     1      12.400  19.747  29.810  1.00  0.00    -0.285 OA
ATOM      5  C   UNL     1      14.328  18.712  30.594  1.00  0.00     0.111 A 
ATOM      6  C   UNL     1      13.717  17.458  30.838  1.00  0.00     0.134 A 
ATOM      7  C   UNL     1      14.484  16.396  31.341  1.00  0.00     0.093 A 
ATOM      8  C   UNL     1      15.850  16.564  31.602  1.00  0.00     0.123 A 
ATOM      9  C   UNL     1      16.456  17.799  31.362  1.00  0.00     0.094 A 
ATOM     10  C   UNL     1      15.709  18.870  30.863  1.00  0.00     0.146 A 
ATOM     11  O   UNL     1      16.309  20.035  30.650  1.00  0.00    -0.452 OA
ENDROOT
BRANCH   1  12
ATOM     12  C   UNL     1      16.461  22.352  30.000  1.00  0.00     0.021 A 
ATOM     13  C   UNL     1      17.015  22.693  28.752  1.00  0.00     0.016 A 
ATOM     14  C   UNL     1      17.730  23.885  28.598  1.00  0.00     0.047 A 
ATOM     15  C   UNL     1      17.889  24.756  29.683  1.00  0.00     0.115 A 
ATOM     16  C   UNL     1      16.608  23.241  31.077  1.00  0.00     0.016 A 
ATOM     17  C   UNL     1      17.324  24.432  30.920  1.00  0.00     0.047 A 
BRANCH  15  18
ATOM     18  O   UNL     1      18.600  25.946  29.540  1.00  0.00    -0.508 OA
ATOM     19  H   UNL     1      19.183  26.120  28.730  1.00  0.00     0.293 HD
ENDBRANCH  15  18
ENDBRANCH   1  12
BRANCH   2  20
ATOM     20  O   UNL     1      13.650  22.133  29.312  1.00  0.00    -0.502 OA
ATOM     21  H   UNL     1      12.940  22.650  29.816  1.00  0.00     0.293 HD
ENDBRANCH   2  20
BRANCH   6  22
ATOM     22  O   UNL     1      12.359  17.259  30.588  1.00  0.00    -0.507 OA
ATOM     23  H   UNL     1      11.762  16.768  31.242  1.00  0.00     0.293 HD
ENDBRANCH   6  22
BRANCH   8  24
ATOM     24  O   UNL     1      16.613  15.511  32.099  1.00  0.00    -0.508 OA
ATOM     25  H   UNL     1      17.317  15.658  32.813  1.00  0.00     0.293 HD
ENDBRANCH   8  24
TORSDOF 5
ENDMDL
MODEL 5
REMARK VINA RESULT:    -6.761      6.705     11.319
REMARK INTER + INTRA:          -8.237
REMARK INTER:                  -7.940
REMARK INTRA:                  -0.297
REMARK UNBOUND:                -0.291
REMARK SMILES O=c1c(O)c(-c2ccc(O)cc2)oc2cc(O)cc(O)c12
REMARK SMILES IDX 5 1 3 2 2 3 1 4 21 5 19 6 18 7 16 8 15 9 14 10 13 11 6 12
REMARK SMILES IDX 7 13 8 14 9 15 12 16 11 17 10 18 4 20 20 22 17 24
REMARK H PARENT 10 19 4 21 20 23 17 25
REMARK Flexibility Score: inf
ROOT
ATOM      1  C   UNL     1      18.390  25.039  30.334  1.00  0.00     0.180 A 
ATOM      2  C   UNL     1      19.526  25.151  31.158  1.00  0.00     0.208 A 
ATOM      3  C   UNL     1      20.123  26.410  31.323  1.00  0.00     0.238 A 
ATOM      4  O   UNL     1      21.134  26.524  32.067  1.00  0.00    -0.285 OA
ATOM      5  C   UNL     1      19.590  27.528  30.649  1.00  0.00     0.111 A 
ATOM      6  C   UNL     1      20.134  28.831  30.758  1.00  0.00     0.134 A 
ATOM      7  C   UNL     1      19.551  29.891  30.048  1.00  0.00     0.093 A 
ATOM      8  C   UNL     1      18.436  29.672  29.230  1.00  0.00     0.123 A 
ATOM      9  C   UNL     1      17.896  28.389  29.120  1.00  0.00     0.094 A 
ATOM     10  C   UNL     1      18.461  27.321  29.821  1.00  0.00     0.146 A 
ATOM     11  O   UNL     1      17.924  26.112  29.702  1.00  0.00    -0.452 OA
ENDROOT
BRANCH   1  12
ATOM     12  C   UNL     1      17.693  23.749  30.125  1.00  0.00     0.021 A 
ATOM     13  C   UNL     1      16.687  23.309  31.004  1.00  0.00     0.016 A 
ATOM     14  C   UNL     1      16.026  22.098  30.773  1.00  0.00     0.047 A 
ATOM     15  C   UNL     1      16.352  21.320  29.654  1.00  0.00     0.115 A 
ATOM     16  C   UNL     1      17.999  22.974  28.995  1.00  0.00     0.016 A 
ATOM     17  C   UNL     1      17.338  21.763  28.766  1.00  0.00     0.047 A 
BRANCH  15  18
ATOM     18  O   UNL     1      15.701  20.112  29.414  1.00  0.00    -0.508 OA
ATOM     19  H   UNL     1      14.744  19.958  29.710  1.00  0.00     0.293 HD
ENDBRANCH  15  18
ENDBRANCH   1  12
BRANCH   2  20
ATOM     20  O   UNL     1      20.065  24.019  31.776  1.00  0.00    -0.502 OA
ATOM     21  H   UNL     1      21.041  23.765  31.687  1.00  0.00     0.293 HD
ENDBRANCH   2  20
BRANCH   6  22
ATOM     22  O   UNL     1      21.245  29.080  31.564  1.00  0.00    -0.507 OA
ATOM     23  H   UNL     1      21.991  29.699  31.269  1.00  0.00     0.293 HD
ENDBRANCH   6  22
BRANCH   8  24
ATOM     24  O   UNL     1      17.857  30.723  28.523  1.00  0.00    -0.508 OA
ATOM     25  H   UNL     1      17.893  30.764  27.511  1.00  0.00     0.293 HD
ENDBRANCH   8  24
TORSDOF 5
ENDMDL
MODEL 6
REMARK VINA RESULT:    -6.705     11.546     14.420
REMARK INTER + INTRA:          -8.172
REMARK INTER:                  -7.874
REMARK INTRA:                  -0.298
REMARK UNBOUND:                -0.291
REMARK SMILES O=c1c(O)c(-c2ccc(O)cc2)oc2cc(O)cc(O)c12
REMARK SMILES IDX 5 1 3 2 2 3 1 4 21 5 19 6 18 7 16 8 15 9 14 10 13 11 6 12
REMARK SMILES IDX 7 13 8 14 9 15 12 16 11 17 10 18 4 20 20 22 17 24
REMARK H PARENT 10 19 4 21 20 23 17 25
REMARK Flexibility Score: inf
ROOT
ATOM      1  C   UNL     1       6.270  19.465  21.299  1.00  0.00     0.180 A 
ATOM      2  C   UNL     1       6.068  19.486  19.905  1.00  0.00     0.208 A 
ATOM      3  C   UNL     1       6.524  20.592  19.171  1.00  0.00     0.238 A 
ATOM      4  O   UNL     1       6.358  20.617  17.921  1.00  0.00    -0.285 OA
ATOM      5  C   UNL     1       7.154  21.662  19.839  1.00  0.00     0.111 A 
ATOM      6  C   UNL     1       7.639  22.813  19.174  1.00  0.00     0.134 A 
ATOM      7  C   UNL     1       8.246  23.840  19.912  1.00  0.00     0.093 A 
ATOM      8  C   UNL     1       8.377  23.737  21.302  1.00  0.00     0.123 A 
ATOM      9  C   UNL     1       7.900  22.603  21.962  1.00  0.00     0.094 A 
ATOM     10  C   UNL     1       7.294  21.569  21.245  1.00  0.00     0.146 A 
ATOM     11  O   UNL     1       6.855  20.499  21.897  1.00  0.00    -0.452 OA
ENDROOT
BRANCH   1  12
ATOM     12  C   UNL     1       5.835  18.327  22.140  1.00  0.00     0.021 A 
ATOM     13  C   UNL     1       6.677  17.224  22.374  1.00  0.00     0.016 A 
ATOM     14  C   UNL     1       6.252  16.172  23.192  1.00  0.00     0.047 A 
ATOM     15  C   UNL     1       4.989  16.215  23.796  1.00  0.00     0.115 A 
ATOM     16  C   UNL     1       4.579  18.371  22.766  1.00  0.00     0.016 A 
ATOM     17  C   UNL     1       4.156  17.317  23.582  1.00  0.00     0.047 A 
BRANCH  15  18
ATOM     18  O   UNL     1       4.556  15.171  24.611  1.00  0.00    -0.508 OA
ATOM     19  H   UNL     1       3.644  15.187  25.052  1.00  0.00     0.293 HD
ENDBRANCH  15  18
ENDBRANCH   1  12
BRANCH   2  20
ATOM     20  O   UNL     1       5.397  18.437  19.272  1.00  0.00    -0.502 OA
ATOM     21  H   UNL     1       5.361  17.502  19.661  1.00  0.00     0.293 HD
ENDBRANCH   2  20
BRANCH   6  22
ATOM     22  O   UNL     1       7.523  22.946  17.790  1.00  0.00    -0.507 OA
ATOM     23  H   UNL     1       8.232  22.593  17.158  1.00  0.00     0.293 HD
ENDBRANCH   6  22
BRANCH   8  24
ATOM     24  O   UNL     1       8.979  24.756  22.036  1.00  0.00    -0.508 OA
ATOM     25  H   UNL     1       9.282  25.618  21.596  1.00  0.00     0.293 HD
ENDBRANCH   8  24
TORSDOF 5
ENDMDL
MODEL 7
REMARK VINA RESULT:    -6.673     13.370     15.503
REMARK INTER + INTRA:          -8.134
REMARK INTER:                  -7.852
REMARK INTRA:                  -0.282
REMARK UNBOUND:                -0.291
REMARK SMILES O=c1c(O)c(-c2ccc(O)cc2)oc2cc(O)cc(O)c12
REMARK SMILES IDX 5 1 3 2 2 3 1 4 21 5 19 6 18 7 16 8 15 9 14 10 13 11 6 12
REMARK SMILES IDX 7 13 8 14 9 15 12 16 11 17 10 18 4 20 20 22 17 24
REMARK H PARENT 10 19 4 21 20 23 17 25
REMARK Flexibility Score: inf
ROOT
ATOM      1  C   UNL     1       6.680  25.303  20.739  1.00  0.00     0.180 A 
ATOM      2  C   UNL     1       7.187  24.353  21.646  1.00  0.00     0.208 A 
ATOM      3  C   UNL     1       7.402  23.039  21.202  1.00  0.00     0.238 A 
ATOM      4  O   UNL     1       7.866  22.182  22.003  1.00  0.00    -0.285 OA
ATOM      5  C   UNL     1       7.090  22.692  19.872  1.00  0.00     0.111 A 
ATOM      6  C   UNL     1       7.274  21.391  19.347  1.00  0.00     0.134 A 
ATOM      7  C   UNL     1       6.931  21.123  18.013  1.00  0.00     0.093 A 
ATOM      8  C   UNL     1       6.407  22.132  17.196  1.00  0.00     0.123 A 
ATOM      9  C   UNL     1       6.224  23.417  17.710  1.00  0.00     0.094 A 
ATOM     10  C   UNL     1       6.561  23.704  19.035  1.00  0.00     0.146 A 
ATOM     11  O   UNL     1       6.383  24.937  19.496  1.00  0.00    -0.452 OA
ENDROOT
BRANCH   1  12
ATOM     12  C   UNL     1       6.443  26.712  21.126  1.00  0.00     0.021 A 
ATOM     13  C   UNL     1       7.390  27.717  20.852  1.00  0.00     0.016 A 
ATOM     14  C   UNL     1       7.133  29.045  21.207  1.00  0.00     0.047 A 
ATOM     15  C   UNL     1       5.923  29.389  21.824  1.00  0.00     0.115 A 
ATOM     16  C   UNL     1       5.225  27.069  21.726  1.00  0.00     0.016 A 
ATOM     17  C   UNL     1       4.971  28.398  22.081  1.00  0.00     0.047 A 
BRANCH  15  18
ATOM     18  O   UNL     1       5.658  30.709  22.182  1.00  0.00    -0.508 OA
ATOM     19  H   UNL     1       6.247  31.471  21.868  1.00  0.00     0.293 HD
ENDBRANCH  15  18
ENDBRANCH   1  12
BRANCH   2  20
ATOM     20  O   UNL     1       7.442  24.708  22.973  1.00  0.00    -0.502 OA
ATOM     21  H   UNL     1       7.341  25.658  23.310  1.00  0.00     0.293 HD
ENDBRANCH   2  20
BRANCH   6  22
ATOM     22  O   UNL     1       7.794  20.364  20.136  1.00  0.00    -0.507 OA
ATOM     23  H   UNL     1       7.918  20.470  21.135  1.00  0.00     0.293 HD
ENDBRANCH   6  22
BRANCH   8  24
ATOM     24  O   UNL     1       6.064  21.867  15.872  1.00  0.00    -0.508 OA
ATOM     25  H   UNL     1       5.856  20.926  15.557  1.00  0.00     0.293 HD
ENDBRANCH   8  24
TORSDOF 5
ENDMDL
MODEL 8
REMARK VINA RESULT:    -6.645      3.412      6.921
REMARK INTER + INTRA:          -8.101
REMARK INTER:                  -7.853
REMARK INTRA:                  -0.248
REMARK UNBOUND:                -0.291
REMARK SMILES O=c1c(O)c(-c2ccc(O)cc2)oc2cc(O)cc(O)c12
REMARK SMILES IDX 5 1 3 2 2 3 1 4 21 5 19 6 18 7 16 8 15 9 14 10 13 11 6 12
REMARK SMILES IDX 7 13 8 14 9 15 12 16 11 17 10 18 4 20 20 22 17 24
REMARK H PARENT 10 19 4 21 20 23 17 25
REMARK Flexibility Score: inf
ROOT
ATOM      1  C   UNL     1      15.347  20.586  29.729  1.00  0.00     0.180 A 
ATOM      2  C   UNL     1      14.879  21.354  30.813  1.00  0.00     0.208 A 
ATOM      3  C   UNL     1      15.611  22.484  31.210  1.00  0.00     0.238 A 
ATOM      4  O   UNL     1      15.196  23.185  32.172  1.00  0.00    -0.285 OA
ATOM      5  C   UNL     1      16.803  22.815  30.534  1.00  0.00     0.111 A 
ATOM      6  C   UNL     1      17.601  23.934  30.873  1.00  0.00     0.134 A 
ATOM      7  C   UNL     1      18.780  24.192  30.157  1.00  0.00     0.093 A 
ATOM      8  C   UNL     1      19.175  23.352  29.110  1.00  0.00     0.123 A 
ATOM      9  C   UNL     1      18.391  22.247  28.772  1.00  0.00     0.094 A 
ATOM     10  C   UNL     1      17.213  21.974  29.472  1.00  0.00     0.146 A 
ATOM     11  O   UNL     1      16.484  20.920  29.125  1.00  0.00    -0.452 OA
ENDROOT
BRANCH   1  12
ATOM     12  C   UNL     1      14.622  19.392  29.240  1.00  0.00     0.021 A 
ATOM     13  C   UNL     1      13.859  19.430  28.058  1.00  0.00     0.016 A 
ATOM     14  C   UNL     1      13.202  18.282  27.603  1.00  0.00     0.047 A 
ATOM     15  C   UNL     1      13.310  17.080  28.314  1.00  0.00     0.115 A 
ATOM     16  C   UNL     1      14.741  18.177  29.935  1.00  0.00     0.016 A 
ATOM     17  C   UNL     1      14.082  17.032  29.479  1.00  0.00     0.047 A 
BRANCH  15  18
ATOM     18  O   UNL     1      12.659  15.932  27.870  1.00  0.00    -0.508 OA
ATOM     19  H   UNL     1      12.199  15.898  26.968  1.00  0.00     0.293 HD
ENDBRANCH  15  18
ENDBRANCH   1  12
BRANCH   2  20
ATOM     20  O   UNL     1      13.721  20.977  31.499  1.00  0.00    -0.502 OA
ATOM     21  H   UNL     1      12.889  20.652  31.022  1.00  0.00     0.293 HD
ENDBRANCH   2  20
BRANCH   6  22
ATOM     22  O   UNL     1      17.234  24.790  31.912  1.00  0.00    -0.507 OA
ATOM     23  H   UNL     1      17.202  24.478  32.875  1.00  0.00     0.293 HD
ENDBRANCH   6  22
BRANCH   8  24
ATOM     24  O   UNL     1      20.346  23.605  28.399  1.00  0.00    -0.508 OA
ATOM     25  H   UNL     1      20.456  24.445  27.841  1.00  0.00     0.293 HD
ENDBRANCH   8  24
TORSDOF 5
ENDMDL
MODEL 9
REMARK VINA RESULT:    -6.638      4.172      5.615
REMARK INTER + INTRA:          -8.093
REMARK INTER:                  -7.837
REMARK INTRA:                  -0.256
REMARK UNBOUND:                -0.291
REMARK SMILES O=c1c(O)c(-c2ccc(O)cc2)oc2cc(O)cc(O)c12
REMARK SMILES IDX 5 1 3 2 2 3 1 4 21 5 19 6 18 7 16 8 15 9 14 10 13 11 6 12
REMARK SMILES IDX 7 13 8 14 9 15 12 16 11 17 10 18 4 20 20 22 17 24
REMARK H PARENT 10 19 4 21 20 23 17 25
REMARK Flexibility Score: inf
ROOT
ATOM      1  C   UNL     1      13.355  19.196  29.064  1.00  0.00     0.180 A 
ATOM      2  C   UNL     1      12.368  20.188  29.225  1.00  0.00     0.208 A 
ATOM      3  C   UNL     1      12.492  21.102  30.282  1.00  0.00     0.238 A 
ATOM      4  O   UNL     1      11.620  22.002  30.429  1.00  0.00    -0.285 OA
ATOM      5  C   UNL     1      13.583  20.999  31.169  1.00  0.00     0.111 A 
ATOM      6  C   UNL     1      13.779  21.878  32.262  1.00  0.00     0.134 A 
ATOM      7  C   UNL     1      14.886  21.704  33.105  1.00  0.00     0.093 A 
ATOM      8  C   UNL     1      15.800  20.668  32.877  1.00  0.00     0.123 A 
ATOM      9  C   UNL     1      15.610  19.799  31.801  1.00  0.00     0.094 A 
ATOM     10  C   UNL     1      14.514  19.957  30.948  1.00  0.00     0.146 A 
ATOM     11  O   UNL     1      14.362  19.120  29.928  1.00  0.00    -0.452 OA
ENDROOT
BRANCH   1  12
ATOM     12  C   UNL     1      13.304  18.208  27.962  1.00  0.00     0.021 A 
ATOM     13  C   UNL     1      12.448  17.093  28.016  1.00  0.00     0.016 A 
ATOM     14  C   UNL     1      12.401  16.185  26.953  1.00  0.00     0.047 A 
ATOM     15  C   UNL     1      13.197  16.388  25.818  1.00  0.00     0.115 A 
ATOM     16  C   UNL     1      14.084  18.414  26.812  1.00  0.00     0.016 A 
ATOM     17  C   UNL     1      14.036  17.505  25.751  1.00  0.00     0.047 A 
BRANCH  15  18
ATOM     18  O   UNL     1      13.159  15.490  24.754  1.00  0.00    -0.508 OA
ATOM     19  H   UNL     1      13.836  15.532  24.001  1.00  0.00     0.293 HD
ENDBRANCH  15  18
ENDBRANCH   1  12
BRANCH   2  20
ATOM     20  O   UNL     1      11.270  20.239  28.362  1.00  0.00    -0.502 OA
ATOM     21  H   UNL     1      10.387  20.656  28.631  1.00  0.00     0.293 HD
ENDBRANCH   2  20
BRANCH   6  22
ATOM     22  O   UNL     1      12.886  22.920  32.515  1.00  0.00    -0.507 OA
ATOM     23  H   UNL     1      12.851  23.747  31.932  1.00  0.00     0.293 HD
ENDBRANCH   6  22
BRANCH   8  24
ATOM     24  O   UNL     1      16.899  20.493  33.715  1.00  0.00    -0.508 OA
ATOM     25  H   UNL     1      17.748  21.032  33.593  1.00  0.00     0.293 HD
ENDBRANCH   8  24
TORSDOF 5
ENDMDL
