MODEL 1
REMARK VINA RESULT:    -4.340      0.000      0.000
REMARK INTER + INTRA:          -7.903
REMARK INTER:                  -6.878
REMARK INTRA:                  -1.025
REMARK UNBOUND:                -1.025
REMARK SMILES CCCCCCCCCCCC(=O)[O-]
REMARK SMILES IDX 7 1 8 2 9 3 10 4 11 5 12 6 13 7 14 8 6 9 5 10 4 11 3 12 2 13
REMARK SMILES IDX 1 14
REMARK H PARENT
REMARK Flexibility Score: inf
ROOT
ATOM      1  C   UNL     1      86.668  76.960  70.325  1.00  0.00     0.000 C 
ENDROOT
BRANCH   1   2
ATOM      2  C   UNL     1      86.939  77.288  68.852  1.00  0.00     0.000 C 
BRANCH   2   3
ATOM      3  C   UNL     1      88.290  76.715  68.401  1.00  0.00     0.000 C 
BRANCH   3   4
ATOM      4  C   UNL     1      88.204  75.945  67.070  1.00  0.00     0.006 C 
BRANCH   4   5
ATOM      5  C   UNL     1      87.009  74.980  66.982  1.00  0.00     0.053 C 
BRANCH   5   6
ATOM      6  C   UNL     1      87.362  73.582  67.392  1.00  0.00     0.041 C 
ATOM      7  O   UNL     1      88.421  73.356  68.033  1.00  0.00    -0.550 OA
ATOM      8  O   UNL     1      86.534  72.524  67.037  1.00  0.00    -0.550 OA
ENDBRANCH   5   6
ENDBRANCH   4   5
ENDBRANCH   3   4
ENDBRANCH   2   3
ENDBRANCH   1   2
BRANCH   1   9
ATOM      9  C   UNL     1      85.555  75.910  70.460  1.00  0.00     0.000 C 
BRANCH   9  10
ATOM     10  C   UNL     1      86.096  74.501  70.758  1.00  0.00    -0.000 C 
BRANCH  10  11
ATOM     11  C   UNL     1      87.567  74.451  71.216  1.00  0.00    -0.000 C 
BRANCH  11  12
ATOM     12  C   UNL     1      87.776  74.372  72.742  1.00  0.00    -0.000 C 
BRANCH  12  13
ATOM     13  C   UNL     1      89.160  73.862  73.179  1.00  0.00    -0.003 C 
ATOM     14  C   UNL     1      89.521  72.514  72.557  1.00  0.00     0.004 C 
ENDBRANCH  12  13
ENDBRANCH  11  12
ENDBRANCH  10  11
ENDBRANCH   9  10
ENDBRANCH   1   9
TORSDOF 10
ENDMDL
MODEL 2
REMARK VINA RESULT:    -4.181      1.848      2.598
REMARK INTER + INTRA:          -7.651
REMARK INTER:                  -6.939
REMARK INTRA:                  -0.711
REMARK UNBOUND:                -1.025
REMARK SMILES CCCCCCCCCCCC(=O)[O-]
REMARK SMILES IDX 7 1 8 2 9 3 10 4 11 5 12 6 13 7 14 8 6 9 5 10 4 11 3 12 2 13
REMARK SMILES IDX 1 14
REMARK H PARENT
REMARK Flexibility Score: inf
ROOT
ATOM      1  C   UNL     1      85.534  75.844  70.471  1.00  0.00     0.000 C 
ENDROOT
BRANCH   1   2
ATOM      2  C   UNL     1      86.571  76.970  70.560  1.00  0.00     0.000 C 
BRANCH   2   3
ATOM      3  C   UNL     1      86.462  77.914  69.354  1.00  0.00     0.000 C 
BRANCH   3   4
ATOM      4  C   UNL     1      86.487  77.173  68.004  1.00  0.00     0.006 C 
BRANCH   4   5
ATOM      5  C   UNL     1      87.588  77.657  67.045  1.00  0.00     0.053 C 
BRANCH   5   6
ATOM      6  C   UNL     1      88.935  77.087  67.374  1.00  0.00     0.041 C 
ATOM      7  O   UNL     1      89.980  77.748  67.141  1.00  0.00    -0.550 OA
ATOM      8  O   UNL     1      89.036  75.809  67.910  1.00  0.00    -0.550 OA
ENDBRANCH   5   6
ENDBRANCH   4   5
ENDBRANCH   3   4
ENDBRANCH   2   3
ENDBRANCH   1   2
BRANCH   1   9
ATOM      9  C   UNL     1      86.196  74.470  70.663  1.00  0.00     0.000 C 
BRANCH   9  10
ATOM     10  C   UNL     1      87.609  74.566  71.263  1.00  0.00    -0.000 C 
BRANCH  10  11
ATOM     11  C   UNL     1      87.707  74.209  72.760  1.00  0.00    -0.000 C 
BRANCH  11  12
ATOM     12  C   UNL     1      89.082  73.681  73.218  1.00  0.00    -0.000 C 
BRANCH  12  13
ATOM     13  C   UNL     1      89.627  72.501  72.394  1.00  0.00    -0.003 C 
ATOM     14  C   UNL     1      90.997  72.023  72.875  1.00  0.00     0.004 C 
ENDBRANCH  12  13
ENDBRANCH  11  12
ENDBRANCH  10  11
ENDBRANCH   9  10
ENDBRANCH   1   9
TORSDOF 10
ENDMDL
MODEL 3
REMARK VINA RESULT:    -4.017     13.703     15.597
REMARK INTER + INTRA:          -7.391
REMARK INTER:                  -6.676
REMARK INTRA:                  -0.715
REMARK UNBOUND:                -1.025
REMARK SMILES CCCCCCCCCCCC(=O)[O-]
REMARK SMILES IDX 7 1 8 2 9 3 10 4 11 5 12 6 13 7 14 8 6 9 5 10 4 11 3 12 2 13
REMARK SMILES IDX 1 14
REMARK H PARENT
REMARK Flexibility Score: inf
ROOT
ATOM      1  C   UNL     1      95.759  85.057  78.108  1.00  0.00     0.000 C 
ENDROOT
BRANCH   1   2
ATOM      2  C   UNL     1      96.605  83.781  78.180  1.00  0.00     0.000 C 
BRANCH   2   3
ATOM      3  C   UNL     1      95.939  82.730  79.079  1.00  0.00     0.000 C 
BRANCH   3   4
ATOM      4  C   UNL     1      96.938  81.712  79.660  1.00  0.00     0.006 C 
BRANCH   4   5
ATOM      5  C   UNL     1      98.404  81.988  79.279  1.00  0.00     0.053 C 
BRANCH   5   6
ATOM      6  C   UNL     1      99.281  82.211  80.474  1.00  0.00     0.041 C 
ATOM      7  O   UNL     1      98.837  82.009  81.634  1.00  0.00    -0.550 OA
ATOM      8  O   UNL     1     100.580  82.675  80.306  1.00  0.00    -0.550 OA
ENDBRANCH   5   6
ENDBRANCH   4   5
ENDBRANCH   3   4
ENDBRANCH   2   3
ENDBRANCH   1   2
BRANCH   1   9
ATOM      9  C   UNL     1      94.267  84.740  78.288  1.00  0.00     0.000 C 
BRANCH   9  10
ATOM     10  C   UNL     1      93.546  84.477  76.955  1.00  0.00    -0.000 C 
BRANCH  10  11
ATOM     11  C   UNL     1      92.611  83.250  76.951  1.00  0.00    -0.000 C 
BRANCH  11  12
ATOM     12  C   UNL     1      91.729  83.095  78.206  1.00  0.00    -0.000 C 
BRANCH  12  13
ATOM     13  C   UNL     1      90.317  83.693  78.082  1.00  0.00    -0.003 C 
ATOM     14  C   UNL     1      89.895  83.928  76.632  1.00  0.00     0.004 C 
ENDBRANCH  12  13
ENDBRANCH  11  12
ENDBRANCH  10  11
ENDBRANCH   9  10
ENDBRANCH   1   9
TORSDOF 10
ENDMDL
MODEL 4
REMARK VINA RESULT:    -4.017     13.159     14.680
REMARK INTER + INTRA:          -7.390
REMARK INTER:                  -6.702
REMARK INTRA:                  -0.689
REMARK UNBOUND:                -1.025
REMARK SMILES CCCCCCCCCCCC(=O)[O-]
REMARK SMILES IDX 7 1 8 2 9 3 10 4 11 5 12 6 13 7 14 8 6 9 5 10 4 11 3 12 2 13
REMARK SMILES IDX 1 14
REMARK H PARENT
REMARK Flexibility Score: inf
ROOT
ATOM      1  C   UNL     1      95.369  85.153  77.766  1.00  0.00     0.000 C 
ENDROOT
BRANCH   1   2
ATOM      2  C   UNL     1      93.920  84.747  78.065  1.00  0.00     0.000 C 
BRANCH   2   3
ATOM      3  C   UNL     1      93.197  84.306  76.785  1.00  0.00     0.000 C 
BRANCH   3   4
ATOM      4  C   UNL     1      92.275  83.091  77.001  1.00  0.00     0.006 C 
BRANCH   4   5
ATOM      5  C   UNL     1      91.456  83.152  78.302  1.00  0.00     0.053 C 
BRANCH   5   6
ATOM      6  C   UNL     1      90.139  83.847  78.125  1.00  0.00     0.041 C 
ATOM      7  O   UNL     1      89.393  83.556  77.155  1.00  0.00    -0.550 OA
ATOM      8  O   UNL     1      89.751  84.839  79.017  1.00  0.00    -0.550 OA
ENDBRANCH   5   6
ENDBRANCH   4   5
ENDBRANCH   3   4
ENDBRANCH   2   3
ENDBRANCH   1   2
BRANCH   1   9
ATOM      9  C   UNL     1      96.342  84.016  78.116  1.00  0.00     0.000 C 
BRANCH   9  10
ATOM     10  C   UNL     1      95.721  82.963  79.049  1.00  0.00    -0.000 C 
BRANCH  10  11
ATOM     11  C   UNL     1      96.564  81.686  79.243  1.00  0.00    -0.000 C 
BRANCH  11  12
ATOM     12  C   UNL     1      98.089  81.908  79.274  1.00  0.00    -0.000 C 
BRANCH  12  13
ATOM     13  C   UNL     1      98.659  82.292  80.650  1.00  0.00    -0.003 C 
ATOM     14  C   UNL     1     100.147  82.636  80.604  1.00  0.00     0.004 C 
ENDBRANCH  12  13
ENDBRANCH  11  12
ENDBRANCH  10  11
ENDBRANCH   9  10
ENDBRANCH   1   9
TORSDOF 10
ENDMDL
MODEL 5
REMARK VINA RESULT:    -3.848     11.593     13.075
REMARK INTER + INTRA:          -7.123
REMARK INTER:                  -6.493
REMARK INTRA:                  -0.631
REMARK UNBOUND:                -1.025
REMARK SMILES CCCCCCCCCCCC(=O)[O-]
REMARK SMILES IDX 7 1 8 2 9 3 10 4 11 5 12 6 13 7 14 8 6 9 5 10 4 11 3 12 2 13
REMARK SMILES IDX 1 14
REMARK H PARENT
REMARK Flexibility Score: inf
ROOT
ATOM      1  C   UNL     1      89.775  83.826  77.046  1.00  0.00     0.000 C 
ENDROOT
BRANCH   1   2
ATOM      2  C   UNL     1      91.265  83.651  76.729  1.00  0.00     0.000 C 
BRANCH   2   3
ATOM      3  C   UNL     1      91.978  82.877  77.846  1.00  0.00     0.000 C 
BRANCH   3   4
ATOM      4  C   UNL     1      93.371  83.444  78.179  1.00  0.00     0.006 C 
BRANCH   4   5
ATOM      5  C   UNL     1      93.437  84.982  78.176  1.00  0.00     0.053 C 
BRANCH   5   6
ATOM      6  C   UNL     1      94.398  85.518  77.158  1.00  0.00     0.041 C 
ATOM      7  O   UNL     1      95.388  86.205  77.520  1.00  0.00    -0.550 OA
ATOM      8  O   UNL     1      94.180  85.285  75.806  1.00  0.00    -0.550 OA
ENDBRANCH   5   6
ENDBRANCH   4   5
ENDBRANCH   3   4
ENDBRANCH   2   3
ENDBRANCH   1   2
BRANCH   1   9
ATOM      9  C   UNL     1      89.547  83.962  78.560  1.00  0.00     0.000 C 
BRANCH   9  10
ATOM     10  C   UNL     1      88.349  83.138  79.060  1.00  0.00    -0.000 C 
BRANCH  10  11
ATOM     11  C   UNL     1      87.598  82.350  77.968  1.00  0.00    -0.000 C 
BRANCH  11  12
ATOM     12  C   UNL     1      86.319  81.631  78.443  1.00  0.00    -0.000 C 
BRANCH  12  13
ATOM     13  C   UNL     1      85.405  81.126  77.313  1.00  0.00    -0.003 C 
ATOM     14  C   UNL     1      85.158  79.618  77.376  1.00  0.00     0.004 C 
ENDBRANCH  12  13
ENDBRANCH  11  12
ENDBRANCH  10  11
ENDBRANCH   9  10
ENDBRANCH   1   9
TORSDOF 10
ENDMDL
MODEL 6
REMARK VINA RESULT:    -3.837      2.239      4.810
REMARK INTER + INTRA:          -7.106
REMARK INTER:                  -6.103
REMARK INTRA:                  -1.003
REMARK UNBOUND:                -1.025
REMARK SMILES CCCCCCCCCCCC(=O)[O-]
REMARK SMILES IDX 7 1 8 2 9 3 10 4 11 5 12 6 13 7 14 8 6 9 5 10 4 11 3 12 2 13
REMARK SMILES IDX 1 14
REMARK H PARENT
REMARK Flexibility Score: inf
ROOT
ATOM      1  C   UNL     1      89.090  75.820  68.238  1.00  0.00     0.000 C 
ENDROOT
BRANCH   1   2
ATOM      2  C   UNL     1      89.059  74.311  67.968  1.00  0.00     0.000 C 
BRANCH   2   3
ATOM      3  C   UNL     1      87.739  73.693  68.451  1.00  0.00     0.000 C 
BRANCH   3   4
ATOM      4  C   UNL     1      86.879  74.672  69.271  1.00  0.00     0.006 C 
BRANCH   4   5
ATOM      5  C   UNL     1      86.443  74.125  70.641  1.00  0.00     0.053 C 
BRANCH   5   6
ATOM      6  C   UNL     1      87.522  74.228  71.676  1.00  0.00     0.041 C 
ATOM      7  O   UNL     1      88.458  73.388  71.703  1.00  0.00    -0.550 OA
ATOM      8  O   UNL     1      87.474  75.235  72.632  1.00  0.00    -0.550 OA
ENDBRANCH   5   6
ENDBRANCH   4   5
ENDBRANCH   3   4
ENDBRANCH   2   3
ENDBRANCH   1   2
BRANCH   1   9
ATOM      9  C   UNL     1      89.105  76.614  66.922  1.00  0.00     0.000 C 
BRANCH   9  10
ATOM     10  C   UNL     1      88.138  77.810  66.935  1.00  0.00    -0.000 C 
BRANCH  10  11
ATOM     11  C   UNL     1      86.720  77.497  67.453  1.00  0.00    -0.000 C 
BRANCH  11  12
ATOM     12  C   UNL     1      86.126  78.548  68.412  1.00  0.00    -0.000 C 
BRANCH  12  13
ATOM     13  C   UNL     1      86.072  78.119  69.888  1.00  0.00    -0.003 C 
ATOM     14  C   UNL     1      87.457  77.888  70.492  1.00  0.00     0.004 C 
ENDBRANCH  12  13
ENDBRANCH  11  12
ENDBRANCH  10  11
ENDBRANCH   9  10
ENDBRANCH   1   9
TORSDOF 10
ENDMDL
MODEL 7
REMARK VINA RESULT:    -3.832     14.183     16.090
REMARK INTER + INTRA:          -7.098
REMARK INTER:                  -6.320
REMARK INTRA:                  -0.778
REMARK UNBOUND:                -1.025
REMARK SMILES CCCCCCCCCCCC(=O)[O-]
REMARK SMILES IDX 7 1 8 2 9 3 10 4 11 5 12 6 13 7 14 8 6 9 5 10 4 11 3 12 2 13
REMARK SMILES IDX 1 14
REMARK H PARENT
REMARK Flexibility Score: inf
ROOT
ATOM      1  C   UNL     1      96.057  83.877  78.283  1.00  0.00     0.000 C 
ENDROOT
BRANCH   1   2
ATOM      2  C   UNL     1      95.513  82.609  78.953  1.00  0.00     0.000 C 
BRANCH   2   3
ATOM      3  C   UNL     1      96.655  81.662  79.345  1.00  0.00     0.000 C 
BRANCH   3   4
ATOM      4  C   UNL     1      98.050  82.248  79.058  1.00  0.00     0.006 C 
BRANCH   4   5
ATOM      5  C   UNL     1      99.067  82.027  80.192  1.00  0.00     0.053 C 
BRANCH   5   6
ATOM      6  C   UNL     1      99.722  83.299  80.638  1.00  0.00     0.041 C 
ATOM      7  O   UNL     1     100.977  83.393  80.660  1.00  0.00    -0.550 OA
ATOM      8  O   UNL     1      98.945  84.371  81.059  1.00  0.00    -0.550 OA
ENDBRANCH   5   6
ENDBRANCH   4   5
ENDBRANCH   3   4
ENDBRANCH   2   3
ENDBRANCH   1   2
BRANCH   1   9
ATOM      9  C   UNL     1      94.934  84.898  78.043  1.00  0.00     0.000 C 
BRANCH   9  10
ATOM     10  C   UNL     1      94.253  84.726  76.674  1.00  0.00    -0.000 C 
BRANCH  10  11
ATOM     11  C   UNL     1      92.727  84.504  76.729  1.00  0.00    -0.000 C 
BRANCH  11  12
ATOM     12  C   UNL     1      92.275  83.259  77.518  1.00  0.00    -0.000 C 
BRANCH  12  13
ATOM     13  C   UNL     1      91.078  83.489  78.456  1.00  0.00    -0.003 C 
ATOM     14  C   UNL     1      91.492  84.004  79.834  1.00  0.00     0.004 C 
ENDBRANCH  12  13
ENDBRANCH  11  12
ENDBRANCH  10  11
ENDBRANCH   9  10
ENDBRANCH   1   9
TORSDOF 10
ENDMDL
MODEL 8
REMARK VINA RESULT:    -3.810     13.744     15.379
REMARK INTER + INTRA:          -7.063
REMARK INTER:                  -5.990
REMARK INTRA:                  -1.073
REMARK UNBOUND:                -1.025
REMARK SMILES CCCCCCCCCCCC(=O)[O-]
REMARK SMILES IDX 7 1 8 2 9 3 10 4 11 5 12 6 13 7 14 8 6 9 5 10 4 11 3 12 2 13
REMARK SMILES IDX 1 14
REMARK H PARENT
REMARK Flexibility Score: inf
ROOT
ATOM      1  C   UNL     1      95.515  83.129  79.069  1.00  0.00     0.000 C 
ENDROOT
BRANCH   1   2
ATOM      2  C   UNL     1      96.199  84.065  78.066  1.00  0.00     0.000 C 
BRANCH   2   3
ATOM      3  C   UNL     1      95.224  85.139  77.563  1.00  0.00     0.000 C 
BRANCH   3   4
ATOM      4  C   UNL     1      93.762  84.859  77.958  1.00  0.00     0.006 C 
BRANCH   4   5
ATOM      5  C   UNL     1      92.865  84.443  76.779  1.00  0.00     0.053 C 
BRANCH   5   6
ATOM      6  C   UNL     1      91.690  83.617  77.209  1.00  0.00     0.041 C 
ATOM      7  O   UNL     1      91.794  82.820  78.178  1.00  0.00    -0.550 OA
ATOM      8  O   UNL     1      90.488  83.705  76.518  1.00  0.00    -0.550 OA
ENDBRANCH   5   6
ENDBRANCH   4   5
ENDBRANCH   3   4
ENDBRANCH   2   3
ENDBRANCH   1   2
BRANCH   1   9
ATOM      9  C   UNL     1      96.318  81.831  79.246  1.00  0.00     0.000 C 
BRANCH   9  10
ATOM     10  C   UNL     1      97.818  82.012  78.962  1.00  0.00    -0.000 C 
BRANCH  10  11
ATOM     11  C   UNL     1      98.715  82.084  80.215  1.00  0.00    -0.000 C 
BRANCH  11  12
ATOM     12  C   UNL     1      99.190  83.500  80.599  1.00  0.00    -0.000 C 
BRANCH  12  13
ATOM     13  C   UNL     1      98.206  84.296  81.474  1.00  0.00    -0.003 C 
ATOM     14  C   UNL     1      97.870  85.670  80.894  1.00  0.00     0.004 C 
ENDBRANCH  12  13
ENDBRANCH  11  12
ENDBRANCH  10  11
ENDBRANCH   9  10
ENDBRANCH   1   9
TORSDOF 10
ENDMDL
MODEL 9
REMARK VINA RESULT:    -3.712     13.106     14.574
REMARK INTER + INTRA:          -6.907
REMARK INTER:                  -6.124
REMARK INTRA:                  -0.783
REMARK UNBOUND:                -1.025
REMARK SMILES CCCCCCCCCCCC(=O)[O-]
REMARK SMILES IDX 7 1 8 2 9 3 10 4 11 5 12 6 13 7 14 8 6 9 5 10 4 11 3 12 2 13
REMARK SMILES IDX 1 14
REMARK H PARENT
REMARK Flexibility Score: inf
ROOT
ATOM      1  C   UNL     1      94.787  84.261  77.384  1.00  0.00     0.000 C 
ENDROOT
BRANCH   1   2
ATOM      2  C   UNL     1      93.889  85.069  76.438  1.00  0.00     0.000 C 
BRANCH   2   3
ATOM      3  C   UNL     1      92.416  84.673  76.606  1.00  0.00     0.000 C 
BRANCH   3   4
ATOM      4  C   UNL     1      92.233  83.219  77.079  1.00  0.00     0.006 C 
BRANCH   4   5
ATOM      5  C   UNL     1      91.455  83.084  78.400  1.00  0.00     0.053 C 
BRANCH   5   6
ATOM      6  C   UNL     1      90.123  83.769  78.360  1.00  0.00     0.041 C 
ATOM      7  O   UNL     1      89.805  84.592  79.257  1.00  0.00    -0.550 OA
ATOM      8  O   UNL     1      89.219  83.473  77.347  1.00  0.00    -0.550 OA
ENDBRANCH   5   6
ENDBRANCH   4   5
ENDBRANCH   3   4
ENDBRANCH   2   3
ENDBRANCH   1   2
BRANCH   1   9
ATOM      9  C   UNL     1      95.515  85.183  78.373  1.00  0.00     0.000 C 
BRANCH   9  10
ATOM     10  C   UNL     1      97.013  84.856  78.504  1.00  0.00    -0.000 C 
BRANCH  10  11
ATOM     11  C   UNL     1      97.499  84.590  79.943  1.00  0.00    -0.000 C 
BRANCH  11  12
ATOM     12  C   UNL     1      97.757  83.109  80.283  1.00  0.00    -0.000 C 
BRANCH  12  13
ATOM     13  C   UNL     1      97.545  82.131  79.115  1.00  0.00    -0.003 C 
ATOM     14  C   UNL     1      96.252  81.325  79.239  1.00  0.00     0.004 C 
ENDBRANCH  12  13
ENDBRANCH  11  12
ENDBRANCH  10  11
ENDBRANCH   9  10
ENDBRANCH   1   9
TORSDOF 10
ENDMDL
