MODEL 1
REMARK VINA RESULT:    -4.738      0.000      0.000
REMARK INTER + INTRA:         -12.047
REMARK INTER:                  -9.169
REMARK INTRA:                  -2.878
REMARK UNBOUND:                -2.878
REMARK SMILES CCCCCCCCCCCCCCCCCC(=O)[O-]
REMARK SMILES IDX 10 1 11 2 12 3 13 4 14 5 15 6 16 7 17 8 18 9 19 10 20 11
REMARK SMILES IDX 9 12 8 13 7 14 6 15 5 16 4 17 3 18 2 19 1 20
REMARK H PARENT
REMARK Flexibility Score: inf
ROOT
ATOM      1  C   UNL     1      61.174  27.308  25.680  1.00  0.00     0.000 C 
ENDROOT
BRANCH   1   2
ATOM      2  C   UNL     1      61.658  28.406  24.720  1.00  0.00     0.000 C 
BRANCH   2   3
ATOM      3  C   UNL     1      62.173  29.653  25.458  1.00  0.00     0.000 C 
BRANCH   3   4
ATOM      4  C   UNL     1      63.405  30.273  24.783  1.00  0.00     0.000 C 
BRANCH   4   5
ATOM      5  C   UNL     1      63.812  29.470  23.540  1.00  0.00     0.000 C 
BRANCH   5   6
ATOM      6  C   UNL     1      65.172  28.766  23.697  1.00  0.00     0.000 C 
BRANCH   6   7
ATOM      7  C   UNL     1      65.151  27.494  24.570  1.00  0.00     0.006 C 
BRANCH   7   8
ATOM      8  C   UNL     1      65.222  26.178  23.780  1.00  0.00     0.053 C 
BRANCH   8   9
ATOM      9  C   UNL     1      63.924  25.860  23.105  1.00  0.00     0.041 C 
ATOM     10  O   UNL     1      63.088  25.102  23.663  1.00  0.00    -0.550 OA
ATOM     11  O   UNL     1      63.623  26.429  21.874  1.00  0.00    -0.550 OA
ENDBRANCH   8   9
ENDBRANCH   7   8
ENDBRANCH   6   7
ENDBRANCH   5   6
ENDBRANCH   4   5
ENDBRANCH   3   4
ENDBRANCH   2   3
ENDBRANCH   1   2
BRANCH   1  12
ATOM     12  C   UNL     1      62.309  26.845  26.602  1.00  0.00     0.000 C 
BRANCH  12  13
ATOM     13  C   UNL     1      61.867  26.870  28.072  1.00  0.00    -0.000 C 
BRANCH  13  14
ATOM     14  C   UNL     1      60.690  27.826  28.320  1.00  0.00    -0.000 C 
BRANCH  14  15
ATOM     15  C   UNL     1      61.101  29.077  29.116  1.00  0.00    -0.000 C 
BRANCH  15  16
ATOM     16  C   UNL     1      62.617  29.330  29.077  1.00  0.00    -0.000 C 
BRANCH  16  17
ATOM     17  C   UNL     1      62.967  30.825  29.095  1.00  0.00    -0.000 C 
BRANCH  17  18
ATOM     18  C   UNL     1      64.217  31.106  28.252  1.00  0.00    -0.000 C 
BRANCH  18  19
ATOM     19  C   UNL     1      65.034  29.826  28.035  1.00  0.00    -0.003 C 
ATOM     20  C   UNL     1      66.368  30.132  27.361  1.00  0.00     0.004 C 
ENDBRANCH  18  19
ENDBRANCH  17  18
ENDBRANCH  16  17
ENDBRANCH  15  16
ENDBRANCH  14  15
ENDBRANCH  13  14
ENDBRANCH  12  13
ENDBRANCH   1  12
TORSDOF 16
ENDMDL
MODEL 2
REMARK VINA RESULT:    -4.558      1.408      1.781
REMARK INTER + INTRA:         -11.700
REMARK INTER:                  -8.884
REMARK INTRA:                  -2.815
REMARK UNBOUND:                -2.878
REMARK SMILES CCCCCCCCCCCCCCCCCC(=O)[O-]
REMARK SMILES IDX 10 1 11 2 12 3 13 4 14 5 15 6 16 7 17 8 18 9 19 10 20 11
REMARK SMILES IDX 9 12 8 13 7 14 6 15 5 16 4 17 3 18 2 19 1 20
REMARK H PARENT
REMARK Flexibility Score: inf
ROOT
ATOM      1  C   UNL     1      60.644  27.930  24.936  1.00  0.00     0.000 C 
ENDROOT
BRANCH   1   2
ATOM      2  C   UNL     1      61.567  29.130  25.199  1.00  0.00     0.000 C 
BRANCH   2   3
ATOM      3  C   UNL     1      62.707  29.236  24.172  1.00  0.00     0.000 C 
BRANCH   3   4
ATOM      4  C   UNL     1      64.097  29.197  24.824  1.00  0.00     0.000 C 
BRANCH   4   5
ATOM      5  C   UNL     1      64.238  27.974  25.742  1.00  0.00     0.000 C 
BRANCH   5   6
ATOM      6  C   UNL     1      64.907  26.775  25.046  1.00  0.00     0.000 C 
BRANCH   6   7
ATOM      7  C   UNL     1      63.980  25.956  24.124  1.00  0.00     0.006 C 
BRANCH   7   8
ATOM      8  C   UNL     1      64.217  26.179  22.622  1.00  0.00     0.053 C 
BRANCH   8   9
ATOM      9  C   UNL     1      65.673  26.147  22.274  1.00  0.00     0.041 C 
ATOM     10  O   UNL     1      66.277  25.047  22.177  1.00  0.00    -0.550 OA
ATOM     11  O   UNL     1      66.354  27.331  22.022  1.00  0.00    -0.550 OA
ENDBRANCH   8   9
ENDBRANCH   7   8
ENDBRANCH   6   7
ENDBRANCH   5   6
ENDBRANCH   4   5
ENDBRANCH   3   4
ENDBRANCH   2   3
ENDBRANCH   1   2
BRANCH   1  12
ATOM     12  C   UNL     1      60.840  26.843  25.999  1.00  0.00     0.000 C 
BRANCH  12  13
ATOM     13  C   UNL     1      60.726  27.430  27.413  1.00  0.00    -0.000 C 
BRANCH  13  14
ATOM     14  C   UNL     1      61.884  26.997  28.327  1.00  0.00    -0.000 C 
BRANCH  14  15
ATOM     15  C   UNL     1      62.506  28.178  29.092  1.00  0.00    -0.000 C 
BRANCH  15  16
ATOM     16  C   UNL     1      61.924  29.533  28.662  1.00  0.00    -0.000 C 
BRANCH  16  17
ATOM     17  C   UNL     1      62.980  30.648  28.635  1.00  0.00    -0.000 C 
BRANCH  17  18
ATOM     18  C   UNL     1      64.390  30.074  28.821  1.00  0.00    -0.000 C 
BRANCH  18  19
ATOM     19  C   UNL     1      65.456  31.072  28.351  1.00  0.00    -0.003 C 
ATOM     20  C   UNL     1      66.505  30.387  27.481  1.00  0.00     0.004 C 
ENDBRANCH  18  19
ENDBRANCH  17  18
ENDBRANCH  16  17
ENDBRANCH  15  16
ENDBRANCH  14  15
ENDBRANCH  13  14
ENDBRANCH  12  13
ENDBRANCH   1  12
TORSDOF 16
ENDMDL
MODEL 3
REMARK VINA RESULT:    -4.489      1.929      5.521
REMARK INTER + INTRA:         -11.566
REMARK INTER:                  -8.950
REMARK INTRA:                  -2.616
REMARK UNBOUND:                -2.878
REMARK SMILES CCCCCCCCCCCCCCCCCC(=O)[O-]
REMARK SMILES IDX 10 1 11 2 12 3 13 4 14 5 15 6 16 7 17 8 18 9 19 10 20 11
REMARK SMILES IDX 9 12 8 13 7 14 6 15 5 16 4 17 3 18 2 19 1 20
REMARK H PARENT
REMARK Flexibility Score: inf
ROOT
ATOM      1  C   UNL     1      65.182  29.935  25.190  1.00  0.00     0.000 C 
ENDROOT
BRANCH   1   2
ATOM      2  C   UNL     1      65.477  29.223  26.519  1.00  0.00     0.000 C 
BRANCH   2   3
ATOM      3  C   UNL     1      65.955  30.189  27.616  1.00  0.00     0.000 C 
BRANCH   3   4
ATOM      4  C   UNL     1      65.085  30.126  28.880  1.00  0.00     0.000 C 
BRANCH   4   5
ATOM      5  C   UNL     1      63.923  31.126  28.796  1.00  0.00     0.000 C 
BRANCH   5   6
ATOM      6  C   UNL     1      62.548  30.470  29.015  1.00  0.00     0.000 C 
BRANCH   6   7
ATOM      7  C   UNL     1      62.441  29.006  28.538  1.00  0.00     0.006 C 
BRANCH   7   8
ATOM      8  C   UNL     1      61.061  28.615  27.986  1.00  0.00     0.053 C 
BRANCH   8   9
ATOM      9  C   UNL     1      61.081  27.267  27.333  1.00  0.00     0.041 C 
ATOM     10  O   UNL     1      60.197  26.958  26.492  1.00  0.00    -0.550 OA
ATOM     11  O   UNL     1      62.097  26.366  27.629  1.00  0.00    -0.550 OA
ENDBRANCH   8   9
ENDBRANCH   7   8
ENDBRANCH   6   7
ENDBRANCH   5   6
ENDBRANCH   4   5
ENDBRANCH   3   4
ENDBRANCH   2   3
ENDBRANCH   1   2
BRANCH   1  12
ATOM     12  C   UNL     1      63.814  30.627  25.229  1.00  0.00     0.000 C 
BRANCH  12  13
ATOM     13  C   UNL     1      62.694  29.654  24.832  1.00  0.00    -0.000 C 
BRANCH  13  14
ATOM     14  C   UNL     1      63.149  28.626  23.784  1.00  0.00    -0.000 C 
BRANCH  14  15
ATOM     15  C   UNL     1      62.326  27.327  23.835  1.00  0.00    -0.000 C 
BRANCH  15  16
ATOM     16  C   UNL     1      63.198  26.084  24.076  1.00  0.00    -0.000 C 
BRANCH  16  17
ATOM     17  C   UNL     1      64.678  26.433  24.287  1.00  0.00    -0.000 C 
BRANCH  17  18
ATOM     18  C   UNL     1      65.573  25.632  23.332  1.00  0.00    -0.000 C 
BRANCH  18  19
ATOM     19  C   UNL     1      65.932  26.460  22.092  1.00  0.00    -0.003 C 
ATOM     20  C   UNL     1      66.526  27.810  22.484  1.00  0.00     0.004 C 
ENDBRANCH  18  19
ENDBRANCH  17  18
ENDBRANCH  16  17
ENDBRANCH  15  16
ENDBRANCH  14  15
ENDBRANCH  13  14
ENDBRANCH  12  13
ENDBRANCH   1  12
TORSDOF 16
ENDMDL
MODEL 4
REMARK VINA RESULT:    -4.462     11.589     14.667
REMARK INTER + INTRA:         -11.513
REMARK INTER:                  -8.956
REMARK INTRA:                  -2.557
REMARK UNBOUND:                -2.878
REMARK SMILES CCCCCCCCCCCCCCCCCC(=O)[O-]
REMARK SMILES IDX 10 1 11 2 12 3 13 4 14 5 15 6 16 7 17 8 18 9 19 10 20 11
REMARK SMILES IDX 9 12 8 13 7 14 6 15 5 16 4 17 3 18 2 19 1 20
REMARK H PARENT
REMARK Flexibility Score: inf
ROOT
ATOM      1  C   UNL     1      59.999  28.793  12.294  1.00  0.00     0.000 C 
ENDROOT
BRANCH   1   2
ATOM      2  C   UNL     1      61.402  28.616  12.895  1.00  0.00     0.000 C 
BRANCH   2   3
ATOM      3  C   UNL     1      61.858  29.839  13.707  1.00  0.00     0.000 C 
BRANCH   3   4
ATOM      4  C   UNL     1      60.815  30.967  13.714  1.00  0.00     0.000 C 
BRANCH   4   5
ATOM      5  C   UNL     1      61.338  32.202  12.967  1.00  0.00     0.000 C 
BRANCH   5   6
ATOM      6  C   UNL     1      60.901  33.528  13.616  1.00  0.00     0.000 C 
BRANCH   6   7
ATOM      7  C   UNL     1      61.050  33.584  15.150  1.00  0.00     0.006 C 
BRANCH   7   8
ATOM      8  C   UNL     1      62.485  33.832  15.642  1.00  0.00     0.053 C 
BRANCH   8   9
ATOM      9  C   UNL     1      62.559  33.906  17.136  1.00  0.00     0.041 C 
ATOM     10  O   UNL     1      63.548  33.423  17.746  1.00  0.00    -0.550 OA
ATOM     11  O   UNL     1      61.551  34.540  17.852  1.00  0.00    -0.550 OA
ENDBRANCH   8   9
ENDBRANCH   7   8
ENDBRANCH   6   7
ENDBRANCH   5   6
ENDBRANCH   4   5
ENDBRANCH   3   4
ENDBRANCH   2   3
ENDBRANCH   1   2
BRANCH   1  12
ATOM     12  C   UNL     1      60.038  28.680  10.765  1.00  0.00     0.000 C 
BRANCH  12  13
ATOM     13  C   UNL     1      60.332  30.043  10.121  1.00  0.00    -0.000 C 
BRANCH  13  14
ATOM     14  C   UNL     1      61.446  29.969   9.065  1.00  0.00    -0.000 C 
BRANCH  14  15
ATOM     15  C   UNL     1      62.295  28.691   9.189  1.00  0.00    -0.000 C 
BRANCH  15  16
ATOM     16  C   UNL     1      63.623  28.933   9.924  1.00  0.00    -0.000 C 
BRANCH  16  17
ATOM     17  C   UNL     1      63.985  30.422  10.016  1.00  0.00    -0.000 C 
BRANCH  17  18
ATOM     18  C   UNL     1      64.536  30.768  11.405  1.00  0.00    -0.000 C 
BRANCH  18  19
ATOM     19  C   UNL     1      64.627  32.286  11.597  1.00  0.00    -0.003 C 
ATOM     20  C   UNL     1      65.004  32.638  13.034  1.00  0.00     0.004 C 
ENDBRANCH  18  19
ENDBRANCH  17  18
ENDBRANCH  16  17
ENDBRANCH  15  16
ENDBRANCH  14  15
ENDBRANCH  13  14
ENDBRANCH  12  13
ENDBRANCH   1  12
TORSDOF 16
ENDMDL
MODEL 5
REMARK VINA RESULT:    -4.427     11.606     14.928
REMARK INTER + INTRA:         -11.446
REMARK INTER:                  -9.436
REMARK INTRA:                  -2.010
REMARK UNBOUND:                -2.878
REMARK SMILES CCCCCCCCCCCCCCCCCC(=O)[O-]
REMARK SMILES IDX 10 1 11 2 12 3 13 4 14 5 15 6 16 7 17 8 18 9 19 10 20 11
REMARK SMILES IDX 9 12 8 13 7 14 6 15 5 16 4 17 3 18 2 19 1 20
REMARK H PARENT
REMARK Flexibility Score: inf
ROOT
ATOM      1  C   UNL     1      64.300  30.895  11.426  1.00  0.00     0.000 C 
ENDROOT
BRANCH   1   2
ATOM      2  C   UNL     1      64.533  32.380  11.745  1.00  0.00     0.000 C 
BRANCH   2   3
ATOM      3  C   UNL     1      63.731  32.856  12.967  1.00  0.00     0.000 C 
BRANCH   3   4
ATOM      4  C   UNL     1      62.328  32.234  13.034  1.00  0.00     0.000 C 
BRANCH   4   5
ATOM      5  C   UNL     1      61.274  33.296  13.376  1.00  0.00     0.000 C 
BRANCH   5   6
ATOM      6  C   UNL     1      60.683  33.126  14.787  1.00  0.00     0.000 C 
BRANCH   6   7
ATOM      7  C   UNL     1      61.081  34.221  15.798  1.00  0.00     0.006 C 
BRANCH   7   8
ATOM      8  C   UNL     1      62.550  34.172  16.245  1.00  0.00     0.053 C 
BRANCH   8   9
ATOM      9  C   UNL     1      62.699  33.584  17.615  1.00  0.00     0.041 C 
ATOM     10  O   UNL     1      63.843  33.330  18.074  1.00  0.00    -0.550 OA
ATOM     11  O   UNL     1      61.575  33.350  18.397  1.00  0.00    -0.550 OA
ENDBRANCH   8   9
ENDBRANCH   7   8
ENDBRANCH   6   7
ENDBRANCH   5   6
ENDBRANCH   4   5
ENDBRANCH   3   4
ENDBRANCH   2   3
ENDBRANCH   1   2
BRANCH   1  12
ATOM     12  C   UNL     1      64.860  30.536  10.044  1.00  0.00     0.000 C 
BRANCH  12  13
ATOM     13  C   UNL     1      63.729  30.210   9.059  1.00  0.00    -0.000 C 
BRANCH  13  14
ATOM     14  C   UNL     1      63.308  28.733   9.111  1.00  0.00    -0.000 C 
BRANCH  14  15
ATOM     15  C   UNL     1      61.781  28.555   9.187  1.00  0.00    -0.000 C 
BRANCH  15  16
ATOM     16  C   UNL     1      61.042  29.885   9.407  1.00  0.00    -0.000 C 
BRANCH  16  17
ATOM     17  C   UNL     1      60.560  30.060  10.855  1.00  0.00    -0.000 C 
BRANCH  17  18
ATOM     18  C   UNL     1      59.978  28.751  11.402  1.00  0.00    -0.000 C 
BRANCH  18  19
ATOM     19  C   UNL     1      60.398  28.531  12.861  1.00  0.00    -0.003 C 
ATOM     20  C   UNL     1      61.915  28.597  13.013  1.00  0.00     0.004 C 
ENDBRANCH  18  19
ENDBRANCH  17  18
ENDBRANCH  16  17
ENDBRANCH  15  16
ENDBRANCH  14  15
ENDBRANCH  13  14
ENDBRANCH  12  13
ENDBRANCH   1  12
TORSDOF 16
ENDMDL
MODEL 6
REMARK VINA RESULT:    -4.407     11.576     14.697
REMARK INTER + INTRA:         -11.406
REMARK INTER:                  -8.754
REMARK INTRA:                  -2.652
REMARK UNBOUND:                -2.878
REMARK SMILES CCCCCCCCCCCCCCCCCC(=O)[O-]
REMARK SMILES IDX 10 1 11 2 12 3 13 4 14 5 15 6 16 7 17 8 18 9 19 10 20 11
REMARK SMILES IDX 9 12 8 13 7 14 6 15 5 16 4 17 3 18 2 19 1 20
REMARK H PARENT
REMARK Flexibility Score: inf
ROOT
ATOM      1  C   UNL     1      62.576  28.747  13.227  1.00  0.00     0.000 C 
ENDROOT
BRANCH   1   2
ATOM      2  C   UNL     1      63.884  29.429  12.799  1.00  0.00     0.000 C 
BRANCH   2   3
ATOM      3  C   UNL     1      64.322  30.535  13.773  1.00  0.00     0.000 C 
BRANCH   3   4
ATOM      4  C   UNL     1      64.801  31.805  13.052  1.00  0.00     0.000 C 
BRANCH   4   5
ATOM      5  C   UNL     1      63.616  32.717  12.704  1.00  0.00     0.000 C 
BRANCH   5   6
ATOM      6  C   UNL     1      63.018  33.421  13.934  1.00  0.00     0.000 C 
BRANCH   6   7
ATOM      7  C   UNL     1      61.478  33.506  13.952  1.00  0.00     0.006 C 
BRANCH   7   8
ATOM      8  C   UNL     1      60.878  33.932  15.302  1.00  0.00     0.053 C 
BRANCH   8   9
ATOM      9  C   UNL     1      61.516  33.212  16.450  1.00  0.00     0.041 C 
ATOM     10  O   UNL     1      61.339  31.975  16.599  1.00  0.00    -0.550 OA
ATOM     11  O   UNL     1      62.335  33.902  17.335  1.00  0.00    -0.550 OA
ENDBRANCH   8   9
ENDBRANCH   7   8
ENDBRANCH   6   7
ENDBRANCH   5   6
ENDBRANCH   4   5
ENDBRANCH   3   4
ENDBRANCH   2   3
ENDBRANCH   1   2
BRANCH   1  12
ATOM     12  C   UNL     1      61.577  29.772  13.778  1.00  0.00     0.000 C 
BRANCH  12  13
ATOM     13  C   UNL     1      60.553  30.172  12.707  1.00  0.00    -0.000 C 
BRANCH  13  14
ATOM     14  C   UNL     1      60.440  29.133  11.580  1.00  0.00    -0.000 C 
BRANCH  14  15
ATOM     15  C   UNL     1      60.104  29.770  10.220  1.00  0.00    -0.000 C 
BRANCH  15  16
ATOM     16  C   UNL     1      61.268  29.677   9.220  1.00  0.00    -0.000 C 
BRANCH  16  17
ATOM     17  C   UNL     1      62.292  28.599   9.605  1.00  0.00    -0.000 C 
BRANCH  17  18
ATOM     18  C   UNL     1      63.697  28.980   9.122  1.00  0.00    -0.000 C 
BRANCH  18  19
ATOM     19  C   UNL     1      63.968  30.474   9.341  1.00  0.00    -0.003 C 
ATOM     20  C   UNL     1      65.452  30.735   9.579  1.00  0.00     0.004 C 
ENDBRANCH  18  19
ENDBRANCH  17  18
ENDBRANCH  16  17
ENDBRANCH  15  16
ENDBRANCH  14  15
ENDBRANCH  13  14
ENDBRANCH  12  13
ENDBRANCH   1  12
TORSDOF 16
ENDMDL
MODEL 7
REMARK VINA RESULT:    -4.345     12.070     14.111
REMARK INTER + INTRA:         -11.287
REMARK INTER:                  -8.831
REMARK INTRA:                  -2.456
REMARK UNBOUND:                -2.878
REMARK SMILES CCCCCCCCCCCCCCCCCC(=O)[O-]
REMARK SMILES IDX 10 1 11 2 12 3 13 4 14 5 15 6 16 7 17 8 18 9 19 10 20 11
REMARK SMILES IDX 9 12 8 13 7 14 6 15 5 16 4 17 3 18 2 19 1 20
REMARK H PARENT
REMARK Flexibility Score: inf
ROOT
ATOM      1  C   UNL     1      61.666  29.602  13.758  1.00  0.00     0.000 C 
ENDROOT
BRANCH   1   2
ATOM      2  C   UNL     1      61.322  28.483  12.764  1.00  0.00     0.000 C 
BRANCH   2   3
ATOM      3  C   UNL     1      59.933  28.659  12.129  1.00  0.00     0.000 C 
BRANCH   3   4
ATOM      4  C   UNL     1      60.004  29.012  10.636  1.00  0.00     0.000 C 
BRANCH   4   5
ATOM      5  C   UNL     1      61.166  28.277   9.954  1.00  0.00     0.000 C 
BRANCH   5   6
ATOM      6  C   UNL     1      62.076  29.214   9.140  1.00  0.00     0.000 C 
BRANCH   6   7
ATOM      7  C   UNL     1      63.579  29.117   9.475  1.00  0.00     0.006 C 
BRANCH   7   8
ATOM      8  C   UNL     1      64.027  29.992  10.656  1.00  0.00     0.053 C 
BRANCH   8   9
ATOM      9  C   UNL     1      65.021  31.031  10.237  1.00  0.00     0.041 C 
ATOM     10  O   UNL     1      64.892  32.222  10.623  1.00  0.00    -0.550 OA
ATOM     11  O   UNL     1      66.108  30.676   9.448  1.00  0.00    -0.550 OA
ENDBRANCH   8   9
ENDBRANCH   7   8
ENDBRANCH   6   7
ENDBRANCH   5   6
ENDBRANCH   4   5
ENDBRANCH   3   4
ENDBRANCH   2   3
ENDBRANCH   1   2
BRANCH   1  12
ATOM     12  C   UNL     1      60.788  30.837  13.521  1.00  0.00     0.000 C 
BRANCH  12  13
ATOM     13  C   UNL     1      61.550  31.911  12.732  1.00  0.00    -0.000 C 
BRANCH  13  14
ATOM     14  C   UNL     1      61.292  33.329  13.265  1.00  0.00    -0.000 C 
BRANCH  14  15
ATOM     15  C   UNL     1      60.668  33.328  14.671  1.00  0.00    -0.000 C 
BRANCH  15  16
ATOM     16  C   UNL     1      61.690  33.654  15.772  1.00  0.00    -0.000 C 
BRANCH  16  17
ATOM     17  C   UNL     1      63.099  33.901  15.215  1.00  0.00    -0.000 C 
BRANCH  17  18
ATOM     18  C   UNL     1      64.059  32.780  15.633  1.00  0.00    -0.000 C 
BRANCH  18  19
ATOM     19  C   UNL     1      65.042  32.449  14.503  1.00  0.00    -0.003 C 
ATOM     20  C   UNL     1      64.984  30.968  14.140  1.00  0.00     0.004 C 
ENDBRANCH  18  19
ENDBRANCH  17  18
ENDBRANCH  16  17
ENDBRANCH  15  16
ENDBRANCH  14  15
ENDBRANCH  13  14
ENDBRANCH  12  13
ENDBRANCH   1  12
TORSDOF 16
ENDMDL
MODEL 8
REMARK VINA RESULT:    -4.332     11.530     14.454
REMARK INTER + INTRA:         -11.263
REMARK INTER:                  -8.396
REMARK INTRA:                  -2.867
REMARK UNBOUND:                -2.878
REMARK SMILES CCCCCCCCCCCCCCCCCC(=O)[O-]
REMARK SMILES IDX 10 1 11 2 12 3 13 4 14 5 15 6 16 7 17 8 18 9 19 10 20 11
REMARK SMILES IDX 9 12 8 13 7 14 6 15 5 16 4 17 3 18 2 19 1 20
REMARK H PARENT
REMARK Flexibility Score: inf
ROOT
ATOM      1  C   UNL     1      64.061  29.680   9.976  1.00  0.00     0.000 C 
ENDROOT
BRANCH   1   2
ATOM      2  C   UNL     1      63.884  30.709  11.103  1.00  0.00     0.000 C 
BRANCH   2   3
ATOM      3  C   UNL     1      64.793  31.937  10.932  1.00  0.00     0.000 C 
BRANCH   3   4
ATOM      4  C   UNL     1      64.808  32.841  12.174  1.00  0.00     0.000 C 
BRANCH   4   5
ATOM      5  C   UNL     1      64.865  32.004  13.459  1.00  0.00     0.000 C 
BRANCH   5   6
ATOM      6  C   UNL     1      64.825  32.861  14.737  1.00  0.00     0.000 C 
BRANCH   6   7
ATOM      7  C   UNL     1      63.710  33.926  14.774  1.00  0.00     0.006 C 
BRANCH   7   8
ATOM      8  C   UNL     1      63.144  34.210  16.174  1.00  0.00     0.053 C 
BRANCH   8   9
ATOM      9  C   UNL     1      61.711  33.791  16.293  1.00  0.00     0.041 C 
ATOM     10  O   UNL     1      61.421  32.634  16.695  1.00  0.00    -0.550 OA
ATOM     11  O   UNL     1      60.696  34.691  15.994  1.00  0.00    -0.550 OA
ENDBRANCH   8   9
ENDBRANCH   7   8
ENDBRANCH   6   7
ENDBRANCH   5   6
ENDBRANCH   4   5
ENDBRANCH   3   4
ENDBRANCH   2   3
ENDBRANCH   1   2
BRANCH   1  12
ATOM     12  C   UNL     1      62.745  28.948   9.688  1.00  0.00     0.000 C 
BRANCH  12  13
ATOM     13  C   UNL     1      61.628  29.942   9.340  1.00  0.00    -0.000 C 
BRANCH  13  14
ATOM     14  C   UNL     1      60.357  29.719  10.176  1.00  0.00    -0.000 C 
BRANCH  14  15
ATOM     15  C   UNL     1      60.488  28.531  11.145  1.00  0.00    -0.000 C 
BRANCH  15  16
ATOM     16  C   UNL     1      60.243  28.932  12.608  1.00  0.00    -0.000 C 
BRANCH  16  17
ATOM     17  C   UNL     1      61.548  29.117  13.396  1.00  0.00    -0.000 C 
BRANCH  17  18
ATOM     18  C   UNL     1      61.606  30.506  14.044  1.00  0.00    -0.000 C 
BRANCH  18  19
ATOM     19  C   UNL     1      60.449  31.388  13.559  1.00  0.00    -0.003 C 
ATOM     20  C   UNL     1      60.966  32.606  12.799  1.00  0.00     0.004 C 
ENDBRANCH  18  19
ENDBRANCH  17  18
ENDBRANCH  16  17
ENDBRANCH  15  16
ENDBRANCH  14  15
ENDBRANCH  13  14
ENDBRANCH  12  13
ENDBRANCH   1  12
TORSDOF 16
ENDMDL
MODEL 9
REMARK VINA RESULT:    -4.258     11.232     13.595
REMARK INTER + INTRA:         -11.119
REMARK INTER:                  -8.696
REMARK INTRA:                  -2.424
REMARK UNBOUND:                -2.878
REMARK SMILES CCCCCCCCCCCCCCCCCC(=O)[O-]
REMARK SMILES IDX 10 1 11 2 12 3 13 4 14 5 15 6 16 7 17 8 18 9 19 10 20 11
REMARK SMILES IDX 9 12 8 13 7 14 6 15 5 16 4 17 3 18 2 19 1 20
REMARK H PARENT
REMARK Flexibility Score: inf
ROOT
ATOM      1  C   UNL     1      62.624  31.097  13.588  1.00  0.00     0.000 C 
ENDROOT
BRANCH   1   2
ATOM      2  C   UNL     1      63.789  30.561  12.742  1.00  0.00     0.000 C 
BRANCH   2   3
ATOM      3  C   UNL     1      64.150  31.493  11.573  1.00  0.00     0.000 C 
BRANCH   3   4
ATOM      4  C   UNL     1      64.316  30.740  10.245  1.00  0.00     0.000 C 
BRANCH   4   5
ATOM      5  C   UNL     1      63.578  29.395  10.281  1.00  0.00     0.000 C 
BRANCH   5   6
ATOM      6  C   UNL     1      62.215  29.437   9.568  1.00  0.00     0.000 C 
BRANCH   6   7
ATOM      7  C   UNL     1      61.178  28.415  10.080  1.00  0.00     0.006 C 
BRANCH   7   8
ATOM      8  C   UNL     1      60.020  29.030  10.883  1.00  0.00     0.053 C 
BRANCH   8   9
ATOM      9  C   UNL     1      59.859  28.377  12.221  1.00  0.00     0.041 C 
ATOM     10  O   UNL     1      60.841  28.281  13.002  1.00  0.00    -0.550 OA
ATOM     11  O   UNL     1      58.614  27.905  12.619  1.00  0.00    -0.550 OA
ENDBRANCH   8   9
ENDBRANCH   7   8
ENDBRANCH   6   7
ENDBRANCH   5   6
ENDBRANCH   4   5
ENDBRANCH   3   4
ENDBRANCH   2   3
ENDBRANCH   1   2
BRANCH   1  12
ATOM     12  C   UNL     1      61.573  31.782  12.705  1.00  0.00     0.000 C 
BRANCH  12  13
ATOM     13  C   UNL     1      61.110  33.106  13.329  1.00  0.00    -0.000 C 
BRANCH  13  14
ATOM     14  C   UNL     1      60.750  32.964  14.817  1.00  0.00    -0.000 C 
BRANCH  14  15
ATOM     15  C   UNL     1      61.069  34.234  15.626  1.00  0.00    -0.000 C 
BRANCH  15  16
ATOM     16  C   UNL     1      61.929  33.944  16.866  1.00  0.00    -0.000 C 
BRANCH  16  17
ATOM     17  C   UNL     1      63.322  34.584  16.781  1.00  0.00    -0.000 C 
BRANCH  17  18
ATOM     18  C   UNL     1      64.311  33.657  16.063  1.00  0.00    -0.000 C 
BRANCH  18  19
ATOM     19  C   UNL     1      64.477  34.064  14.594  1.00  0.00    -0.003 C 
ATOM     20  C   UNL     1      65.843  33.644  14.057  1.00  0.00     0.004 C 
ENDBRANCH  18  19
ENDBRANCH  17  18
ENDBRANCH  16  17
ENDBRANCH  15  16
ENDBRANCH  14  15
ENDBRANCH  13  14
ENDBRANCH  12  13
ENDBRANCH   1  12
TORSDOF 16
ENDMDL
