MODEL 1
REMARK VINA RESULT:    -7.360      0.000      0.000
REMARK INTER + INTRA:          -9.001
REMARK INTER:                  -8.866
REMARK INTRA:                  -0.135
REMARK UNBOUND:                -0.135
REMARK SMILES O=c1c(O)c(-c2ccc(O)c(O)c2)oc2cc(O)cc(O)c12
REMARK SMILES IDX 5 1 3 2 2 3 1 4 22 5 20 6 19 7 17 8 16 9 15 10 14 11 6 12
REMARK SMILES IDX 7 13 8 14 9 15 13 16 11 17 10 18 12 20 4 22 21 24 18 26
REMARK H PARENT 10 19 12 21 4 23 21 25 18 27
REMARK Flexibility Score: inf
ROOT
ATOM      1  C   UNL     1     168.795 145.567 153.615  1.00  0.00     0.180 A 
ATOM      2  C   UNL     1     169.753 145.634 152.588  1.00  0.00     0.208 A 
ATOM      3  C   UNL     1     169.385 146.179 151.348  1.00  0.00     0.238 A 
ATOM      4  O   UNL     1     170.230 146.187 150.416  1.00  0.00    -0.285 OA
ATOM      5  C   UNL     1     168.069 146.665 151.155  1.00  0.00     0.111 A 
ATOM      6  C   UNL     1     167.598 147.274 149.953  1.00  0.00     0.134 A 
ATOM      7  C   UNL     1     166.242 147.599 149.828  1.00  0.00     0.093 A 
ATOM      8  C   UNL     1     165.353 147.398 150.884  1.00  0.00     0.123 A 
ATOM      9  C   UNL     1     165.815 146.858 152.085  1.00  0.00     0.094 A 
ATOM     10  C   UNL     1     167.155 146.490 152.226  1.00  0.00     0.146 A 
ATOM     11  O   UNL     1     167.552 145.970 153.382  1.00  0.00    -0.452 OA
ENDROOT
BRANCH   1  12
ATOM     12  C   UNL     1     169.116 145.028 154.957  1.00  0.00     0.025 A 
ATOM     13  C   UNL     1     170.122 145.600 155.754  1.00  0.00     0.016 A 
ATOM     14  C   UNL     1     170.391 145.090 157.027  1.00  0.00     0.051 A 
ATOM     15  C   UNL     1     169.652 144.014 157.528  1.00  0.00     0.157 A 
ATOM     16  C   UNL     1     168.361 143.961 155.471  1.00  0.00     0.062 A 
ATOM     17  C   UNL     1     168.629 143.448 156.748  1.00  0.00     0.158 A 
BRANCH  15  18
ATOM     18  O   UNL     1     169.944 143.525 158.801  1.00  0.00    -0.504 OA
ATOM     19  H   UNL     1     170.689 142.859 158.963  1.00  0.00     0.293 HD
ENDBRANCH  15  18
BRANCH  17  20
ATOM     20  O   UNL     1     167.883 142.380 157.245  1.00  0.00    -0.504 OA
ATOM     21  H   UNL     1     168.281 141.452 157.339  1.00  0.00     0.293 HD
ENDBRANCH  17  20
ENDBRANCH   1  12
BRANCH   2  22
ATOM     22  O   UNL     1     171.040 145.129 152.793  1.00  0.00    -0.502 OA
ATOM     23  H   UNL     1     171.871 145.618 152.485  1.00  0.00     0.293 HD
ENDBRANCH   2  22
BRANCH   6  24
ATOM     24  O   UNL     1     168.420 147.604 148.871  1.00  0.00    -0.507 OA
ATOM     25  H   UNL     1     168.952 148.458 148.793  1.00  0.00     0.293 HD
ENDBRANCH   6  24
BRANCH   8  26
ATOM     26  O   UNL     1     164.013 147.748 150.731  1.00  0.00    -0.508 OA
ATOM     27  H   UNL     1     163.690 148.270 149.925  1.00  0.00     0.293 HD
ENDBRANCH   8  26
TORSDOF 6
ENDMDL
MODEL 2
REMARK VINA RESULT:    -7.311      2.337      6.596
REMARK INTER + INTRA:          -8.942
REMARK INTER:                  -8.890
REMARK INTRA:                  -0.053
REMARK UNBOUND:                -0.135
REMARK SMILES O=c1c(O)c(-c2ccc(O)c(O)c2)oc2cc(O)cc(O)c12
REMARK SMILES IDX 5 1 3 2 2 3 1 4 22 5 20 6 19 7 17 8 16 9 15 10 14 11 6 12
REMARK SMILES IDX 7 13 8 14 9 15 13 16 11 17 10 18 12 20 4 22 21 24 18 26
REMARK H PARENT 10 19 12 21 4 23 21 25 18 27
REMARK Flexibility Score: inf
ROOT
ATOM      1  C   UNL     1     168.945 146.094 152.479  1.00  0.00     0.180 A 
ATOM      2  C   UNL     1     169.789 145.069 152.018  1.00  0.00     0.208 A 
ATOM      3  C   UNL     1     170.816 144.605 152.854  1.00  0.00     0.238 A 
ATOM      4  O   UNL     1     171.603 143.726 152.415  1.00  0.00    -0.285 OA
ATOM      5  C   UNL     1     170.977 145.160 154.146  1.00  0.00     0.111 A 
ATOM      6  C   UNL     1     171.958 144.738 155.093  1.00  0.00     0.134 A 
ATOM      7  C   UNL     1     172.110 145.445 156.293  1.00  0.00     0.093 A 
ATOM      8  C   UNL     1     171.275 146.516 156.608  1.00  0.00     0.123 A 
ATOM      9  C   UNL     1     170.273 146.900 155.716  1.00  0.00     0.094 A 
ATOM     10  C   UNL     1     170.121 146.236 154.495  1.00  0.00     0.146 A 
ATOM     11  O   UNL     1     169.161 146.639 153.670  1.00  0.00    -0.452 OA
ENDROOT
BRANCH   1  12
ATOM     12  C   UNL     1     167.824 146.618 151.664  1.00  0.00     0.025 A 
ATOM     13  C   UNL     1     168.032 147.117 150.367  1.00  0.00     0.016 A 
ATOM     14  C   UNL     1     166.956 147.584 149.608  1.00  0.00     0.051 A 
ATOM     15  C   UNL     1     165.657 147.546 150.124  1.00  0.00     0.157 A 
ATOM     16  C   UNL     1     166.516 146.562 152.173  1.00  0.00     0.062 A 
ATOM     17  C   UNL     1     165.434 147.030 151.412  1.00  0.00     0.158 A 
BRANCH  15  18
ATOM     18  O   UNL     1     164.603 148.020 149.344  1.00  0.00    -0.504 OA
ATOM     19  H   UNL     1     164.393 147.634 148.432  1.00  0.00     0.293 HD
ENDBRANCH  15  18
BRANCH  17  20
ATOM     20  O   UNL     1     164.141 146.982 151.931  1.00  0.00    -0.504 OA
ATOM     21  H   UNL     1     163.903 146.381 152.711  1.00  0.00     0.293 HD
ENDBRANCH  17  20
ENDBRANCH   1  12
BRANCH   2  22
ATOM     22  O   UNL     1     169.627 144.551 150.730  1.00  0.00    -0.502 OA
ATOM     23  H   UNL     1     170.306 144.702 149.994  1.00  0.00     0.293 HD
ENDBRANCH   2  22
BRANCH   6  24
ATOM     24  O   UNL     1     172.784 143.623 154.919  1.00  0.00    -0.507 OA
ATOM     25  H   UNL     1     173.196 143.090 155.669  1.00  0.00     0.293 HD
ENDBRANCH   6  24
BRANCH   8  26
ATOM     26  O   UNL     1     171.444 147.187 157.817  1.00  0.00    -0.508 OA
ATOM     27  H   UNL     1     171.560 148.193 157.853  1.00  0.00     0.293 HD
ENDBRANCH   8  26
TORSDOF 6
ENDMDL
MODEL 3
REMARK VINA RESULT:    -7.254      0.656      1.469
REMARK INTER + INTRA:          -8.873
REMARK INTER:                  -8.776
REMARK INTRA:                  -0.097
REMARK UNBOUND:                -0.135
REMARK SMILES O=c1c(O)c(-c2ccc(O)c(O)c2)oc2cc(O)cc(O)c12
REMARK SMILES IDX 5 1 3 2 2 3 1 4 22 5 20 6 19 7 17 8 16 9 15 10 14 11 6 12
REMARK SMILES IDX 7 13 8 14 9 15 13 16 11 17 10 18 12 20 4 22 21 24 18 26
REMARK H PARENT 10 19 12 21 4 23 21 25 18 27
REMARK Flexibility Score: inf
ROOT
ATOM      1  C   UNL     1     168.638 145.467 153.510  1.00  0.00     0.180 A 
ATOM      2  C   UNL     1     169.585 145.341 152.479  1.00  0.00     0.208 A 
ATOM      3  C   UNL     1     169.280 145.853 151.208  1.00  0.00     0.238 A 
ATOM      4  O   UNL     1     170.109 145.688 150.275  1.00  0.00    -0.285 OA
ATOM      5  C   UNL     1     168.040 146.498 150.988  1.00  0.00     0.111 A 
ATOM      6  C   UNL     1     167.643 147.089 149.751  1.00  0.00     0.134 A 
ATOM      7  C   UNL     1     166.341 147.586 149.609  1.00  0.00     0.093 A 
ATOM      8  C   UNL     1     165.444 147.572 150.677  1.00  0.00     0.123 A 
ATOM      9  C   UNL     1     165.842 147.050 151.909  1.00  0.00     0.094 A 
ATOM     10  C   UNL     1     167.122 146.515 152.070  1.00  0.00     0.146 A 
ATOM     11  O   UNL     1     167.458 146.019 153.255  1.00  0.00    -0.452 OA
ENDROOT
BRANCH   1  12
ATOM     12  C   UNL     1     168.898 144.975 154.883  1.00  0.00     0.025 A 
ATOM     13  C   UNL     1     168.099 143.977 155.467  1.00  0.00     0.016 A 
ATOM     14  C   UNL     1     168.379 143.511 156.755  1.00  0.00     0.051 A 
ATOM     15  C   UNL     1     169.464 144.023 157.472  1.00  0.00     0.157 A 
ATOM     16  C   UNL     1     170.001 145.472 155.597  1.00  0.00     0.062 A 
ATOM     17  C   UNL     1     170.283 145.006 156.889  1.00  0.00     0.158 A 
BRANCH  15  18
ATOM     18  O   UNL     1     169.717 143.540 158.755  1.00  0.00    -0.504 OA
ATOM     19  H   UNL     1     169.127 142.844 159.194  1.00  0.00     0.293 HD
ENDBRANCH  15  18
BRANCH  17  20
ATOM     20  O   UNL     1     171.372 145.515 157.596  1.00  0.00    -0.504 OA
ATOM     21  H   UNL     1     171.433 145.439 158.604  1.00  0.00     0.293 HD
ENDBRANCH  17  20
ENDBRANCH   1  12
BRANCH   2  22
ATOM     22  O   UNL     1     170.795 144.681 152.713  1.00  0.00    -0.502 OA
ATOM     23  H   UNL     1     171.635 145.170 152.997  1.00  0.00     0.293 HD
ENDBRANCH   2  22
BRANCH   6  24
ATOM     24  O   UNL     1     168.490 147.238 148.648  1.00  0.00    -0.507 OA
ATOM     25  H   UNL     1     168.227 147.049 147.693  1.00  0.00     0.293 HD
ENDBRANCH   6  24
BRANCH   8  26
ATOM     26  O   UNL     1     164.162 148.089 150.505  1.00  0.00    -0.508 OA
ATOM     27  H   UNL     1     163.998 149.085 150.429  1.00  0.00     0.293 HD
ENDBRANCH   8  26
TORSDOF 6
ENDMDL
MODEL 4
REMARK VINA RESULT:    -7.244      2.277      6.957
REMARK INTER + INTRA:          -8.861
REMARK INTER:                  -8.736
REMARK INTRA:                  -0.125
REMARK UNBOUND:                -0.135
REMARK SMILES O=c1c(O)c(-c2ccc(O)c(O)c2)oc2cc(O)cc(O)c12
REMARK SMILES IDX 5 1 3 2 2 3 1 4 22 5 20 6 19 7 17 8 16 9 15 10 14 11 6 12
REMARK SMILES IDX 7 13 8 14 9 15 13 16 11 17 10 18 12 20 4 22 21 24 18 26
REMARK H PARENT 10 19 12 21 4 23 21 25 18 27
REMARK Flexibility Score: inf
ROOT
ATOM      1  C   UNL     1     169.669 146.046 153.255  1.00  0.00     0.180 A 
ATOM      2  C   UNL     1     170.503 144.914 153.214  1.00  0.00     0.208 A 
ATOM      3  C   UNL     1     171.355 144.657 154.300  1.00  0.00     0.238 A 
ATOM      4  O   UNL     1     172.138 143.674 154.234  1.00  0.00    -0.285 OA
ATOM      5  C   UNL     1     171.351 145.523 155.419  1.00  0.00     0.111 A 
ATOM      6  C   UNL     1     172.144 145.336 156.591  1.00  0.00     0.134 A 
ATOM      7  C   UNL     1     172.156 146.326 157.582  1.00  0.00     0.093 A 
ATOM      8  C   UNL     1     171.358 147.463 157.474  1.00  0.00     0.123 A 
ATOM      9  C   UNL     1     170.533 147.628 156.360  1.00  0.00     0.094 A 
ATOM     10  C   UNL     1     170.526 146.675 155.338  1.00  0.00     0.146 A 
ATOM     11  O   UNL     1     169.736 146.874 154.290  1.00  0.00    -0.452 OA
ENDROOT
BRANCH   1  12
ATOM     12  C   UNL     1     168.726 146.369 152.160  1.00  0.00     0.025 A 
ATOM     13  C   UNL     1     167.340 146.433 152.382  1.00  0.00     0.016 A 
ATOM     14  C   UNL     1     166.471 146.764 151.338  1.00  0.00     0.051 A 
ATOM     15  C   UNL     1     166.972 147.048 150.064  1.00  0.00     0.157 A 
ATOM     16  C   UNL     1     169.229 146.675 150.884  1.00  0.00     0.062 A 
ATOM     17  C   UNL     1     168.358 147.006 149.835  1.00  0.00     0.158 A 
BRANCH  15  18
ATOM     18  O   UNL     1     166.081 147.372 149.042  1.00  0.00    -0.504 OA
ATOM     19  H   UNL     1     165.254 147.933 149.207  1.00  0.00     0.293 HD
ENDBRANCH  15  18
BRANCH  17  20
ATOM     20  O   UNL     1     168.866 147.296 148.569  1.00  0.00    -0.504 OA
ATOM     21  H   UNL     1     168.339 147.093 147.727  1.00  0.00     0.293 HD
ENDBRANCH  17  20
ENDBRANCH   1  12
BRANCH   2  22
ATOM     22  O   UNL     1     170.507 144.084 152.089  1.00  0.00    -0.502 OA
ATOM     23  H   UNL     1     169.791 143.386 151.927  1.00  0.00     0.293 HD
ENDBRANCH   2  22
BRANCH   6  24
ATOM     24  O   UNL     1     172.908 144.193 156.843  1.00  0.00    -0.507 OA
ATOM     25  H   UNL     1     173.182 143.875 157.760  1.00  0.00     0.293 HD
ENDBRANCH   6  24
BRANCH   8  26
ATOM     26  O   UNL     1     171.383 148.420 158.486  1.00  0.00    -0.508 OA
ATOM     27  H   UNL     1     172.250 148.849 158.788  1.00  0.00     0.293 HD
ENDBRANCH   8  26
TORSDOF 6
ENDMDL
MODEL 5
REMARK VINA RESULT:    -7.084      1.772      7.225
REMARK INTER + INTRA:          -8.669
REMARK INTER:                  -8.482
REMARK INTRA:                  -0.187
REMARK UNBOUND:                -0.135
REMARK SMILES O=c1c(O)c(-c2ccc(O)c(O)c2)oc2cc(O)cc(O)c12
REMARK SMILES IDX 5 1 3 2 2 3 1 4 22 5 20 6 19 7 17 8 16 9 15 10 14 11 6 12
REMARK SMILES IDX 7 13 8 14 9 15 13 16 11 17 10 18 12 20 4 22 21 24 18 26
REMARK H PARENT 10 19 12 21 4 23 21 25 18 27
REMARK Flexibility Score: inf
ROOT
ATOM      1  C   UNL     1     168.678 145.584 154.240  1.00  0.00     0.180 A 
ATOM      2  C   UNL     1     168.245 144.464 154.973  1.00  0.00     0.208 A 
ATOM      3  C   UNL     1     168.918 144.124 156.156  1.00  0.00     0.238 A 
ATOM      4  O   UNL     1     168.562 143.090 156.779  1.00  0.00    -0.285 OA
ATOM      5  C   UNL     1     170.003 144.916 156.602  1.00  0.00     0.111 A 
ATOM      6  C   UNL     1     170.732 144.688 157.808  1.00  0.00     0.134 A 
ATOM      7  C   UNL     1     171.870 145.456 158.084  1.00  0.00     0.093 A 
ATOM      8  C   UNL     1     172.268 146.486 157.232  1.00  0.00     0.123 A 
ATOM      9  C   UNL     1     171.528 146.757 156.080  1.00  0.00     0.094 A 
ATOM     10  C   UNL     1     170.409 145.984 155.760  1.00  0.00     0.146 A 
ATOM     11  O   UNL     1     169.739 146.268 154.649  1.00  0.00    -0.452 OA
ENDROOT
BRANCH   1  12
ATOM     12  C   UNL     1     168.003 146.019 152.995  1.00  0.00     0.025 A 
ATOM     13  C   UNL     1     166.670 146.465 153.003  1.00  0.00     0.016 A 
ATOM     14  C   UNL     1     166.061 146.894 151.820  1.00  0.00     0.051 A 
ATOM     15  C   UNL     1     166.775 146.898 150.618  1.00  0.00     0.157 A 
ATOM     16  C   UNL     1     168.725 146.043 151.791  1.00  0.00     0.062 A 
ATOM     17  C   UNL     1     168.116 146.473 150.602  1.00  0.00     0.158 A 
BRANCH  15  18
ATOM     18  O   UNL     1     166.142 147.329 149.454  1.00  0.00    -0.504 OA
ATOM     19  H   UNL     1     165.702 148.239 149.386  1.00  0.00     0.293 HD
ENDBRANCH  15  18
BRANCH  17  20
ATOM     20  O   UNL     1     168.836 146.481 149.409  1.00  0.00    -0.504 OA
ATOM     21  H   UNL     1     168.796 145.704 148.759  1.00  0.00     0.293 HD
ENDBRANCH  17  20
ENDBRANCH   1  12
BRANCH   2  22
ATOM     22  O   UNL     1     167.186 143.683 154.502  1.00  0.00    -0.502 OA
ATOM     23  H   UNL     1     166.450 143.343 155.110  1.00  0.00     0.293 HD
ENDBRANCH   2  22
BRANCH   6  24
ATOM     24  O   UNL     1     170.367 143.746 158.775  1.00  0.00    -0.507 OA
ATOM     25  H   UNL     1     169.562 143.140 158.711  1.00  0.00     0.293 HD
ENDBRANCH   6  24
BRANCH   8  26
ATOM     26  O   UNL     1     173.396 147.241 157.546  1.00  0.00    -0.508 OA
ATOM     27  H   UNL     1     173.331 148.084 158.104  1.00  0.00     0.293 HD
ENDBRANCH   8  26
TORSDOF 6
ENDMDL
MODEL 6
REMARK VINA RESULT:    -7.031      3.741      7.002
REMARK INTER + INTRA:          -8.605
REMARK INTER:                  -9.075
REMARK INTRA:                   0.471
REMARK UNBOUND:                -0.135
REMARK SMILES O=c1c(O)c(-c2ccc(O)c(O)c2)oc2cc(O)cc(O)c12
REMARK SMILES IDX 5 1 3 2 2 3 1 4 22 5 20 6 19 7 17 8 16 9 15 10 14 11 6 12
REMARK SMILES IDX 7 13 8 14 9 15 13 16 11 17 10 18 12 20 4 22 21 24 18 26
REMARK H PARENT 10 19 12 21 4 23 21 25 18 27
REMARK Flexibility Score: inf
ROOT
ATOM      1  C   UNL     1     170.250 144.694 150.042  1.00  0.00     0.180 A 
ATOM      2  C   UNL     1     170.782 144.732 148.740  1.00  0.00     0.208 A 
ATOM      3  C   UNL     1     171.892 143.930 148.435  1.00  0.00     0.238 A 
ATOM      4  O   UNL     1     172.397 144.009 147.285  1.00  0.00    -0.285 OA
ATOM      5  C   UNL     1     172.446 143.087 149.427  1.00  0.00     0.111 A 
ATOM      6  C   UNL     1     173.546 142.201 149.217  1.00  0.00     0.134 A 
ATOM      7  C   UNL     1     174.094 141.510 150.304  1.00  0.00     0.093 A 
ATOM      8  C   UNL     1     173.544 141.622 151.580  1.00  0.00     0.123 A 
ATOM      9  C   UNL     1     172.431 142.439 151.786  1.00  0.00     0.094 A 
ATOM     10  C   UNL     1     171.884 143.169 150.728  1.00  0.00     0.146 A 
ATOM     11  O   UNL     1     170.832 143.942 150.968  1.00  0.00    -0.452 OA
ENDROOT
BRANCH   1  12
ATOM     12  C   UNL     1     169.065 145.493 150.432  1.00  0.00     0.025 A 
ATOM     13  C   UNL     1     168.382 146.292 149.501  1.00  0.00     0.016 A 
ATOM     14  C   UNL     1     167.252 147.018 149.887  1.00  0.00     0.051 A 
ATOM     15  C   UNL     1     166.780 146.947 151.201  1.00  0.00     0.157 A 
ATOM     16  C   UNL     1     168.578 145.406 151.747  1.00  0.00     0.062 A 
ATOM     17  C   UNL     1     167.444 146.135 152.136  1.00  0.00     0.158 A 
BRANCH  15  18
ATOM     18  O   UNL     1     165.652 147.685 151.557  1.00  0.00    -0.504 OA
ATOM     19  H   UNL     1     165.014 147.376 152.281  1.00  0.00     0.293 HD
ENDBRANCH  15  18
BRANCH  17  20
ATOM     20  O   UNL     1     166.975 146.053 153.447  1.00  0.00    -0.504 OA
ATOM     21  H   UNL     1     166.872 146.878 154.026  1.00  0.00     0.293 HD
ENDBRANCH  17  20
ENDBRANCH   1  12
BRANCH   2  22
ATOM     22  O   UNL     1     170.232 145.588 147.782  1.00  0.00    -0.502 OA
ATOM     23  H   UNL     1     169.242 145.799 147.745  1.00  0.00     0.293 HD
ENDBRANCH   2  22
BRANCH   6  24
ATOM     24  O   UNL     1     174.113 141.945 147.965  1.00  0.00    -0.507 OA
ATOM     25  H   UNL     1     175.104 141.880 147.786  1.00  0.00     0.293 HD
ENDBRANCH   6  24
BRANCH   8  26
ATOM     26  O   UNL     1     174.105 140.907 152.636  1.00  0.00    -0.508 OA
ATOM     27  H   UNL     1     175.080 140.629 152.630  1.00  0.00     0.293 HD
ENDBRANCH   8  26
TORSDOF 6
ENDMDL
MODEL 7
REMARK VINA RESULT:    -6.975      2.466      7.228
REMARK INTER + INTRA:          -8.537
REMARK INTER:                  -8.391
REMARK INTRA:                  -0.146
REMARK UNBOUND:                -0.135
REMARK SMILES O=c1c(O)c(-c2ccc(O)c(O)c2)oc2cc(O)cc(O)c12
REMARK SMILES IDX 5 1 3 2 2 3 1 4 22 5 20 6 19 7 17 8 16 9 15 10 14 11 6 12
REMARK SMILES IDX 7 13 8 14 9 15 13 16 11 17 10 18 12 20 4 22 21 24 18 26
REMARK H PARENT 10 19 12 21 4 23 21 25 18 27
REMARK Flexibility Score: inf
ROOT
ATOM      1  C   UNL     1     169.533 145.405 151.435  1.00  0.00     0.180 A 
ATOM      2  C   UNL     1     168.267 145.863 151.841  1.00  0.00     0.208 A 
ATOM      3  C   UNL     1     168.020 146.056 153.209  1.00  0.00     0.238 A 
ATOM      4  O   UNL     1     166.869 146.413 153.571  1.00  0.00    -0.285 OA
ATOM      5  C   UNL     1     169.045 145.806 154.152  1.00  0.00     0.111 A 
ATOM      6  C   UNL     1     168.919 146.007 155.560  1.00  0.00     0.134 A 
ATOM      7  C   UNL     1     169.955 145.604 156.412  1.00  0.00     0.093 A 
ATOM      8  C   UNL     1     171.137 145.067 155.903  1.00  0.00     0.123 A 
ATOM      9  C   UNL     1     171.296 144.922 154.525  1.00  0.00     0.094 A 
ATOM     10  C   UNL     1     170.266 145.282 153.652  1.00  0.00     0.146 A 
ATOM     11  O   UNL     1     170.453 145.118 152.348  1.00  0.00    -0.452 OA
ENDROOT
BRANCH   1  12
ATOM     12  C   UNL     1     169.876 145.202 150.008  1.00  0.00     0.025 A 
ATOM     13  C   UNL     1     170.152 143.922 149.497  1.00  0.00     0.016 A 
ATOM     14  C   UNL     1     170.450 143.752 148.142  1.00  0.00     0.051 A 
ATOM     15  C   UNL     1     170.463 144.850 147.277  1.00  0.00     0.157 A 
ATOM     16  C   UNL     1     169.869 146.300 149.133  1.00  0.00     0.062 A 
ATOM     17  C   UNL     1     170.167 146.131 147.773  1.00  0.00     0.158 A 
BRANCH  15  18
ATOM     18  O   UNL     1     170.765 144.649 145.931  1.00  0.00    -0.504 OA
ATOM     19  H   UNL     1     171.121 145.393 145.343  1.00  0.00     0.293 HD
ENDBRANCH  15  18
BRANCH  17  20
ATOM     20  O   UNL     1     170.170 147.230 146.915  1.00  0.00    -0.504 OA
ATOM     21  H   UNL     1     169.598 148.046 147.095  1.00  0.00     0.293 HD
ENDBRANCH  17  20
ENDBRANCH   1  12
BRANCH   2  22
ATOM     22  O   UNL     1     167.262 146.082 150.895  1.00  0.00    -0.502 OA
ATOM     23  H   UNL     1     166.277 146.023 151.125  1.00  0.00     0.293 HD
ENDBRANCH   2  22
BRANCH   6  24
ATOM     24  O   UNL     1     167.817 146.619 156.165  1.00  0.00    -0.507 OA
ATOM     25  H   UNL     1     166.859 146.329 156.041  1.00  0.00     0.293 HD
ENDBRANCH   6  24
BRANCH   8  26
ATOM     26  O   UNL     1     172.153 144.691 156.779  1.00  0.00    -0.508 OA
ATOM     27  H   UNL     1     171.975 144.081 157.567  1.00  0.00     0.293 HD
ENDBRANCH   8  26
TORSDOF 6
ENDMDL
MODEL 8
REMARK VINA RESULT:    -6.900      1.626      3.272
REMARK INTER + INTRA:          -8.447
REMARK INTER:                  -8.677
REMARK INTRA:                   0.230
REMARK UNBOUND:                -0.135
REMARK SMILES O=c1c(O)c(-c2ccc(O)c(O)c2)oc2cc(O)cc(O)c12
REMARK SMILES IDX 5 1 3 2 2 3 1 4 22 5 20 6 19 7 17 8 16 9 15 10 14 11 6 12
REMARK SMILES IDX 7 13 8 14 9 15 13 16 11 17 10 18 12 20 4 22 21 24 18 26
REMARK H PARENT 10 19 12 21 4 23 21 25 18 27
REMARK Flexibility Score: inf
ROOT
ATOM      1  C   UNL     1     169.357 145.138 153.812  1.00  0.00     0.180 A 
ATOM      2  C   UNL     1     168.155 145.788 153.482  1.00  0.00     0.208 A 
ATOM      3  C   UNL     1     167.920 146.150 152.147  1.00  0.00     0.238 A 
ATOM      4  O   UNL     1     166.867 146.780 151.867  1.00  0.00    -0.285 OA
ATOM      5  C   UNL     1     168.882 145.842 151.155  1.00  0.00     0.111 A 
ATOM      6  C   UNL     1     168.730 146.126 149.764  1.00  0.00     0.134 A 
ATOM      7  C   UNL     1     169.801 145.895 148.891  1.00  0.00     0.093 A 
ATOM      8  C   UNL     1     170.993 145.333 149.346  1.00  0.00     0.123 A 
ATOM      9  C   UNL     1     171.131 144.996 150.693  1.00  0.00     0.094 A 
ATOM     10  C   UNL     1     170.093 145.248 151.595  1.00  0.00     0.146 A 
ATOM     11  O   UNL     1     170.268 144.922 152.870  1.00  0.00    -0.452 OA
ENDROOT
BRANCH   1  12
ATOM     12  C   UNL     1     169.665 144.704 155.194  1.00  0.00     0.025 A 
ATOM     13  C   UNL     1     170.962 144.810 155.724  1.00  0.00     0.016 A 
ATOM     14  C   UNL     1     171.223 144.416 157.039  1.00  0.00     0.051 A 
ATOM     15  C   UNL     1     170.194 143.926 157.848  1.00  0.00     0.157 A 
ATOM     16  C   UNL     1     168.628 144.230 156.015  1.00  0.00     0.062 A 
ATOM     17  C   UNL     1     168.888 143.835 157.335  1.00  0.00     0.158 A 
BRANCH  15  18
ATOM     18  O   UNL     1     170.484 143.538 159.155  1.00  0.00    -0.504 OA
ATOM     19  H   UNL     1     169.898 142.891 159.668  1.00  0.00     0.293 HD
ENDBRANCH  15  18
BRANCH  17  20
ATOM     20  O   UNL     1     167.855 143.353 158.139  1.00  0.00    -0.504 OA
ATOM     21  H   UNL     1     166.886 143.586 157.954  1.00  0.00     0.293 HD
ENDBRANCH  17  20
ENDBRANCH   1  12
BRANCH   2  22
ATOM     22  O   UNL     1     167.229 146.102 154.481  1.00  0.00    -0.502 OA
ATOM     23  H   UNL     1     166.527 146.822 154.365  1.00  0.00     0.293 HD
ENDBRANCH   2  22
BRANCH   6  24
ATOM     24  O   UNL     1     167.549 146.604 149.188  1.00  0.00    -0.507 OA
ATOM     25  H   UNL     1     167.060 146.159 148.426  1.00  0.00     0.293 HD
ENDBRANCH   6  24
BRANCH   8  26
ATOM     26  O   UNL     1     172.032 145.103 148.447  1.00  0.00    -0.508 OA
ATOM     27  H   UNL     1     172.018 145.489 147.510  1.00  0.00     0.293 HD
ENDBRANCH   8  26
TORSDOF 6
ENDMDL
