MODEL 1
REMARK VINA RESULT:    -3.787      0.000      0.000
REMARK INTER + INTRA:         -13.872
REMARK INTER:                  -9.544
REMARK INTRA:                  -4.328
REMARK UNBOUND:                -4.328
REMARK SMILES CCCCCCCCCCCCCCCCCCCCCCCCCCCC(=O)[O-]
REMARK SMILES IDX 15 1 16 2 17 3 18 4 19 5 20 6 21 7 22 8 23 9 24 10 25 11
REMARK SMILES IDX 26 12 27 13 28 14 29 15 30 16 14 17 13 18 12 19 11 20 10 21
REMARK SMILES IDX 9 22 8 23 7 24 6 25 5 26 4 27 3 28 2 29 1 30
REMARK H PARENT
REMARK Flexibility Score: inf
ROOT
ATOM      1  C   UNL     1     119.548  56.350  48.155  1.00  0.00     0.000 C 
ENDROOT
BRANCH   1   2
ATOM      2  C   UNL     1     119.179  55.561  49.420  1.00  0.00     0.000 C 
BRANCH   2   3
ATOM      3  C   UNL     1     118.219  56.335  50.341  1.00  0.00     0.000 C 
BRANCH   3   4
ATOM      4  C   UNL     1     118.614  56.211  51.828  1.00  0.00     0.000 C 
BRANCH   4   5
ATOM      5  C   UNL     1     119.458  54.963  52.141  1.00  0.00     0.000 C 
BRANCH   5   6
ATOM      6  C   UNL     1     119.197  54.401  53.549  1.00  0.00     0.000 C 
BRANCH   6   7
ATOM      7  C   UNL     1     119.691  52.955  53.714  1.00  0.00     0.000 C 
BRANCH   7   8
ATOM      8  C   UNL     1     118.547  51.966  54.003  1.00  0.00     0.000 C 
BRANCH   8   9
ATOM      9  C   UNL     1     117.270  52.681  54.492  1.00  0.00     0.000 C 
BRANCH   9  10
ATOM     10  C   UNL     1     115.974  52.131  53.869  1.00  0.00     0.000 C 
BRANCH  10  11
ATOM     11  C   UNL     1     115.149  53.214  53.157  1.00  0.00     0.000 C 
BRANCH  11  12
ATOM     12  C   UNL     1     115.868  53.800  51.931  1.00  0.00     0.006 C 
BRANCH  12  13
ATOM     13  C   UNL     1     116.410  52.719  50.985  1.00  0.00     0.053 C 
BRANCH  13  14
ATOM     14  C   UNL     1     115.952  52.977  49.584  1.00  0.00     0.041 C 
ATOM     15  O   UNL     1     116.793  53.105  48.655  1.00  0.00    -0.550 OA
ATOM     16  O   UNL     1     114.597  53.126  49.312  1.00  0.00    -0.550 OA
ENDBRANCH  13  14
ENDBRANCH  12  13
ENDBRANCH  11  12
ENDBRANCH  10  11
ENDBRANCH   9  10
ENDBRANCH   8   9
ENDBRANCH   7   8
ENDBRANCH   6   7
ENDBRANCH   5   6
ENDBRANCH   4   5
ENDBRANCH   3   4
ENDBRANCH   2   3
ENDBRANCH   1   2
BRANCH   1  17
ATOM     17  C   UNL     1     119.884  57.820  48.454  1.00  0.00     0.000 C 
BRANCH  17  18
ATOM     18  C   UNL     1     121.373  58.027  48.784  1.00  0.00     0.000 C 
BRANCH  18  19
ATOM     19  C   UNL     1     121.615  58.267  50.284  1.00  0.00     0.000 C 
BRANCH  19  20
ATOM     20  C   UNL     1     122.568  57.223  50.903  1.00  0.00     0.000 C 
BRANCH  20  21
ATOM     21  C   UNL     1     122.895  56.041  49.969  1.00  0.00     0.000 C 
BRANCH  21  22
ATOM     22  C   UNL     1     124.389  55.852  49.655  1.00  0.00    -0.000 C 
BRANCH  22  23
ATOM     23  C   UNL     1     124.653  55.599  48.162  1.00  0.00    -0.000 C 
BRANCH  23  24
ATOM     24  C   UNL     1     123.378  55.154  47.439  1.00  0.00    -0.000 C 
BRANCH  24  25
ATOM     25  C   UNL     1     123.185  55.944  46.138  1.00  0.00    -0.000 C 
BRANCH  25  26
ATOM     26  C   UNL     1     124.232  57.056  45.953  1.00  0.00    -0.000 C 
BRANCH  26  27
ATOM     27  C   UNL     1     124.618  57.296  44.476  1.00  0.00    -0.000 C 
BRANCH  27  28
ATOM     28  C   UNL     1     124.532  56.009  43.639  1.00  0.00    -0.000 C 
BRANCH  28  29
ATOM     29  C   UNL     1     125.885  55.605  43.033  1.00  0.00    -0.003 C 
ATOM     30  C   UNL     1     126.310  54.189  43.418  1.00  0.00     0.004 C 
ENDBRANCH  28  29
ENDBRANCH  27  28
ENDBRANCH  26  27
ENDBRANCH  25  26
ENDBRANCH  24  25
ENDBRANCH  23  24
ENDBRANCH  22  23
ENDBRANCH  21  22
ENDBRANCH  20  21
ENDBRANCH  19  20
ENDBRANCH  18  19
ENDBRANCH  17  18
ENDBRANCH   1  17
TORSDOF 26
ENDMDL
MODEL 2
REMARK VINA RESULT:    -3.754      3.401      8.224
REMARK INTER + INTRA:         -13.788
REMARK INTER:                  -9.170
REMARK INTRA:                  -4.618
REMARK UNBOUND:                -4.328
REMARK SMILES CCCCCCCCCCCCCCCCCCCCCCCCCCCC(=O)[O-]
REMARK SMILES IDX 15 1 16 2 17 3 18 4 19 5 20 6 21 7 22 8 23 9 24 10 25 11
REMARK SMILES IDX 26 12 27 13 28 14 29 15 30 16 14 17 13 18 12 19 11 20 10 21
REMARK SMILES IDX 9 22 8 23 7 24 6 25 5 26 4 27 3 28 2 29 1 30
REMARK H PARENT
REMARK Flexibility Score: inf
ROOT
ATOM      1  C   UNL     1     123.221  54.301  53.600  1.00  0.00     0.000 C 
ENDROOT
BRANCH   1   2
ATOM      2  C   UNL     1     124.321  53.632  52.762  1.00  0.00     0.000 C 
BRANCH   2   3
ATOM      3  C   UNL     1     125.268  54.651  52.104  1.00  0.00     0.000 C 
BRANCH   3   4
ATOM      4  C   UNL     1     124.638  56.058  52.017  1.00  0.00     0.000 C 
BRANCH   4   5
ATOM      5  C   UNL     1     124.276  56.485  50.584  1.00  0.00     0.000 C 
BRANCH   5   6
ATOM      6  C   UNL     1     122.762  56.661  50.377  1.00  0.00     0.000 C 
BRANCH   6   7
ATOM      7  C   UNL     1     122.265  58.058  50.782  1.00  0.00     0.000 C 
BRANCH   7   8
ATOM      8  C   UNL     1     120.732  58.132  50.896  1.00  0.00     0.000 C 
BRANCH   8   9
ATOM      9  C   UNL     1     120.035  56.984  50.134  1.00  0.00     0.000 C 
BRANCH   9  10
ATOM     10  C   UNL     1     118.726  56.508  50.792  1.00  0.00     0.000 C 
BRANCH  10  11
ATOM     11  C   UNL     1     118.967  55.616  52.019  1.00  0.00     0.000 C 
BRANCH  11  12
ATOM     12  C   UNL     1     119.982  54.493  51.748  1.00  0.00     0.006 C 
BRANCH  12  13
ATOM     13  C   UNL     1     119.401  53.357  50.894  1.00  0.00     0.053 C 
BRANCH  13  14
ATOM     14  C   UNL     1     120.426  52.288  50.683  1.00  0.00     0.041 C 
ATOM     15  O   UNL     1     121.630  52.494  50.991  1.00  0.00    -0.550 OA
ATOM     16  O   UNL     1     120.061  51.081  50.099  1.00  0.00    -0.550 OA
ENDBRANCH  13  14
ENDBRANCH  12  13
ENDBRANCH  11  12
ENDBRANCH  10  11
ENDBRANCH   9  10
ENDBRANCH   8   9
ENDBRANCH   7   8
ENDBRANCH   6   7
ENDBRANCH   5   6
ENDBRANCH   4   5
ENDBRANCH   3   4
ENDBRANCH   2   3
ENDBRANCH   1   2
BRANCH   1  17
ATOM     17  C   UNL     1     122.567  53.330  54.597  1.00  0.00     0.000 C 
BRANCH  17  18
ATOM     18  C   UNL     1     121.567  54.033  55.532  1.00  0.00     0.000 C 
BRANCH  18  19
ATOM     19  C   UNL     1     120.135  53.494  55.375  1.00  0.00     0.000 C 
BRANCH  19  20
ATOM     20  C   UNL     1     120.086  52.164  54.593  1.00  0.00     0.000 C 
BRANCH  20  21
ATOM     21  C   UNL     1     118.682  51.793  54.076  1.00  0.00     0.000 C 
BRANCH  21  22
ATOM     22  C   UNL     1     117.592  52.847  54.333  1.00  0.00    -0.000 C 
BRANCH  22  23
ATOM     23  C   UNL     1     116.173  52.264  54.251  1.00  0.00    -0.000 C 
BRANCH  23  24
ATOM     24  C   UNL     1     115.258  53.147  53.395  1.00  0.00    -0.000 C 
BRANCH  24  25
ATOM     25  C   UNL     1     115.960  53.563  52.096  1.00  0.00    -0.000 C 
BRANCH  25  26
ATOM     26  C   UNL     1     115.284  52.987  50.840  1.00  0.00    -0.000 C 
BRANCH  26  27
ATOM     27  C   UNL     1     116.162  51.965  50.084  1.00  0.00    -0.000 C 
BRANCH  27  28
ATOM     28  C   UNL     1     116.559  50.775  50.973  1.00  0.00    -0.000 C 
BRANCH  28  29
ATOM     29  C   UNL     1     115.372  49.852  51.292  1.00  0.00    -0.003 C 
ATOM     30  C   UNL     1     114.610  49.411  50.043  1.00  0.00     0.004 C 
ENDBRANCH  28  29
ENDBRANCH  27  28
ENDBRANCH  26  27
ENDBRANCH  25  26
ENDBRANCH  24  25
ENDBRANCH  23  24
ENDBRANCH  22  23
ENDBRANCH  21  22
ENDBRANCH  20  21
ENDBRANCH  19  20
ENDBRANCH  18  19
ENDBRANCH  17  18
ENDBRANCH   1  17
TORSDOF 26
ENDMDL
MODEL 3
REMARK VINA RESULT:    -3.741      5.404      8.295
REMARK INTER + INTRA:         -13.755
REMARK INTER:                  -7.947
REMARK INTRA:                  -5.808
REMARK UNBOUND:                -4.328
REMARK SMILES CCCCCCCCCCCCCCCCCCCCCCCCCCCC(=O)[O-]
REMARK SMILES IDX 15 1 16 2 17 3 18 4 19 5 20 6 21 7 22 8 23 9 24 10 25 11
REMARK SMILES IDX 26 12 27 13 28 14 29 15 30 16 14 17 13 18 12 19 11 20 10 21
REMARK SMILES IDX 9 22 8 23 7 24 6 25 5 26 4 27 3 28 2 29 1 30
REMARK H PARENT
REMARK Flexibility Score: inf
ROOT
ATOM      1  C   UNL     1     118.617  52.552  50.724  1.00  0.00     0.000 C 
ENDROOT
BRANCH   1   2
ATOM      2  C   UNL     1     118.534  54.021  51.165  1.00  0.00     0.000 C 
BRANCH   2   3
ATOM      3  C   UNL     1     117.114  54.431  51.594  1.00  0.00     0.000 C 
BRANCH   3   4
ATOM      4  C   UNL     1     116.111  53.264  51.478  1.00  0.00     0.000 C 
BRANCH   4   5
ATOM      5  C   UNL     1     115.257  53.056  52.741  1.00  0.00     0.000 C 
BRANCH   5   6
ATOM      6  C   UNL     1     115.870  52.036  53.716  1.00  0.00     0.000 C 
BRANCH   6   7
ATOM      7  C   UNL     1     116.678  52.702  54.842  1.00  0.00     0.000 C 
BRANCH   7   8
ATOM      8  C   UNL     1     118.198  52.564  54.643  1.00  0.00     0.000 C 
BRANCH   8   9
ATOM      9  C   UNL     1     118.938  53.900  54.868  1.00  0.00     0.000 C 
BRANCH   9  10
ATOM     10  C   UNL     1     120.399  53.890  54.382  1.00  0.00     0.000 C 
BRANCH  10  11
ATOM     11  C   UNL     1     121.185  52.669  54.883  1.00  0.00     0.000 C 
BRANCH  11  12
ATOM     12  C   UNL     1     122.697  52.790  54.631  1.00  0.00     0.006 C 
BRANCH  12  13
ATOM     13  C   UNL     1     123.047  52.887  53.140  1.00  0.00     0.053 C 
BRANCH  13  14
ATOM     14  C   UNL     1     123.876  54.105  52.878  1.00  0.00     0.041 C 
ATOM     15  O   UNL     1     123.579  55.203  53.420  1.00  0.00    -0.550 OA
ATOM     16  O   UNL     1     124.948  54.040  51.996  1.00  0.00    -0.550 OA
ENDBRANCH  13  14
ENDBRANCH  12  13
ENDBRANCH  11  12
ENDBRANCH  10  11
ENDBRANCH   9  10
ENDBRANCH   8   9
ENDBRANCH   7   8
ENDBRANCH   6   7
ENDBRANCH   5   6
ENDBRANCH   4   5
ENDBRANCH   3   4
ENDBRANCH   2   3
ENDBRANCH   1   2
BRANCH   1  17
ATOM     17  C   UNL     1     119.782  51.801  51.390  1.00  0.00     0.000 C 
BRANCH  17  18
ATOM     18  C   UNL     1     119.373  50.406  51.892  1.00  0.00     0.000 C 
BRANCH  18  19
ATOM     19  C   UNL     1     117.944  50.024  51.469  1.00  0.00     0.000 C 
BRANCH  19  20
ATOM     20  C   UNL     1     117.712  48.499  51.479  1.00  0.00     0.000 C 
BRANCH  20  21
ATOM     21  C   UNL     1     116.229  48.089  51.383  1.00  0.00     0.000 C 
BRANCH  21  22
ATOM     22  C   UNL     1     115.232  49.259  51.336  1.00  0.00    -0.000 C 
BRANCH  22  23
ATOM     23  C   UNL     1     114.238  49.144  50.170  1.00  0.00    -0.000 C 
BRANCH  23  24
ATOM     24  C   UNL     1     114.755  48.188  49.090  1.00  0.00    -0.000 C 
BRANCH  24  25
ATOM     25  C   UNL     1     115.217  48.964  47.849  1.00  0.00    -0.000 C 
BRANCH  25  26
ATOM     26  C   UNL     1     116.747  49.062  47.740  1.00  0.00    -0.000 C 
BRANCH  26  27
ATOM     27  C   UNL     1     117.282  50.504  47.883  1.00  0.00    -0.000 C 
BRANCH  27  28
ATOM     28  C   UNL     1     116.147  51.528  48.052  1.00  0.00    -0.000 C 
BRANCH  28  29
ATOM     29  C   UNL     1     116.602  52.968  47.770  1.00  0.00    -0.003 C 
ATOM     30  C   UNL     1     115.445  53.966  47.771  1.00  0.00     0.004 C 
ENDBRANCH  28  29
ENDBRANCH  27  28
ENDBRANCH  26  27
ENDBRANCH  25  26
ENDBRANCH  24  25
ENDBRANCH  23  24
ENDBRANCH  22  23
ENDBRANCH  21  22
ENDBRANCH  20  21
ENDBRANCH  19  20
ENDBRANCH  18  19
ENDBRANCH  17  18
ENDBRANCH   1  17
TORSDOF 26
ENDMDL
MODEL 4
REMARK VINA RESULT:    -3.690      5.884      8.778
REMARK INTER + INTRA:         -13.626
REMARK INTER:                  -8.042
REMARK INTRA:                  -5.584
REMARK UNBOUND:                -4.328
REMARK SMILES CCCCCCCCCCCCCCCCCCCCCCCCCCCC(=O)[O-]
REMARK SMILES IDX 15 1 16 2 17 3 18 4 19 5 20 6 21 7 22 8 23 9 24 10 25 11
REMARK SMILES IDX 26 12 27 13 28 14 29 15 30 16 14 17 13 18 12 19 11 20 10 21
REMARK SMILES IDX 9 22 8 23 7 24 6 25 5 26 4 27 3 28 2 29 1 30
REMARK H PARENT
REMARK Flexibility Score: inf
ROOT
ATOM      1  C   UNL     1     124.118  50.755  45.910  1.00  0.00     0.000 C 
ENDROOT
BRANCH   1   2
ATOM      2  C   UNL     1     125.247  49.748  45.643  1.00  0.00     0.000 C 
BRANCH   2   3
ATOM      3  C   UNL     1     124.842  48.656  44.638  1.00  0.00     0.000 C 
BRANCH   3   4
ATOM      4  C   UNL     1     123.566  49.032  43.854  1.00  0.00     0.000 C 
BRANCH   4   5
ATOM      5  C   UNL     1     123.839  49.464  42.402  1.00  0.00     0.000 C 
BRANCH   5   6
ATOM      6  C   UNL     1     124.140  50.967  42.272  1.00  0.00     0.000 C 
BRANCH   6   7
ATOM      7  C   UNL     1     122.926  51.777  41.789  1.00  0.00     0.000 C 
BRANCH   7   8
ATOM      8  C   UNL     1     121.824  51.888  42.859  1.00  0.00     0.000 C 
BRANCH   8   9
ATOM      9  C   UNL     1     121.430  53.354  43.139  1.00  0.00     0.000 C 
BRANCH   9  10
ATOM     10  C   UNL     1     121.498  53.741  44.628  1.00  0.00     0.000 C 
BRANCH  10  11
ATOM     11  C   UNL     1     120.870  55.113  44.916  1.00  0.00     0.000 C 
BRANCH  11  12
ATOM     12  C   UNL     1     120.250  55.758  43.665  1.00  0.00     0.006 C 
BRANCH  12  13
ATOM     13  C   UNL     1     120.683  57.217  43.469  1.00  0.00     0.053 C 
BRANCH  13  14
ATOM     14  C   UNL     1     119.911  58.116  44.384  1.00  0.00     0.041 C 
ATOM     15  O   UNL     1     118.685  58.323  44.184  1.00  0.00    -0.550 OA
ATOM     16  O   UNL     1     120.558  58.765  45.429  1.00  0.00    -0.550 OA
ENDBRANCH  13  14
ENDBRANCH  12  13
ENDBRANCH  11  12
ENDBRANCH  10  11
ENDBRANCH   9  10
ENDBRANCH   8   9
ENDBRANCH   7   8
ENDBRANCH   6   7
ENDBRANCH   5   6
ENDBRANCH   4   5
ENDBRANCH   3   4
ENDBRANCH   2   3
ENDBRANCH   1   2
BRANCH   1  17
ATOM     17  C   UNL     1     124.548  52.207  45.642  1.00  0.00     0.000 C 
BRANCH  17  18
ATOM     18  C   UNL     1     126.061  52.336  45.397  1.00  0.00     0.000 C 
BRANCH  18  19
ATOM     19  C   UNL     1     126.451  53.714  44.836  1.00  0.00     0.000 C 
BRANCH  19  20
ATOM     20  C   UNL     1     126.057  53.882  43.354  1.00  0.00     0.000 C 
BRANCH  20  21
ATOM     21  C   UNL     1     125.648  55.319  42.973  1.00  0.00     0.000 C 
BRANCH  21  22
ATOM     22  C   UNL     1     124.237  55.736  43.420  1.00  0.00    -0.000 C 
BRANCH  22  23
ATOM     23  C   UNL     1     124.221  57.088  44.150  1.00  0.00    -0.000 C 
BRANCH  23  24
ATOM     24  C   UNL     1     124.754  56.955  45.580  1.00  0.00    -0.000 C 
BRANCH  24  25
ATOM     25  C   UNL     1     123.603  56.760  46.576  1.00  0.00    -0.000 C 
BRANCH  25  26
ATOM     26  C   UNL     1     123.668  55.409  47.308  1.00  0.00    -0.000 C 
BRANCH  26  27
ATOM     27  C   UNL     1     125.035  55.136  47.973  1.00  0.00    -0.000 C 
BRANCH  27  28
ATOM     28  C   UNL     1     124.998  53.899  48.886  1.00  0.00    -0.000 C 
BRANCH  28  29
ATOM     29  C   UNL     1     126.361  53.198  48.990  1.00  0.00    -0.003 C 
ATOM     30  C   UNL     1     126.240  51.681  49.121  1.00  0.00     0.004 C 
ENDBRANCH  28  29
ENDBRANCH  27  28
ENDBRANCH  26  27
ENDBRANCH  25  26
ENDBRANCH  24  25
ENDBRANCH  23  24
ENDBRANCH  22  23
ENDBRANCH  21  22
ENDBRANCH  20  21
ENDBRANCH  19  20
ENDBRANCH  18  19
ENDBRANCH  17  18
ENDBRANCH   1  17
TORSDOF 26
ENDMDL
MODEL 5
REMARK VINA RESULT:    -3.668      4.655      8.608
REMARK INTER + INTRA:         -13.572
REMARK INTER:                  -8.571
REMARK INTRA:                  -5.001
REMARK UNBOUND:                -4.328
REMARK SMILES CCCCCCCCCCCCCCCCCCCCCCCCCCCC(=O)[O-]
REMARK SMILES IDX 15 1 16 2 17 3 18 4 19 5 20 6 21 7 22 8 23 9 24 10 25 11
REMARK SMILES IDX 26 12 27 13 28 14 29 15 30 16 14 17 13 18 12 19 11 20 10 21
REMARK SMILES IDX 9 22 8 23 7 24 6 25 5 26 4 27 3 28 2 29 1 30
REMARK H PARENT
REMARK Flexibility Score: inf
ROOT
ATOM      1  C   UNL     1     126.153  53.605  43.702  1.00  0.00     0.000 C 
ENDROOT
BRANCH   1   2
ATOM      2  C   UNL     1     126.126  54.978  43.013  1.00  0.00     0.000 C 
BRANCH   2   3
ATOM      3  C   UNL     1     124.937  55.844  43.464  1.00  0.00     0.000 C 
BRANCH   3   4
ATOM      4  C   UNL     1     125.357  57.299  43.762  1.00  0.00     0.000 C 
BRANCH   4   5
ATOM      5  C   UNL     1     124.770  57.854  45.072  1.00  0.00     0.000 C 
BRANCH   5   6
ATOM      6  C   UNL     1     123.525  58.728  44.847  1.00  0.00     0.000 C 
BRANCH   6   7
ATOM      7  C   UNL     1     122.377  58.388  45.812  1.00  0.00     0.000 C 
BRANCH   7   8
ATOM      8  C   UNL     1     122.028  56.889  45.812  1.00  0.00     0.000 C 
BRANCH   8   9
ATOM      9  C   UNL     1     121.180  56.488  44.586  1.00  0.00     0.000 C 
BRANCH   9  10
ATOM     10  C   UNL     1     121.554  55.116  43.994  1.00  0.00     0.000 C 
BRANCH  10  11
ATOM     11  C   UNL     1     121.323  53.960  44.979  1.00  0.00     0.000 C 
BRANCH  11  12
ATOM     12  C   UNL     1     121.841  52.614  44.448  1.00  0.00     0.006 C 
BRANCH  12  13
ATOM     13  C   UNL     1     122.321  52.692  42.992  1.00  0.00     0.053 C 
BRANCH  13  14
ATOM     14  C   UNL     1     122.940  51.394  42.577  1.00  0.00     0.041 C 
ATOM     15  O   UNL     1     123.436  51.267  41.427  1.00  0.00    -0.550 OA
ATOM     16  O   UNL     1     122.922  50.308  43.445  1.00  0.00    -0.550 OA
ENDBRANCH  13  14
ENDBRANCH  12  13
ENDBRANCH  11  12
ENDBRANCH  10  11
ENDBRANCH   9  10
ENDBRANCH   8   9
ENDBRANCH   7   8
ENDBRANCH   6   7
ENDBRANCH   5   6
ENDBRANCH   4   5
ENDBRANCH   3   4
ENDBRANCH   2   3
ENDBRANCH   1   2
BRANCH   1  17
ATOM     17  C   UNL     1     125.239  53.549  44.938  1.00  0.00     0.000 C 
BRANCH  17  18
ATOM     18  C   UNL     1     125.960  52.987  46.176  1.00  0.00     0.000 C 
BRANCH  18  19
ATOM     19  C   UNL     1     125.450  53.610  47.487  1.00  0.00     0.000 C 
BRANCH  19  20
ATOM     20  C   UNL     1     125.398  55.151  47.429  1.00  0.00     0.000 C 
BRANCH  20  21
ATOM     21  C   UNL     1     124.414  55.784  48.433  1.00  0.00     0.000 C 
BRANCH  21  22
ATOM     22  C   UNL     1     123.234  54.887  48.842  1.00  0.00    -0.000 C 
BRANCH  22  23
ATOM     23  C   UNL     1     122.021  55.692  49.335  1.00  0.00    -0.000 C 
BRANCH  23  24
ATOM     24  C   UNL     1     122.365  57.177  49.492  1.00  0.00    -0.000 C 
BRANCH  24  25
ATOM     25  C   UNL     1     122.368  57.582  50.972  1.00  0.00    -0.000 C 
BRANCH  25  26
ATOM     26  C   UNL     1     123.780  57.861  51.513  1.00  0.00    -0.000 C 
BRANCH  26  27
ATOM     27  C   UNL     1     124.245  56.840  52.574  1.00  0.00    -0.000 C 
BRANCH  27  28
ATOM     28  C   UNL     1     125.332  55.896  52.033  1.00  0.00    -0.000 C 
BRANCH  28  29
ATOM     29  C   UNL     1     124.921  54.417  52.102  1.00  0.00    -0.003 C 
ATOM     30  C   UNL     1     123.541  54.213  52.726  1.00  0.00     0.004 C 
ENDBRANCH  28  29
ENDBRANCH  27  28
ENDBRANCH  26  27
ENDBRANCH  25  26
ENDBRANCH  24  25
ENDBRANCH  23  24
ENDBRANCH  22  23
ENDBRANCH  21  22
ENDBRANCH  20  21
ENDBRANCH  19  20
ENDBRANCH  18  19
ENDBRANCH  17  18
ENDBRANCH   1  17
TORSDOF 26
ENDMDL
MODEL 6
REMARK VINA RESULT:    -3.648      3.677      8.426
REMARK INTER + INTRA:         -13.522
REMARK INTER:                  -9.028
REMARK INTRA:                  -4.495
REMARK UNBOUND:                -4.328
REMARK SMILES CCCCCCCCCCCCCCCCCCCCCCCCCCCC(=O)[O-]
REMARK SMILES IDX 15 1 16 2 17 3 18 4 19 5 20 6 21 7 22 8 23 9 24 10 25 11
REMARK SMILES IDX 26 12 27 13 28 14 29 15 30 16 14 17 13 18 12 19 11 20 10 21
REMARK SMILES IDX 9 22 8 23 7 24 6 25 5 26 4 27 3 28 2 29 1 30
REMARK H PARENT
REMARK Flexibility Score: inf
ROOT
ATOM      1  C   UNL     1     119.515  53.356  51.866  1.00  0.00     0.000 C 
ENDROOT
BRANCH   1   2
ATOM      2  C   UNL     1     119.745  52.166  52.810  1.00  0.00     0.000 C 
BRANCH   2   3
ATOM      3  C   UNL     1     119.233  52.433  54.236  1.00  0.00     0.000 C 
BRANCH   3   4
ATOM      4  C   UNL     1     120.382  52.486  55.266  1.00  0.00     0.000 C 
BRANCH   4   5
ATOM      5  C   UNL     1     120.644  53.896  55.826  1.00  0.00     0.000 C 
BRANCH   5   6
ATOM      6  C   UNL     1     122.101  54.352  55.639  1.00  0.00     0.000 C 
BRANCH   6   7
ATOM      7  C   UNL     1     122.778  53.699  54.424  1.00  0.00     0.000 C 
BRANCH   7   8
ATOM      8  C   UNL     1     122.818  54.628  53.197  1.00  0.00     0.000 C 
BRANCH   8   9
ATOM      9  C   UNL     1     124.259  54.870  52.697  1.00  0.00     0.000 C 
BRANCH   9  10
ATOM     10  C   UNL     1     124.342  55.795  51.469  1.00  0.00     0.000 C 
BRANCH  10  11
ATOM     11  C   UNL     1     123.590  57.119  51.669  1.00  0.00     0.000 C 
BRANCH  11  12
ATOM     12  C   UNL     1     122.726  57.501  50.455  1.00  0.00     0.006 C 
BRANCH  12  13
ATOM     13  C   UNL     1     121.249  57.712  50.817  1.00  0.00     0.053 C 
BRANCH  13  14
ATOM     14  C   UNL     1     120.376  56.853  49.959  1.00  0.00     0.041 C 
ATOM     15  O   UNL     1     119.194  57.205  49.703  1.00  0.00    -0.550 OA
ATOM     16  O   UNL     1     120.850  55.636  49.482  1.00  0.00    -0.550 OA
ENDBRANCH  13  14
ENDBRANCH  12  13
ENDBRANCH  11  12
ENDBRANCH  10  11
ENDBRANCH   9  10
ENDBRANCH   8   9
ENDBRANCH   7   8
ENDBRANCH   6   7
ENDBRANCH   5   6
ENDBRANCH   4   5
ENDBRANCH   3   4
ENDBRANCH   2   3
ENDBRANCH   1   2
BRANCH   1  17
ATOM     17  C   UNL     1     118.661  54.461  52.510  1.00  0.00     0.000 C 
BRANCH  17  18
ATOM     18  C   UNL     1     117.473  54.876  51.625  1.00  0.00     0.000 C 
BRANCH  18  19
ATOM     19  C   UNL     1     116.346  53.828  51.622  1.00  0.00     0.000 C 
BRANCH  19  20
ATOM     20  C   UNL     1     115.826  53.516  53.041  1.00  0.00     0.000 C 
BRANCH  20  21
ATOM     21  C   UNL     1     115.633  52.013  53.321  1.00  0.00     0.000 C 
BRANCH  21  22
ATOM     22  C   UNL     1     115.610  51.114  52.073  1.00  0.00    -0.000 C 
BRANCH  22  23
ATOM     23  C   UNL     1     116.799  50.143  52.019  1.00  0.00    -0.000 C 
BRANCH  23  24
ATOM     24  C   UNL     1     116.468  48.904  51.179  1.00  0.00    -0.000 C 
BRANCH  24  25
ATOM     25  C   UNL     1     114.986  48.897  50.779  1.00  0.00    -0.000 C 
BRANCH  25  26
ATOM     26  C   UNL     1     114.745  48.276  49.393  1.00  0.00    -0.000 C 
BRANCH  26  27
ATOM     27  C   UNL     1     114.814  49.302  48.240  1.00  0.00    -0.000 C 
BRANCH  27  28
ATOM     28  C   UNL     1     114.155  50.639  48.616  1.00  0.00    -0.000 C 
BRANCH  28  29
ATOM     29  C   UNL     1     115.147  51.813  48.602  1.00  0.00    -0.003 C 
ATOM     30  C   UNL     1     116.582  51.374  48.315  1.00  0.00     0.004 C 
ENDBRANCH  28  29
ENDBRANCH  27  28
ENDBRANCH  26  27
ENDBRANCH  25  26
ENDBRANCH  24  25
ENDBRANCH  23  24
ENDBRANCH  22  23
ENDBRANCH  21  22
ENDBRANCH  20  21
ENDBRANCH  19  20
ENDBRANCH  18  19
ENDBRANCH  17  18
ENDBRANCH   1  17
TORSDOF 26
ENDMDL
MODEL 7
REMARK VINA RESULT:    -3.641      3.967      7.740
REMARK INTER + INTRA:         -13.503
REMARK INTER:                  -7.640
REMARK INTRA:                  -5.863
REMARK UNBOUND:                -4.328
REMARK SMILES CCCCCCCCCCCCCCCCCCCCCCCCCCCC(=O)[O-]
REMARK SMILES IDX 15 1 16 2 17 3 18 4 19 5 20 6 21 7 22 8 23 9 24 10 25 11
REMARK SMILES IDX 26 12 27 13 28 14 29 15 30 16 14 17 13 18 12 19 11 20 10 21
REMARK SMILES IDX 9 22 8 23 7 24 6 25 5 26 4 27 3 28 2 29 1 30
REMARK H PARENT
REMARK Flexibility Score: inf
ROOT
ATOM      1  C   UNL     1     119.591  53.034  52.342  1.00  0.00     0.000 C 
ENDROOT
BRANCH   1   2
ATOM      2  C   UNL     1     121.037  53.363  51.942  1.00  0.00     0.000 C 
BRANCH   2   3
ATOM      3  C   UNL     1     121.580  54.614  52.655  1.00  0.00     0.000 C 
BRANCH   3   4
ATOM      4  C   UNL     1     122.649  54.264  53.712  1.00  0.00     0.000 C 
BRANCH   4   5
ATOM      5  C   UNL     1     122.062  53.918  55.092  1.00  0.00     0.000 C 
BRANCH   5   6
ATOM      6  C   UNL     1     122.425  52.498  55.557  1.00  0.00     0.000 C 
BRANCH   6   7
ATOM      7  C   UNL     1     121.286  51.489  55.335  1.00  0.00     0.000 C 
BRANCH   7   8
ATOM      8  C   UNL     1     121.564  50.528  54.165  1.00  0.00     0.000 C 
BRANCH   8   9
ATOM      9  C   UNL     1     123.064  50.187  54.037  1.00  0.00     0.000 C 
BRANCH   9  10
ATOM     10  C   UNL     1     123.645  50.463  52.637  1.00  0.00     0.000 C 
BRANCH  10  11
ATOM     11  C   UNL     1     125.114  50.911  52.680  1.00  0.00     0.000 C 
BRANCH  11  12
ATOM     12  C   UNL     1     125.307  52.362  52.209  1.00  0.00     0.006 C 
BRANCH  12  13
ATOM     13  C   UNL     1     124.518  52.685  50.934  1.00  0.00     0.053 C 
BRANCH  13  14
ATOM     14  C   UNL     1     125.025  53.949  50.314  1.00  0.00     0.041 C 
ATOM     15  O   UNL     1     125.644  53.914  49.218  1.00  0.00    -0.550 OA
ATOM     16  O   UNL     1     124.857  55.162  50.973  1.00  0.00    -0.550 OA
ENDBRANCH  13  14
ENDBRANCH  12  13
ENDBRANCH  11  12
ENDBRANCH  10  11
ENDBRANCH   9  10
ENDBRANCH   8   9
ENDBRANCH   7   8
ENDBRANCH   6   7
ENDBRANCH   5   6
ENDBRANCH   4   5
ENDBRANCH   3   4
ENDBRANCH   2   3
ENDBRANCH   1   2
BRANCH   1  17
ATOM     17  C   UNL     1     118.995  54.076  53.304  1.00  0.00     0.000 C 
BRANCH  17  18
ATOM     18  C   UNL     1     118.373  53.433  54.555  1.00  0.00     0.000 C 
BRANCH  18  19
ATOM     19  C   UNL     1     117.633  52.122  54.237  1.00  0.00     0.000 C 
BRANCH  19  20
ATOM     20  C   UNL     1     116.107  52.243  54.431  1.00  0.00     0.000 C 
BRANCH  20  21
ATOM     21  C   UNL     1     115.327  52.490  53.125  1.00  0.00     0.000 C 
BRANCH  21  22
ATOM     22  C   UNL     1     115.814  51.681  51.911  1.00  0.00    -0.000 C 
BRANCH  22  23
ATOM     23  C   UNL     1     116.205  52.573  50.722  1.00  0.00    -0.000 C 
BRANCH  23  24
ATOM     24  C   UNL     1     115.631  53.986  50.875  1.00  0.00    -0.000 C 
BRANCH  24  25
ATOM     25  C   UNL     1     116.728  55.043  50.686  1.00  0.00    -0.000 C 
BRANCH  25  26
ATOM     26  C   UNL     1     117.704  54.695  49.549  1.00  0.00    -0.000 C 
BRANCH  26  27
ATOM     27  C   UNL     1     119.038  55.470  49.627  1.00  0.00    -0.000 C 
BRANCH  27  28
ATOM     28  C   UNL     1     118.995  56.590  50.680  1.00  0.00    -0.000 C 
BRANCH  28  29
ATOM     29  C   UNL     1     120.286  57.424  50.710  1.00  0.00    -0.003 C 
ATOM     30  C   UNL     1     121.302  56.984  49.657  1.00  0.00     0.004 C 
ENDBRANCH  28  29
ENDBRANCH  27  28
ENDBRANCH  26  27
ENDBRANCH  25  26
ENDBRANCH  24  25
ENDBRANCH  23  24
ENDBRANCH  22  23
ENDBRANCH  21  22
ENDBRANCH  20  21
ENDBRANCH  19  20
ENDBRANCH  18  19
ENDBRANCH  17  18
ENDBRANCH   1  17
TORSDOF 26
ENDMDL
MODEL 8
REMARK VINA RESULT:    -3.634      4.744      7.946
REMARK INTER + INTRA:         -13.486
REMARK INTER:                  -8.571
REMARK INTRA:                  -4.915
REMARK UNBOUND:                -4.328
REMARK SMILES CCCCCCCCCCCCCCCCCCCCCCCCCCCC(=O)[O-]
REMARK SMILES IDX 15 1 16 2 17 3 18 4 19 5 20 6 21 7 22 8 23 9 24 10 25 11
REMARK SMILES IDX 26 12 27 13 28 14 29 15 30 16 14 17 13 18 12 19 11 20 10 21
REMARK SMILES IDX 9 22 8 23 7 24 6 25 5 26 4 27 3 28 2 29 1 30
REMARK H PARENT
REMARK Flexibility Score: inf
ROOT
ATOM      1  C   UNL     1     115.630  53.502  51.399  1.00  0.00     0.000 C 
ENDROOT
BRANCH   1   2
ATOM      2  C   UNL     1     115.619  52.023  51.814  1.00  0.00     0.000 C 
BRANCH   2   3
ATOM      3  C   UNL     1     116.447  51.758  53.084  1.00  0.00     0.000 C 
BRANCH   3   4
ATOM      4  C   UNL     1     115.988  52.632  54.270  1.00  0.00     0.000 C 
BRANCH   4   5
ATOM      5  C   UNL     1     117.148  53.165  55.130  1.00  0.00     0.000 C 
BRANCH   5   6
ATOM      6  C   UNL     1     118.530  52.787  54.570  1.00  0.00     0.000 C 
BRANCH   6   7
ATOM      7  C   UNL     1     119.672  53.587  55.217  1.00  0.00     0.000 C 
BRANCH   7   8
ATOM      8  C   UNL     1     120.908  52.719  55.516  1.00  0.00     0.000 C 
BRANCH   8   9
ATOM      9  C   UNL     1     122.181  53.568  55.716  1.00  0.00     0.000 C 
BRANCH   9  10
ATOM     10  C   UNL     1     122.571  54.402  54.481  1.00  0.00     0.000 C 
BRANCH  10  11
ATOM     11  C   UNL     1     123.529  53.657  53.539  1.00  0.00     0.000 C 
BRANCH  11  12
ATOM     12  C   UNL     1     124.254  54.598  52.562  1.00  0.00     0.006 C 
BRANCH  12  13
ATOM     13  C   UNL     1     123.889  56.074  52.776  1.00  0.00     0.053 C 
BRANCH  13  14
ATOM     14  C   UNL     1     124.573  56.931  51.757  1.00  0.00     0.041 C 
ATOM     15  O   UNL     1     125.028  58.060  52.080  1.00  0.00    -0.550 OA
ATOM     16  O   UNL     1     124.663  56.504  50.437  1.00  0.00    -0.550 OA
ENDBRANCH  13  14
ENDBRANCH  12  13
ENDBRANCH  11  12
ENDBRANCH  10  11
ENDBRANCH   9  10
ENDBRANCH   8   9
ENDBRANCH   7   8
ENDBRANCH   6   7
ENDBRANCH   5   6
ENDBRANCH   4   5
ENDBRANCH   3   4
ENDBRANCH   2   3
ENDBRANCH   1   2
BRANCH   1  17
ATOM     17  C   UNL     1     116.508  53.761  50.162  1.00  0.00     0.000 C 
BRANCH  17  18
ATOM     18  C   UNL     1     117.512  54.904  50.383  1.00  0.00     0.000 C 
BRANCH  18  19
ATOM     19  C   UNL     1     117.967  55.013  51.849  1.00  0.00     0.000 C 
BRANCH  19  20
ATOM     20  C   UNL     1     119.450  55.421  51.978  1.00  0.00     0.000 C 
BRANCH  20  21
ATOM     21  C   UNL     1     120.414  54.549  51.151  1.00  0.00     0.000 C 
BRANCH  21  22
ATOM     22  C   UNL     1     120.527  53.085  51.609  1.00  0.00    -0.000 C 
BRANCH  22  23
ATOM     23  C   UNL     1     120.965  52.141  50.479  1.00  0.00    -0.000 C 
BRANCH  23  24
ATOM     24  C   UNL     1     119.758  51.603  49.704  1.00  0.00    -0.000 C 
BRANCH  24  25
ATOM     25  C   UNL     1     118.810  50.836  50.636  1.00  0.00    -0.000 C 
BRANCH  25  26
ATOM     26  C   UNL     1     118.482  49.423  50.124  1.00  0.00    -0.000 C 
BRANCH  26  27
ATOM     27  C   UNL     1     118.035  48.454  51.241  1.00  0.00    -0.000 C 
BRANCH  27  28
ATOM     28  C   UNL     1     116.506  48.419  51.398  1.00  0.00    -0.000 C 
BRANCH  28  29
ATOM     29  C   UNL     1     115.768  48.633  50.067  1.00  0.00    -0.003 C 
ATOM     30  C   UNL     1     114.291  48.976  50.255  1.00  0.00     0.004 C 
ENDBRANCH  28  29
ENDBRANCH  27  28
ENDBRANCH  26  27
ENDBRANCH  25  26
ENDBRANCH  24  25
ENDBRANCH  23  24
ENDBRANCH  22  23
ENDBRANCH  21  22
ENDBRANCH  20  21
ENDBRANCH  19  20
ENDBRANCH  18  19
ENDBRANCH  17  18
ENDBRANCH   1  17
TORSDOF 26
ENDMDL
MODEL 9
REMARK VINA RESULT:    -3.627      3.102      7.175
REMARK INTER + INTRA:         -13.467
REMARK INTER:                  -8.185
REMARK INTRA:                  -5.282
REMARK UNBOUND:                -4.328
REMARK SMILES CCCCCCCCCCCCCCCCCCCCCCCCCCCC(=O)[O-]
REMARK SMILES IDX 15 1 16 2 17 3 18 4 19 5 20 6 21 7 22 8 23 9 24 10 25 11
REMARK SMILES IDX 26 12 27 13 28 14 29 15 30 16 14 17 13 18 12 19 11 20 10 21
REMARK SMILES IDX 9 22 8 23 7 24 6 25 5 26 4 27 3 28 2 29 1 30
REMARK H PARENT
REMARK Flexibility Score: inf
ROOT
ATOM      1  C   UNL     1     117.601  54.184  50.780  1.00  0.00     0.000 C 
ENDROOT
BRANCH   1   2
ATOM      2  C   UNL     1     118.042  54.991  52.010  1.00  0.00     0.000 C 
BRANCH   2   3
ATOM      3  C   UNL     1     119.571  55.141  52.103  1.00  0.00     0.000 C 
BRANCH   3   4
ATOM      4  C   UNL     1     120.310  54.124  51.209  1.00  0.00     0.000 C 
BRANCH   4   5
ATOM      5  C   UNL     1     121.483  54.733  50.420  1.00  0.00     0.000 C 
BRANCH   5   6
ATOM      6  C   UNL     1     121.700  56.225  50.728  1.00  0.00     0.000 C 
BRANCH   6   7
ATOM      7  C   UNL     1     122.015  57.052  49.471  1.00  0.00     0.000 C 
BRANCH   7   8
ATOM      8  C   UNL     1     120.776  57.284  48.589  1.00  0.00     0.000 C 
BRANCH   8   9
ATOM      9  C   UNL     1     119.562  57.777  49.406  1.00  0.00     0.000 C 
BRANCH   9  10
ATOM     10  C   UNL     1     118.227  57.142  48.978  1.00  0.00     0.000 C 
BRANCH  10  11
ATOM     11  C   UNL     1     117.146  58.186  48.661  1.00  0.00     0.000 C 
BRANCH  11  12
ATOM     12  C   UNL     1     115.728  57.591  48.654  1.00  0.00     0.006 C 
BRANCH  12  13
ATOM     13  C   UNL     1     115.699  56.125  48.201  1.00  0.00     0.053 C 
BRANCH  13  14
ATOM     14  C   UNL     1     114.549  55.408  48.836  1.00  0.00     0.041 C 
ATOM     15  O   UNL     1     114.283  54.221  48.508  1.00  0.00    -0.550 OA
ATOM     16  O   UNL     1     113.738  56.068  49.752  1.00  0.00    -0.550 OA
ENDBRANCH  13  14
ENDBRANCH  12  13
ENDBRANCH  11  12
ENDBRANCH  10  11
ENDBRANCH   9  10
ENDBRANCH   8   9
ENDBRANCH   7   8
ENDBRANCH   6   7
ENDBRANCH   5   6
ENDBRANCH   4   5
ENDBRANCH   3   4
ENDBRANCH   2   3
ENDBRANCH   1   2
BRANCH   1  17
ATOM     17  C   UNL     1     116.456  53.207  51.096  1.00  0.00     0.000 C 
BRANCH  17  18
ATOM     18  C   UNL     1     115.418  53.809  52.058  1.00  0.00     0.000 C 
BRANCH  18  19
ATOM     19  C   UNL     1     115.268  52.989  53.351  1.00  0.00     0.000 C 
BRANCH  19  20
ATOM     20  C   UNL     1     116.291  51.837  53.443  1.00  0.00     0.000 C 
BRANCH  20  21
ATOM     21  C   UNL     1     117.514  52.155  54.326  1.00  0.00     0.000 C 
BRANCH  21  22
ATOM     22  C   UNL     1     118.875  51.779  53.716  1.00  0.00    -0.000 C 
BRANCH  22  23
ATOM     23  C   UNL     1     120.058  52.189  54.607  1.00  0.00    -0.000 C 
BRANCH  23  24
ATOM     24  C   UNL     1     119.746  53.469  55.391  1.00  0.00    -0.000 C 
BRANCH  24  25
ATOM     25  C   UNL     1     121.033  54.246  55.700  1.00  0.00    -0.000 C 
BRANCH  25  26
ATOM     26  C   UNL     1     122.285  53.600  55.081  1.00  0.00    -0.000 C 
BRANCH  26  27
ATOM     27  C   UNL     1     122.912  54.441  53.946  1.00  0.00    -0.000 C 
BRANCH  27  28
ATOM     28  C   UNL     1     123.887  53.617  53.088  1.00  0.00    -0.000 C 
BRANCH  28  29
ATOM     29  C   UNL     1     123.284  52.283  52.621  1.00  0.00    -0.003 C 
ATOM     30  C   UNL     1     124.091  51.072  53.087  1.00  0.00     0.004 C 
ENDBRANCH  28  29
ENDBRANCH  27  28
ENDBRANCH  26  27
ENDBRANCH  25  26
ENDBRANCH  24  25
ENDBRANCH  23  24
ENDBRANCH  22  23
ENDBRANCH  21  22
ENDBRANCH  20  21
ENDBRANCH  19  20
ENDBRANCH  18  19
ENDBRANCH  17  18
ENDBRANCH   1  17
TORSDOF 26
ENDMDL
