MODEL 1
REMARK VINA RESULT:    -7.284      0.000      0.000
REMARK INTER + INTRA:          -9.083
REMARK INTER:                  -8.775
REMARK INTRA:                  -0.308
REMARK UNBOUND:                -0.308
REMARK SMILES O=c1c(O)c(-c2ccc(O)c(O)c2)oc2cc(O)cc(O)c12
REMARK SMILES IDX 5 1 3 2 2 3 1 4 22 5 20 6 19 7 17 8 16 9 15 10 14 11 6 12
REMARK SMILES IDX 7 13 8 14 9 15 13 16 11 17 10 18 12 20 4 22 21 24 18 26
REMARK H PARENT 10 19 12 21 4 23 21 25 18 27
REMARK Flexibility Score: inf
ROOT
ATOM      1  C   UNL     1      19.535  24.586  41.202  1.00  0.00     0.180 A 
ATOM      2  C   UNL     1      20.272  25.775  41.334  1.00  0.00     0.208 A 
ATOM      3  C   UNL     1      19.934  26.676  42.356  1.00  0.00     0.238 A 
ATOM      4  O   UNL     1      20.562  27.765  42.435  1.00  0.00    -0.285 OA
ATOM      5  C   UNL     1      18.874  26.370  43.244  1.00  0.00     0.111 A 
ATOM      6  C   UNL     1      18.471  27.190  44.340  1.00  0.00     0.134 A 
ATOM      7  C   UNL     1      17.326  26.853  45.071  1.00  0.00     0.093 A 
ATOM      8  C   UNL     1      16.608  25.688  44.788  1.00  0.00     0.123 A 
ATOM      9  C   UNL     1      17.028  24.850  43.758  1.00  0.00     0.094 A 
ATOM     10  C   UNL     1      18.146  25.179  42.987  1.00  0.00     0.146 A 
ATOM     11  O   UNL     1      18.505  24.358  42.008  1.00  0.00    -0.452 OA
ENDROOT
BRANCH   1  12
ATOM     12  C   UNL     1      19.848  23.576  40.165  1.00  0.00     0.025 A 
ATOM     13  C   UNL     1      20.614  22.437  40.462  1.00  0.00     0.016 A 
ATOM     14  C   UNL     1      20.876  21.486  39.474  1.00  0.00     0.051 A 
ATOM     15  C   UNL     1      20.372  21.643  38.178  1.00  0.00     0.157 A 
ATOM     16  C   UNL     1      19.322  23.725  38.873  1.00  0.00     0.062 A 
ATOM     17  C   UNL     1      19.580  22.777  37.874  1.00  0.00     0.158 A 
BRANCH  15  18
ATOM     18  O   UNL     1      20.674  20.659  37.236  1.00  0.00    -0.504 OA
ATOM     19  H   UNL     1      21.174  20.835  36.376  1.00  0.00     0.293 HD
ENDBRANCH  15  18
BRANCH  17  20
ATOM     20  O   UNL     1      19.034  22.998  36.609  1.00  0.00    -0.504 OA
ATOM     21  H   UNL     1      18.487  23.811  36.364  1.00  0.00     0.293 HD
ENDBRANCH  17  20
ENDBRANCH   1  12
BRANCH   2  22
ATOM     22  O   UNL     1      21.301  26.069  40.434  1.00  0.00    -0.502 OA
ATOM     23  H   UNL     1      21.849  26.917  40.493  1.00  0.00     0.293 HD
ENDBRANCH   2  22
BRANCH   6  24
ATOM     24  O   UNL     1      19.171  28.324  44.764  1.00  0.00    -0.507 OA
ATOM     25  H   UNL     1      19.723  28.376  45.608  1.00  0.00     0.293 HD
ENDBRANCH   6  24
BRANCH   8  26
ATOM     26  O   UNL     1      15.479  25.351  45.532  1.00  0.00    -0.508 OA
ATOM     27  H   UNL     1      14.924  24.534  45.310  1.00  0.00     0.293 HD
ENDBRANCH   8  26
TORSDOF 6
ENDMDL
MODEL 2
REMARK VINA RESULT:    -7.077      0.839      1.524
REMARK INTER + INTRA:          -8.833
REMARK INTER:                  -8.510
REMARK INTRA:                  -0.323
REMARK UNBOUND:                -0.308
REMARK SMILES O=c1c(O)c(-c2ccc(O)c(O)c2)oc2cc(O)cc(O)c12
REMARK SMILES IDX 5 1 3 2 2 3 1 4 22 5 20 6 19 7 17 8 16 9 15 10 14 11 6 12
REMARK SMILES IDX 7 13 8 14 9 15 13 16 11 17 10 18 12 20 4 22 21 24 18 26
REMARK H PARENT 10 19 12 21 4 23 21 25 18 27
REMARK Flexibility Score: inf
ROOT
ATOM      1  C   UNL     1      19.408  25.103  41.219  1.00  0.00     0.180 A 
ATOM      2  C   UNL     1      20.308  26.173  41.365  1.00  0.00     0.208 A 
ATOM      3  C   UNL     1      20.187  27.017  42.480  1.00  0.00     0.238 A 
ATOM      4  O   UNL     1      20.961  28.006  42.577  1.00  0.00    -0.285 OA
ATOM      5  C   UNL     1      19.180  26.772  43.445  1.00  0.00     0.111 A 
ATOM      6  C   UNL     1      18.992  27.538  44.634  1.00  0.00     0.134 A 
ATOM      7  C   UNL     1      17.883  27.286  45.450  1.00  0.00     0.093 A 
ATOM      8  C   UNL     1      16.992  26.251  45.155  1.00  0.00     0.123 A 
ATOM      9  C   UNL     1      17.200  25.460  44.029  1.00  0.00     0.094 A 
ATOM     10  C   UNL     1      18.278  25.710  43.175  1.00  0.00     0.146 A 
ATOM     11  O   UNL     1      18.434  24.938  42.107  1.00  0.00    -0.452 OA
ENDROOT
BRANCH   1  12
ATOM     12  C   UNL     1      19.487  24.155  40.084  1.00  0.00     0.025 A 
ATOM     13  C   UNL     1      18.832  24.414  38.869  1.00  0.00     0.016 A 
ATOM     14  C   UNL     1      18.940  23.517  37.805  1.00  0.00     0.051 A 
ATOM     15  C   UNL     1      19.709  22.355  37.925  1.00  0.00     0.157 A 
ATOM     16  C   UNL     1      20.277  23.002  40.199  1.00  0.00     0.062 A 
ATOM     17  C   UNL     1      20.390  22.095  39.138  1.00  0.00     0.158 A 
BRANCH  15  18
ATOM     18  O   UNL     1      19.772  21.497  36.825  1.00  0.00    -0.504 OA
ATOM     19  H   UNL     1      20.145  20.560  36.861  1.00  0.00     0.293 HD
ENDBRANCH  15  18
BRANCH  17  20
ATOM     20  O   UNL     1      21.185  20.963  39.329  1.00  0.00    -0.504 OA
ATOM     21  H   UNL     1      22.143  20.993  39.648  1.00  0.00     0.293 HD
ENDBRANCH  17  20
ENDBRANCH   1  12
BRANCH   2  22
ATOM     22  O   UNL     1      21.281  26.411  40.390  1.00  0.00    -0.502 OA
ATOM     23  H   UNL     1      21.143  26.176  39.416  1.00  0.00     0.293 HD
ENDBRANCH   2  22
BRANCH   6  24
ATOM     24  O   UNL     1      19.874  28.532  45.069  1.00  0.00    -0.507 OA
ATOM     25  H   UNL     1      19.745  29.090  45.900  1.00  0.00     0.293 HD
ENDBRANCH   6  24
BRANCH   8  26
ATOM     26  O   UNL     1      15.900  25.997  45.982  1.00  0.00    -0.508 OA
ATOM     27  H   UNL     1      14.970  25.859  45.603  1.00  0.00     0.293 HD
ENDBRANCH   8  26
TORSDOF 6
ENDMDL
MODEL 3
REMARK VINA RESULT:    -6.811      1.601      3.464
REMARK INTER + INTRA:          -8.512
REMARK INTER:                  -8.203
REMARK INTRA:                  -0.310
REMARK UNBOUND:                -0.308
REMARK SMILES O=c1c(O)c(-c2ccc(O)c(O)c2)oc2cc(O)cc(O)c12
REMARK SMILES IDX 5 1 3 2 2 3 1 4 22 5 20 6 19 7 17 8 16 9 15 10 14 11 6 12
REMARK SMILES IDX 7 13 8 14 9 15 13 16 11 17 10 18 12 20 4 22 21 24 18 26
REMARK H PARENT 10 19 12 21 4 23 21 25 18 27
REMARK Flexibility Score: inf
ROOT
ATOM      1  C   UNL     1      18.212  24.232  42.337  1.00  0.00     0.180 A 
ATOM      2  C   UNL     1      17.296  23.517  43.127  1.00  0.00     0.208 A 
ATOM      3  C   UNL     1      16.801  24.109  44.300  1.00  0.00     0.238 A 
ATOM      4  O   UNL     1      16.024  23.443  45.033  1.00  0.00    -0.285 OA
ATOM      5  C   UNL     1      17.214  25.415  44.659  1.00  0.00     0.111 A 
ATOM      6  C   UNL     1      16.746  26.128  45.804  1.00  0.00     0.134 A 
ATOM      7  C   UNL     1      17.322  27.361  46.132  1.00  0.00     0.093 A 
ATOM      8  C   UNL     1      18.302  27.937  45.321  1.00  0.00     0.123 A 
ATOM      9  C   UNL     1      18.723  27.276  44.170  1.00  0.00     0.094 A 
ATOM     10  C   UNL     1      18.194  26.028  43.834  1.00  0.00     0.146 A 
ATOM     11  O   UNL     1      18.630  25.428  42.734  1.00  0.00    -0.452 OA
ENDROOT
BRANCH   1  12
ATOM     12  C   UNL     1      18.759  23.685  41.074  1.00  0.00     0.025 A 
ATOM     13  C   UNL     1      18.214  24.037  39.828  1.00  0.00     0.016 A 
ATOM     14  C   UNL     1      18.762  23.527  38.649  1.00  0.00     0.051 A 
ATOM     15  C   UNL     1      19.866  22.669  38.687  1.00  0.00     0.157 A 
ATOM     16  C   UNL     1      19.879  22.841  41.113  1.00  0.00     0.062 A 
ATOM     17  C   UNL     1      20.435  22.323  39.936  1.00  0.00     0.158 A 
BRANCH  15  18
ATOM     18  O   UNL     1      20.362  22.190  37.474  1.00  0.00    -0.504 OA
ATOM     19  H   UNL     1      21.237  21.695  37.377  1.00  0.00     0.293 HD
ENDBRANCH  15  18
BRANCH  17  20
ATOM     20  O   UNL     1      21.542  21.482  40.054  1.00  0.00    -0.504 OA
ATOM     21  H   UNL     1      22.256  21.583  40.762  1.00  0.00     0.293 HD
ENDBRANCH  17  20
ENDBRANCH   1  12
BRANCH   2  22
ATOM     22  O   UNL     1      16.917  22.220  42.767  1.00  0.00    -0.502 OA
ATOM     23  H   UNL     1      17.151  21.815  41.870  1.00  0.00     0.293 HD
ENDBRANCH   2  22
BRANCH   6  24
ATOM     24  O   UNL     1      15.708  25.684  46.628  1.00  0.00    -0.507 OA
ATOM     25  H   UNL     1      15.608  24.739  46.968  1.00  0.00     0.293 HD
ENDBRANCH   6  24
BRANCH   8  26
ATOM     26  O   UNL     1      18.858  29.172  45.647  1.00  0.00    -0.508 OA
ATOM     27  H   UNL     1      19.581  29.258  46.351  1.00  0.00     0.293 HD
ENDBRANCH   8  26
TORSDOF 6
ENDMDL
MODEL 4
REMARK VINA RESULT:    -6.416      3.247      6.151
REMARK INTER + INTRA:          -8.037
REMARK INTER:                  -7.729
REMARK INTRA:                  -0.308
REMARK UNBOUND:                -0.308
REMARK SMILES O=c1c(O)c(-c2ccc(O)c(O)c2)oc2cc(O)cc(O)c12
REMARK SMILES IDX 5 1 3 2 2 3 1 4 22 5 20 6 19 7 17 8 16 9 15 10 14 11 6 12
REMARK SMILES IDX 7 13 8 14 9 15 13 16 11 17 10 18 12 20 4 22 21 24 18 26
REMARK H PARENT 10 19 12 21 4 23 21 25 18 27
REMARK Flexibility Score: inf
ROOT
ATOM      1  C   UNL     1      17.535  24.246  42.701  1.00  0.00     0.180 A 
ATOM      2  C   UNL     1      16.205  24.476  42.309  1.00  0.00     0.208 A 
ATOM      3  C   UNL     1      15.253  23.462  42.502  1.00  0.00     0.238 A 
ATOM      4  O   UNL     1      14.075  23.653  42.099  1.00  0.00    -0.285 OA
ATOM      5  C   UNL     1      15.638  22.237  43.099  1.00  0.00     0.111 A 
ATOM      6  C   UNL     1      14.749  21.156  43.380  1.00  0.00     0.134 A 
ATOM      7  C   UNL     1      15.265  19.943  43.852  1.00  0.00     0.093 A 
ATOM      8  C   UNL     1      16.628  19.794  44.117  1.00  0.00     0.123 A 
ATOM      9  C   UNL     1      17.495  20.862  43.902  1.00  0.00     0.094 A 
ATOM     10  C   UNL     1      17.017  22.074  43.398  1.00  0.00     0.146 A 
ATOM     11  O   UNL     1      17.878  23.063  43.198  1.00  0.00    -0.452 OA
ENDROOT
BRANCH   1  12
ATOM     12  C   UNL     1      18.589  25.275  42.553  1.00  0.00     0.025 A 
ATOM     13  C   UNL     1      19.259  25.464  41.333  1.00  0.00     0.016 A 
ATOM     14  C   UNL     1      20.234  26.457  41.211  1.00  0.00     0.051 A 
ATOM     15  C   UNL     1      20.551  27.285  42.293  1.00  0.00     0.157 A 
ATOM     16  C   UNL     1      18.889  26.118  43.633  1.00  0.00     0.062 A 
ATOM     17  C   UNL     1      19.866  27.116  43.521  1.00  0.00     0.158 A 
BRANCH  15  18
ATOM     18  O   UNL     1      21.537  28.254  42.107  1.00  0.00    -0.504 OA
ATOM     19  H   UNL     1      22.505  28.133  42.369  1.00  0.00     0.293 HD
ENDBRANCH  15  18
BRANCH  17  20
ATOM     20  O   UNL     1      20.119  27.910  44.641  1.00  0.00    -0.504 OA
ATOM     21  H   UNL     1      21.043  28.196  44.933  1.00  0.00     0.293 HD
ENDBRANCH  17  20
ENDBRANCH   1  12
BRANCH   2  22
ATOM     22  O   UNL     1      15.849  25.683  41.701  1.00  0.00    -0.502 OA
ATOM     23  H   UNL     1      16.073  26.583  42.107  1.00  0.00     0.293 HD
ENDBRANCH   2  22
BRANCH   6  24
ATOM     24  O   UNL     1      13.360  21.232  43.238  1.00  0.00    -0.507 OA
ATOM     25  H   UNL     1      12.851  20.944  42.416  1.00  0.00     0.293 HD
ENDBRANCH   6  24
BRANCH   8  26
ATOM     26  O   UNL     1      17.130  18.588  44.602  1.00  0.00    -0.508 OA
ATOM     27  H   UNL     1      18.018  18.219  44.286  1.00  0.00     0.293 HD
ENDBRANCH   8  26
TORSDOF 6
ENDMDL
MODEL 5
REMARK VINA RESULT:    -6.392      4.235      7.454
REMARK INTER + INTRA:          -8.008
REMARK INTER:                  -7.957
REMARK INTRA:                  -0.051
REMARK UNBOUND:                -0.308
REMARK SMILES O=c1c(O)c(-c2ccc(O)c(O)c2)oc2cc(O)cc(O)c12
REMARK SMILES IDX 5 1 3 2 2 3 1 4 22 5 20 6 19 7 17 8 16 9 15 10 14 11 6 12
REMARK SMILES IDX 7 13 8 14 9 15 13 16 11 17 10 18 12 20 4 22 21 24 18 26
REMARK H PARENT 10 19 12 21 4 23 21 25 18 27
REMARK Flexibility Score: inf
ROOT
ATOM      1  C   UNL     1      17.431  24.173  45.430  1.00  0.00     0.180 A 
ATOM      2  C   UNL     1      17.270  23.484  44.215  1.00  0.00     0.208 A 
ATOM      3  C   UNL     1      16.998  22.107  44.244  1.00  0.00     0.238 A 
ATOM      4  O   UNL     1      16.910  21.485  43.153  1.00  0.00    -0.285 OA
ATOM      5  C   UNL     1      16.872  21.439  45.486  1.00  0.00     0.111 A 
ATOM      6  C   UNL     1      16.558  20.055  45.634  1.00  0.00     0.134 A 
ATOM      7  C   UNL     1      16.589  19.471  46.906  1.00  0.00     0.093 A 
ATOM      8  C   UNL     1      16.857  20.237  48.043  1.00  0.00     0.123 A 
ATOM      9  C   UNL     1      17.107  21.601  47.915  1.00  0.00     0.094 A 
ATOM     10  C   UNL     1      17.119  22.205  46.655  1.00  0.00     0.146 A 
ATOM     11  O   UNL     1      17.372  23.505  46.577  1.00  0.00    -0.452 OA
ENDROOT
BRANCH   1  12
ATOM     12  C   UNL     1      17.695  25.629  45.482  1.00  0.00     0.025 A 
ATOM     13  C   UNL     1      16.872  26.495  46.220  1.00  0.00     0.016 A 
ATOM     14  C   UNL     1      17.155  27.861  46.274  1.00  0.00     0.051 A 
ATOM     15  C   UNL     1      18.265  28.388  45.606  1.00  0.00     0.157 A 
ATOM     16  C   UNL     1      18.822  26.152  44.830  1.00  0.00     0.062 A 
ATOM     17  C   UNL     1      19.113  27.521  44.876  1.00  0.00     0.158 A 
BRANCH  15  18
ATOM     18  O   UNL     1      18.489  29.763  45.695  1.00  0.00    -0.504 OA
ATOM     19  H   UNL     1      18.628  30.366  44.897  1.00  0.00     0.293 HD
ENDBRANCH  15  18
BRANCH  17  20
ATOM     20  O   UNL     1      20.244  27.970  44.193  1.00  0.00    -0.504 OA
ATOM     21  H   UNL     1      20.657  27.490  43.407  1.00  0.00     0.293 HD
ENDBRANCH  17  20
ENDBRANCH   1  12
BRANCH   2  22
ATOM     22  O   UNL     1      17.420  24.158  43.000  1.00  0.00    -0.502 OA
ATOM     23  H   UNL     1      18.195  23.984  42.373  1.00  0.00     0.293 HD
ENDBRANCH   2  22
BRANCH   6  24
ATOM     24  O   UNL     1      16.186  19.222  44.574  1.00  0.00    -0.507 OA
ATOM     25  H   UNL     1      16.708  18.414  44.268  1.00  0.00     0.293 HD
ENDBRANCH   6  24
BRANCH   8  26
ATOM     26  O   UNL     1      16.870  19.652  49.307  1.00  0.00    -0.508 OA
ATOM     27  H   UNL     1      16.865  18.646  49.425  1.00  0.00     0.293 HD
ENDBRANCH   8  26
TORSDOF 6
ENDMDL
MODEL 6
REMARK VINA RESULT:    -6.204      3.188      5.775
REMARK INTER + INTRA:          -7.782
REMARK INTER:                  -7.454
REMARK INTRA:                  -0.327
REMARK UNBOUND:                -0.308
REMARK SMILES O=c1c(O)c(-c2ccc(O)c(O)c2)oc2cc(O)cc(O)c12
REMARK SMILES IDX 5 1 3 2 2 3 1 4 22 5 20 6 19 7 17 8 16 9 15 10 14 11 6 12
REMARK SMILES IDX 7 13 8 14 9 15 13 16 11 17 10 18 12 20 4 22 21 24 18 26
REMARK H PARENT 10 19 12 21 4 23 21 25 18 27
REMARK Flexibility Score: inf
ROOT
ATOM      1  C   UNL     1      17.453  23.375  42.558  1.00  0.00     0.180 A 
ATOM      2  C   UNL     1      17.861  24.459  43.354  1.00  0.00     0.208 A 
ATOM      3  C   UNL     1      18.509  25.546  42.745  1.00  0.00     0.238 A 
ATOM      4  O   UNL     1      18.922  26.488  43.470  1.00  0.00    -0.285 OA
ATOM      5  C   UNL     1      18.726  25.543  41.345  1.00  0.00     0.111 A 
ATOM      6  C   UNL     1      19.336  26.608  40.617  1.00  0.00     0.134 A 
ATOM      7  C   UNL     1      19.618  26.441  39.256  1.00  0.00     0.093 A 
ATOM      8  C   UNL     1      19.251  25.274  38.582  1.00  0.00     0.123 A 
ATOM      9  C   UNL     1      18.603  24.253  39.271  1.00  0.00     0.094 A 
ATOM     10  C   UNL     1      18.340  24.374  40.638  1.00  0.00     0.146 A 
ATOM     11  O   UNL     1      17.729  23.373  41.259  1.00  0.00    -0.452 OA
ENDROOT
BRANCH   1  12
ATOM     12  C   UNL     1      16.742  22.206  43.123  1.00  0.00     0.025 A 
ATOM     13  C   UNL     1      15.340  22.149  43.156  1.00  0.00     0.016 A 
ATOM     14  C   UNL     1      14.691  21.025  43.672  1.00  0.00     0.051 A 
ATOM     15  C   UNL     1      15.424  19.935  44.153  1.00  0.00     0.157 A 
ATOM     16  C   UNL     1      17.479  21.105  43.584  1.00  0.00     0.062 A 
ATOM     17  C   UNL     1      16.838  19.973  44.105  1.00  0.00     0.158 A 
BRANCH  15  18
ATOM     18  O   UNL     1      14.716  18.845  44.660  1.00  0.00    -0.504 OA
ATOM     19  H   UNL     1      15.150  18.031  45.073  1.00  0.00     0.293 HD
ENDBRANCH  15  18
BRANCH  17  20
ATOM     20  O   UNL     1      17.637  18.921  44.555  1.00  0.00    -0.504 OA
ATOM     21  H   UNL     1      17.848  18.098  44.009  1.00  0.00     0.293 HD
ENDBRANCH  17  20
ENDBRANCH   1  12
BRANCH   2  22
ATOM     22  O   UNL     1      17.658  24.433  44.736  1.00  0.00    -0.502 OA
ATOM     23  H   UNL     1      16.817  24.792  45.169  1.00  0.00     0.293 HD
ENDBRANCH   2  22
BRANCH   6  24
ATOM     24  O   UNL     1      19.658  27.850  41.173  1.00  0.00    -0.507 OA
ATOM     25  H   UNL     1      18.996  28.595  41.335  1.00  0.00     0.293 HD
ENDBRANCH   6  24
BRANCH   8  26
ATOM     26  O   UNL     1      19.521  25.123  37.223  1.00  0.00    -0.508 OA
ATOM     27  H   UNL     1      19.816  25.905  36.652  1.00  0.00     0.293 HD
ENDBRANCH   8  26
TORSDOF 6
ENDMDL
MODEL 7
REMARK VINA RESULT:    -6.154      2.018      7.206
REMARK INTER + INTRA:          -7.721
REMARK INTER:                  -7.679
REMARK INTRA:                  -0.042
REMARK UNBOUND:                -0.308
REMARK SMILES O=c1c(O)c(-c2ccc(O)c(O)c2)oc2cc(O)cc(O)c12
REMARK SMILES IDX 5 1 3 2 2 3 1 4 22 5 20 6 19 7 17 8 16 9 15 10 14 11 6 12
REMARK SMILES IDX 7 13 8 14 9 15 13 16 11 17 10 18 12 20 4 22 21 24 18 26
REMARK H PARENT 10 19 12 21 4 23 21 25 18 27
REMARK Flexibility Score: inf
ROOT
ATOM      1  C   UNL     1      17.704  25.056  40.726  1.00  0.00     0.180 A 
ATOM      2  C   UNL     1      16.520  25.176  39.978  1.00  0.00     0.208 A 
ATOM      3  C   UNL     1      16.406  24.476  38.766  1.00  0.00     0.238 A 
ATOM      4  O   UNL     1      15.366  24.631  38.073  1.00  0.00    -0.285 OA
ATOM      5  C   UNL     1      17.470  23.652  38.325  1.00  0.00     0.111 A 
ATOM      6  C   UNL     1      17.447  22.866  37.134  1.00  0.00     0.134 A 
ATOM      7  C   UNL     1      18.605  22.191  36.729  1.00  0.00     0.093 A 
ATOM      8  C   UNL     1      19.764  22.220  37.508  1.00  0.00     0.123 A 
ATOM      9  C   UNL     1      19.778  22.937  38.702  1.00  0.00     0.094 A 
ATOM     10  C   UNL     1      18.650  23.650  39.114  1.00  0.00     0.146 A 
ATOM     11  O   UNL     1      18.709  24.327  40.254  1.00  0.00    -0.452 OA
ENDROOT
BRANCH   1  12
ATOM     12  C   UNL     1      17.889  25.743  42.025  1.00  0.00     0.025 A 
ATOM     13  C   UNL     1      16.939  25.630  43.053  1.00  0.00     0.016 A 
ATOM     14  C   UNL     1      17.146  26.267  44.278  1.00  0.00     0.051 A 
ATOM     15  C   UNL     1      18.305  27.017  44.506  1.00  0.00     0.157 A 
ATOM     16  C   UNL     1      19.062  26.476  42.259  1.00  0.00     0.062 A 
ATOM     17  C   UNL     1      19.279  27.119  43.484  1.00  0.00     0.158 A 
BRANCH  15  18
ATOM     18  O   UNL     1      18.449  27.633  45.750  1.00  0.00    -0.504 OA
ATOM     19  H   UNL     1      17.705  27.721  46.427  1.00  0.00     0.293 HD
ENDBRANCH  15  18
BRANCH  17  20
ATOM     20  O   UNL     1      20.464  27.840  43.641  1.00  0.00    -0.504 OA
ATOM     21  H   UNL     1      21.290  27.477  44.096  1.00  0.00     0.293 HD
ENDBRANCH  17  20
ENDBRANCH   1  12
BRANCH   2  22
ATOM     22  O   UNL     1      15.490  26.012  40.419  1.00  0.00    -0.502 OA
ATOM     23  H   UNL     1      15.105  26.750  39.844  1.00  0.00     0.293 HD
ENDBRANCH   2  22
BRANCH   6  24
ATOM     24  O   UNL     1      16.313  22.695  36.334  1.00  0.00    -0.507 OA
ATOM     25  H   UNL     1      15.424  23.146  36.493  1.00  0.00     0.293 HD
ENDBRANCH   6  24
BRANCH   8  26
ATOM     26  O   UNL     1      20.908  21.533  37.105  1.00  0.00    -0.508 OA
ATOM     27  H   UNL     1      21.247  20.726  37.614  1.00  0.00     0.293 HD
ENDBRANCH   8  26
TORSDOF 6
ENDMDL
MODEL 8
REMARK VINA RESULT:    -6.095      2.005      7.173
REMARK INTER + INTRA:          -7.650
REMARK INTER:                  -7.368
REMARK INTRA:                  -0.282
REMARK UNBOUND:                -0.308
REMARK SMILES O=c1c(O)c(-c2ccc(O)c(O)c2)oc2cc(O)cc(O)c12
REMARK SMILES IDX 5 1 3 2 2 3 1 4 22 5 20 6 19 7 17 8 16 9 15 10 14 11 6 12
REMARK SMILES IDX 7 13 8 14 9 15 13 16 11 17 10 18 12 20 4 22 21 24 18 26
REMARK H PARENT 10 19 12 21 4 23 21 25 18 27
REMARK Flexibility Score: inf
ROOT
ATOM      1  C   UNL     1      18.966  25.172  40.613  1.00  0.00     0.180 A 
ATOM      2  C   UNL     1      19.405  23.844  40.482  1.00  0.00     0.208 A 
ATOM      3  C   UNL     1      19.737  23.358  39.208  1.00  0.00     0.238 A 
ATOM      4  O   UNL     1      20.077  22.152  39.089  1.00  0.00    -0.285 OA
ATOM      5  C   UNL     1      19.642  24.211  38.081  1.00  0.00     0.111 A 
ATOM      6  C   UNL     1      19.991  23.837  36.749  1.00  0.00     0.134 A 
ATOM      7  C   UNL     1      19.733  24.720  35.693  1.00  0.00     0.093 A 
ATOM      8  C   UNL     1      19.200  25.989  35.930  1.00  0.00     0.123 A 
ATOM      9  C   UNL     1      18.911  26.386  37.234  1.00  0.00     0.094 A 
ATOM     10  C   UNL     1      19.123  25.514  38.304  1.00  0.00     0.146 A 
ATOM     11  O   UNL     1      18.825  25.928  39.529  1.00  0.00    -0.452 OA
ENDROOT
BRANCH   1  12
ATOM     12  C   UNL     1      18.622  25.764  41.926  1.00  0.00     0.025 A 
ATOM     13  C   UNL     1      17.399  25.482  42.556  1.00  0.00     0.016 A 
ATOM     14  C   UNL     1      17.107  26.033  43.806  1.00  0.00     0.051 A 
ATOM     15  C   UNL     1      18.028  26.862  44.455  1.00  0.00     0.157 A 
ATOM     16  C   UNL     1      19.556  26.577  42.585  1.00  0.00     0.062 A 
ATOM     17  C   UNL     1      19.271  27.135  43.837  1.00  0.00     0.158 A 
BRANCH  15  18
ATOM     18  O   UNL     1      17.672  27.384  45.699  1.00  0.00    -0.504 OA
ATOM     19  H   UNL     1      18.328  27.792  46.350  1.00  0.00     0.293 HD
ENDBRANCH  15  18
BRANCH  17  20
ATOM     20  O   UNL     1      20.245  27.944  44.427  1.00  0.00    -0.504 OA
ATOM     21  H   UNL     1      20.802  28.618  43.921  1.00  0.00     0.293 HD
ENDBRANCH  17  20
ENDBRANCH   1  12
BRANCH   2  22
ATOM     22  O   UNL     1      19.471  23.012  41.603  1.00  0.00    -0.502 OA
ATOM     23  H   UNL     1      19.116  22.064  41.599  1.00  0.00     0.293 HD
ENDBRANCH   2  22
BRANCH   6  24
ATOM     24  O   UNL     1      20.614  22.631  36.415  1.00  0.00    -0.507 OA
ATOM     25  H   UNL     1      20.137  21.746  36.317  1.00  0.00     0.293 HD
ENDBRANCH   6  24
BRANCH   8  26
ATOM     26  O   UNL     1      18.961  26.868  34.876  1.00  0.00    -0.508 OA
ATOM     27  H   UNL     1      19.720  27.268  34.337  1.00  0.00     0.293 HD
ENDBRANCH   8  26
TORSDOF 6
ENDMDL
MODEL 9
REMARK VINA RESULT:    -6.042      2.699      6.909
REMARK INTER + INTRA:          -7.586
REMARK INTER:                  -7.433
REMARK INTRA:                  -0.154
REMARK UNBOUND:                -0.308
REMARK SMILES O=c1c(O)c(-c2ccc(O)c(O)c2)oc2cc(O)cc(O)c12
REMARK SMILES IDX 5 1 3 2 2 3 1 4 22 5 20 6 19 7 17 8 16 9 15 10 14 11 6 12
REMARK SMILES IDX 7 13 8 14 9 15 13 16 11 17 10 18 12 20 4 22 21 24 18 26
REMARK H PARENT 10 19 12 21 4 23 21 25 18 27
REMARK Flexibility Score: inf
ROOT
ATOM      1  C   UNL     1      18.020  26.010  43.921  1.00  0.00     0.180 A 
ATOM      2  C   UNL     1      19.249  26.688  43.848  1.00  0.00     0.208 A 
ATOM      3  C   UNL     1      19.831  26.912  42.590  1.00  0.00     0.238 A 
ATOM      4  O   UNL     1      20.958  27.470  42.535  1.00  0.00    -0.285 OA
ATOM      5  C   UNL     1      19.169  26.471  41.419  1.00  0.00     0.111 A 
ATOM      6  C   UNL     1      19.646  26.679  40.090  1.00  0.00     0.134 A 
ATOM      7  C   UNL     1      18.975  26.085  39.014  1.00  0.00     0.093 A 
ATOM      8  C   UNL     1      17.807  25.345  39.213  1.00  0.00     0.123 A 
ATOM      9  C   UNL     1      17.301  25.186  40.501  1.00  0.00     0.094 A 
ATOM     10  C   UNL     1      17.967  25.736  41.599  1.00  0.00     0.146 A 
ATOM     11  O   UNL     1      17.456  25.551  42.809  1.00  0.00    -0.452 OA
ENDROOT
BRANCH   1  12
ATOM     12  C   UNL     1      17.333  25.759  45.208  1.00  0.00     0.025 A 
ATOM     13  C   UNL     1      17.157  24.456  45.700  1.00  0.00     0.016 A 
ATOM     14  C   UNL     1      16.527  24.245  46.928  1.00  0.00     0.051 A 
ATOM     15  C   UNL     1      16.072  25.324  47.693  1.00  0.00     0.157 A 
ATOM     16  C   UNL     1      16.897  26.844  45.983  1.00  0.00     0.062 A 
ATOM     17  C   UNL     1      16.263  26.643  47.216  1.00  0.00     0.158 A 
BRANCH  15  18
ATOM     18  O   UNL     1      15.446  25.045  48.909  1.00  0.00    -0.504 OA
ATOM     19  H   UNL     1      15.390  24.122  49.317  1.00  0.00     0.293 HD
ENDBRANCH  15  18
BRANCH  17  20
ATOM     20  O   UNL     1      15.846  27.770  47.926  1.00  0.00    -0.504 OA
ATOM     21  H   UNL     1      15.089  27.768  48.595  1.00  0.00     0.293 HD
ENDBRANCH  17  20
ENDBRANCH   1  12
BRANCH   2  22
ATOM     22  O   UNL     1      19.897  27.096  45.018  1.00  0.00    -0.502 OA
ATOM     23  H   UNL     1      19.900  28.058  45.330  1.00  0.00     0.293 HD
ENDBRANCH   2  22
BRANCH   6  24
ATOM     24  O   UNL     1      20.749  27.477  39.774  1.00  0.00    -0.507 OA
ATOM     25  H   UNL     1      20.841  28.020  38.928  1.00  0.00     0.293 HD
ENDBRANCH   6  24
BRANCH   8  26
ATOM     26  O   UNL     1      17.138  24.770  38.135  1.00  0.00    -0.508 OA
ATOM     27  H   UNL     1      16.918  23.782  38.114  1.00  0.00     0.293 HD
ENDBRANCH   8  26
TORSDOF 6
ENDMDL
