MODEL 1
REMARK VINA RESULT:    -4.653      0.000      0.000
REMARK INTER + INTRA:          -7.883
REMARK INTER:                  -7.374
REMARK INTRA:                  -0.509
REMARK UNBOUND:                -0.509
REMARK SMILES CCCCCCCCCCCC(=O)[O-]
REMARK SMILES IDX 7 1 8 2 9 3 10 4 11 5 12 6 13 7 14 8 6 9 5 10 4 11 3 12 2 13
REMARK SMILES IDX 1 14
REMARK H PARENT
REMARK Flexibility Score: inf
ROOT
ATOM      1  C   UNL     1       3.180 -37.311  19.447  1.00  0.00     0.000 C 
ENDROOT
BRANCH   1   2
ATOM      2  C   UNL     1       4.607 -37.007  19.927  1.00  0.00     0.000 C 
BRANCH   2   3
ATOM      3  C   UNL     1       4.736 -35.607  20.548  1.00  0.00     0.000 C 
BRANCH   3   4
ATOM      4  C   UNL     1       6.025 -35.441  21.372  1.00  0.00     0.006 C 
BRANCH   4   5
ATOM      5  C   UNL     1       5.999 -36.272  22.661  1.00  0.00     0.053 C 
BRANCH   5   6
ATOM      6  C   UNL     1       5.788 -35.413  23.869  1.00  0.00     0.041 C 
ATOM      7  O   UNL     1       5.943 -34.165  23.796  1.00  0.00    -0.550 OA
ATOM      8  O   UNL     1       5.388 -35.988  25.069  1.00  0.00    -0.550 OA
ENDBRANCH   5   6
ENDBRANCH   4   5
ENDBRANCH   3   4
ENDBRANCH   2   3
ENDBRANCH   1   2
BRANCH   1   9
ATOM      9  C   UNL     1       3.140 -37.481  17.919  1.00  0.00     0.000 C 
BRANCH   9  10
ATOM     10  C   UNL     1       1.915 -36.800  17.280  1.00  0.00    -0.000 C 
BRANCH  10  11
ATOM     11  C   UNL     1       2.004 -36.683  15.747  1.00  0.00    -0.000 C 
BRANCH  11  12
ATOM     12  C   UNL     1       3.434 -36.378  15.243  1.00  0.00    -0.000 C 
BRANCH  12  13
ATOM     13  C   UNL     1       3.806 -37.142  13.961  1.00  0.00    -0.003 C 
ATOM     14  C   UNL     1       4.276 -38.569  14.237  1.00  0.00     0.004 C 
ENDBRANCH  12  13
ENDBRANCH  11  12
ENDBRANCH  10  11
ENDBRANCH   9  10
ENDBRANCH   1   9
TORSDOF 10
ENDMDL
MODEL 2
REMARK VINA RESULT:    -4.333      3.972      7.765
REMARK INTER + INTRA:          -7.375
REMARK INTER:                  -6.733
REMARK INTRA:                  -0.643
REMARK UNBOUND:                -0.509
REMARK SMILES CCCCCCCCCCCC(=O)[O-]
REMARK SMILES IDX 7 1 8 2 9 3 10 4 11 5 12 6 13 7 14 8 6 9 5 10 4 11 3 12 2 13
REMARK SMILES IDX 1 14
REMARK H PARENT
REMARK Flexibility Score: inf
ROOT
ATOM      1  C   UNL     1       3.707 -35.929  20.657  1.00  0.00     0.000 C 
ENDROOT
BRANCH   1   2
ATOM      2  C   UNL     1       3.285 -37.280  20.060  1.00  0.00     0.000 C 
BRANCH   2   3
ATOM      3  C   UNL     1       3.807 -37.483  18.629  1.00  0.00     0.000 C 
BRANCH   3   4
ATOM      4  C   UNL     1       2.685 -37.445  17.577  1.00  0.00     0.006 C 
BRANCH   4   5
ATOM      5  C   UNL     1       2.929 -36.370  16.509  1.00  0.00     0.053 C 
BRANCH   5   6
ATOM      6  C   UNL     1       3.058 -36.968  15.142  1.00  0.00     0.041 C 
ATOM      7  O   UNL     1       3.752 -38.004  14.965  1.00  0.00    -0.550 OA
ATOM      8  O   UNL     1       2.384 -36.400  14.068  1.00  0.00    -0.550 OA
ENDBRANCH   5   6
ENDBRANCH   4   5
ENDBRANCH   3   4
ENDBRANCH   2   3
ENDBRANCH   1   2
BRANCH   1   9
ATOM      9  C   UNL     1       5.029 -35.445  20.039  1.00  0.00     0.000 C 
BRANCH   9  10
ATOM     10  C   UNL     1       6.125 -35.209  21.096  1.00  0.00    -0.000 C 
BRANCH  10  11
ATOM     11  C   UNL     1       5.748 -35.718  22.500  1.00  0.00    -0.000 C 
BRANCH  11  12
ATOM     12  C   UNL     1       5.920 -34.647  23.602  1.00  0.00    -0.000 C 
BRANCH  12  13
ATOM     13  C   UNL     1       6.035 -35.238  25.017  1.00  0.00    -0.003 C 
ATOM     14  C   UNL     1       5.819 -36.750  25.047  1.00  0.00     0.004 C 
ENDBRANCH  12  13
ENDBRANCH  11  12
ENDBRANCH  10  11
ENDBRANCH   9  10
ENDBRANCH   1   9
TORSDOF 10
ENDMDL
MODEL 3
REMARK VINA RESULT:    -4.310      3.977      7.944
REMARK INTER + INTRA:          -7.338
REMARK INTER:                  -6.850
REMARK INTRA:                  -0.488
REMARK UNBOUND:                -0.509
REMARK SMILES CCCCCCCCCCCC(=O)[O-]
REMARK SMILES IDX 7 1 8 2 9 3 10 4 11 5 12 6 13 7 14 8 6 9 5 10 4 11 3 12 2 13
REMARK SMILES IDX 1 14
REMARK H PARENT
REMARK Flexibility Score: inf
ROOT
ATOM      1  C   UNL     1       5.197 -35.799  19.801  1.00  0.00     0.000 C 
ENDROOT
BRANCH   1   2
ATOM      2  C   UNL     1       3.849 -36.461  20.124  1.00  0.00     0.000 C 
BRANCH   2   3
ATOM      3  C   UNL     1       3.247 -37.197  18.916  1.00  0.00     0.000 C 
BRANCH   3   4
ATOM      4  C   UNL     1       3.634 -36.550  17.575  1.00  0.00     0.006 C 
BRANCH   4   5
ATOM      5  C   UNL     1       2.534 -36.710  16.517  1.00  0.00     0.053 C 
BRANCH   5   6
ATOM      6  C   UNL     1       3.102 -37.063  15.178  1.00  0.00     0.041 C 
ATOM      7  O   UNL     1       2.928 -36.298  14.192  1.00  0.00    -0.550 OA
ATOM      8  O   UNL     1       3.854 -38.221  15.025  1.00  0.00    -0.550 OA
ENDBRANCH   5   6
ENDBRANCH   4   5
ENDBRANCH   3   4
ENDBRANCH   2   3
ENDBRANCH   1   2
BRANCH   1   9
ATOM      9  C   UNL     1       6.070 -35.688  21.062  1.00  0.00     0.000 C 
BRANCH   9  10
ATOM     10  C   UNL     1       5.259 -35.291  22.310  1.00  0.00    -0.000 C 
BRANCH  10  11
ATOM     11  C   UNL     1       6.029 -34.375  23.280  1.00  0.00    -0.000 C 
BRANCH  11  12
ATOM     12  C   UNL     1       6.125 -34.950  24.712  1.00  0.00    -0.000 C 
BRANCH  12  13
ATOM     13  C   UNL     1       5.974 -36.479  24.768  1.00  0.00    -0.003 C 
ATOM     14  C   UNL     1       5.012 -36.940  25.861  1.00  0.00     0.004 C 
ENDBRANCH  12  13
ENDBRANCH  11  12
ENDBRANCH  10  11
ENDBRANCH   9  10
ENDBRANCH   1   9
TORSDOF 10
ENDMDL
MODEL 4
REMARK VINA RESULT:    -4.270      4.116      7.699
REMARK INTER + INTRA:          -7.276
REMARK INTER:                  -6.806
REMARK INTRA:                  -0.470
REMARK UNBOUND:                -0.509
REMARK SMILES CCCCCCCCCCCC(=O)[O-]
REMARK SMILES IDX 7 1 8 2 9 3 10 4 11 5 12 6 13 7 14 8 6 9 5 10 4 11 3 12 2 13
REMARK SMILES IDX 1 14
REMARK H PARENT
REMARK Flexibility Score: inf
ROOT
ATOM      1  C   UNL     1       2.975 -37.345  19.740  1.00  0.00     0.000 C 
ENDROOT
BRANCH   1   2
ATOM      2  C   UNL     1       2.539 -37.448  18.271  1.00  0.00     0.000 C 
BRANCH   2   3
ATOM      3  C   UNL     1       3.508 -36.734  17.315  1.00  0.00     0.000 C 
BRANCH   3   4
ATOM      4  C   UNL     1       2.791 -36.087  16.118  1.00  0.00     0.006 C 
BRANCH   4   5
ATOM      5  C   UNL     1       2.581 -37.078  14.965  1.00  0.00     0.053 C 
BRANCH   5   6
ATOM      6  C   UNL     1       3.882 -37.499  14.354  1.00  0.00     0.041 C 
ATOM      7  O   UNL     1       4.668 -36.639  13.877  1.00  0.00    -0.550 OA
ATOM      8  O   UNL     1       4.242 -38.841  14.342  1.00  0.00    -0.550 OA
ENDBRANCH   5   6
ENDBRANCH   4   5
ENDBRANCH   3   4
ENDBRANCH   2   3
ENDBRANCH   1   2
BRANCH   1   9
ATOM      9  C   UNL     1       4.462 -36.971  19.846  1.00  0.00     0.000 C 
BRANCH   9  10
ATOM     10  C   UNL     1       4.685 -35.628  20.569  1.00  0.00    -0.000 C 
BRANCH  10  11
ATOM     11  C   UNL     1       6.040 -35.536  21.295  1.00  0.00    -0.000 C 
BRANCH  11  12
ATOM     12  C   UNL     1       6.072 -36.323  22.625  1.00  0.00    -0.000 C 
BRANCH  12  13
ATOM     13  C   UNL     1       6.107 -35.420  23.869  1.00  0.00    -0.003 C 
ATOM     14  C   UNL     1       6.009 -36.205  25.175  1.00  0.00     0.004 C 
ENDBRANCH  12  13
ENDBRANCH  11  12
ENDBRANCH  10  11
ENDBRANCH   9  10
ENDBRANCH   1   9
TORSDOF 10
ENDMDL
MODEL 5
REMARK VINA RESULT:    -3.710      1.034      1.584
REMARK INTER + INTRA:          -6.387
REMARK INTER:                  -6.131
REMARK INTRA:                  -0.257
REMARK UNBOUND:                -0.509
REMARK SMILES CCCCCCCCCCCC(=O)[O-]
REMARK SMILES IDX 7 1 8 2 9 3 10 4 11 5 12 6 13 7 14 8 6 9 5 10 4 11 3 12 2 13
REMARK SMILES IDX 1 14
REMARK H PARENT
REMARK Flexibility Score: inf
ROOT
ATOM      1  C   UNL     1       3.665 -36.543  20.596  1.00  0.00     0.000 C 
ENDROOT
BRANCH   1   2
ATOM      2  C   UNL     1       4.640 -35.536  19.967  1.00  0.00     0.000 C 
BRANCH   2   3
ATOM      3  C   UNL     1       5.870 -35.273  20.849  1.00  0.00     0.000 C 
BRANCH   3   4
ATOM      4  C   UNL     1       5.846 -36.083  22.157  1.00  0.00     0.006 C 
BRANCH   4   5
ATOM      5  C   UNL     1       5.753 -35.180  23.395  1.00  0.00     0.053 C 
BRANCH   5   6
ATOM      6  C   UNL     1       5.872 -35.967  24.663  1.00  0.00     0.041 C 
ATOM      7  O   UNL     1       6.125 -35.385  25.751  1.00  0.00    -0.550 OA
ATOM      8  O   UNL     1       5.670 -37.342  24.649  1.00  0.00    -0.550 OA
ENDBRANCH   5   6
ENDBRANCH   4   5
ENDBRANCH   3   4
ENDBRANCH   2   3
ENDBRANCH   1   2
BRANCH   1   9
ATOM      9  C   UNL     1       2.780 -37.194  19.521  1.00  0.00     0.000 C 
BRANCH   9  10
ATOM     10  C   UNL     1       3.549 -37.489  18.219  1.00  0.00    -0.000 C 
BRANCH  10  11
ATOM     11  C   UNL     1       3.346 -36.420  17.128  1.00  0.00    -0.000 C 
BRANCH  11  12
ATOM     12  C   UNL     1       2.189 -36.754  16.158  1.00  0.00    -0.000 C 
BRANCH  12  13
ATOM     13  C   UNL     1       2.496 -36.396  14.694  1.00  0.00    -0.003 C 
ATOM     14  C   UNL     1       3.609 -37.253  14.095  1.00  0.00     0.004 C 
ENDBRANCH  12  13
ENDBRANCH  11  12
ENDBRANCH  10  11
ENDBRANCH   9  10
ENDBRANCH   1   9
TORSDOF 10
ENDMDL
MODEL 6
REMARK VINA RESULT:    -2.858      3.072      6.757
REMARK INTER + INTRA:          -5.037
REMARK INTER:                  -4.563
REMARK INTRA:                  -0.474
REMARK UNBOUND:                -0.509
REMARK SMILES CCCCCCCCCCCC(=O)[O-]
REMARK SMILES IDX 7 1 8 2 9 3 10 4 11 5 12 6 13 7 14 8 6 9 5 10 4 11 3 12 2 13
REMARK SMILES IDX 1 14
REMARK H PARENT
REMARK Flexibility Score: inf
ROOT
ATOM      1  C   UNL     1       4.902 -34.595  18.053  1.00  0.00     0.000 C 
ENDROOT
BRANCH   1   2
ATOM      2  C   UNL     1       4.220 -35.931  17.726  1.00  0.00     0.000 C 
BRANCH   2   3
ATOM      3  C   UNL     1       3.400 -35.875  16.427  1.00  0.00     0.000 C 
BRANCH   3   4
ATOM      4  C   UNL     1       2.026 -36.552  16.564  1.00  0.00     0.006 C 
BRANCH   4   5
ATOM      5  C   UNL     1       2.084 -37.806  17.446  1.00  0.00     0.053 C 
BRANCH   5   6
ATOM      6  C   UNL     1       1.401 -37.590  18.762  1.00  0.00     0.041 C 
ATOM      7  O   UNL     1       0.146 -37.510  18.820  1.00  0.00    -0.550 OA
ATOM      8  O   UNL     1       2.151 -37.509  19.929  1.00  0.00    -0.550 OA
ENDBRANCH   5   6
ENDBRANCH   4   5
ENDBRANCH   3   4
ENDBRANCH   2   3
ENDBRANCH   1   2
BRANCH   1   9
ATOM      9  C   UNL     1       5.719 -34.699  19.352  1.00  0.00     0.000 C 
BRANCH   9  10
ATOM     10  C   UNL     1       4.906 -35.299  20.515  1.00  0.00    -0.000 C 
BRANCH  10  11
ATOM     11  C   UNL     1       5.527 -36.579  21.105  1.00  0.00    -0.000 C 
BRANCH  11  12
ATOM     12  C   UNL     1       5.713 -36.514  22.638  1.00  0.00    -0.000 C 
BRANCH  12  13
ATOM     13  C   UNL     1       6.123 -35.121  23.146  1.00  0.00    -0.003 C 
ATOM     14  C   UNL     1       6.125 -35.022  24.670  1.00  0.00     0.004 C 
ENDBRANCH  12  13
ENDBRANCH  11  12
ENDBRANCH  10  11
ENDBRANCH   9  10
ENDBRANCH   1   9
TORSDOF 10
ENDMDL
MODEL 7
REMARK VINA RESULT:    -2.816      3.291      4.295
REMARK INTER + INTRA:          -4.972
REMARK INTER:                  -4.109
REMARK INTRA:                  -0.863
REMARK UNBOUND:                -0.509
REMARK SMILES CCCCCCCCCCCC(=O)[O-]
REMARK SMILES IDX 7 1 8 2 9 3 10 4 11 5 12 6 13 7 14 8 6 9 5 10 4 11 3 12 2 13
REMARK SMILES IDX 1 14
REMARK H PARENT
REMARK Flexibility Score: inf
ROOT
ATOM      1  C   UNL     1       5.026 -35.179  19.878  1.00  0.00     0.000 C 
ENDROOT
BRANCH   1   2
ATOM      2  C   UNL     1       5.698 -36.513  20.236  1.00  0.00     0.000 C 
BRANCH   2   3
ATOM      3  C   UNL     1       4.706 -37.687  20.266  1.00  0.00     0.000 C 
BRANCH   3   4
ATOM      4  C   UNL     1       3.239 -37.223  20.251  1.00  0.00     0.006 C 
BRANCH   4   5
ATOM      5  C   UNL     1       2.423 -37.919  19.153  1.00  0.00     0.053 C 
BRANCH   5   6
ATOM      6  C   UNL     1       0.974 -37.546  19.220  1.00  0.00     0.041 C 
ATOM      7  O   UNL     1       0.250 -37.626  18.193  1.00  0.00    -0.550 OA
ATOM      8  O   UNL     1       0.416 -37.142  20.427  1.00  0.00    -0.550 OA
ENDBRANCH   5   6
ENDBRANCH   4   5
ENDBRANCH   3   4
ENDBRANCH   2   3
ENDBRANCH   1   2
BRANCH   1   9
ATOM      9  C   UNL     1       5.381 -34.753  18.445  1.00  0.00     0.000 C 
BRANCH   9  10
ATOM     10  C   UNL     1       4.154 -34.727  17.513  1.00  0.00    -0.000 C 
BRANCH  10  11
ATOM     11  C   UNL     1       3.865 -36.080  16.836  1.00  0.00    -0.000 C 
BRANCH  11  12
ATOM     12  C   UNL     1       2.574 -36.070  15.986  1.00  0.00    -0.000 C 
BRANCH  12  13
ATOM     13  C   UNL     1       2.801 -36.491  14.524  1.00  0.00    -0.003 C 
ATOM     14  C   UNL     1       3.921 -37.518  14.371  1.00  0.00     0.004 C 
ENDBRANCH  12  13
ENDBRANCH  11  12
ENDBRANCH  10  11
ENDBRANCH   9  10
ENDBRANCH   1   9
TORSDOF 10
ENDMDL
MODEL 8
REMARK VINA RESULT:    -2.702      4.616      7.474
REMARK INTER + INTRA:          -4.791
REMARK INTER:                  -4.315
REMARK INTRA:                  -0.476
REMARK UNBOUND:                -0.509
REMARK SMILES CCCCCCCCCCCC(=O)[O-]
REMARK SMILES IDX 7 1 8 2 9 3 10 4 11 5 12 6 13 7 14 8 6 9 5 10 4 11 3 12 2 13
REMARK SMILES IDX 1 14
REMARK H PARENT
REMARK Flexibility Score: inf
ROOT
ATOM      1  C   UNL     1       4.966 -37.484  19.883  1.00  0.00     0.000 C 
ENDROOT
BRANCH   1   2
ATOM      2  C   UNL     1       3.715 -36.634  19.615  1.00  0.00     0.000 C 
BRANCH   2   3
ATOM      3  C   UNL     1       2.468 -37.489  19.337  1.00  0.00     0.000 C 
BRANCH   3   4
ATOM      4  C   UNL     1       1.955 -37.337  17.894  1.00  0.00     0.006 C 
BRANCH   4   5
ATOM      5  C   UNL     1       3.080 -37.483  16.862  1.00  0.00     0.053 C 
BRANCH   5   6
ATOM      6  C   UNL     1       2.798 -36.693  15.621  1.00  0.00     0.041 C 
ATOM      7  O   UNL     1       2.092 -35.651  15.678  1.00  0.00    -0.550 OA
ATOM      8  O   UNL     1       3.343 -37.089  14.406  1.00  0.00    -0.550 OA
ENDBRANCH   5   6
ENDBRANCH   4   5
ENDBRANCH   3   4
ENDBRANCH   2   3
ENDBRANCH   1   2
BRANCH   1   9
ATOM      9  C   UNL     1       5.551 -37.174  21.271  1.00  0.00     0.000 C 
BRANCH   9  10
ATOM     10  C   UNL     1       5.694 -38.433  22.147  1.00  0.00    -0.000 C 
BRANCH  10  11
ATOM     11  C   UNL     1       5.453 -39.748  21.381  1.00  0.00    -0.000 C 
BRANCH  11  12
ATOM     12  C   UNL     1       6.125 -40.971  22.047  1.00  0.00    -0.000 C 
BRANCH  12  13
ATOM     13  C   UNL     1       5.662 -41.211  23.494  1.00  0.00    -0.003 C 
ATOM     14  C   UNL     1       5.992 -42.615  23.997  1.00  0.00     0.004 C 
ENDBRANCH  12  13
ENDBRANCH  11  12
ENDBRANCH  10  11
ENDBRANCH   9  10
ENDBRANCH   1   9
TORSDOF 10
ENDMDL
