MODEL 1
REMARK VINA RESULT:    -6.684      0.000      0.000
REMARK INTER + INTRA:          -8.460
REMARK INTER:                  -8.051
REMARK INTRA:                  -0.408
REMARK UNBOUND:                -0.408
REMARK SMILES O=c1c(O)c(-c2ccc(O)cc2O)oc2cc(O)cc(O)c12
REMARK SMILES IDX 5 1 3 2 2 3 1 4 22 5 20 6 19 7 17 8 16 9 15 10 14 11 6 12
REMARK SMILES IDX 8 13 7 14 9 15 11 16 12 17 10 18 13 20 4 22 21 24 18 26
REMARK H PARENT 10 19 13 21 4 23 21 25 18 27
REMARK Flexibility Score: inf
ROOT
ATOM      1  C   UNL     1      67.993  48.131   9.010  1.00  0.00     0.184 A 
ATOM      2  C   UNL     1      67.006  48.952   9.585  1.00  0.00     0.208 A 
ATOM      3  C   UNL     1      65.676  48.503   9.601  1.00  0.00     0.238 A 
ATOM      4  O   UNL     1      64.785  49.225  10.123  1.00  0.00    -0.285 OA
ATOM      5  C   UNL     1      65.356  47.257   9.025  1.00  0.00     0.111 A 
ATOM      6  C   UNL     1      64.041  46.732   8.996  1.00  0.00     0.134 A 
ATOM      7  C   UNL     1      63.801  45.488   8.397  1.00  0.00     0.093 A 
ATOM      8  C   UNL     1      64.850  44.757   7.826  1.00  0.00     0.123 A 
ATOM      9  C   UNL     1      66.148  45.269   7.853  1.00  0.00     0.094 A 
ATOM     10  C   UNL     1      66.409  46.507   8.447  1.00  0.00     0.146 A 
ATOM     11  O   UNL     1      67.654  46.968   8.463  1.00  0.00    -0.451 OA
ENDROOT
BRANCH   1  12
ATOM     12  C   UNL     1      69.414  48.538   8.971  1.00  0.00     0.063 A 
ATOM     13  C   UNL     1      71.542  48.758  10.125  1.00  0.00     0.047 A 
ATOM     14  C   UNL     1      70.198  48.379  10.124  1.00  0.00     0.020 A 
ATOM     15  C   UNL     1      72.116  49.313   8.978  1.00  0.00     0.119 A 
ATOM     16  C   UNL     1      71.336  49.499   7.830  1.00  0.00     0.093 A 
ATOM     17  C   UNL     1      69.984  49.126   7.823  1.00  0.00     0.130 A 
BRANCH  15  18
ATOM     18  O   UNL     1      73.459  49.684   8.991  1.00  0.00    -0.508 OA
ATOM     19  H   UNL     1      74.194  49.006   9.155  1.00  0.00     0.293 HD
ENDBRANCH  15  18
BRANCH  17  20
ATOM     20  O   UNL     1      69.204  49.359   6.690  1.00  0.00    -0.507 OA
ATOM     21  H   UNL     1      69.462  50.059   6.002  1.00  0.00     0.293 HD
ENDBRANCH  17  20
ENDBRANCH   1  12
BRANCH   2  22
ATOM     22  O   UNL     1      67.349  50.202  10.106  1.00  0.00    -0.502 OA
ATOM     23  H   UNL     1      67.653  50.970   9.519  1.00  0.00     0.293 HD
ENDBRANCH   2  22
BRANCH   6  24
ATOM     24  O   UNL     1      62.975  47.438   9.555  1.00  0.00    -0.507 OA
ATOM     25  H   UNL     1      63.088  48.003  10.389  1.00  0.00     0.293 HD
ENDBRANCH   6  24
BRANCH   8  26
ATOM     26  O   UNL     1      64.612  43.521   7.230  1.00  0.00    -0.508 OA
ATOM     27  H   UNL     1      64.192  43.447   6.312  1.00  0.00     0.293 HD
ENDBRANCH   8  26
TORSDOF 6
ENDMDL
MODEL 2
REMARK VINA RESULT:    -6.658      5.516      7.585
REMARK INTER + INTRA:          -8.429
REMARK INTER:                  -8.015
REMARK INTRA:                  -0.414
REMARK UNBOUND:                -0.408
REMARK SMILES O=c1c(O)c(-c2ccc(O)cc2O)oc2cc(O)cc(O)c12
REMARK SMILES IDX 5 1 3 2 2 3 1 4 22 5 20 6 19 7 17 8 16 9 15 10 14 11 6 12
REMARK SMILES IDX 8 13 7 14 9 15 11 16 12 17 10 18 13 20 4 22 21 24 18 26
REMARK H PARENT 10 19 13 21 4 23 21 25 18 27
REMARK Flexibility Score: inf
ROOT
ATOM      1  C   UNL     1      72.244  46.343   5.162  1.00  0.00     0.184 A 
ATOM      2  C   UNL     1      71.866  47.078   6.300  1.00  0.00     0.208 A 
ATOM      3  C   UNL     1      71.192  48.297   6.127  1.00  0.00     0.238 A 
ATOM      4  O   UNL     1      70.839  48.959   7.139  1.00  0.00    -0.285 OA
ATOM      5  C   UNL     1      70.928  48.766   4.824  1.00  0.00     0.111 A 
ATOM      6  C   UNL     1      70.257  49.986   4.562  1.00  0.00     0.134 A 
ATOM      7  C   UNL     1      70.041  50.389   3.236  1.00  0.00     0.093 A 
ATOM      8  C   UNL     1      70.481  49.598   2.169  1.00  0.00     0.123 A 
ATOM      9  C   UNL     1      71.141  48.395   2.422  1.00  0.00     0.094 A 
ATOM     10  C   UNL     1      71.366  47.974   3.736  1.00  0.00     0.146 A 
ATOM     11  O   UNL     1      71.993  46.823   3.948  1.00  0.00    -0.451 OA
ENDROOT
BRANCH   1  12
ATOM     12  C   UNL     1      72.946  45.047   5.274  1.00  0.00     0.063 A 
ATOM     13  C   UNL     1      74.983  43.827   5.795  1.00  0.00     0.047 A 
ATOM     14  C   UNL     1      74.288  45.034   5.684  1.00  0.00     0.020 A 
ATOM     15  C   UNL     1      74.350  42.620   5.484  1.00  0.00     0.119 A 
ATOM     16  C   UNL     1      73.019  42.624   5.050  1.00  0.00     0.093 A 
ATOM     17  C   UNL     1      72.316  43.833   4.931  1.00  0.00     0.130 A 
BRANCH  15  18
ATOM     18  O   UNL     1      75.055  41.424   5.603  1.00  0.00    -0.508 OA
ATOM     19  H   UNL     1      76.067  41.403   5.596  1.00  0.00     0.293 HD
ENDBRANCH  15  18
BRANCH  17  20
ATOM     20  O   UNL     1      71.005  43.829   4.452  1.00  0.00    -0.507 OA
ATOM     21  H   UNL     1      70.345  44.557   4.702  1.00  0.00     0.293 HD
ENDBRANCH  17  20
ENDBRANCH   1  12
BRANCH   2  22
ATOM     22  O   UNL     1      72.183  46.607   7.577  1.00  0.00    -0.502 OA
ATOM     23  H   UNL     1      72.764  45.791   7.725  1.00  0.00     0.293 HD
ENDBRANCH   2  22
BRANCH   6  24
ATOM     24  O   UNL     1      69.808  50.797   5.604  1.00  0.00    -0.507 OA
ATOM     25  H   UNL     1      70.422  51.085   6.358  1.00  0.00     0.293 HD
ENDBRANCH   6  24
BRANCH   8  26
ATOM     26  O   UNL     1      70.265  49.999   0.852  1.00  0.00    -0.508 OA
ATOM     27  H   UNL     1      69.901  49.360   0.156  1.00  0.00     0.293 HD
ENDBRANCH   8  26
TORSDOF 6
ENDMDL
MODEL 3
REMARK VINA RESULT:    -6.362      2.076      7.018
REMARK INTER + INTRA:          -8.072
REMARK INTER:                  -7.829
REMARK INTRA:                  -0.244
REMARK UNBOUND:                -0.408
REMARK SMILES O=c1c(O)c(-c2ccc(O)cc2O)oc2cc(O)cc(O)c12
REMARK SMILES IDX 5 1 3 2 2 3 1 4 22 5 20 6 19 7 17 8 16 9 15 10 14 11 6 12
REMARK SMILES IDX 8 13 7 14 9 15 11 16 12 17 10 18 13 20 4 22 21 24 18 26
REMARK H PARENT 10 19 13 21 4 23 21 25 18 27
REMARK Flexibility Score: inf
ROOT
ATOM      1  C   UNL     1      69.380  48.174   7.872  1.00  0.00     0.184 A 
ATOM      2  C   UNL     1      69.731  48.472   6.543  1.00  0.00     0.208 A 
ATOM      3  C   UNL     1      71.078  48.379   6.160  1.00  0.00     0.238 A 
ATOM      4  O   UNL     1      71.403  48.634   4.970  1.00  0.00    -0.285 OA
ATOM      5  C   UNL     1      72.048  48.011   7.115  1.00  0.00     0.111 A 
ATOM      6  C   UNL     1      73.427  47.898   6.813  1.00  0.00     0.134 A 
ATOM      7  C   UNL     1      74.332  47.535   7.821  1.00  0.00     0.093 A 
ATOM      8  C   UNL     1      73.886  47.284   9.124  1.00  0.00     0.123 A 
ATOM      9  C   UNL     1      72.528  47.394   9.426  1.00  0.00     0.094 A 
ATOM     10  C   UNL     1      71.609  47.752   8.436  1.00  0.00     0.146 A 
ATOM     11  O   UNL     1      70.322  47.845   8.749  1.00  0.00    -0.451 OA
ENDROOT
BRANCH   1  12
ATOM     12  C   UNL     1      67.979  48.241   8.337  1.00  0.00     0.063 A 
ATOM     13  C   UNL     1      66.337  49.203   9.850  1.00  0.00     0.047 A 
ATOM     14  C   UNL     1      67.651  49.119   9.381  1.00  0.00     0.020 A 
ATOM     15  C   UNL     1      65.339  48.402   9.291  1.00  0.00     0.119 A 
ATOM     16  C   UNL     1      65.660  47.505   8.264  1.00  0.00     0.093 A 
ATOM     17  C   UNL     1      66.978  47.410   7.792  1.00  0.00     0.130 A 
BRANCH  15  18
ATOM     18  O   UNL     1      64.032  48.499   9.765  1.00  0.00    -0.508 OA
ATOM     19  H   UNL     1      63.258  48.067   9.276  1.00  0.00     0.293 HD
ENDBRANCH  15  18
BRANCH  17  20
ATOM     20  O   UNL     1      67.296  46.479   6.803  1.00  0.00    -0.507 OA
ATOM     21  H   UNL     1      66.668  46.288   6.031  1.00  0.00     0.293 HD
ENDBRANCH  17  20
ENDBRANCH   1  12
BRANCH   2  22
ATOM     22  O   UNL     1      68.752  48.878   5.632  1.00  0.00    -0.502 OA
ATOM     23  H   UNL     1      68.868  49.690   5.037  1.00  0.00     0.293 HD
ENDBRANCH   2  22
BRANCH   6  24
ATOM     24  O   UNL     1      73.903  48.143   5.525  1.00  0.00    -0.507 OA
ATOM     25  H   UNL     1      74.716  47.664   5.156  1.00  0.00     0.293 HD
ENDBRANCH   6  24
BRANCH   8  26
ATOM     26  O   UNL     1      74.785  46.924  10.125  1.00  0.00    -0.508 OA
ATOM     27  H   UNL     1      74.533  46.970  11.105  1.00  0.00     0.293 HD
ENDBRANCH   8  26
TORSDOF 6
ENDMDL
MODEL 4
REMARK VINA RESULT:    -6.267      1.217      1.374
REMARK INTER + INTRA:          -7.958
REMARK INTER:                  -7.745
REMARK INTRA:                  -0.213
REMARK UNBOUND:                -0.408
REMARK SMILES O=c1c(O)c(-c2ccc(O)cc2O)oc2cc(O)cc(O)c12
REMARK SMILES IDX 5 1 3 2 2 3 1 4 22 5 20 6 19 7 17 8 16 9 15 10 14 11 6 12
REMARK SMILES IDX 8 13 7 14 9 15 11 16 12 17 10 18 13 20 4 22 21 24 18 26
REMARK H PARENT 10 19 13 21 4 23 21 25 18 27
REMARK Flexibility Score: inf
ROOT
ATOM      1  C   UNL     1      69.004  48.065   8.731  1.00  0.00     0.184 A 
ATOM      2  C   UNL     1      68.300  49.083   9.398  1.00  0.00     0.208 A 
ATOM      3  C   UNL     1      66.906  48.976   9.520  1.00  0.00     0.238 A 
ATOM      4  O   UNL     1      66.265  49.876  10.125  1.00  0.00    -0.285 OA
ATOM      5  C   UNL     1      66.242  47.867   8.955  1.00  0.00     0.111 A 
ATOM      6  C   UNL     1      64.839  47.684   9.030  1.00  0.00     0.134 A 
ATOM      7  C   UNL     1      64.253  46.558   8.435  1.00  0.00     0.093 A 
ATOM      8  C   UNL     1      65.039  45.612   7.768  1.00  0.00     0.123 A 
ATOM      9  C   UNL     1      66.422  45.787   7.693  1.00  0.00     0.094 A 
ATOM     10  C   UNL     1      67.028  46.901   8.281  1.00  0.00     0.146 A 
ATOM     11  O   UNL     1      68.345  47.041   8.198  1.00  0.00    -0.451 OA
ENDROOT
BRANCH   1  12
ATOM     12  C   UNL     1      70.474  48.110   8.579  1.00  0.00     0.063 A 
ATOM     13  C   UNL     1      72.659  48.399   9.604  1.00  0.00     0.047 A 
ATOM     14  C   UNL     1      71.267  48.344   9.712  1.00  0.00     0.020 A 
ATOM     15  C   UNL     1      73.274  48.235   8.359  1.00  0.00     0.119 A 
ATOM     16  C   UNL     1      72.490  48.025   7.218  1.00  0.00     0.093 A 
ATOM     17  C   UNL     1      71.091  47.974   7.318  1.00  0.00     0.130 A 
BRANCH  15  18
ATOM     18  O   UNL     1      74.663  48.289   8.266  1.00  0.00    -0.508 OA
ATOM     19  H   UNL     1      75.217  48.826   8.922  1.00  0.00     0.293 HD
ENDBRANCH  15  18
BRANCH  17  20
ATOM     20  O   UNL     1      70.318  47.814   6.168  1.00  0.00    -0.507 OA
ATOM     21  H   UNL     1      70.127  46.897   5.780  1.00  0.00     0.293 HD
ENDBRANCH  17  20
ENDBRANCH   1  12
BRANCH   2  22
ATOM     22  O   UNL     1      68.982  50.192   9.906  1.00  0.00    -0.502 OA
ATOM     23  H   UNL     1      69.917  50.438   9.605  1.00  0.00     0.293 HD
ENDBRANCH   2  22
BRANCH   6  24
ATOM     24  O   UNL     1      64.029  48.610   9.686  1.00  0.00    -0.507 OA
ATOM     25  H   UNL     1      63.826  48.534  10.676  1.00  0.00     0.293 HD
ENDBRANCH   6  24
BRANCH   8  26
ATOM     26  O   UNL     1      64.456  44.493   7.177  1.00  0.00    -0.508 OA
ATOM     27  H   UNL     1      64.271  44.455   6.182  1.00  0.00     0.293 HD
ENDBRANCH   8  26
TORSDOF 6
ENDMDL
MODEL 5
REMARK VINA RESULT:    -6.017      4.022      6.360
REMARK INTER + INTRA:          -7.656
REMARK INTER:                  -7.315
REMARK INTRA:                  -0.341
REMARK UNBOUND:                -0.408
REMARK SMILES O=c1c(O)c(-c2ccc(O)cc2O)oc2cc(O)cc(O)c12
REMARK SMILES IDX 5 1 3 2 2 3 1 4 22 5 20 6 19 7 17 8 16 9 15 10 14 11 6 12
REMARK SMILES IDX 8 13 7 14 9 15 11 16 12 17 10 18 13 20 4 22 21 24 18 26
REMARK H PARENT 10 19 13 21 4 23 21 25 18 27
REMARK Flexibility Score: inf
ROOT
ATOM      1  C   UNL     1      71.315  47.695   6.109  1.00  0.00     0.184 A 
ATOM      2  C   UNL     1      72.623  47.584   6.613  1.00  0.00     0.208 A 
ATOM      3  C   UNL     1      72.845  46.799   7.756  1.00  0.00     0.238 A 
ATOM      4  O   UNL     1      74.014  46.683   8.211  1.00  0.00    -0.285 OA
ATOM      5  C   UNL     1      71.755  46.160   8.383  1.00  0.00     0.111 A 
ATOM      6  C   UNL     1      71.891  45.355   9.540  1.00  0.00     0.134 A 
ATOM      7  C   UNL     1      70.756  44.760  10.110  1.00  0.00     0.093 A 
ATOM      8  C   UNL     1      69.490  44.955   9.547  1.00  0.00     0.123 A 
ATOM      9  C   UNL     1      69.351  45.746   8.406  1.00  0.00     0.094 A 
ATOM     10  C   UNL     1      70.469  46.347   7.821  1.00  0.00     0.146 A 
ATOM     11  O   UNL     1      70.309  47.091   6.733  1.00  0.00    -0.451 OA
ENDROOT
BRANCH   1  12
ATOM     12  C   UNL     1      71.015  48.495   4.903  1.00  0.00     0.063 A 
ATOM     13  C   UNL     1      71.366  48.883   2.529  1.00  0.00     0.047 A 
ATOM     14  C   UNL     1      71.623  48.146   3.687  1.00  0.00     0.020 A 
ATOM     15  C   UNL     1      70.510  49.987   2.574  1.00  0.00     0.119 A 
ATOM     16  C   UNL     1      69.916  50.358   3.787  1.00  0.00     0.093 A 
ATOM     17  C   UNL     1      70.174  49.626   4.955  1.00  0.00     0.130 A 
BRANCH  15  18
ATOM     18  O   UNL     1      70.260  50.711   1.410  1.00  0.00    -0.508 OA
ATOM     19  H   UNL     1      70.386  51.715   1.374  1.00  0.00     0.293 HD
ENDBRANCH  15  18
BRANCH  17  20
ATOM     20  O   UNL     1      69.616  50.033   6.167  1.00  0.00    -0.507 OA
ATOM     21  H   UNL     1      70.189  50.393   6.922  1.00  0.00     0.293 HD
ENDBRANCH  17  20
ENDBRANCH   1  12
BRANCH   2  22
ATOM     22  O   UNL     1      73.674  48.266   5.995  1.00  0.00    -0.502 OA
ATOM     23  H   UNL     1      73.519  49.039   5.359  1.00  0.00     0.293 HD
ENDBRANCH   2  22
BRANCH   6  24
ATOM     24  O   UNL     1      73.140  45.145  10.125  1.00  0.00    -0.507 OA
ATOM     25  H   UNL     1      73.242  44.634  10.995  1.00  0.00     0.293 HD
ENDBRANCH   6  24
BRANCH   8  26
ATOM     26  O   UNL     1      68.363  44.363  10.114  1.00  0.00    -0.508 OA
ATOM     27  H   UNL     1      67.435  44.738   9.962  1.00  0.00     0.293 HD
ENDBRANCH   8  26
TORSDOF 6
ENDMDL
MODEL 6
REMARK VINA RESULT:    -5.971      2.055      6.382
REMARK INTER + INTRA:          -7.601
REMARK INTER:                  -7.283
REMARK INTRA:                  -0.317
REMARK UNBOUND:                -0.408
REMARK SMILES O=c1c(O)c(-c2ccc(O)cc2O)oc2cc(O)cc(O)c12
REMARK SMILES IDX 5 1 3 2 2 3 1 4 22 5 20 6 19 7 17 8 16 9 15 10 14 11 6 12
REMARK SMILES IDX 8 13 7 14 9 15 11 16 12 17 10 18 13 20 4 22 21 24 18 26
REMARK H PARENT 10 19 13 21 4 23 21 25 18 27
REMARK Flexibility Score: inf
ROOT
ATOM      1  C   UNL     1      68.269  47.912   8.522  1.00  0.00     0.184 A 
ATOM      2  C   UNL     1      68.845  49.080   9.055  1.00  0.00     0.208 A 
ATOM      3  C   UNL     1      70.219  49.301   8.876  1.00  0.00     0.238 A 
ATOM      4  O   UNL     1      70.744  50.349   9.340  1.00  0.00    -0.285 OA
ATOM      5  C   UNL     1      70.994  48.344   8.188  1.00  0.00     0.111 A 
ATOM      6  C   UNL     1      72.385  48.489   7.968  1.00  0.00     0.134 A 
ATOM      7  C   UNL     1      73.088  47.487   7.282  1.00  0.00     0.093 A 
ATOM      8  C   UNL     1      72.427  46.346   6.813  1.00  0.00     0.123 A 
ATOM      9  C   UNL     1      71.056  46.200   7.027  1.00  0.00     0.094 A 
ATOM     10  C   UNL     1      70.336  47.187   7.707  1.00  0.00     0.146 A 
ATOM     11  O   UNL     1      69.032  47.024   7.893  1.00  0.00    -0.451 OA
ENDROOT
BRANCH   1  12
ATOM     12  C   UNL     1      66.827  47.624   8.665  1.00  0.00     0.063 A 
ATOM     13  C   UNL     1      64.924  47.222  10.124  1.00  0.00     0.047 A 
ATOM     14  C   UNL     1      66.283  47.500   9.953  1.00  0.00     0.020 A 
ATOM     15  C   UNL     1      64.096  47.052   9.011  1.00  0.00     0.119 A 
ATOM     16  C   UNL     1      64.634  47.150   7.722  1.00  0.00     0.093 A 
ATOM     17  C   UNL     1      65.998  47.423   7.542  1.00  0.00     0.130 A 
BRANCH  15  18
ATOM     18  O   UNL     1      62.742  46.779   9.197  1.00  0.00    -0.508 OA
ATOM     19  H   UNL     1      62.088  47.504   9.467  1.00  0.00     0.293 HD
ENDBRANCH  15  18
BRANCH  17  20
ATOM     20  O   UNL     1      66.532  47.471   6.254  1.00  0.00    -0.507 OA
ATOM     21  H   UNL     1      65.987  47.796   5.463  1.00  0.00     0.293 HD
ENDBRANCH  17  20
ENDBRANCH   1  12
BRANCH   2  22
ATOM     22  O   UNL     1      68.059  49.986   9.771  1.00  0.00    -0.502 OA
ATOM     23  H   UNL     1      67.249  50.441   9.365  1.00  0.00     0.293 HD
ENDBRANCH   2  22
BRANCH   6  24
ATOM     24  O   UNL     1      73.072  49.614   8.424  1.00  0.00    -0.507 OA
ATOM     25  H   UNL     1      72.739  50.158   9.213  1.00  0.00     0.293 HD
ENDBRANCH   6  24
BRANCH   8  26
ATOM     26  O   UNL     1      73.126  45.352   6.131  1.00  0.00    -0.508 OA
ATOM     27  H   UNL     1      72.900  44.371   6.247  1.00  0.00     0.293 HD
ENDBRANCH   8  26
TORSDOF 6
ENDMDL
MODEL 7
REMARK VINA RESULT:    -5.939      4.950      6.736
REMARK INTER + INTRA:          -7.563
REMARK INTER:                  -7.247
REMARK INTRA:                  -0.316
REMARK UNBOUND:                -0.408
REMARK SMILES O=c1c(O)c(-c2ccc(O)cc2O)oc2cc(O)cc(O)c12
REMARK SMILES IDX 5 1 3 2 2 3 1 4 22 5 20 6 19 7 17 8 16 9 15 10 14 11 6 12
REMARK SMILES IDX 8 13 7 14 9 15 11 16 12 17 10 18 13 20 4 22 21 24 18 26
REMARK H PARENT 10 19 13 21 4 23 21 25 18 27
REMARK Flexibility Score: inf
ROOT
ATOM      1  C   UNL     1      71.781  47.264   6.499  1.00  0.00     0.184 A 
ATOM      2  C   UNL     1      73.101  47.315   6.981  1.00  0.00     0.208 A 
ATOM      3  C   UNL     1      73.484  46.435   8.006  1.00  0.00     0.238 A 
ATOM      4  O   UNL     1      74.667  46.465   8.438  1.00  0.00    -0.285 OA
ATOM      5  C   UNL     1      72.537  45.538   8.541  1.00  0.00     0.111 A 
ATOM      6  C   UNL     1      72.840  44.620   9.577  1.00  0.00     0.134 A 
ATOM      7  C   UNL     1      71.840  43.765  10.062  1.00  0.00     0.093 A 
ATOM      8  C   UNL     1      70.545  43.810   9.533  1.00  0.00     0.123 A 
ATOM      9  C   UNL     1      70.242  44.711   8.512  1.00  0.00     0.094 A 
ATOM     10  C   UNL     1      71.225  45.571   8.012  1.00  0.00     0.146 A 
ATOM     11  O   UNL     1      70.911  46.416   7.037  1.00  0.00    -0.451 OA
ENDROOT
BRANCH   1  12
ATOM     12  C   UNL     1      71.316  48.154   5.415  1.00  0.00     0.063 A 
ATOM     13  C   UNL     1      69.904  50.002   4.708  1.00  0.00     0.047 A 
ATOM     14  C   UNL     1      70.370  49.147   5.710  1.00  0.00     0.020 A 
ATOM     15  C   UNL     1      70.369  49.867   3.397  1.00  0.00     0.119 A 
ATOM     16  C   UNL     1      71.295  48.863   3.087  1.00  0.00     0.093 A 
ATOM     17  C   UNL     1      71.763  47.997   4.087  1.00  0.00     0.130 A 
BRANCH  15  18
ATOM     18  O   UNL     1      69.899  50.729   2.408  1.00  0.00    -0.508 OA
ATOM     19  H   UNL     1      69.397  50.383   1.599  1.00  0.00     0.293 HD
ENDBRANCH  15  18
BRANCH  17  20
ATOM     20  O   UNL     1      72.649  46.971   3.757  1.00  0.00    -0.507 OA
ATOM     21  H   UNL     1      73.399  47.110   3.089  1.00  0.00     0.293 HD
ENDBRANCH  17  20
ENDBRANCH   1  12
BRANCH   2  22
ATOM     22  O   UNL     1      74.003  48.248   6.461  1.00  0.00    -0.502 OA
ATOM     23  H   UNL     1      74.242  49.102   6.951  1.00  0.00     0.293 HD
ENDBRANCH   2  22
BRANCH   6  24
ATOM     24  O   UNL     1      74.121  44.554  10.125  1.00  0.00    -0.507 OA
ATOM     25  H   UNL     1      74.785  45.312  10.021  1.00  0.00     0.293 HD
ENDBRANCH   6  24
BRANCH   8  26
ATOM     26  O   UNL     1      69.552  42.960  10.016  1.00  0.00    -0.508 OA
ATOM     27  H   UNL     1      68.587  43.260  10.090  1.00  0.00     0.293 HD
ENDBRANCH   8  26
TORSDOF 6
ENDMDL
MODEL 8
REMARK VINA RESULT:    -5.928      2.582      6.772
REMARK INTER + INTRA:          -7.550
REMARK INTER:                  -7.172
REMARK INTRA:                  -0.377
REMARK UNBOUND:                -0.408
REMARK SMILES O=c1c(O)c(-c2ccc(O)cc2O)oc2cc(O)cc(O)c12
REMARK SMILES IDX 5 1 3 2 2 3 1 4 22 5 20 6 19 7 17 8 16 9 15 10 14 11 6 12
REMARK SMILES IDX 8 13 7 14 9 15 11 16 12 17 10 18 13 20 4 22 21 24 18 26
REMARK H PARENT 10 19 13 21 4 23 21 25 18 27
REMARK Flexibility Score: inf
ROOT
ATOM      1  C   UNL     1      69.202  47.587   8.088  1.00  0.00     0.184 A 
ATOM      2  C   UNL     1      70.044  46.816   8.909  1.00  0.00     0.208 A 
ATOM      3  C   UNL     1      71.350  46.542   8.473  1.00  0.00     0.238 A 
ATOM      4  O   UNL     1      72.118  45.861   9.205  1.00  0.00    -0.285 OA
ATOM      5  C   UNL     1      71.780  47.024   7.220  1.00  0.00     0.111 A 
ATOM      6  C   UNL     1      73.079  46.789   6.704  1.00  0.00     0.134 A 
ATOM      7  C   UNL     1      73.428  47.295   5.444  1.00  0.00     0.093 A 
ATOM      8  C   UNL     1      72.506  48.030   4.689  1.00  0.00     0.123 A 
ATOM      9  C   UNL     1      71.227  48.265   5.194  1.00  0.00     0.094 A 
ATOM     10  C   UNL     1      70.858  47.771   6.448  1.00  0.00     0.146 A 
ATOM     11  O   UNL     1      69.635  48.013   6.906  1.00  0.00    -0.451 OA
ENDROOT
BRANCH   1  12
ATOM     12  C   UNL     1      67.820  47.922   8.492  1.00  0.00     0.063 A 
ATOM     13  C   UNL     1      66.328  49.063  10.035  1.00  0.00     0.047 A 
ATOM     14  C   UNL     1      67.620  48.731   9.621  1.00  0.00     0.020 A 
ATOM     15  C   UNL     1      65.220  48.579   9.334  1.00  0.00     0.119 A 
ATOM     16  C   UNL     1      65.408  47.751   8.221  1.00  0.00     0.093 A 
ATOM     17  C   UNL     1      66.702  47.409   7.802  1.00  0.00     0.130 A 
BRANCH  15  18
ATOM     18  O   UNL     1      63.936  48.921   9.756  1.00  0.00    -0.508 OA
ATOM     19  H   UNL     1      63.112  48.541   9.306  1.00  0.00     0.293 HD
ENDBRANCH  15  18
BRANCH  17  20
ATOM     20  O   UNL     1      66.877  46.544   6.721  1.00  0.00    -0.507 OA
ATOM     21  H   UNL     1      67.719  45.991   6.614  1.00  0.00     0.293 HD
ENDBRANCH  17  20
ENDBRANCH   1  12
BRANCH   2  22
ATOM     22  O   UNL     1      69.573  46.314  10.125  1.00  0.00    -0.502 OA
ATOM     23  H   UNL     1      68.858  46.787  10.665  1.00  0.00     0.293 HD
ENDBRANCH   2  22
BRANCH   6  24
ATOM     24  O   UNL     1      74.019  46.059   7.432  1.00  0.00    -0.507 OA
ATOM     25  H   UNL     1      74.842  46.496   7.829  1.00  0.00     0.293 HD
ENDBRANCH   6  24
BRANCH   8  26
ATOM     26  O   UNL     1      72.854  48.532   3.438  1.00  0.00    -0.508 OA
ATOM     27  H   UNL     1      72.764  49.517   3.218  1.00  0.00     0.293 HD
ENDBRANCH   8  26
TORSDOF 6
ENDMDL
MODEL 9
REMARK VINA RESULT:    -5.751      2.078      7.285
REMARK INTER + INTRA:          -7.336
REMARK INTER:                  -6.958
REMARK INTRA:                  -0.378
REMARK UNBOUND:                -0.408
REMARK SMILES O=c1c(O)c(-c2ccc(O)cc2O)oc2cc(O)cc(O)c12
REMARK SMILES IDX 5 1 3 2 2 3 1 4 22 5 20 6 19 7 17 8 16 9 15 10 14 11 6 12
REMARK SMILES IDX 8 13 7 14 9 15 11 16 12 17 10 18 13 20 4 22 21 24 18 26
REMARK H PARENT 10 19 13 21 4 23 21 25 18 27
REMARK Flexibility Score: inf
ROOT
ATOM      1  C   UNL     1      65.874  45.276   8.631  1.00  0.00     0.184 A 
ATOM      2  C   UNL     1      67.060  44.791   8.050  1.00  0.00     0.208 A 
ATOM      3  C   UNL     1      68.188  45.626   8.012  1.00  0.00     0.238 A 
ATOM      4  O   UNL     1      69.259  45.199   7.504  1.00  0.00    -0.285 OA
ATOM      5  C   UNL     1      68.103  46.933   8.535  1.00  0.00     0.111 A 
ATOM      6  C   UNL     1      69.191  47.839   8.533  1.00  0.00     0.134 A 
ATOM      7  C   UNL     1      69.025  49.126   9.065  1.00  0.00     0.093 A 
ATOM      8  C   UNL     1      67.793  49.525   9.597  1.00  0.00     0.123 A 
ATOM      9  C   UNL     1      66.718  48.635   9.602  1.00  0.00     0.094 A 
ATOM     10  C   UNL     1      66.863  47.346   9.079  1.00  0.00     0.146 A 
ATOM     11  O   UNL     1      65.825  46.518   9.101  1.00  0.00    -0.451 OA
ENDROOT
BRANCH   1  12
ATOM     12  C   UNL     1      64.655  44.445   8.713  1.00  0.00     0.063 A 
ATOM     13  C   UNL     1      63.541  42.476   9.604  1.00  0.00     0.047 A 
ATOM     14  C   UNL     1      64.674  43.288   9.508  1.00  0.00     0.020 A 
ATOM     15  C   UNL     1      62.380  42.803   8.897  1.00  0.00     0.119 A 
ATOM     16  C   UNL     1      62.359  43.942   8.083  1.00  0.00     0.093 A 
ATOM     17  C   UNL     1      63.494  44.759   7.976  1.00  0.00     0.130 A 
BRANCH  15  18
ATOM     18  O   UNL     1      61.257  41.986   9.006  1.00  0.00    -0.508 OA
ATOM     19  H   UNL     1      60.570  42.125   9.738  1.00  0.00     0.293 HD
ENDBRANCH  15  18
BRANCH  17  20
ATOM     20  O   UNL     1      63.478  45.863   7.124  1.00  0.00    -0.507 OA
ATOM     21  H   UNL     1      62.619  46.193   6.698  1.00  0.00     0.293 HD
ENDBRANCH  17  20
ENDBRANCH   1  12
BRANCH   2  22
ATOM     22  O   UNL     1      67.098  43.507   7.499  1.00  0.00    -0.502 OA
ATOM     23  H   UNL     1      67.510  43.318   6.594  1.00  0.00     0.293 HD
ENDBRANCH   2  22
BRANCH   6  24
ATOM     24  O   UNL     1      70.430  47.472   8.008  1.00  0.00    -0.507 OA
ATOM     25  H   UNL     1      71.284  47.950   8.272  1.00  0.00     0.293 HD
ENDBRANCH   6  24
BRANCH   8  26
ATOM     26  O   UNL     1      67.628  50.804  10.124  1.00  0.00    -0.508 OA
ATOM     27  H   UNL     1      66.818  51.047  10.681  1.00  0.00     0.293 HD
ENDBRANCH   8  26
TORSDOF 6
ENDMDL
