MODEL 1
REMARK VINA RESULT:    -4.343      0.000      0.000
REMARK INTER + INTRA:          -4.470
REMARK INTER:                  -4.470
REMARK INTRA:                   0.000
REMARK UNBOUND:                 0.000
REMARK SMILES O=c1ccc2ccc(O)cc2o1
REMARK SMILES IDX 6 1 7 2 8 3 10 4 11 5 5 6 4 7 3 8 2 9 1 10 12 11 9 12
REMARK H PARENT 9 13
REMARK Flexibility Score: inf
ROOT
ATOM      1  C   UNL     1      49.754  48.918  13.750  1.00  0.00     0.016 A 
ATOM      2  C   UNL     1      50.151  47.718  14.349  1.00  0.00     0.047 A 
ATOM      3  C   UNL     1      51.285  47.039  13.888  1.00  0.00     0.119 A 
ATOM      4  C   UNL     1      52.028  47.563  12.819  1.00  0.00     0.094 A 
ATOM      5  C   UNL     1      51.637  48.762  12.213  1.00  0.00     0.142 A 
ATOM      6  C   UNL     1      50.492  49.445  12.681  1.00  0.00     0.018 A 
ATOM      7  C   UNL     1      50.126  50.640  12.056  1.00  0.00     0.019 A 
ATOM      8  C   UNL     1      50.895  51.122  10.997  1.00  0.00     0.094 A 
ATOM      9  C   UNL     1      52.016  50.392  10.587  1.00  0.00     0.336 A 
ATOM     10  O   UNL     1      52.723  50.810   9.633  1.00  0.00    -0.246 OA
ATOM     11  O   UNL     1      52.342  49.256  11.198  1.00  0.00    -0.423 OA
ENDROOT
BRANCH   3  12
ATOM     12  O   UNL     1      51.666  45.846  14.498  1.00  0.00    -0.508 OA
ATOM     13  H   UNL     1      51.067  45.028  14.481  1.00  0.00     0.293 HD
ENDBRANCH   3  12
TORSDOF 1
ENDMDL
MODEL 2
REMARK VINA RESULT:    -4.031     13.896     14.959
REMARK INTER + INTRA:          -4.149
REMARK INTER:                  -4.149
REMARK INTRA:                   0.000
REMARK UNBOUND:                 0.000
REMARK SMILES O=c1ccc2ccc(O)cc2o1
REMARK SMILES IDX 6 1 7 2 8 3 10 4 11 5 5 6 4 7 3 8 2 9 1 10 12 11 9 12
REMARK H PARENT 9 13
REMARK Flexibility Score: inf
ROOT
ATOM      1  C   UNL     1      63.935  40.666  16.384  1.00  0.00     0.016 A 
ATOM      2  C   UNL     1      63.798  40.075  17.644  1.00  0.00     0.047 A 
ATOM      3  C   UNL     1      63.639  40.871  18.784  1.00  0.00     0.119 A 
ATOM      4  C   UNL     1      63.615  42.269  18.665  1.00  0.00     0.094 A 
ATOM      5  C   UNL     1      63.752  42.868  17.408  1.00  0.00     0.142 A 
ATOM      6  C   UNL     1      63.912  42.062  16.259  1.00  0.00     0.018 A 
ATOM      7  C   UNL     1      64.046  42.690  15.017  1.00  0.00     0.019 A 
ATOM      8  C   UNL     1      64.016  44.082  14.947  1.00  0.00     0.094 A 
ATOM      9  C   UNL     1      63.853  44.816  16.127  1.00  0.00     0.336 A 
ATOM     10  O   UNL     1      63.824  46.074  16.085  1.00  0.00    -0.246 OA
ATOM     11  O   UNL     1      63.729  44.195  17.296  1.00  0.00    -0.423 OA
ENDROOT
BRANCH   3  12
ATOM     12  O   UNL     1      63.504  40.265  20.031  1.00  0.00    -0.508 OA
ATOM     13  H   UNL     1      64.237  40.319  20.729  1.00  0.00     0.293 HD
ENDBRANCH   3  12
TORSDOF 1
ENDMDL
MODEL 3
REMARK VINA RESULT:    -4.021      2.374      4.425
REMARK INTER + INTRA:          -4.138
REMARK INTER:                  -4.138
REMARK INTRA:                   0.000
REMARK UNBOUND:                 0.000
REMARK SMILES O=c1ccc2ccc(O)cc2o1
REMARK SMILES IDX 6 1 7 2 8 3 10 4 11 5 5 6 4 7 3 8 2 9 1 10 12 11 9 12
REMARK H PARENT 9 13
REMARK Flexibility Score: inf
ROOT
ATOM      1  C   UNL     1      50.500  50.025  10.528  1.00  0.00     0.016 A 
ATOM      2  C   UNL     1      51.364  50.339   9.474  1.00  0.00     0.047 A 
ATOM      3  C   UNL     1      52.653  50.819   9.735  1.00  0.00     0.119 A 
ATOM      4  C   UNL     1      53.083  50.987  11.060  1.00  0.00     0.094 A 
ATOM      5  C   UNL     1      52.225  50.677  12.121  1.00  0.00     0.142 A 
ATOM      6  C   UNL     1      50.925  50.192  11.854  1.00  0.00     0.018 A 
ATOM      7  C   UNL     1      50.091  49.890  12.935  1.00  0.00     0.019 A 
ATOM      8  C   UNL     1      50.562  50.073  14.234  1.00  0.00     0.094 A 
ATOM      9  C   UNL     1      51.861  50.557  14.423  1.00  0.00     0.336 A 
ATOM     10  O   UNL     1      52.304  50.729  15.589  1.00  0.00    -0.246 OA
ATOM     11  O   UNL     1      52.634  50.837  13.377  1.00  0.00    -0.423 OA
ENDROOT
BRANCH   3  12
ATOM     12  O   UNL     1      53.499  51.125   8.672  1.00  0.00    -0.508 OA
ATOM     13  H   UNL     1      53.391  50.685   7.765  1.00  0.00     0.293 HD
ENDBRANCH   3  12
TORSDOF 1
ENDMDL
MODEL 4
REMARK VINA RESULT:    -3.980     15.808     17.312
REMARK INTER + INTRA:          -4.096
REMARK INTER:                  -4.096
REMARK INTRA:                   0.000
REMARK UNBOUND:                 0.000
REMARK SMILES O=c1ccc2ccc(O)cc2o1
REMARK SMILES IDX 6 1 7 2 8 3 10 4 11 5 5 6 4 7 3 8 2 9 1 10 12 11 9 12
REMARK H PARENT 9 13
REMARK Flexibility Score: inf
ROOT
ATOM      1  C   UNL     1      60.661  33.796  15.324  1.00  0.00     0.016 A 
ATOM      2  C   UNL     1      61.871  33.906  14.631  1.00  0.00     0.047 A 
ATOM      3  C   UNL     1      61.879  34.200  13.262  1.00  0.00     0.119 A 
ATOM      4  C   UNL     1      60.668  34.385  12.580  1.00  0.00     0.094 A 
ATOM      5  C   UNL     1      59.452  34.275  13.264  1.00  0.00     0.142 A 
ATOM      6  C   UNL     1      59.448  33.980  14.645  1.00  0.00     0.018 A 
ATOM      7  C   UNL     1      58.218  33.878  15.302  1.00  0.00     0.019 A 
ATOM      8  C   UNL     1      57.040  34.070  14.582  1.00  0.00     0.094 A 
ATOM      9  C   UNL     1      57.121  34.360  13.215  1.00  0.00     0.336 A 
ATOM     10  O   UNL     1      56.068  34.536  12.548  1.00  0.00    -0.246 OA
ATOM     11  O   UNL     1      58.304  34.451  12.614  1.00  0.00    -0.423 OA
ENDROOT
BRANCH   3  12
ATOM     12  O   UNL     1      63.094  34.305  12.590  1.00  0.00    -0.508 OA
ATOM     13  H   UNL     1      63.955  33.952  12.993  1.00  0.00     0.293 HD
ENDBRANCH   3  12
TORSDOF 1
ENDMDL
MODEL 5
REMARK VINA RESULT:    -3.971     13.641     14.903
REMARK INTER + INTRA:          -4.087
REMARK INTER:                  -4.087
REMARK INTRA:                   0.000
REMARK UNBOUND:                 0.000
REMARK SMILES O=c1ccc2ccc(O)cc2o1
REMARK SMILES IDX 6 1 7 2 8 3 10 4 11 5 5 6 4 7 3 8 2 9 1 10 12 11 9 12
REMARK H PARENT 9 13
REMARK Flexibility Score: inf
ROOT
ATOM      1  C   UNL     1      46.258  35.290   9.024  1.00  0.00     0.016 A 
ATOM      2  C   UNL     1      46.411  34.880   7.696  1.00  0.00     0.047 A 
ATOM      3  C   UNL     1      47.674  34.532   7.205  1.00  0.00     0.119 A 
ATOM      4  C   UNL     1      48.794  34.593   8.047  1.00  0.00     0.094 A 
ATOM      5  C   UNL     1      48.651  35.003   9.377  1.00  0.00     0.142 A 
ATOM      6  C   UNL     1      47.374  35.353   9.870  1.00  0.00     0.018 A 
ATOM      7  C   UNL     1      47.262  35.759  11.203  1.00  0.00     0.019 A 
ATOM      8  C   UNL     1      48.403  35.804  12.003  1.00  0.00     0.094 A 
ATOM      9  C   UNL     1      49.635  35.442  11.447  1.00  0.00     0.336 A 
ATOM     10  O   UNL     1      50.677  35.477  12.153  1.00  0.00    -0.246 OA
ATOM     11  O   UNL     1      49.715  35.061  10.175  1.00  0.00    -0.423 OA
ENDROOT
BRANCH   3  12
ATOM     12  O   UNL     1      47.807  34.126   5.879  1.00  0.00    -0.508 OA
ATOM     13  H   UNL     1      48.309  34.687   5.200  1.00  0.00     0.293 HD
ENDBRANCH   3  12
TORSDOF 1
ENDMDL
MODEL 6
REMARK VINA RESULT:    -3.964      1.955      5.124
REMARK INTER + INTRA:          -4.080
REMARK INTER:                  -4.080
REMARK INTRA:                   0.000
REMARK UNBOUND:                 0.000
REMARK SMILES O=c1ccc2ccc(O)cc2o1
REMARK SMILES IDX 6 1 7 2 8 3 10 4 11 5 5 6 4 7 3 8 2 9 1 10 12 11 9 12
REMARK H PARENT 9 13
REMARK Flexibility Score: inf
ROOT
ATOM      1  C   UNL     1      52.193  47.318  12.983  1.00  0.00     0.016 A 
ATOM      2  C   UNL     1      52.329  48.596  12.432  1.00  0.00     0.047 A 
ATOM      3  C   UNL     1      51.351  49.572  12.659  1.00  0.00     0.119 A 
ATOM      4  C   UNL     1      50.228  49.269  13.442  1.00  0.00     0.094 A 
ATOM      5  C   UNL     1      50.082  47.992  13.997  1.00  0.00     0.142 A 
ATOM      6  C   UNL     1      51.072  47.010  13.767  1.00  0.00     0.018 A 
ATOM      7  C   UNL     1      50.899  45.744  14.334  1.00  0.00     0.019 A 
ATOM      8  C   UNL     1      49.766  45.488  15.106  1.00  0.00     0.094 A 
ATOM      9  C   UNL     1      48.828  46.510  15.291  1.00  0.00     0.336 A 
ATOM     10  O   UNL     1      47.799  46.298  15.985  1.00  0.00    -0.246 OA
ATOM     11  O   UNL     1      49.015  47.706  14.740  1.00  0.00    -0.423 OA
ENDROOT
BRANCH   3  12
ATOM     12  O   UNL     1      51.504  50.840  12.102  1.00  0.00    -0.508 OA
ATOM     13  H   UNL     1      52.125  51.527  12.513  1.00  0.00     0.293 HD
ENDBRANCH   3  12
TORSDOF 1
ENDMDL
MODEL 7
REMARK VINA RESULT:    -3.897      1.981      3.066
REMARK INTER + INTRA:          -4.011
REMARK INTER:                  -4.011
REMARK INTRA:                   0.000
REMARK UNBOUND:                 0.000
REMARK SMILES O=c1ccc2ccc(O)cc2o1
REMARK SMILES IDX 6 1 7 2 8 3 10 4 11 5 5 6 4 7 3 8 2 9 1 10 12 11 9 12
REMARK H PARENT 9 13
REMARK Flexibility Score: inf
ROOT
ATOM      1  C   UNL     1      51.024  45.888  14.254  1.00  0.00     0.016 A 
ATOM      2  C   UNL     1      49.803  45.706  14.911  1.00  0.00     0.047 A 
ATOM      3  C   UNL     1      48.907  46.773  15.047  1.00  0.00     0.119 A 
ATOM      4  C   UNL     1      49.234  48.033  14.524  1.00  0.00     0.094 A 
ATOM      5  C   UNL     1      50.454  48.225  13.867  1.00  0.00     0.142 A 
ATOM      6  C   UNL     1      51.355  47.146  13.730  1.00  0.00     0.018 A 
ATOM      7  C   UNL     1      52.567  47.368  13.068  1.00  0.00     0.019 A 
ATOM      8  C   UNL     1      52.849  48.637  12.564  1.00  0.00     0.094 A 
ATOM      9  C   UNL     1      51.908  49.659  12.737  1.00  0.00     0.336 A 
ATOM     10  O   UNL     1      52.144  50.812  12.289  1.00  0.00    -0.246 OA
ATOM     11  O   UNL     1      50.763  49.421  13.371  1.00  0.00    -0.423 OA
ENDROOT
BRANCH   3  12
ATOM     12  O   UNL     1      47.695  46.572  15.704  1.00  0.00    -0.508 OA
ATOM     13  H   UNL     1      47.373  47.205  16.427  1.00  0.00     0.293 HD
ENDBRANCH   3  12
TORSDOF 1
ENDMDL
MODEL 8
REMARK VINA RESULT:    -3.886     16.658     18.392
REMARK INTER + INTRA:          -3.999
REMARK INTER:                  -3.999
REMARK INTRA:                   0.000
REMARK UNBOUND:                 0.000
REMARK SMILES O=c1ccc2ccc(O)cc2o1
REMARK SMILES IDX 6 1 7 2 8 3 10 4 11 5 5 6 4 7 3 8 2 9 1 10 12 11 9 12
REMARK H PARENT 9 13
REMARK Flexibility Score: inf
ROOT
ATOM      1  C   UNL     1      59.663  33.706  15.074  1.00  0.00     0.016 A 
ATOM      2  C   UNL     1      58.708  33.971  14.087  1.00  0.00     0.047 A 
ATOM      3  C   UNL     1      59.109  34.284  12.783  1.00  0.00     0.119 A 
ATOM      4  C   UNL     1      60.473  34.334  12.462  1.00  0.00     0.094 A 
ATOM      5  C   UNL     1      61.435  34.071  13.444  1.00  0.00     0.142 A 
ATOM      6  C   UNL     1      61.028  33.754  14.759  1.00  0.00     0.018 A 
ATOM      7  C   UNL     1      62.012  33.497  15.718  1.00  0.00     0.019 A 
ATOM      8  C   UNL     1      63.356  33.557  15.353  1.00  0.00     0.094 A 
ATOM      9  C   UNL     1      63.685  33.877  14.031  1.00  0.00     0.336 A 
ATOM     10  O   UNL     1      64.893  33.937  13.681  1.00  0.00    -0.246 OA
ATOM     11  O   UNL     1      62.730  34.119  13.137  1.00  0.00    -0.423 OA
ENDROOT
BRANCH   3  12
ATOM     12  O   UNL     1      58.143  34.545  11.813  1.00  0.00    -0.508 OA
ATOM     13  H   UNL     1      58.377  34.576  10.827  1.00  0.00     0.293 HD
ENDBRANCH   3  12
TORSDOF 1
ENDMDL
