MODEL 1
REMARK VINA RESULT:    -4.615      0.000      0.000
REMARK INTER + INTRA:          -9.818
REMARK INTER:                  -8.392
REMARK INTRA:                  -1.426
REMARK UNBOUND:                -1.426
REMARK SMILES CCCCCCCCCCCCCCCC(=O)[O-]
REMARK SMILES IDX 9 1 10 2 11 3 12 4 13 5 14 6 15 7 16 8 17 9 18 10 8 11 7 12
REMARK SMILES IDX 6 13 5 14 4 15 3 16 2 17 1 18
REMARK H PARENT
REMARK Flexibility Score: inf
ROOT
ATOM      1  C   UNL     1      -9.794   5.344   6.400  1.00  0.00     0.000 C 
ENDROOT
BRANCH   1   2
ATOM      2  C   UNL     1     -10.401   6.453   5.528  1.00  0.00     0.000 C 
BRANCH   2   3
ATOM      3  C   UNL     1      -9.355   7.476   5.057  1.00  0.00     0.000 C 
BRANCH   3   4
ATOM      4  C   UNL     1      -9.948   8.881   4.853  1.00  0.00     0.000 C 
BRANCH   4   5
ATOM      5  C   UNL     1      -9.391   9.900   5.870  1.00  0.00     0.000 C 
BRANCH   5   6
ATOM      6  C   UNL     1      -8.051   9.476   6.495  1.00  0.00     0.006 C 
BRANCH   6   7
ATOM      7  C   UNL     1      -6.848   9.784   5.595  1.00  0.00     0.053 C 
BRANCH   7   8
ATOM      8  C   UNL     1      -5.943  10.776   6.255  1.00  0.00     0.041 C 
ATOM      9  O   UNL     1      -6.301  11.354   7.314  1.00  0.00    -0.550 OA
ATOM     10  O   UNL     1      -4.723  11.096   5.673  1.00  0.00    -0.550 OA
ENDBRANCH   7   8
ENDBRANCH   6   7
ENDBRANCH   5   6
ENDBRANCH   4   5
ENDBRANCH   3   4
ENDBRANCH   2   3
ENDBRANCH   1   2
BRANCH   1  11
ATOM     11  C   UNL     1     -10.867   4.690   7.282  1.00  0.00     0.000 C 
BRANCH  11  12
ATOM     12  C   UNL     1     -11.260   3.287   6.793  1.00  0.00    -0.000 C 
BRANCH  12  13
ATOM     13  C   UNL     1     -12.661   3.252   6.157  1.00  0.00    -0.000 C 
BRANCH  13  14
ATOM     14  C   UNL     1     -12.655   3.679   4.680  1.00  0.00    -0.000 C 
BRANCH  14  15
ATOM     15  C   UNL     1     -13.724   4.739   4.369  1.00  0.00    -0.000 C 
BRANCH  15  16
ATOM     16  C   UNL     1     -13.949   5.722   5.533  1.00  0.00    -0.000 C 
BRANCH  16  17
ATOM     17  C   UNL     1     -14.285   7.164   5.111  1.00  0.00    -0.003 C 
ATOM     18  C   UNL     1     -13.560   8.217   5.947  1.00  0.00     0.004 C 
ENDBRANCH  16  17
ENDBRANCH  15  16
ENDBRANCH  14  15
ENDBRANCH  13  14
ENDBRANCH  12  13
ENDBRANCH  11  12
ENDBRANCH   1  11
TORSDOF 14
ENDMDL
MODEL 2
REMARK VINA RESULT:    -4.569      2.335      3.225
REMARK INTER + INTRA:          -9.734
REMARK INTER:                  -8.361
REMARK INTRA:                  -1.372
REMARK UNBOUND:                -1.426
REMARK SMILES CCCCCCCCCCCCCCCC(=O)[O-]
REMARK SMILES IDX 9 1 10 2 11 3 12 4 13 5 14 6 15 7 16 8 17 9 18 10 8 11 7 12
REMARK SMILES IDX 6 13 5 14 4 15 3 16 2 17 1 18
REMARK H PARENT
REMARK Flexibility Score: inf
ROOT
ATOM      1  C   UNL     1      -9.750   5.904   4.914  1.00  0.00     0.000 C 
ENDROOT
BRANCH   1   2
ATOM      2  C   UNL     1      -9.420   7.359   4.547  1.00  0.00     0.000 C 
BRANCH   2   3
ATOM      3  C   UNL     1      -8.753   8.125   5.701  1.00  0.00     0.000 C 
BRANCH   3   4
ATOM      4  C   UNL     1      -7.941   9.339   5.217  1.00  0.00     0.000 C 
BRANCH   4   5
ATOM      5  C   UNL     1      -7.088   9.955   6.347  1.00  0.00     0.000 C 
BRANCH   5   6
ATOM      6  C   UNL     1      -7.925  10.571   7.483  1.00  0.00     0.006 C 
BRANCH   6   7
ATOM      7  C   UNL     1      -8.728  11.798   7.034  1.00  0.00     0.053 C 
BRANCH   7   8
ATOM      8  C   UNL     1     -10.191  11.572   7.251  1.00  0.00     0.041 C 
ATOM      9  O   UNL     1     -10.758  12.035   8.275  1.00  0.00    -0.550 OA
ATOM     10  O   UNL     1     -10.917  10.807   6.347  1.00  0.00    -0.550 OA
ENDBRANCH   7   8
ENDBRANCH   6   7
ENDBRANCH   5   6
ENDBRANCH   4   5
ENDBRANCH   3   4
ENDBRANCH   2   3
ENDBRANCH   1   2
BRANCH   1  11
ATOM     11  C   UNL     1      -9.680   5.693   6.434  1.00  0.00     0.000 C 
BRANCH  11  12
ATOM     12  C   UNL     1     -11.063   5.456   7.062  1.00  0.00    -0.000 C 
BRANCH  12  13
ATOM     13  C   UNL     1     -11.029   4.411   8.191  1.00  0.00    -0.000 C 
BRANCH  13  14
ATOM     14  C   UNL     1     -11.661   3.071   7.780  1.00  0.00    -0.000 C 
BRANCH  14  15
ATOM     15  C   UNL     1     -12.733   3.236   6.690  1.00  0.00    -0.000 C 
BRANCH  15  16
ATOM     16  C   UNL     1     -12.283   2.691   5.321  1.00  0.00    -0.000 C 
BRANCH  16  17
ATOM     17  C   UNL     1     -12.530   3.637   4.131  1.00  0.00    -0.003 C 
ATOM     18  C   UNL     1     -13.622   4.670   4.403  1.00  0.00     0.004 C 
ENDBRANCH  16  17
ENDBRANCH  15  16
ENDBRANCH  14  15
ENDBRANCH  13  14
ENDBRANCH  12  13
ENDBRANCH  11  12
ENDBRANCH   1  11
TORSDOF 14
ENDMDL
MODEL 3
REMARK VINA RESULT:    -4.557      1.351      2.227
REMARK INTER + INTRA:          -9.713
REMARK INTER:                  -7.868
REMARK INTRA:                  -1.845
REMARK UNBOUND:                -1.426
REMARK SMILES CCCCCCCCCCCCCCCC(=O)[O-]
REMARK SMILES IDX 9 1 10 2 11 3 12 4 13 5 14 6 15 7 16 8 17 9 18 10 8 11 7 12
REMARK SMILES IDX 6 13 5 14 4 15 3 16 2 17 1 18
REMARK H PARENT
REMARK Flexibility Score: inf
ROOT
ATOM      1  C   UNL     1     -11.235   4.113   8.084  1.00  0.00     0.000 C 
ENDROOT
BRANCH   1   2
ATOM      2  C   UNL     1     -10.926   5.485   7.466  1.00  0.00     0.000 C 
BRANCH   2   3
ATOM      3  C   UNL     1      -9.705   5.453   6.533  1.00  0.00     0.000 C 
BRANCH   3   4
ATOM      4  C   UNL     1      -9.974   6.133   5.179  1.00  0.00     0.000 C 
BRANCH   4   5
ATOM      5  C   UNL     1      -9.910   7.672   5.279  1.00  0.00     0.000 C 
BRANCH   5   6
ATOM      6  C   UNL     1      -8.635   8.192   5.967  1.00  0.00     0.006 C 
BRANCH   6   7
ATOM      7  C   UNL     1      -8.017   9.395   5.246  1.00  0.00     0.053 C 
BRANCH   7   8
ATOM      8  C   UNL     1      -8.531  10.674   5.830  1.00  0.00     0.041 C 
ATOM      9  O   UNL     1      -7.934  11.212   6.799  1.00  0.00    -0.550 OA
ATOM     10  O   UNL     1      -9.697  11.244   5.335  1.00  0.00    -0.550 OA
ENDBRANCH   7   8
ENDBRANCH   6   7
ENDBRANCH   5   6
ENDBRANCH   4   5
ENDBRANCH   3   4
ENDBRANCH   2   3
ENDBRANCH   1   2
BRANCH   1  11
ATOM     11  C   UNL     1     -11.258   3.019   7.006  1.00  0.00     0.000 C 
BRANCH  11  12
ATOM     12  C   UNL     1     -12.575   2.997   6.213  1.00  0.00    -0.000 C 
BRANCH  12  13
ATOM     13  C   UNL     1     -12.376   3.336   4.725  1.00  0.00    -0.000 C 
BRANCH  13  14
ATOM     14  C   UNL     1     -13.243   4.518   4.264  1.00  0.00    -0.000 C 
BRANCH  14  15
ATOM     15  C   UNL     1     -13.973   5.204   5.430  1.00  0.00    -0.000 C 
BRANCH  15  16
ATOM     16  C   UNL     1     -13.610   6.695   5.569  1.00  0.00    -0.000 C 
BRANCH  16  17
ATOM     17  C   UNL     1     -14.692   7.676   5.081  1.00  0.00    -0.003 C 
ATOM     18  C   UNL     1     -16.111   7.138   5.254  1.00  0.00     0.004 C 
ENDBRANCH  16  17
ENDBRANCH  15  16
ENDBRANCH  14  15
ENDBRANCH  13  14
ENDBRANCH  12  13
ENDBRANCH  11  12
ENDBRANCH   1  11
TORSDOF 14
ENDMDL
MODEL 4
REMARK VINA RESULT:    -4.531      3.783      7.118
REMARK INTER + INTRA:          -9.666
REMARK INTER:                  -8.026
REMARK INTRA:                  -1.640
REMARK UNBOUND:                -1.426
REMARK SMILES CCCCCCCCCCCCCCCC(=O)[O-]
REMARK SMILES IDX 9 1 10 2 11 3 12 4 13 5 14 6 15 7 16 8 17 9 18 10 8 11 7 12
REMARK SMILES IDX 6 13 5 14 4 15 3 16 2 17 1 18
REMARK H PARENT
REMARK Flexibility Score: inf
ROOT
ATOM      1  C   UNL     1      -8.534   8.424   5.910  1.00  0.00     0.000 C 
ENDROOT
BRANCH   1   2
ATOM      2  C   UNL     1      -9.313   7.577   4.892  1.00  0.00     0.000 C 
BRANCH   2   3
ATOM      3  C   UNL     1     -10.362   6.670   5.556  1.00  0.00     0.000 C 
BRANCH   3   4
ATOM      4  C   UNL     1      -9.732   5.478   6.298  1.00  0.00     0.000 C 
BRANCH   4   5
ATOM      5  C   UNL     1     -10.763   4.720   7.161  1.00  0.00     0.000 C 
BRANCH   5   6
ATOM      6  C   UNL     1     -12.222   4.975   6.742  1.00  0.00     0.006 C 
BRANCH   6   7
ATOM      7  C   UNL     1     -12.866   3.763   6.058  1.00  0.00     0.053 C 
BRANCH   7   8
ATOM      8  C   UNL     1     -12.628   3.810   4.581  1.00  0.00     0.041 C 
ATOM      9  O   UNL     1     -13.480   4.337   3.819  1.00  0.00    -0.550 OA
ATOM     10  O   UNL     1     -11.488   3.226   4.043  1.00  0.00    -0.550 OA
ENDBRANCH   7   8
ENDBRANCH   6   7
ENDBRANCH   5   6
ENDBRANCH   4   5
ENDBRANCH   3   4
ENDBRANCH   2   3
ENDBRANCH   1   2
BRANCH   1  11
ATOM     11  C   UNL     1      -7.849   9.614   5.222  1.00  0.00     0.000 C 
BRANCH  11  12
ATOM     12  C   UNL     1      -6.979  10.434   6.188  1.00  0.00    -0.000 C 
BRANCH  12  13
ATOM     13  C   UNL     1      -7.807  11.149   7.271  1.00  0.00    -0.000 C 
BRANCH  13  14
ATOM     14  C   UNL     1      -8.990  11.939   6.689  1.00  0.00    -0.000 C 
BRANCH  14  15
ATOM     15  C   UNL     1     -10.285  11.740   7.493  1.00  0.00    -0.000 C 
BRANCH  15  16
ATOM     16  C   UNL     1     -11.538  11.668   6.601  1.00  0.00    -0.000 C 
BRANCH  16  17
ATOM     17  C   UNL     1     -11.727  10.337   5.850  1.00  0.00    -0.003 C 
ATOM     18  C   UNL     1     -11.575  10.476   4.337  1.00  0.00     0.004 C 
ENDBRANCH  16  17
ENDBRANCH  15  16
ENDBRANCH  14  15
ENDBRANCH  13  14
ENDBRANCH  12  13
ENDBRANCH  11  12
ENDBRANCH   1  11
TORSDOF 14
ENDMDL
MODEL 5
REMARK VINA RESULT:    -4.498      2.640      4.234
REMARK INTER + INTRA:          -9.605
REMARK INTER:                  -8.066
REMARK INTRA:                  -1.539
REMARK UNBOUND:                -1.426
REMARK SMILES CCCCCCCCCCCCCCCC(=O)[O-]
REMARK SMILES IDX 9 1 10 2 11 3 12 4 13 5 14 6 15 7 16 8 17 9 18 10 8 11 7 12
REMARK SMILES IDX 6 13 5 14 4 15 3 16 2 17 1 18
REMARK H PARENT
REMARK Flexibility Score: inf
ROOT
ATOM      1  C   UNL     1      -8.544   8.391   5.961  1.00  0.00     0.000 C 
ENDROOT
BRANCH   1   2
ATOM      2  C   UNL     1      -7.692   9.446   5.240  1.00  0.00     0.000 C 
BRANCH   2   3
ATOM      3  C   UNL     1      -7.018  10.428   6.211  1.00  0.00     0.000 C 
BRANCH   3   4
ATOM      4  C   UNL     1      -7.832  10.643   7.499  1.00  0.00     0.000 C 
BRANCH   4   5
ATOM      5  C   UNL     1      -8.792  11.847   7.385  1.00  0.00     0.000 C 
BRANCH   5   6
ATOM      6  C   UNL     1     -10.241  11.450   7.054  1.00  0.00     0.006 C 
BRANCH   6   7
ATOM      7  C   UNL     1     -10.584  11.626   5.570  1.00  0.00     0.053 C 
BRANCH   7   8
ATOM      8  C   UNL     1     -11.586  10.601   5.141  1.00  0.00     0.041 C 
ATOM      9  O   UNL     1     -12.160   9.878   5.997  1.00  0.00    -0.550 OA
ATOM     10  O   UNL     1     -11.850  10.412   3.790  1.00  0.00    -0.550 OA
ENDBRANCH   7   8
ENDBRANCH   6   7
ENDBRANCH   5   6
ENDBRANCH   4   5
ENDBRANCH   3   4
ENDBRANCH   2   3
ENDBRANCH   1   2
BRANCH   1  11
ATOM     11  C   UNL     1      -9.388   7.589   4.959  1.00  0.00     0.000 C 
BRANCH  11  12
ATOM     12  C   UNL     1     -10.451   6.716   5.646  1.00  0.00    -0.000 C 
BRANCH  12  13
ATOM     13  C   UNL     1      -9.847   5.478   6.332  1.00  0.00    -0.000 C 
BRANCH  13  14
ATOM     14  C   UNL     1     -10.773   4.884   7.406  1.00  0.00    -0.000 C 
BRANCH  14  15
ATOM     15  C   UNL     1     -11.213   3.448   7.076  1.00  0.00    -0.000 C 
BRANCH  15  16
ATOM     16  C   UNL     1     -12.733   3.323   6.862  1.00  0.00    -0.000 C 
BRANCH  16  17
ATOM     17  C   UNL     1     -13.364   4.438   6.008  1.00  0.00    -0.003 C 
ATOM     18  C   UNL     1     -13.069   4.291   4.517  1.00  0.00     0.004 C 
ENDBRANCH  16  17
ENDBRANCH  15  16
ENDBRANCH  14  15
ENDBRANCH  13  14
ENDBRANCH  12  13
ENDBRANCH  11  12
ENDBRANCH   1  11
TORSDOF 14
ENDMDL
MODEL 6
REMARK VINA RESULT:    -4.494      3.973      7.099
REMARK INTER + INTRA:          -9.598
REMARK INTER:                  -7.641
REMARK INTRA:                  -1.957
REMARK UNBOUND:                -1.426
REMARK SMILES CCCCCCCCCCCCCCCC(=O)[O-]
REMARK SMILES IDX 9 1 10 2 11 3 12 4 13 5 14 6 15 7 16 8 17 9 18 10 8 11 7 12
REMARK SMILES IDX 6 13 5 14 4 15 3 16 2 17 1 18
REMARK H PARENT
REMARK Flexibility Score: inf
ROOT
ATOM      1  C   UNL     1      -7.847   9.386   5.186  1.00  0.00     0.000 C 
ENDROOT
BRANCH   1   2
ATOM      2  C   UNL     1      -8.775   8.401   5.913  1.00  0.00     0.000 C 
BRANCH   2   3
ATOM      3  C   UNL     1      -9.390   7.358   4.967  1.00  0.00     0.000 C 
BRANCH   3   4
ATOM      4  C   UNL     1     -10.481   6.511   5.645  1.00  0.00     0.000 C 
BRANCH   4   5
ATOM      5  C   UNL     1      -9.887   5.348   6.468  1.00  0.00     0.000 C 
BRANCH   5   6
ATOM      6  C   UNL     1     -10.789   4.892   7.628  1.00  0.00     0.006 C 
BRANCH   6   7
ATOM      7  C   UNL     1     -11.238   3.431   7.496  1.00  0.00     0.053 C 
BRANCH   7   8
ATOM      8  C   UNL     1     -12.256   3.294   6.409  1.00  0.00     0.041 C 
ATOM      9  O   UNL     1     -13.349   3.915   6.482  1.00  0.00    -0.550 OA
ATOM     10  O   UNL     1     -12.018   2.441   5.338  1.00  0.00    -0.550 OA
ENDBRANCH   7   8
ENDBRANCH   6   7
ENDBRANCH   5   6
ENDBRANCH   4   5
ENDBRANCH   3   4
ENDBRANCH   2   3
ENDBRANCH   1   2
BRANCH   1  11
ATOM     11  C   UNL     1      -7.520  10.592   6.078  1.00  0.00     0.000 C 
BRANCH  11  12
ATOM     12  C   UNL     1      -8.190  10.505   7.459  1.00  0.00    -0.000 C 
BRANCH  12  13
ATOM     13  C   UNL     1      -9.209  11.634   7.696  1.00  0.00    -0.000 C 
BRANCH  13  14
ATOM     14  C   UNL     1      -9.375  12.550   6.473  1.00  0.00    -0.000 C 
BRANCH  14  15
ATOM     15  C   UNL     1     -10.786  12.474   5.867  1.00  0.00    -0.000 C 
BRANCH  15  16
ATOM     16  C   UNL     1     -10.815  11.749   4.508  1.00  0.00    -0.000 C 
BRANCH  16  17
ATOM     17  C   UNL     1     -11.554  10.398   4.507  1.00  0.00    -0.003 C 
ATOM     18  C   UNL     1     -12.117  10.021   5.876  1.00  0.00     0.004 C 
ENDBRANCH  16  17
ENDBRANCH  15  16
ENDBRANCH  14  15
ENDBRANCH  13  14
ENDBRANCH  12  13
ENDBRANCH  11  12
ENDBRANCH   1  11
TORSDOF 14
ENDMDL
MODEL 7
REMARK VINA RESULT:    -4.475      1.485      3.589
REMARK INTER + INTRA:          -9.562
REMARK INTER:                  -7.675
REMARK INTRA:                  -1.887
REMARK UNBOUND:                -1.426
REMARK SMILES CCCCCCCCCCCCCCCC(=O)[O-]
REMARK SMILES IDX 9 1 10 2 11 3 12 4 13 5 14 6 15 7 16 8 17 9 18 10 8 11 7 12
REMARK SMILES IDX 6 13 5 14 4 15 3 16 2 17 1 18
REMARK H PARENT
REMARK Flexibility Score: inf
ROOT
ATOM      1  C   UNL     1     -13.766   5.535   5.517  1.00  0.00     0.000 C 
ENDROOT
BRANCH   1   2
ATOM      2  C   UNL     1     -14.624   6.584   4.792  1.00  0.00     0.000 C 
BRANCH   2   3
ATOM      3  C   UNL     1     -14.340   8.016   5.272  1.00  0.00     0.000 C 
BRANCH   3   4
ATOM      4  C   UNL     1     -12.993   8.140   6.006  1.00  0.00     0.000 C 
BRANCH   4   5
ATOM      5  C   UNL     1     -12.307   9.497   5.736  1.00  0.00     0.000 C 
BRANCH   5   6
ATOM      6  C   UNL     1     -10.879   9.364   5.178  1.00  0.00     0.006 C 
BRANCH   6   7
ATOM      7  C   UNL     1      -9.951  10.494   5.640  1.00  0.00     0.053 C 
BRANCH   7   8
ATOM      8  C   UNL     1      -8.586   9.959   5.939  1.00  0.00     0.041 C 
ATOM      9  O   UNL     1      -8.243   9.725   7.127  1.00  0.00    -0.550 OA
ATOM     10  O   UNL     1      -7.676   9.765   4.907  1.00  0.00    -0.550 OA
ENDBRANCH   7   8
ENDBRANCH   6   7
ENDBRANCH   5   6
ENDBRANCH   4   5
ENDBRANCH   3   4
ENDBRANCH   2   3
ENDBRANCH   1   2
BRANCH   1  11
ATOM     11  C   UNL     1     -13.422   4.367   4.581  1.00  0.00     0.000 C 
BRANCH  11  12
ATOM     12  C   UNL     1     -12.680   3.231   5.303  1.00  0.00    -0.000 C 
BRANCH  12  13
ATOM     13  C   UNL     1     -13.139   3.056   6.762  1.00  0.00    -0.000 C 
BRANCH  13  14
ATOM     14  C   UNL     1     -11.977   3.140   7.764  1.00  0.00    -0.000 C 
BRANCH  14  15
ATOM     15  C   UNL     1     -10.706   3.744   7.144  1.00  0.00    -0.000 C 
BRANCH  15  16
ATOM     16  C   UNL     1     -10.603   5.266   7.357  1.00  0.00    -0.000 C 
BRANCH  16  17
ATOM     17  C   UNL     1      -9.639   5.993   6.402  1.00  0.00    -0.003 C 
ATOM     18  C   UNL     1      -9.929   5.713   4.929  1.00  0.00     0.004 C 
ENDBRANCH  16  17
ENDBRANCH  15  16
ENDBRANCH  14  15
ENDBRANCH  13  14
ENDBRANCH  12  13
ENDBRANCH  11  12
ENDBRANCH   1  11
TORSDOF 14
ENDMDL
MODEL 8
REMARK VINA RESULT:    -4.458      2.885      6.165
REMARK INTER + INTRA:          -9.533
REMARK INTER:                  -7.907
REMARK INTRA:                  -1.626
REMARK UNBOUND:                -1.426
REMARK SMILES CCCCCCCCCCCCCCCC(=O)[O-]
REMARK SMILES IDX 9 1 10 2 11 3 12 4 13 5 14 6 15 7 16 8 17 9 18 10 8 11 7 12
REMARK SMILES IDX 6 13 5 14 4 15 3 16 2 17 1 18
REMARK H PARENT
REMARK Flexibility Score: inf
ROOT
ATOM      1  C   UNL     1     -11.509   4.204   7.934  1.00  0.00     0.000 C 
ENDROOT
BRANCH   1   2
ATOM      2  C   UNL     1     -11.258   3.100   6.896  1.00  0.00     0.000 C 
BRANCH   2   3
ATOM      3  C   UNL     1     -12.439   2.917   5.928  1.00  0.00     0.000 C 
BRANCH   3   4
ATOM      4  C   UNL     1     -13.484   4.040   6.048  1.00  0.00     0.000 C 
BRANCH   4   5
ATOM      5  C   UNL     1     -13.607   4.859   4.745  1.00  0.00     0.000 C 
BRANCH   5   6
ATOM      6  C   UNL     1     -14.388   6.174   4.918  1.00  0.00     0.006 C 
BRANCH   6   7
ATOM      7  C   UNL     1     -13.598   7.240   5.687  1.00  0.00     0.053 C 
BRANCH   7   8
ATOM      8  C   UNL     1     -13.916   8.605   5.163  1.00  0.00     0.041 C 
ATOM      9  O   UNL     1     -14.660   8.740   4.157  1.00  0.00    -0.550 OA
ATOM     10  O   UNL     1     -13.350   9.726   5.757  1.00  0.00    -0.550 OA
ENDBRANCH   7   8
ENDBRANCH   6   7
ENDBRANCH   5   6
ENDBRANCH   4   5
ENDBRANCH   3   4
ENDBRANCH   2   3
ENDBRANCH   1   2
BRANCH   1  11
ATOM     11  C   UNL     1     -10.648   5.440   7.639  1.00  0.00     0.000 C 
BRANCH  11  12
ATOM     12  C   UNL     1      -9.728   5.243   6.423  1.00  0.00    -0.000 C 
BRANCH  12  13
ATOM     13  C   UNL     1     -10.203   6.026   5.187  1.00  0.00    -0.000 C 
BRANCH  13  14
ATOM     14  C   UNL     1      -9.311   7.236   4.870  1.00  0.00    -0.000 C 
BRANCH  14  15
ATOM     15  C   UNL     1     -10.027   8.576   5.112  1.00  0.00    -0.000 C 
BRANCH  15  16
ATOM     16  C   UNL     1      -9.159   9.586   5.886  1.00  0.00    -0.000 C 
BRANCH  16  17
ATOM     17  C   UNL     1      -7.918  10.093   5.128  1.00  0.00    -0.003 C 
ATOM     18  C   UNL     1      -6.625   9.939   5.926  1.00  0.00     0.004 C 
ENDBRANCH  16  17
ENDBRANCH  15  16
ENDBRANCH  14  15
ENDBRANCH  13  14
ENDBRANCH  12  13
ENDBRANCH  11  12
ENDBRANCH   1  11
TORSDOF 14
ENDMDL
MODEL 9
REMARK VINA RESULT:    -4.393      1.402      3.231
REMARK INTER + INTRA:          -9.414
REMARK INTER:                  -7.598
REMARK INTRA:                  -1.816
REMARK UNBOUND:                -1.426
REMARK SMILES CCCCCCCCCCCCCCCC(=O)[O-]
REMARK SMILES IDX 9 1 10 2 11 3 12 4 13 5 14 6 15 7 16 8 17 9 18 10 8 11 7 12
REMARK SMILES IDX 6 13 5 14 4 15 3 16 2 17 1 18
REMARK H PARENT
REMARK Flexibility Score: inf
ROOT
ATOM      1  C   UNL     1     -11.784   3.113   6.245  1.00  0.00     0.000 C 
ENDROOT
BRANCH   1   2
ATOM      2  C   UNL     1     -11.101   3.677   7.500  1.00  0.00     0.000 C 
BRANCH   2   3
ATOM      3  C   UNL     1     -10.809   5.182   7.390  1.00  0.00     0.000 C 
BRANCH   3   4
ATOM      4  C   UNL     1      -9.714   5.501   6.358  1.00  0.00     0.000 C 
BRANCH   4   5
ATOM      5  C   UNL     1     -10.219   6.446   5.247  1.00  0.00     0.000 C 
BRANCH   5   6
ATOM      6  C   UNL     1      -9.222   7.562   4.888  1.00  0.00     0.006 C 
BRANCH   6   7
ATOM      7  C   UNL     1      -8.601   8.227   6.122  1.00  0.00     0.053 C 
BRANCH   7   8
ATOM      8  C   UNL     1      -7.841   9.454   5.727  1.00  0.00     0.041 C 
ATOM      9  O   UNL     1      -6.689   9.662   6.190  1.00  0.00    -0.550 OA
ATOM     10  O   UNL     1      -8.425  10.392   4.885  1.00  0.00    -0.550 OA
ENDBRANCH   7   8
ENDBRANCH   6   7
ENDBRANCH   5   6
ENDBRANCH   4   5
ENDBRANCH   3   4
ENDBRANCH   2   3
ENDBRANCH   1   2
BRANCH   1  11
ATOM     11  C   UNL     1     -13.188   3.709   6.070  1.00  0.00     0.000 C 
BRANCH  11  12
ATOM     12  C   UNL     1     -13.339   4.494   4.757  1.00  0.00    -0.000 C 
BRANCH  12  13
ATOM     13  C   UNL     1     -14.282   5.703   4.894  1.00  0.00    -0.000 C 
BRANCH  13  14
ATOM     14  C   UNL     1     -13.653   6.859   5.688  1.00  0.00    -0.000 C 
BRANCH  14  15
ATOM     15  C   UNL     1     -14.125   8.237   5.194  1.00  0.00    -0.000 C 
BRANCH  15  16
ATOM     16  C   UNL     1     -13.553   9.399   6.028  1.00  0.00    -0.000 C 
BRANCH  16  17
ATOM     17  C   UNL     1     -12.079   9.741   5.743  1.00  0.00    -0.003 C 
ATOM     18  C   UNL     1     -11.874  10.441   4.401  1.00  0.00     0.004 C 
ENDBRANCH  16  17
ENDBRANCH  15  16
ENDBRANCH  14  15
ENDBRANCH  13  14
ENDBRANCH  12  13
ENDBRANCH  11  12
ENDBRANCH   1  11
TORSDOF 14
ENDMDL
