MODEL 1
REMARK VINA RESULT:    22.738      0.000      0.000
REMARK INTER + INTRA:          29.414
REMARK INTER:                  30.050
REMARK INTRA:                  -0.636
REMARK UNBOUND:                -0.636
REMARK SMILES CC[C@H](C=C[C@@H](C)[C@@H]1CC[C@@H]2[C@H]3CC=C4C[C@@H](O)CC[C@]4(C)[C@@H]3CC[C@@]21C)C(C)C
REMARK SMILES IDX 6 1 7 2 5 3 4 4 3 5 2 6 1 7 28 8 29 9 30 10 8 11 9 12 26 13
REMARK SMILES IDX 10 14 11 15 25 16 27 17 12 18 24 19 23 20 13 21 21 22 14 23
REMARK SMILES IDX 15 24 20 25 22 26 16 27 19 28 17 29 18 30
REMARK H PARENT 18 31
REMARK Flexibility Score: inf
ROOT
ATOM      1  C   UNL     1       4.872  14.377  17.485  1.00  0.00     0.012 C 
ATOM      2  C   UNL     1       4.459  13.100  18.233  1.00  0.00     0.012 C 
ENDROOT
BRANCH   1   3
ATOM      3  C   UNL     1       5.296  13.999  16.080  1.00  0.00    -0.028 C 
ATOM      4  C   UNL     1       4.492  13.960  14.996  1.00  0.00    -0.027 C 
BRANCH   4   5
ATOM      5  C   UNL     1       3.022  14.358  14.965  1.00  0.00     0.014 C 
BRANCH   5   6
ATOM      6  C   UNL     1       2.687  14.919  13.553  1.00  0.00     0.004 C 
ATOM      7  C   UNL     1       3.597  14.352  12.462  1.00  0.00     0.004 C 
ENDBRANCH   5   6
BRANCH   5   8
ATOM      8  C   UNL     1       2.121  13.142  15.354  1.00  0.00    -0.011 C 
ATOM      9  C   UNL     1       1.522  13.314  16.763  1.00  0.00     0.008 C 
ATOM     10  C   UNL     1       0.971  12.931  14.352  1.00  0.00     0.008 C 
ENDBRANCH   5   8
ENDBRANCH   4   5
ENDBRANCH   1   3
BRANCH   1  11
ATOM     11  C   UNL     1       5.884  15.254  18.309  1.00  0.00     0.002 C 
ATOM     12  C   UNL     1       7.172  14.519  18.675  1.00  0.00     0.005 C 
ATOM     13  C   UNL     1       5.500  16.033  19.611  1.00  0.00    -0.026 C 
ATOM     14  C   UNL     1       7.864  15.400  19.721  1.00  0.00     0.005 C 
ATOM     15  C   UNL     1       6.901  16.567  20.026  1.00  0.00    -0.001 C 
ATOM     16  C   UNL     1       4.894  15.112  20.738  1.00  0.00     0.007 C 
ATOM     17  C   UNL     1       4.545  17.202  19.269  1.00  0.00     0.012 C 
ATOM     18  C   UNL     1       7.056  17.110  21.488  1.00  0.00     0.000 C 
ATOM     19  C   UNL     1       5.443  15.320  22.165  1.00  0.00     0.005 C 
ATOM     20  C   UNL     1       5.867  16.773  22.409  1.00  0.00     0.003 C 
ATOM     21  C   UNL     1       7.256  18.630  21.523  1.00  0.00     0.031 C 
ATOM     22  C   UNL     1       6.170  17.147  23.914  1.00  0.00    -0.008 C 
ATOM     23  C   UNL     1       7.488  19.094  22.934  1.00  0.00    -0.027 C 
ATOM     24  C   UNL     1       6.996  18.448  24.017  1.00  0.00    -0.065 C 
ATOM     25  C   UNL     1       6.975  16.021  24.637  1.00  0.00     0.014 C 
ATOM     26  C   UNL     1       4.813  17.365  24.636  1.00  0.00     0.016 C 
ATOM     27  C   UNL     1       7.463  18.873  25.392  1.00  0.00     0.063 C 
ATOM     28  C   UNL     1       7.467  16.414  26.045  1.00  0.00     0.033 C 
ATOM     29  C   UNL     1       8.269  17.730  26.028  1.00  0.00     0.118 C 
BRANCH  29  30
ATOM     30  O   UNL     1       8.680  18.074  27.328  1.00  0.00    -0.393 OA
ATOM     31  H   UNL     1       7.966  17.789  27.955  1.00  0.00     0.210 HD
ENDBRANCH  29  30
ENDBRANCH   1  11
TORSDOF 6
ENDMDL
