MODEL 1
REMARK VINA RESULT:    -4.536      0.000      0.000
REMARK INTER + INTRA:         -10.434
REMARK INTER:                  -8.514
REMARK INTRA:                  -1.920
REMARK UNBOUND:                -1.920
REMARK SMILES CCCCCCCCC=CCCCCCCCC(=O)[O-]
REMARK SMILES IDX 10 1 9 2 11 3 12 4 13 5 14 6 15 7 16 8 17 9 18 10 19 11
REMARK SMILES IDX 20 12 8 13 7 14 6 15 5 16 4 17 3 18 2 19 1 20
REMARK H PARENT
REMARK Flexibility Score: inf
ROOT
ATOM      1  C   UNL     1      -2.066  27.027  57.359  1.00  0.00    -0.031 C 
ATOM      2  C   UNL     1      -2.894  27.353  58.364  1.00  0.00    -0.031 C 
ENDROOT
BRANCH   1   3
ATOM      3  C   UNL     1      -1.386  28.077  56.526  1.00  0.00     0.027 C 
BRANCH   3   4
ATOM      4  C   UNL     1      -2.403  29.086  55.971  1.00  0.00     0.004 C 
BRANCH   4   5
ATOM      5  C   UNL     1      -3.364  28.458  54.948  1.00  0.00     0.000 C 
BRANCH   5   6
ATOM      6  C   UNL     1      -4.808  28.965  55.106  1.00  0.00     0.000 C 
BRANCH   6   7
ATOM      7  C   UNL     1      -5.120  29.415  56.542  1.00  0.00     0.000 C 
BRANCH   7   8
ATOM      8  C   UNL     1      -5.552  30.891  56.621  1.00  0.00     0.006 C 
BRANCH   8   9
ATOM      9  C   UNL     1      -5.757  31.509  55.233  1.00  0.00     0.053 C 
BRANCH   9  10
ATOM     10  C   UNL     1      -7.196  31.835  54.977  1.00  0.00     0.041 C 
ATOM     11  O   UNL     1      -8.069  31.583  55.850  1.00  0.00    -0.550 OA
ATOM     12  O   UNL     1      -7.578  32.387  53.761  1.00  0.00    -0.550 OA
ENDBRANCH   9  10
ENDBRANCH   8   9
ENDBRANCH   7   8
ENDBRANCH   6   7
ENDBRANCH   5   6
ENDBRANCH   4   5
ENDBRANCH   3   4
ENDBRANCH   1   3
BRANCH   2  13
ATOM     13  C   UNL     1      -3.574  26.301  59.196  1.00  0.00     0.027 C 
BRANCH  13  14
ATOM     14  C   UNL     1      -4.312  25.287  58.309  1.00  0.00     0.004 C 
BRANCH  14  15
ATOM     15  C   UNL     1      -5.544  25.888  57.608  1.00  0.00     0.000 C 
BRANCH  15  16
ATOM     16  C   UNL     1      -6.902  25.342  58.085  1.00  0.00     0.000 C 
BRANCH  16  17
ATOM     17  C   UNL     1      -7.726  26.381  58.864  1.00  0.00    -0.000 C 
BRANCH  17  18
ATOM     18  C   UNL     1      -8.024  25.949  60.312  1.00  0.00    -0.000 C 
BRANCH  18  19
ATOM     19  C   UNL     1      -6.891  26.214  61.320  1.00  0.00    -0.003 C 
ATOM     20  C   UNL     1      -7.377  26.288  62.766  1.00  0.00     0.004 C 
ENDBRANCH  18  19
ENDBRANCH  17  18
ENDBRANCH  16  17
ENDBRANCH  15  16
ENDBRANCH  14  15
ENDBRANCH  13  14
ENDBRANCH   2  13
TORSDOF 15
ENDMDL
MODEL 2
REMARK VINA RESULT:    -4.400      1.640      3.054
REMARK INTER + INTRA:         -10.178
REMARK INTER:                  -7.671
REMARK INTRA:                  -2.507
REMARK UNBOUND:                -1.920
REMARK SMILES CCCCCCCCC=CCCCCCCCC(=O)[O-]
REMARK SMILES IDX 10 1 9 2 11 3 12 4 13 5 14 6 15 7 16 8 17 9 18 10 19 11
REMARK SMILES IDX 20 12 8 13 7 14 6 15 5 16 4 17 3 18 2 19 1 20
REMARK H PARENT
REMARK Flexibility Score: inf
ROOT
ATOM      1  C   UNL     1      -1.881  27.556  58.036  1.00  0.00    -0.031 C 
ATOM      2  C   UNL     1      -2.670  27.306  59.093  1.00  0.00    -0.031 C 
ENDROOT
BRANCH   1   3
ATOM      3  C   UNL     1      -1.138  28.856  57.898  1.00  0.00     0.027 C 
BRANCH   3   4
ATOM      4  C   UNL     1      -1.783  29.750  56.827  1.00  0.00     0.004 C 
BRANCH   4   5
ATOM      5  C   UNL     1      -2.906  30.636  57.391  1.00  0.00     0.000 C 
BRANCH   5   6
ATOM      6  C   UNL     1      -4.308  30.105  57.042  1.00  0.00     0.000 C 
BRANCH   6   7
ATOM      7  C   UNL     1      -4.412  29.632  55.583  1.00  0.00     0.000 C 
BRANCH   7   8
ATOM      8  C   UNL     1      -5.276  30.566  54.715  1.00  0.00     0.006 C 
BRANCH   8   9
ATOM      9  C   UNL     1      -5.873  31.721  55.528  1.00  0.00     0.053 C 
BRANCH   9  10
ATOM     10  C   UNL     1      -7.356  31.579  55.687  1.00  0.00     0.041 C 
ATOM     11  O   UNL     1      -7.873  31.562  56.835  1.00  0.00    -0.550 OA
ATOM     12  O   UNL     1      -8.164  31.434  54.566  1.00  0.00    -0.550 OA
ENDBRANCH   9  10
ENDBRANCH   8   9
ENDBRANCH   7   8
ENDBRANCH   6   7
ENDBRANCH   5   6
ENDBRANCH   4   5
ENDBRANCH   3   4
ENDBRANCH   1   3
BRANCH   2  13
ATOM     13  C   UNL     1      -3.413  26.005  59.230  1.00  0.00     0.027 C 
BRANCH  13  14
ATOM     14  C   UNL     1      -4.839  26.237  59.751  1.00  0.00     0.004 C 
BRANCH  14  15
ATOM     15  C   UNL     1      -5.922  25.876  58.717  1.00  0.00     0.000 C 
BRANCH  15  16
ATOM     16  C   UNL     1      -5.962  26.777  57.469  1.00  0.00     0.000 C 
BRANCH  16  17
ATOM     17  C   UNL     1      -5.767  25.994  56.159  1.00  0.00    -0.000 C 
BRANCH  17  18
ATOM     18  C   UNL     1      -4.302  25.973  55.684  1.00  0.00    -0.000 C 
BRANCH  18  19
ATOM     19  C   UNL     1      -3.583  24.621  55.845  1.00  0.00    -0.003 C 
ATOM     20  C   UNL     1      -4.510  23.498  56.304  1.00  0.00     0.004 C 
ENDBRANCH  18  19
ENDBRANCH  17  18
ENDBRANCH  16  17
ENDBRANCH  15  16
ENDBRANCH  14  15
ENDBRANCH  13  14
ENDBRANCH   2  13
TORSDOF 15
ENDMDL
MODEL 3
REMARK VINA RESULT:    -4.359      1.443      3.186
REMARK INTER + INTRA:         -10.102
REMARK INTER:                  -7.899
REMARK INTRA:                  -2.204
REMARK UNBOUND:                -1.920
REMARK SMILES CCCCCCCCC=CCCCCCCCC(=O)[O-]
REMARK SMILES IDX 10 1 9 2 11 3 12 4 13 5 14 6 15 7 16 8 17 9 18 10 19 11
REMARK SMILES IDX 20 12 8 13 7 14 6 15 5 16 4 17 3 18 2 19 1 20
REMARK H PARENT
REMARK Flexibility Score: inf
ROOT
ATOM      1  C   UNL     1      -3.164  27.186  58.198  1.00  0.00    -0.031 C 
ATOM      2  C   UNL     1      -3.467  26.326  59.183  1.00  0.00    -0.031 C 
ENDROOT
BRANCH   1   3
ATOM      3  C   UNL     1      -1.768  27.297  57.651  1.00  0.00     0.027 C 
BRANCH   3   4
ATOM      4  C   UNL     1      -1.780  27.854  56.219  1.00  0.00     0.004 C 
BRANCH   4   5
ATOM      5  C   UNL     1      -2.982  28.774  55.950  1.00  0.00     0.000 C 
BRANCH   5   6
ATOM      6  C   UNL     1      -2.722  30.227  56.387  1.00  0.00     0.000 C 
BRANCH   6   7
ATOM      7  C   UNL     1      -3.951  30.872  57.048  1.00  0.00     0.000 C 
BRANCH   7   8
ATOM      8  C   UNL     1      -5.266  30.520  56.328  1.00  0.00     0.006 C 
BRANCH   8   9
ATOM      9  C   UNL     1      -5.633  31.554  55.257  1.00  0.00     0.053 C 
BRANCH   9  10
ATOM     10  C   UNL     1      -7.111  31.783  55.190  1.00  0.00     0.041 C 
ATOM     11  O   UNL     1      -7.646  32.167  54.116  1.00  0.00    -0.550 OA
ATOM     12  O   UNL     1      -7.895  31.601  56.323  1.00  0.00    -0.550 OA
ENDBRANCH   9  10
ENDBRANCH   8   9
ENDBRANCH   7   8
ENDBRANCH   6   7
ENDBRANCH   5   6
ENDBRANCH   4   5
ENDBRANCH   3   4
ENDBRANCH   1   3
BRANCH   2  13
ATOM     13  C   UNL     1      -4.863  26.216  59.731  1.00  0.00     0.027 C 
BRANCH  13  14
ATOM     14  C   UNL     1      -5.907  26.366  58.614  1.00  0.00     0.004 C 
BRANCH  14  15
ATOM     15  C   UNL     1      -6.938  25.222  58.598  1.00  0.00     0.000 C 
BRANCH  15  16
ATOM     16  C   UNL     1      -6.771  24.204  57.455  1.00  0.00     0.000 C 
BRANCH  16  17
ATOM     17  C   UNL     1      -5.386  23.535  57.446  1.00  0.00    -0.000 C 
BRANCH  17  18
ATOM     18  C   UNL     1      -4.759  23.470  56.040  1.00  0.00    -0.000 C 
BRANCH  18  19
ATOM     19  C   UNL     1      -3.945  24.711  55.631  1.00  0.00    -0.003 C 
ATOM     20  C   UNL     1      -4.806  25.827  55.041  1.00  0.00     0.004 C 
ENDBRANCH  18  19
ENDBRANCH  17  18
ENDBRANCH  16  17
ENDBRANCH  15  16
ENDBRANCH  14  15
ENDBRANCH  13  14
ENDBRANCH   2  13
TORSDOF 15
ENDMDL
MODEL 4
REMARK VINA RESULT:    -4.314      1.844      3.841
REMARK INTER + INTRA:         -10.016
REMARK INTER:                  -7.420
REMARK INTRA:                  -2.596
REMARK UNBOUND:                -1.920
REMARK SMILES CCCCCCCCC=CCCCCCCCC(=O)[O-]
REMARK SMILES IDX 10 1 9 2 11 3 12 4 13 5 14 6 15 7 16 8 17 9 18 10 19 11
REMARK SMILES IDX 20 12 8 13 7 14 6 15 5 16 4 17 3 18 2 19 1 20
REMARK H PARENT
REMARK Flexibility Score: inf
ROOT
ATOM      1  C   UNL     1      -4.391  27.061  58.220  1.00  0.00    -0.031 C 
ATOM      2  C   UNL     1      -5.636  27.251  57.757  1.00  0.00    -0.031 C 
ENDROOT
BRANCH   1   3
ATOM      3  C   UNL     1      -3.251  27.949  57.804  1.00  0.00     0.027 C 
BRANCH   3   4
ATOM      4  C   UNL     1      -2.977  29.028  58.863  1.00  0.00     0.004 C 
BRANCH   4   5
ATOM      5  C   UNL     1      -2.730  30.415  58.246  1.00  0.00     0.000 C 
BRANCH   5   6
ATOM      6  C   UNL     1      -2.986  30.439  56.729  1.00  0.00     0.000 C 
BRANCH   6   7
ATOM      7  C   UNL     1      -4.159  31.353  56.344  1.00  0.00     0.000 C 
BRANCH   7   8
ATOM      8  C   UNL     1      -5.491  30.590  56.216  1.00  0.00     0.006 C 
BRANCH   8   9
ATOM      9  C   UNL     1      -6.106  30.733  54.819  1.00  0.00     0.053 C 
BRANCH   9  10
ATOM     10  C   UNL     1      -7.291  31.649  54.825  1.00  0.00     0.041 C 
ATOM     11  O   UNL     1      -7.438  32.503  53.911  1.00  0.00    -0.550 OA
ATOM     12  O   UNL     1      -8.216  31.582  55.859  1.00  0.00    -0.550 OA
ENDBRANCH   9  10
ENDBRANCH   8   9
ENDBRANCH   7   8
ENDBRANCH   6   7
ENDBRANCH   5   6
ENDBRANCH   4   5
ENDBRANCH   3   4
ENDBRANCH   1   3
BRANCH   2  13
ATOM     13  C   UNL     1      -6.775  26.362  58.174  1.00  0.00     0.027 C 
BRANCH  13  14
ATOM     14  C   UNL     1      -6.283  24.937  58.470  1.00  0.00     0.004 C 
BRANCH  14  15
ATOM     15  C   UNL     1      -6.375  24.004  57.248  1.00  0.00     0.000 C 
BRANCH  15  16
ATOM     16  C   UNL     1      -5.025  23.612  56.619  1.00  0.00     0.000 C 
BRANCH  16  17
ATOM     17  C   UNL     1      -4.545  24.615  55.557  1.00  0.00    -0.000 C 
BRANCH  17  18
ATOM     18  C   UNL     1      -5.652  25.009  54.560  1.00  0.00    -0.000 C 
BRANCH  18  19
ATOM     19  C   UNL     1      -5.588  26.462  54.056  1.00  0.00    -0.003 C 
ATOM     20  C   UNL     1      -4.262  27.151  54.372  1.00  0.00     0.004 C 
ENDBRANCH  18  19
ENDBRANCH  17  18
ENDBRANCH  16  17
ENDBRANCH  15  16
ENDBRANCH  14  15
ENDBRANCH  13  14
ENDBRANCH   2  13
TORSDOF 15
ENDMDL
MODEL 5
REMARK VINA RESULT:    -4.306      1.622      3.733
REMARK INTER + INTRA:         -10.002
REMARK INTER:                  -7.268
REMARK INTRA:                  -2.734
REMARK UNBOUND:                -1.920
REMARK SMILES CCCCCCCCC=CCCCCCCCC(=O)[O-]
REMARK SMILES IDX 10 1 9 2 11 3 12 4 13 5 14 6 15 7 16 8 17 9 18 10 19 11
REMARK SMILES IDX 20 12 8 13 7 14 6 15 5 16 4 17 3 18 2 19 1 20
REMARK H PARENT
REMARK Flexibility Score: inf
ROOT
ATOM      1  C   UNL     1      -4.154  25.874  59.207  1.00  0.00    -0.031 C 
ATOM      2  C   UNL     1      -5.295  26.523  58.929  1.00  0.00    -0.031 C 
ENDROOT
BRANCH   1   3
ATOM      3  C   UNL     1      -2.814  26.440  58.828  1.00  0.00     0.027 C 
BRANCH   3   4
ATOM      4  C   UNL     1      -2.639  27.863  59.380  1.00  0.00     0.004 C 
BRANCH   4   5
ATOM      5  C   UNL     1      -2.215  28.871  58.299  1.00  0.00     0.000 C 
BRANCH   5   6
ATOM      6  C   UNL     1      -2.373  28.309  56.875  1.00  0.00     0.000 C 
BRANCH   6   7
ATOM      7  C   UNL     1      -3.268  29.192  55.990  1.00  0.00     0.000 C 
BRANCH   7   8
ATOM      8  C   UNL     1      -4.610  29.539  56.660  1.00  0.00     0.006 C 
BRANCH   8   9
ATOM      9  C   UNL     1      -4.938  31.033  56.557  1.00  0.00     0.053 C 
BRANCH   9  10
ATOM     10  C   UNL     1      -6.264  31.266  55.900  1.00  0.00     0.041 C 
ATOM     11  O   UNL     1      -7.315  31.321  56.593  1.00  0.00    -0.550 OA
ATOM     12  O   UNL     1      -6.343  31.391  54.519  1.00  0.00    -0.550 OA
ENDBRANCH   9  10
ENDBRANCH   8   9
ENDBRANCH   7   8
ENDBRANCH   6   7
ENDBRANCH   5   6
ENDBRANCH   4   5
ENDBRANCH   3   4
ENDBRANCH   1   3
BRANCH   2  13
ATOM     13  C   UNL     1      -6.636  25.956  59.308  1.00  0.00     0.027 C 
BRANCH  13  14
ATOM     14  C   UNL     1      -7.513  25.736  58.066  1.00  0.00     0.004 C 
BRANCH  14  15
ATOM     15  C   UNL     1      -7.190  24.423  57.329  1.00  0.00     0.000 C 
BRANCH  15  16
ATOM     16  C   UNL     1      -6.867  24.576  55.831  1.00  0.00     0.000 C 
BRANCH  16  17
ATOM     17  C   UNL     1      -6.320  25.968  55.474  1.00  0.00    -0.000 C 
BRANCH  17  18
ATOM     18  C   UNL     1      -4.792  25.982  55.283  1.00  0.00    -0.000 C 
BRANCH  18  19
ATOM     19  C   UNL     1      -4.058  24.732  55.801  1.00  0.00    -0.003 C 
ATOM     20  C   UNL     1      -2.620  24.626  55.295  1.00  0.00     0.004 C 
ENDBRANCH  18  19
ENDBRANCH  17  18
ENDBRANCH  16  17
ENDBRANCH  15  16
ENDBRANCH  14  15
ENDBRANCH  13  14
ENDBRANCH   2  13
TORSDOF 15
ENDMDL
MODEL 6
REMARK VINA RESULT:    -4.289      3.268      6.078
REMARK INTER + INTRA:          -9.970
REMARK INTER:                  -7.405
REMARK INTRA:                  -2.564
REMARK UNBOUND:                -1.920
REMARK SMILES CCCCCCCCC=CCCCCCCCC(=O)[O-]
REMARK SMILES IDX 10 1 9 2 11 3 12 4 13 5 14 6 15 7 16 8 17 9 18 10 19 11
REMARK SMILES IDX 20 12 8 13 7 14 6 15 5 16 4 17 3 18 2 19 1 20
REMARK H PARENT
REMARK Flexibility Score: inf
ROOT
ATOM      1  C   UNL     1      -1.634  26.931  57.159  1.00  0.00    -0.031 C 
ATOM      2  C   UNL     1      -1.425  28.090  57.802  1.00  0.00    -0.031 C 
ENDROOT
BRANCH   1   3
ATOM      3  C   UNL     1      -0.808  26.531  55.968  1.00  0.00     0.027 C 
BRANCH   3   4
ATOM      4  C   UNL     1      -0.940  25.026  55.686  1.00  0.00     0.004 C 
BRANCH   4   5
ATOM      5  C   UNL     1      -2.081  24.371  56.480  1.00  0.00     0.000 C 
BRANCH   5   6
ATOM      6  C   UNL     1      -2.860  23.336  55.649  1.00  0.00     0.000 C 
BRANCH   6   7
ATOM      7  C   UNL     1      -4.382  23.467  55.821  1.00  0.00     0.000 C 
BRANCH   7   8
ATOM      8  C   UNL     1      -4.775  24.591  56.798  1.00  0.00     0.006 C 
BRANCH   8   9
ATOM      9  C   UNL     1      -5.791  24.118  57.845  1.00  0.00     0.053 C 
BRANCH   9  10
ATOM     10  C   UNL     1      -7.191  24.493  57.468  1.00  0.00     0.041 C 
ATOM     11  O   UNL     1      -7.753  25.479  58.015  1.00  0.00    -0.550 OA
ATOM     12  O   UNL     1      -7.888  23.734  56.536  1.00  0.00    -0.550 OA
ENDBRANCH   9  10
ENDBRANCH   8   9
ENDBRANCH   7   8
ENDBRANCH   6   7
ENDBRANCH   5   6
ENDBRANCH   4   5
ENDBRANCH   3   4
ENDBRANCH   1   3
BRANCH   2  13
ATOM     13  C   UNL     1      -2.252  28.490  58.993  1.00  0.00     0.027 C 
BRANCH  13  14
ATOM     14  C   UNL     1      -2.660  29.970  58.910  1.00  0.00     0.004 C 
BRANCH  14  15
ATOM     15  C   UNL     1      -2.884  30.450  57.464  1.00  0.00     0.000 C 
BRANCH  15  16
ATOM     16  C   UNL     1      -4.327  30.309  56.944  1.00  0.00     0.000 C 
BRANCH  16  17
ATOM     17  C   UNL     1      -4.405  30.222  55.411  1.00  0.00    -0.000 C 
BRANCH  17  18
ATOM     18  C   UNL     1      -3.605  29.038  54.835  1.00  0.00    -0.000 C 
BRANCH  18  19
ATOM     19  C   UNL     1      -4.367  27.701  54.780  1.00  0.00    -0.003 C 
ATOM     20  C   UNL     1      -3.779  26.716  53.771  1.00  0.00     0.004 C 
ENDBRANCH  18  19
ENDBRANCH  17  18
ENDBRANCH  16  17
ENDBRANCH  15  16
ENDBRANCH  14  15
ENDBRANCH  13  14
ENDBRANCH   2  13
TORSDOF 15
ENDMDL
MODEL 7
REMARK VINA RESULT:    -4.281      1.512      4.037
REMARK INTER + INTRA:          -9.956
REMARK INTER:                  -7.623
REMARK INTRA:                  -2.333
REMARK UNBOUND:                -1.920
REMARK SMILES CCCCCCCCC=CCCCCCCCC(=O)[O-]
REMARK SMILES IDX 10 1 9 2 11 3 12 4 13 5 14 6 15 7 16 8 17 9 18 10 19 11
REMARK SMILES IDX 20 12 8 13 7 14 6 15 5 16 4 17 3 18 2 19 1 20
REMARK H PARENT
REMARK Flexibility Score: inf
ROOT
ATOM      1  C   UNL     1      -5.127  25.121  55.808  1.00  0.00    -0.031 C 
ATOM      2  C   UNL     1      -6.123  25.185  56.705  1.00  0.00    -0.031 C 
ENDROOT
BRANCH   1   3
ATOM      3  C   UNL     1      -5.313  25.584  54.389  1.00  0.00     0.027 C 
BRANCH   3   4
ATOM      4  C   UNL     1      -5.749  27.057  54.342  1.00  0.00     0.004 C 
BRANCH   4   5
ATOM      5  C   UNL     1      -4.710  28.002  54.967  1.00  0.00     0.000 C 
BRANCH   5   6
ATOM      6  C   UNL     1      -5.312  28.895  56.067  1.00  0.00     0.000 C 
BRANCH   6   7
ATOM      7  C   UNL     1      -4.478  30.161  56.319  1.00  0.00     0.000 C 
BRANCH   7   8
ATOM      8  C   UNL     1      -5.281  31.456  56.092  1.00  0.00     0.006 C 
BRANCH   8   9
ATOM      9  C   UNL     1      -5.836  31.550  54.666  1.00  0.00     0.053 C 
BRANCH   9  10
ATOM     10  C   UNL     1      -7.276  31.964  54.657  1.00  0.00     0.041 C 
ATOM     11  O   UNL     1      -7.727  32.672  53.719  1.00  0.00    -0.550 OA
ATOM     12  O   UNL     1      -8.112  31.593  55.703  1.00  0.00    -0.550 OA
ENDBRANCH   9  10
ENDBRANCH   8   9
ENDBRANCH   7   8
ENDBRANCH   6   7
ENDBRANCH   5   6
ENDBRANCH   4   5
ENDBRANCH   3   4
ENDBRANCH   1   3
BRANCH   2  13
ATOM     13  C   UNL     1      -5.936  24.721  58.124  1.00  0.00     0.027 C 
BRANCH  13  14
ATOM     14  C   UNL     1      -6.150  25.876  59.115  1.00  0.00     0.004 C 
BRANCH  14  15
ATOM     15  C   UNL     1      -4.877  26.232  59.905  1.00  0.00     0.000 C 
BRANCH  15  16
ATOM     16  C   UNL     1      -3.554  26.028  59.143  1.00  0.00     0.000 C 
BRANCH  16  17
ATOM     17  C   UNL     1      -3.108  27.281  58.372  1.00  0.00    -0.000 C 
BRANCH  17  18
ATOM     18  C   UNL     1      -1.720  27.124  57.723  1.00  0.00    -0.000 C 
BRANCH  18  19
ATOM     19  C   UNL     1      -1.723  26.492  56.319  1.00  0.00    -0.003 C 
ATOM     20  C   UNL     1      -1.428  24.993  56.334  1.00  0.00     0.004 C 
ENDBRANCH  18  19
ENDBRANCH  17  18
ENDBRANCH  16  17
ENDBRANCH  15  16
ENDBRANCH  14  15
ENDBRANCH  13  14
ENDBRANCH   2  13
TORSDOF 15
ENDMDL
MODEL 8
REMARK VINA RESULT:    -4.262      2.067      4.098
REMARK INTER + INTRA:          -9.920
REMARK INTER:                  -7.059
REMARK INTRA:                  -2.861
REMARK UNBOUND:                -1.920
REMARK SMILES CCCCCCCCC=CCCCCCCCC(=O)[O-]
REMARK SMILES IDX 10 1 9 2 11 3 12 4 13 5 14 6 15 7 16 8 17 9 18 10 19 11
REMARK SMILES IDX 20 12 8 13 7 14 6 15 5 16 4 17 3 18 2 19 1 20
REMARK H PARENT
REMARK Flexibility Score: inf
ROOT
ATOM      1  C   UNL     1      -4.879  23.627  56.473  1.00  0.00    -0.031 C 
ATOM      2  C   UNL     1      -5.983  24.339  56.199  1.00  0.00    -0.031 C 
ENDROOT
BRANCH   1   3
ATOM      3  C   UNL     1      -3.828  23.369  55.430  1.00  0.00     0.027 C 
BRANCH   3   4
ATOM      4  C   UNL     1      -2.611  24.285  55.634  1.00  0.00     0.004 C 
BRANCH   4   5
ATOM      5  C   UNL     1      -2.354  25.207  54.431  1.00  0.00     0.000 C 
BRANCH   5   6
ATOM      6  C   UNL     1      -3.512  26.188  54.182  1.00  0.00     0.000 C 
BRANCH   6   7
ATOM      7  C   UNL     1      -3.602  27.279  55.261  1.00  0.00     0.000 C 
BRANCH   7   8
ATOM      8  C   UNL     1      -4.994  27.935  55.329  1.00  0.00     0.006 C 
BRANCH   8   9
ATOM      9  C   UNL     1      -5.169  28.789  56.590  1.00  0.00     0.053 C 
BRANCH   9  10
ATOM     10  C   UNL     1      -5.518  30.207  56.256  1.00  0.00     0.041 C 
ATOM     11  O   UNL     1      -4.779  31.151  56.642  1.00  0.00    -0.550 OA
ATOM     12  O   UNL     1      -6.678  30.488  55.545  1.00  0.00    -0.550 OA
ENDBRANCH   9  10
ENDBRANCH   8   9
ENDBRANCH   7   8
ENDBRANCH   6   7
ENDBRANCH   5   6
ENDBRANCH   4   5
ENDBRANCH   3   4
ENDBRANCH   1   3
BRANCH   2  13
ATOM     13  C   UNL     1      -7.034  24.596  57.244  1.00  0.00     0.027 C 
BRANCH  13  14
ATOM     14  C   UNL     1      -6.404  24.735  58.638  1.00  0.00     0.004 C 
BRANCH  14  15
ATOM     15  C   UNL     1      -5.919  26.166  58.937  1.00  0.00     0.000 C 
BRANCH  15  16
ATOM     16  C   UNL     1      -4.581  26.260  59.694  1.00  0.00     0.000 C 
BRANCH  16  17
ATOM     17  C   UNL     1      -3.363  26.000  58.792  1.00  0.00    -0.000 C 
BRANCH  17  18
ATOM     18  C   UNL     1      -2.408  27.206  58.710  1.00  0.00    -0.000 C 
BRANCH  18  19
ATOM     19  C   UNL     1      -2.705  28.343  59.704  1.00  0.00    -0.003 C 
ATOM     20  C   UNL     1      -2.545  29.734  59.093  1.00  0.00     0.004 C 
ENDBRANCH  18  19
ENDBRANCH  17  18
ENDBRANCH  16  17
ENDBRANCH  15  16
ENDBRANCH  14  15
ENDBRANCH  13  14
ENDBRANCH   2  13
TORSDOF 15
ENDMDL
MODEL 9
REMARK VINA RESULT:    -4.251      1.891      2.948
REMARK INTER + INTRA:          -9.898
REMARK INTER:                  -7.476
REMARK INTRA:                  -2.422
REMARK UNBOUND:                -1.920
REMARK SMILES CCCCCCCCC=CCCCCCCCC(=O)[O-]
REMARK SMILES IDX 10 1 9 2 11 3 12 4 13 5 14 6 15 7 16 8 17 9 18 10 19 11
REMARK SMILES IDX 20 12 8 13 7 14 6 15 5 16 4 17 3 18 2 19 1 20
REMARK H PARENT
REMARK Flexibility Score: inf
ROOT
ATOM      1  C   UNL     1      -1.798  26.022  55.611  1.00  0.00    -0.031 C 
ATOM      2  C   UNL     1      -1.703  25.241  54.523  1.00  0.00    -0.031 C 
ENDROOT
BRANCH   1   3
ATOM      3  C   UNL     1      -1.328  27.450  55.597  1.00  0.00     0.027 C 
BRANCH   3   4
ATOM      4  C   UNL     1      -2.456  28.407  56.013  1.00  0.00     0.004 C 
BRANCH   4   5
ATOM      5  C   UNL     1      -3.852  27.864  55.667  1.00  0.00     0.000 C 
BRANCH   5   6
ATOM      6  C   UNL     1      -4.983  28.719  56.266  1.00  0.00     0.000 C 
BRANCH   6   7
ATOM      7  C   UNL     1      -4.498  30.108  56.712  1.00  0.00     0.000 C 
BRANCH   7   8
ATOM      8  C   UNL     1      -5.035  31.240  55.817  1.00  0.00     0.006 C 
BRANCH   8   9
ATOM      9  C   UNL     1      -6.094  30.741  54.827  1.00  0.00     0.053 C 
BRANCH   9  10
ATOM     10  C   UNL     1      -7.308  31.619  54.823  1.00  0.00     0.041 C 
ATOM     11  O   UNL     1      -7.524  32.400  53.860  1.00  0.00    -0.550 OA
ATOM     12  O   UNL     1      -8.185  31.596  55.901  1.00  0.00    -0.550 OA
ENDBRANCH   9  10
ENDBRANCH   8   9
ENDBRANCH   7   8
ENDBRANCH   6   7
ENDBRANCH   5   6
ENDBRANCH   4   5
ENDBRANCH   3   4
ENDBRANCH   1   3
BRANCH   2  13
ATOM     13  C   UNL     1      -2.174  23.812  54.538  1.00  0.00     0.027 C 
BRANCH  13  14
ATOM     14  C   UNL     1      -2.598  23.385  55.952  1.00  0.00     0.004 C 
BRANCH  14  15
ATOM     15  C   UNL     1      -4.108  23.109  56.067  1.00  0.00     0.000 C 
BRANCH  15  16
ATOM     16  C   UNL     1      -4.973  24.334  56.420  1.00  0.00     0.000 C 
BRANCH  16  17
ATOM     17  C   UNL     1      -5.405  24.357  57.895  1.00  0.00    -0.000 C 
BRANCH  17  18
ATOM     18  C   UNL     1      -5.030  25.669  58.610  1.00  0.00    -0.000 C 
BRANCH  18  19
ATOM     19  C   UNL     1      -3.527  25.858  58.882  1.00  0.00    -0.003 C 
ATOM     20  C   UNL     1      -3.178  27.258  59.385  1.00  0.00     0.004 C 
ENDBRANCH  18  19
ENDBRANCH  17  18
ENDBRANCH  16  17
ENDBRANCH  15  16
ENDBRANCH  14  15
ENDBRANCH  13  14
ENDBRANCH   2  13
TORSDOF 15
ENDMDL
