MODEL 1
REMARK VINA RESULT:    -3.221      0.000      0.000
REMARK INTER + INTRA:          -7.074
REMARK INTER:                  -5.856
REMARK INTRA:                  -1.218
REMARK UNBOUND:                -1.218
REMARK SMILES CCCCCCCCCCCCCCCC(=O)[O-]
REMARK SMILES IDX 9 1 10 2 11 3 12 4 13 5 14 6 15 7 16 8 17 9 18 10 8 11 7 12
REMARK SMILES IDX 6 13 5 14 4 15 3 16 2 17 1 18
REMARK H PARENT
REMARK Flexibility Score: inf
ROOT
ATOM      1  C   UNL     1      57.102  28.511 -32.123  1.00  0.00     0.000 C 
ENDROOT
BRANCH   1   2
ATOM      2  C   UNL     1      56.714  27.901 -30.760  1.00  0.00     0.000 C 
BRANCH   2   3
ATOM      3  C   UNL     1      57.125  28.736 -29.534  1.00  0.00     0.000 C 
BRANCH   3   4
ATOM      4  C   UNL     1      56.039  29.736 -29.101  1.00  0.00     0.000 C 
BRANCH   4   5
ATOM      5  C   UNL     1      56.566  31.186 -29.059  1.00  0.00     0.000 C 
BRANCH   5   6
ATOM      6  C   UNL     1      55.925  32.105 -30.113  1.00  0.00     0.006 C 
BRANCH   6   7
ATOM      7  C   UNL     1      56.452  31.847 -31.529  1.00  0.00     0.053 C 
BRANCH   7   8
ATOM      8  C   UNL     1      55.325  31.840 -32.513  1.00  0.00     0.041 C 
ATOM      9  O   UNL     1      55.549  32.037 -33.736  1.00  0.00    -0.550 OA
ATOM     10  O   UNL     1      54.019  31.666 -32.072  1.00  0.00    -0.550 OA
ENDBRANCH   7   8
ENDBRANCH   6   7
ENDBRANCH   5   6
ENDBRANCH   4   5
ENDBRANCH   3   4
ENDBRANCH   2   3
ENDBRANCH   1   2
BRANCH   1  11
ATOM     11  C   UNL     1      56.170  28.142 -33.291  1.00  0.00     0.000 C 
BRANCH  11  12
ATOM     12  C   UNL     1      56.846  27.239 -34.334  1.00  0.00    -0.000 C 
BRANCH  12  13
ATOM     13  C   UNL     1      56.726  27.843 -35.741  1.00  0.00    -0.000 C 
BRANCH  13  14
ATOM     14  C   UNL     1      56.027  29.213 -35.744  1.00  0.00    -0.000 C 
BRANCH  14  15
ATOM     15  C   UNL     1      55.867  29.791 -37.160  1.00  0.00    -0.000 C 
BRANCH  15  16
ATOM     16  C   UNL     1      54.469  29.538 -37.746  1.00  0.00    -0.000 C 
BRANCH  16  17
ATOM     17  C   UNL     1      54.509  28.713 -39.042  1.00  0.00    -0.003 C 
ATOM     18  C   UNL     1      54.391  27.221 -38.746  1.00  0.00     0.004 C 
ENDBRANCH  16  17
ENDBRANCH  15  16
ENDBRANCH  14  15
ENDBRANCH  13  14
ENDBRANCH  12  13
ENDBRANCH  11  12
ENDBRANCH   1  11
TORSDOF 14
ENDMDL
MODEL 2
REMARK VINA RESULT:    -3.189     20.415     22.653
REMARK INTER + INTRA:          -7.017
REMARK INTER:                  -6.406
REMARK INTRA:                  -0.610
REMARK UNBOUND:                -1.218
REMARK SMILES CCCCCCCCCCCCCCCC(=O)[O-]
REMARK SMILES IDX 9 1 10 2 11 3 12 4 13 5 14 6 15 7 16 8 17 9 18 10 8 11 7 12
REMARK SMILES IDX 6 13 5 14 4 15 3 16 2 17 1 18
REMARK H PARENT
REMARK Flexibility Score: inf
ROOT
ATOM      1  C   UNL     1      41.357  13.710 -36.238  1.00  0.00     0.000 C 
ENDROOT
BRANCH   1   2
ATOM      2  C   UNL     1      42.713  13.175 -36.741  1.00  0.00     0.000 C 
BRANCH   2   3
ATOM      3  C   UNL     1      43.315  12.035 -35.900  1.00  0.00     0.000 C 
BRANCH   3   4
ATOM      4  C   UNL     1      43.266  12.317 -34.389  1.00  0.00     0.000 C 
BRANCH   4   5
ATOM      5  C   UNL     1      44.673  12.524 -33.789  1.00  0.00     0.000 C 
BRANCH   5   6
ATOM      6  C   UNL     1      44.695  12.515 -32.251  1.00  0.00     0.006 C 
BRANCH   6   7
ATOM      7  C   UNL     1      46.040  12.057 -31.676  1.00  0.00     0.053 C 
BRANCH   7   8
ATOM      8  C   UNL     1      46.235  12.608 -30.300  1.00  0.00     0.041 C 
ATOM      9  O   UNL     1      46.699  11.879 -29.384  1.00  0.00    -0.550 OA
ATOM     10  O   UNL     1      45.857  13.914 -30.014  1.00  0.00    -0.550 OA
ENDBRANCH   7   8
ENDBRANCH   6   7
ENDBRANCH   5   6
ENDBRANCH   4   5
ENDBRANCH   3   4
ENDBRANCH   2   3
ENDBRANCH   1   2
BRANCH   1  11
ATOM     11  C   UNL     1      40.241  12.655 -36.126  1.00  0.00     0.000 C 
BRANCH  11  12
ATOM     12  C   UNL     1      38.833  13.267 -36.164  1.00  0.00    -0.000 C 
BRANCH  12  13
ATOM     13  C   UNL     1      38.801  14.613 -35.423  1.00  0.00    -0.000 C 
BRANCH  13  14
ATOM     14  C   UNL     1      37.572  14.760 -34.510  1.00  0.00    -0.000 C 
BRANCH  14  15
ATOM     15  C   UNL     1      37.402  13.568 -33.553  1.00  0.00    -0.000 C 
BRANCH  15  16
ATOM     16  C   UNL     1      36.875  13.992 -32.172  1.00  0.00    -0.000 C 
BRANCH  16  17
ATOM     17  C   UNL     1      37.627  13.314 -31.016  1.00  0.00    -0.003 C 
ATOM     18  C   UNL     1      37.010  13.679 -29.670  1.00  0.00     0.004 C 
ENDBRANCH  16  17
ENDBRANCH  15  16
ENDBRANCH  14  15
ENDBRANCH  13  14
ENDBRANCH  12  13
ENDBRANCH  11  12
ENDBRANCH   1  11
TORSDOF 14
ENDMDL
MODEL 3
REMARK VINA RESULT:    -3.161      1.198      2.198
REMARK INTER + INTRA:          -6.966
REMARK INTER:                  -5.949
REMARK INTRA:                  -1.016
REMARK UNBOUND:                -1.218
REMARK SMILES CCCCCCCCCCCCCCCC(=O)[O-]
REMARK SMILES IDX 9 1 10 2 11 3 12 4 13 5 14 6 15 7 16 8 17 9 18 10 8 11 7 12
REMARK SMILES IDX 6 13 5 14 4 15 3 16 2 17 1 18
REMARK H PARENT
REMARK Flexibility Score: inf
ROOT
ATOM      1  C   UNL     1      56.023  27.717 -33.768  1.00  0.00     0.000 C 
ENDROOT
BRANCH   1   2
ATOM      2  C   UNL     1      56.826  27.774 -32.452  1.00  0.00     0.000 C 
BRANCH   2   3
ATOM      3  C   UNL     1      56.085  28.415 -31.265  1.00  0.00     0.000 C 
BRANCH   3   4
ATOM      4  C   UNL     1      56.979  29.360 -30.443  1.00  0.00     0.000 C 
BRANCH   4   5
ATOM      5  C   UNL     1      56.154  30.360 -29.605  1.00  0.00     0.000 C 
BRANCH   5   6
ATOM      6  C   UNL     1      56.032  31.751 -30.250  1.00  0.00     0.006 C 
BRANCH   6   7
ATOM      7  C   UNL     1      56.447  31.763 -31.726  1.00  0.00     0.053 C 
BRANCH   7   8
ATOM      8  C   UNL     1      55.239  31.778 -32.608  1.00  0.00     0.041 C 
ATOM      9  O   UNL     1      54.089  31.650 -32.111  1.00  0.00    -0.550 OA
ATOM     10  O   UNL     1      55.385  31.883 -33.985  1.00  0.00    -0.550 OA
ENDBRANCH   7   8
ENDBRANCH   6   7
ENDBRANCH   5   6
ENDBRANCH   4   5
ENDBRANCH   3   4
ENDBRANCH   2   3
ENDBRANCH   1   2
BRANCH   1  11
ATOM     11  C   UNL     1      56.852  27.393 -35.024  1.00  0.00     0.000 C 
BRANCH  11  12
ATOM     12  C   UNL     1      57.125  28.629 -35.895  1.00  0.00    -0.000 C 
BRANCH  12  13
ATOM     13  C   UNL     1      55.815  29.344 -36.257  1.00  0.00    -0.000 C 
BRANCH  13  14
ATOM     14  C   UNL     1      55.026  28.619 -37.359  1.00  0.00    -0.000 C 
BRANCH  14  15
ATOM     15  C   UNL     1      54.711  29.530 -38.557  1.00  0.00    -0.000 C 
BRANCH  15  16
ATOM     16  C   UNL     1      55.248  30.958 -38.369  1.00  0.00    -0.000 C 
BRANCH  16  17
ATOM     17  C   UNL     1      54.147  32.025 -38.472  1.00  0.00    -0.003 C 
ATOM     18  C   UNL     1      53.307  32.072 -37.200  1.00  0.00     0.004 C 
ENDBRANCH  16  17
ENDBRANCH  15  16
ENDBRANCH  14  15
ENDBRANCH  13  14
ENDBRANCH  12  13
ENDBRANCH  11  12
ENDBRANCH   1  11
TORSDOF 14
ENDMDL
MODEL 4
REMARK VINA RESULT:    -2.858      1.862      6.215
REMARK INTER + INTRA:          -6.415
REMARK INTER:                  -5.764
REMARK INTRA:                  -0.652
REMARK UNBOUND:                -1.218
REMARK SMILES CCCCCCCCCCCCCCCC(=O)[O-]
REMARK SMILES IDX 9 1 10 2 11 3 12 4 13 5 14 6 15 7 16 8 17 9 18 10 8 11 7 12
REMARK SMILES IDX 6 13 5 14 4 15 3 16 2 17 1 18
REMARK H PARENT
REMARK Flexibility Score: inf
ROOT
ATOM      1  C   UNL     1      56.238  26.488 -34.996  1.00  0.00     0.000 C 
ENDROOT
BRANCH   1   2
ATOM      2  C   UNL     1      55.232  27.348 -35.789  1.00  0.00     0.000 C 
BRANCH   2   3
ATOM      3  C   UNL     1      55.742  28.744 -36.186  1.00  0.00     0.000 C 
BRANCH   3   4
ATOM      4  C   UNL     1      55.924  28.904 -37.706  1.00  0.00     0.000 C 
BRANCH   4   5
ATOM      5  C   UNL     1      54.698  29.562 -38.373  1.00  0.00     0.000 C 
BRANCH   5   6
ATOM      6  C   UNL     1      55.013  30.909 -39.047  1.00  0.00     0.006 C 
BRANCH   6   7
ATOM      7  C   UNL     1      54.830  32.105 -38.105  1.00  0.00     0.053 C 
BRANCH   7   8
ATOM      8  C   UNL     1      53.652  31.888 -37.208  1.00  0.00     0.041 C 
ATOM      9  O   UNL     1      52.542  31.545 -37.691  1.00  0.00    -0.550 OA
ATOM     10  O   UNL     1      53.768  32.114 -35.842  1.00  0.00    -0.550 OA
ENDBRANCH   7   8
ENDBRANCH   6   7
ENDBRANCH   5   6
ENDBRANCH   4   5
ENDBRANCH   3   4
ENDBRANCH   2   3
ENDBRANCH   1   2
BRANCH   1  11
ATOM     11  C   UNL     1      57.122  27.266 -34.005  1.00  0.00     0.000 C 
BRANCH  11  12
ATOM     12  C   UNL     1      56.378  27.653 -32.718  1.00  0.00    -0.000 C 
BRANCH  12  13
ATOM     13  C   UNL     1      57.121  28.771 -31.970  1.00  0.00    -0.000 C 
BRANCH  13  14
ATOM     14  C   UNL     1      56.482  29.107 -30.613  1.00  0.00    -0.000 C 
BRANCH  14  15
ATOM     15  C   UNL     1      56.202  30.610 -30.448  1.00  0.00    -0.000 C 
BRANCH  15  16
ATOM     16  C   UNL     1      56.588  31.422 -31.695  1.00  0.00    -0.000 C 
BRANCH  16  17
ATOM     17  C   UNL     1      55.510  31.376 -32.789  1.00  0.00    -0.003 C 
ATOM     18  C   UNL     1      54.161  31.843 -32.251  1.00  0.00     0.004 C 
ENDBRANCH  16  17
ENDBRANCH  15  16
ENDBRANCH  14  15
ENDBRANCH  13  14
ENDBRANCH  12  13
ENDBRANCH  11  12
ENDBRANCH   1  11
TORSDOF 14
ENDMDL
MODEL 5
REMARK VINA RESULT:    -2.494     20.149     21.182
REMARK INTER + INTRA:          -5.753
REMARK INTER:                  -5.065
REMARK INTRA:                  -0.688
REMARK UNBOUND:                -1.218
REMARK SMILES CCCCCCCCCCCCCCCC(=O)[O-]
REMARK SMILES IDX 9 1 10 2 11 3 12 4 13 5 14 6 15 7 16 8 17 9 18 10 8 11 7 12
REMARK SMILES IDX 6 13 5 14 4 15 3 16 2 17 1 18
REMARK H PARENT
REMARK Flexibility Score: inf
ROOT
ATOM      1  C   UNL     1      44.330  12.593 -31.587  1.00  0.00     0.000 C 
ENDROOT
BRANCH   1   2
ATOM      2  C   UNL     1      45.164  13.036 -30.367  1.00  0.00     0.000 C 
BRANCH   2   3
ATOM      3  C   UNL     1      46.594  12.467 -30.315  1.00  0.00     0.000 C 
BRANCH   3   4
ATOM      4  C   UNL     1      46.952  11.876 -28.941  1.00  0.00     0.000 C 
BRANCH   4   5
ATOM      5  C   UNL     1      45.801  12.028 -27.923  1.00  0.00     0.000 C 
BRANCH   5   6
ATOM      6  C   UNL     1      46.271  12.032 -26.458  1.00  0.00     0.006 C 
BRANCH   6   7
ATOM      7  C   UNL     1      45.116  11.875 -25.461  1.00  0.00     0.053 C 
BRANCH   7   8
ATOM      8  C   UNL     1      45.079  13.036 -24.519  1.00  0.00     0.041 C 
ATOM      9  O   UNL     1      46.061  13.276 -23.769  1.00  0.00    -0.550 OA
ATOM     10  O   UNL     1      43.938  13.824 -24.432  1.00  0.00    -0.550 OA
ENDBRANCH   7   8
ENDBRANCH   6   7
ENDBRANCH   5   6
ENDBRANCH   4   5
ENDBRANCH   3   4
ENDBRANCH   2   3
ENDBRANCH   1   2
BRANCH   1  11
ATOM     11  C   UNL     1      45.067  12.659 -32.937  1.00  0.00     0.000 C 
BRANCH  11  12
ATOM     12  C   UNL     1      44.167  13.138 -34.086  1.00  0.00    -0.000 C 
BRANCH  12  13
ATOM     13  C   UNL     1      43.338  11.977 -34.654  1.00  0.00    -0.000 C 
BRANCH  13  14
ATOM     14  C   UNL     1      43.065  12.121 -36.160  1.00  0.00    -0.000 C 
BRANCH  14  15
ATOM     15  C   UNL     1      41.849  13.015 -36.457  1.00  0.00    -0.000 C 
BRANCH  15  16
ATOM     16  C   UNL     1      40.526  12.384 -35.993  1.00  0.00    -0.000 C 
BRANCH  16  17
ATOM     17  C   UNL     1      39.542  13.419 -35.427  1.00  0.00    -0.003 C 
ATOM     18  C   UNL     1      39.945  14.836 -35.826  1.00  0.00     0.004 C 
ENDBRANCH  16  17
ENDBRANCH  15  16
ENDBRANCH  14  15
ENDBRANCH  13  14
ENDBRANCH  12  13
ENDBRANCH  11  12
ENDBRANCH   1  11
TORSDOF 14
ENDMDL
MODEL 6
REMARK VINA RESULT:    -1.779      2.020      3.451
REMARK INTER + INTRA:          -4.452
REMARK INTER:                  -3.435
REMARK INTRA:                  -1.017
REMARK UNBOUND:                -1.218
REMARK SMILES CCCCCCCCCCCCCCCC(=O)[O-]
REMARK SMILES IDX 9 1 10 2 11 3 12 4 13 5 14 6 15 7 16 8 17 9 18 10 8 11 7 12
REMARK SMILES IDX 6 13 5 14 4 15 3 16 2 17 1 18
REMARK H PARENT
REMARK Flexibility Score: inf
ROOT
ATOM      1  C   UNL     1      56.436  27.690 -33.815  1.00  0.00     0.000 C 
ENDROOT
BRANCH   1   2
ATOM      2  C   UNL     1      57.019  29.116 -33.906  1.00  0.00     0.000 C 
BRANCH   2   3
ATOM      3  C   UNL     1      55.987  30.224 -34.182  1.00  0.00     0.000 C 
BRANCH   3   4
ATOM      4  C   UNL     1      56.354  31.561 -33.517  1.00  0.00     0.000 C 
BRANCH   4   5
ATOM      5  C   UNL     1      57.049  31.362 -32.153  1.00  0.00     0.000 C 
BRANCH   5   6
ATOM      6  C   UNL     1      56.104  31.526 -30.950  1.00  0.00     0.006 C 
BRANCH   6   7
ATOM      7  C   UNL     1      56.671  30.924 -29.659  1.00  0.00     0.053 C 
BRANCH   7   8
ATOM      8  C   UNL     1      56.497  29.439 -29.655  1.00  0.00     0.041 C 
ATOM      9  O   UNL     1      57.110  28.731 -28.813  1.00  0.00    -0.550 OA
ATOM     10  O   UNL     1      55.697  28.830 -30.614  1.00  0.00    -0.550 OA
ENDBRANCH   7   8
ENDBRANCH   6   7
ENDBRANCH   5   6
ENDBRANCH   4   5
ENDBRANCH   3   4
ENDBRANCH   2   3
ENDBRANCH   1   2
BRANCH   1  11
ATOM     11  C   UNL     1      55.341  27.367 -34.848  1.00  0.00     0.000 C 
BRANCH  11  12
ATOM     12  C   UNL     1      55.775  27.665 -36.291  1.00  0.00    -0.000 C 
BRANCH  12  13
ATOM     13  C   UNL     1      54.904  26.895 -37.295  1.00  0.00    -0.000 C 
BRANCH  13  14
ATOM     14  C   UNL     1      54.482  27.754 -38.499  1.00  0.00    -0.000 C 
BRANCH  14  15
ATOM     15  C   UNL     1      55.183  29.123 -38.522  1.00  0.00    -0.000 C 
BRANCH  15  16
ATOM     16  C   UNL     1      54.196  30.292 -38.375  1.00  0.00    -0.000 C 
BRANCH  16  17
ATOM     17  C   UNL     1      54.872  31.582 -37.884  1.00  0.00    -0.003 C 
ATOM     18  C   UNL     1      54.180  32.125 -36.638  1.00  0.00     0.004 C 
ENDBRANCH  16  17
ENDBRANCH  15  16
ENDBRANCH  14  15
ENDBRANCH  13  14
ENDBRANCH  12  13
ENDBRANCH  11  12
ENDBRANCH   1  11
TORSDOF 14
ENDMDL
MODEL 7
REMARK VINA RESULT:    -1.772      1.882      6.851
REMARK INTER + INTRA:          -4.441
REMARK INTER:                  -4.366
REMARK INTRA:                  -0.075
REMARK UNBOUND:                -1.218
REMARK SMILES CCCCCCCCCCCCCCCC(=O)[O-]
REMARK SMILES IDX 9 1 10 2 11 3 12 4 13 5 14 6 15 7 16 8 17 9 18 10 8 11 7 12
REMARK SMILES IDX 6 13 5 14 4 15 3 16 2 17 1 18
REMARK H PARENT
REMARK Flexibility Score: inf
ROOT
ATOM      1  C   UNL     1      56.345  26.067 -35.000  1.00  0.00     0.000 C 
ENDROOT
BRANCH   1   2
ATOM      2  C   UNL     1      55.190  26.596 -35.873  1.00  0.00     0.000 C 
BRANCH   2   3
ATOM      3  C   UNL     1      55.463  27.942 -36.568  1.00  0.00     0.000 C 
BRANCH   3   4
ATOM      4  C   UNL     1      55.334  27.861 -38.099  1.00  0.00     0.000 C 
BRANCH   4   5
ATOM      5  C   UNL     1      53.944  28.315 -38.592  1.00  0.00     0.000 C 
BRANCH   5   6
ATOM      6  C   UNL     1      53.920  29.758 -39.125  1.00  0.00     0.006 C 
BRANCH   6   7
ATOM      7  C   UNL     1      55.053  30.622 -38.557  1.00  0.00     0.053 C 
BRANCH   7   8
ATOM      8  C   UNL     1      54.535  31.520 -37.479  1.00  0.00     0.041 C 
ATOM      9  O   UNL     1      55.277  31.849 -36.517  1.00  0.00    -0.550 OA
ATOM     10  O   UNL     1      53.215  31.952 -37.510  1.00  0.00    -0.550 OA
ENDBRANCH   7   8
ENDBRANCH   6   7
ENDBRANCH   5   6
ENDBRANCH   4   5
ENDBRANCH   3   4
ENDBRANCH   2   3
ENDBRANCH   1   2
BRANCH   1  11
ATOM     11  C   UNL     1      56.952  27.096 -34.028  1.00  0.00     0.000 C 
BRANCH  11  12
ATOM     12  C   UNL     1      55.997  28.258 -33.715  1.00  0.00    -0.000 C 
BRANCH  12  13
ATOM     13  C   UNL     1      56.697  29.611 -33.911  1.00  0.00    -0.000 C 
BRANCH  13  14
ATOM     14  C   UNL     1      56.846  30.399 -32.599  1.00  0.00    -0.000 C 
BRANCH  14  15
ATOM     15  C   UNL     1      55.727  30.086 -31.591  1.00  0.00    -0.000 C 
BRANCH  15  16
ATOM     16  C   UNL     1      56.270  29.584 -30.243  1.00  0.00    -0.000 C 
BRANCH  16  17
ATOM     17  C   UNL     1      55.890  30.504 -29.072  1.00  0.00    -0.003 C 
ATOM     18  C   UNL     1      57.124  30.911 -28.271  1.00  0.00     0.004 C 
ENDBRANCH  16  17
ENDBRANCH  15  16
ENDBRANCH  14  15
ENDBRANCH  13  14
ENDBRANCH  12  13
ENDBRANCH  11  12
ENDBRANCH   1  11
TORSDOF 14
ENDMDL
MODEL 8
REMARK VINA RESULT:    -1.567      3.749      5.563
REMARK INTER + INTRA:          -4.068
REMARK INTER:                  -3.314
REMARK INTRA:                  -0.754
REMARK UNBOUND:                -1.218
REMARK SMILES CCCCCCCCCCCCCCCC(=O)[O-]
REMARK SMILES IDX 9 1 10 2 11 3 12 4 13 5 14 6 15 7 16 8 17 9 18 10 8 11 7 12
REMARK SMILES IDX 6 13 5 14 4 15 3 16 2 17 1 18
REMARK H PARENT
REMARK Flexibility Score: inf
ROOT
ATOM      1  C   UNL     1      56.056  26.119 -34.969  1.00  0.00     0.000 C 
ENDROOT
BRANCH   1   2
ATOM      2  C   UNL     1      56.428  27.507 -34.409  1.00  0.00     0.000 C 
BRANCH   2   3
ATOM      3  C   UNL     1      56.859  28.541 -35.465  1.00  0.00     0.000 C 
BRANCH   3   4
ATOM      4  C   UNL     1      56.003  29.818 -35.435  1.00  0.00     0.000 C 
BRANCH   4   5
ATOM      5  C   UNL     1      56.862  31.092 -35.294  1.00  0.00     0.000 C 
BRANCH   5   6
ATOM      6  C   UNL     1      56.605  31.867 -33.990  1.00  0.00     0.006 C 
BRANCH   6   7
ATOM      7  C   UNL     1      55.243  31.544 -33.363  1.00  0.00     0.053 C 
BRANCH   7   8
ATOM      8  C   UNL     1      55.423  30.937 -32.007  1.00  0.00     0.041 C 
ATOM      9  O   UNL     1      55.491  29.687 -31.876  1.00  0.00    -0.550 OA
ATOM     10  O   UNL     1      55.464  31.751 -30.882  1.00  0.00    -0.550 OA
ENDBRANCH   7   8
ENDBRANCH   6   7
ENDBRANCH   5   6
ENDBRANCH   4   5
ENDBRANCH   3   4
ENDBRANCH   2   3
ENDBRANCH   1   2
BRANCH   1  11
ATOM     11  C   UNL     1      55.041  26.134 -36.127  1.00  0.00     0.000 C 
BRANCH  11  12
ATOM     12  C   UNL     1      54.806  24.743 -36.733  1.00  0.00    -0.000 C 
BRANCH  12  13
ATOM     13  C   UNL     1      54.711  24.821 -38.265  1.00  0.00    -0.000 C 
BRANCH  13  14
ATOM     14  C   UNL     1      54.399  23.462 -38.912  1.00  0.00    -0.000 C 
BRANCH  14  15
ATOM     15  C   UNL     1      54.604  22.286 -37.943  1.00  0.00    -0.000 C 
BRANCH  15  16
ATOM     16  C   UNL     1      53.633  21.124 -38.212  1.00  0.00    -0.000 C 
BRANCH  16  17
ATOM     17  C   UNL     1      54.088  19.809 -37.561  1.00  0.00    -0.003 C 
ATOM     18  C   UNL     1      54.037  18.656 -38.559  1.00  0.00     0.004 C 
ENDBRANCH  16  17
ENDBRANCH  15  16
ENDBRANCH  14  15
ENDBRANCH  13  14
ENDBRANCH  12  13
ENDBRANCH  11  12
ENDBRANCH   1  11
TORSDOF 14
ENDMDL
