MODEL 1
REMARK VINA RESULT:     1.526      0.000      0.000
REMARK INTER + INTRA:           1.847
REMARK INTER:                   1.839
REMARK INTRA:                   0.008
REMARK UNBOUND:                 0.008
REMARK SMILES O=c1c(O)c(-c2ccc(O)cc2O)oc2cc(O)cc(O)c12
REMARK SMILES IDX 5 1 3 2 2 3 1 4 22 5 20 6 19 7 17 8 16 9 15 10 14 11 6 12
REMARK SMILES IDX 8 13 7 14 9 15 11 16 12 17 10 18 13 20 4 22 21 24 18 26
REMARK H PARENT 10 19 13 21 4 23 21 25 18 27
REMARK Flexibility Score: inf
ROOT
ATOM      1  C   UNL     1     -37.397 -35.582 -33.752  1.00  0.00     0.184 A 
ATOM      2  C   UNL     1     -36.004 -35.751 -33.800  1.00  0.00     0.208 A 
ATOM      3  C   UNL     1     -35.382 -35.921 -35.047  1.00  0.00     0.238 A 
ATOM      4  O   UNL     1     -34.141 -36.125 -35.080  1.00  0.00    -0.285 OA
ATOM      5  C   UNL     1     -36.160 -35.902 -36.230  1.00  0.00     0.111 A 
ATOM      6  C   UNL     1     -35.630 -36.024 -37.550  1.00  0.00     0.134 A 
ATOM      7  C   UNL     1     -36.505 -36.122 -38.639  1.00  0.00     0.093 A 
ATOM      8  C   UNL     1     -37.886 -36.038 -38.463  1.00  0.00     0.123 A 
ATOM      9  C   UNL     1     -38.412 -35.860 -37.183  1.00  0.00     0.094 A 
ATOM     10  C   UNL     1     -37.567 -35.794 -36.074  1.00  0.00     0.146 A 
ATOM     11  O   UNL     1     -38.109 -35.634 -34.872  1.00  0.00    -0.451 OA
ENDROOT
BRANCH   1  12
ATOM     12  C   UNL     1     -38.112 -35.382 -32.474  1.00  0.00     0.063 A 
ATOM     13  C   UNL     1     -38.374 -35.963 -30.128  1.00  0.00     0.047 A 
ATOM     14  C   UNL     1     -37.717 -36.124 -31.350  1.00  0.00     0.020 A 
ATOM     15  C   UNL     1     -39.447 -35.070 -30.018  1.00  0.00     0.119 A 
ATOM     16  C   UNL     1     -39.864 -34.344 -31.139  1.00  0.00     0.093 A 
ATOM     17  C   UNL     1     -39.211 -34.503 -32.371  1.00  0.00     0.130 A 
BRANCH  15  18
ATOM     18  O   UNL     1     -40.108 -34.899 -28.804  1.00  0.00    -0.508 OA
ATOM     19  H   UNL     1     -39.606 -34.893 -27.925  1.00  0.00     0.293 HD
ENDBRANCH  15  18
BRANCH  17  20
ATOM     20  O   UNL     1     -39.668 -33.811 -33.492  1.00  0.00    -0.507 OA
ATOM     21  H   UNL     1     -39.622 -32.800 -33.549  1.00  0.00     0.293 HD
ENDBRANCH  17  20
ENDBRANCH   1  12
BRANCH   2  22
ATOM     22  O   UNL     1     -35.263 -35.783 -32.615  1.00  0.00    -0.502 OA
ATOM     23  H   UNL     1     -35.413 -35.123 -31.864  1.00  0.00     0.293 HD
ENDBRANCH   2  22
BRANCH   6  24
ATOM     24  O   UNL     1     -34.263 -36.025 -37.846  1.00  0.00    -0.507 OA
ATOM     25  H   UNL     1     -33.737 -35.212 -38.130  1.00  0.00     0.293 HD
ENDBRANCH   6  24
BRANCH   8  26
ATOM     26  O   UNL     1     -38.725 -36.125 -39.571  1.00  0.00    -0.508 OA
ATOM     27  H   UNL     1     -39.731 -36.036 -39.482  1.00  0.00     0.293 HD
ENDBRANCH   8  26
TORSDOF 6
ENDMDL
