MODEL 1
REMARK VINA RESULT:    -4.351      0.000      0.000
REMARK INTER + INTRA:          -5.122
REMARK INTER:                  -4.987
REMARK INTRA:                  -0.135
REMARK UNBOUND:                -0.135
REMARK SMILES O=C([O-])C=Cc1ccc(O)cc1
REMARK SMILES IDX 6 1 7 2 12 3 8 4 11 5 9 6 5 7 4 8 2 9 1 10 3 11 10 12
REMARK H PARENT 10 13
REMARK Flexibility Score: inf
ROOT
ATOM      1  C   UNL     1       4.203  38.114   7.225  1.00  0.00    -0.025 A 
ATOM      2  C   UNL     1       4.732  37.392   8.309  1.00  0.00     0.012 A 
ATOM      3  C   UNL     1       5.016  39.072   6.585  1.00  0.00     0.012 A 
ATOM      4  C   UNL     1       6.032  37.636   8.760  1.00  0.00     0.047 A 
ATOM      5  C   UNL     1       6.317  39.313   7.040  1.00  0.00     0.047 A 
ATOM      6  C   UNL     1       6.827  38.600   8.127  1.00  0.00     0.115 A 
ENDROOT
BRANCH   1   7
ATOM      7  C   UNL     1       2.821  37.811   6.778  1.00  0.00     0.010 C 
ATOM      8  C   UNL     1       2.532  37.002   5.750  1.00  0.00     0.025 C 
BRANCH   8   9
ATOM      9  C   UNL     1       1.145  36.738   5.333  1.00  0.00     0.064 C 
ATOM     10  O   UNL     1       0.459  37.667   4.833  1.00  0.00    -0.545 OA
ATOM     11  O   UNL     1       0.579  35.477   5.482  1.00  0.00    -0.545 OA
ENDBRANCH   8   9
ENDBRANCH   1   7
BRANCH   6  12
ATOM     12  O   UNL     1       8.125  38.853   8.569  1.00  0.00    -0.508 OA
ATOM     13  H   UNL     1       8.678  38.137   9.024  1.00  0.00     0.293 HD
ENDBRANCH   6  12
TORSDOF 3
ENDMDL
MODEL 2
REMARK VINA RESULT:    -4.322      0.136      1.402
REMARK INTER + INTRA:          -5.089
REMARK INTER:                  -4.953
REMARK INTRA:                  -0.135
REMARK UNBOUND:                -0.135
REMARK SMILES O=C([O-])C=Cc1ccc(O)cc1
REMARK SMILES IDX 6 1 7 2 12 3 8 4 11 5 9 6 5 7 4 8 2 9 1 10 3 11 10 12
REMARK H PARENT 10 13
REMARK Flexibility Score: inf
ROOT
ATOM      1  C   UNL     1       4.185  38.013   7.229  1.00  0.00    -0.025 A 
ATOM      2  C   UNL     1       4.918  38.972   6.509  1.00  0.00     0.012 A 
ATOM      3  C   UNL     1       4.785  37.398   8.347  1.00  0.00     0.012 A 
ATOM      4  C   UNL     1       6.226  39.294   6.880  1.00  0.00     0.047 A 
ATOM      5  C   UNL     1       6.095  37.723   8.715  1.00  0.00     0.047 A 
ATOM      6  C   UNL     1       6.819  38.667   7.983  1.00  0.00     0.115 A 
ENDROOT
BRANCH   1   7
ATOM      7  C   UNL     1       2.795  37.713   6.802  1.00  0.00     0.010 C 
ATOM      8  C   UNL     1       2.489  36.931   5.758  1.00  0.00     0.025 C 
BRANCH   8   9
ATOM      9  C   UNL     1       1.096  36.670   5.364  1.00  0.00     0.064 C 
ATOM     10  O   UNL     1       0.389  37.612   4.920  1.00  0.00    -0.545 OA
ATOM     11  O   UNL     1       0.546  35.397   5.472  1.00  0.00    -0.545 OA
ENDBRANCH   8   9
ENDBRANCH   1   7
BRANCH   6  12
ATOM     12  O   UNL     1       8.124  38.979   8.361  1.00  0.00    -0.508 OA
ATOM     13  H   UNL     1       8.773  39.412   7.715  1.00  0.00     0.293 HD
ENDBRANCH   6  12
TORSDOF 3
ENDMDL
MODEL 3
REMARK VINA RESULT:    -4.295      1.302      5.877
REMARK INTER + INTRA:          -5.058
REMARK INTER:                  -4.921
REMARK INTRA:                  -0.137
REMARK UNBOUND:                -0.135
REMARK SMILES O=C([O-])C=Cc1ccc(O)cc1
REMARK SMILES IDX 6 1 7 2 12 3 8 4 11 5 9 6 5 7 4 8 2 9 1 10 3 11 10 12
REMARK H PARENT 10 13
REMARK Flexibility Score: inf
ROOT
ATOM      1  C   UNL     1       2.640  37.649   6.499  1.00  0.00    -0.025 A 
ATOM      2  C   UNL     1       1.481  38.184   7.087  1.00  0.00     0.012 A 
ATOM      3  C   UNL     1       2.501  36.650   5.513  1.00  0.00     0.012 A 
ATOM      4  C   UNL     1       0.216  37.718   6.721  1.00  0.00     0.047 A 
ATOM      5  C   UNL     1       1.233  36.186   5.149  1.00  0.00     0.047 A 
ATOM      6  C   UNL     1       0.089  36.715   5.751  1.00  0.00     0.115 A 
ENDROOT
BRANCH   1   7
ATOM      7  C   UNL     1       3.960  38.184   6.915  1.00  0.00     0.010 C 
ATOM      8  C   UNL     1       4.619  37.775   8.007  1.00  0.00     0.025 C 
BRANCH   8   9
ATOM      9  C   UNL     1       5.923  38.343   8.387  1.00  0.00     0.064 C 
ATOM     10  O   UNL     1       6.219  39.512   8.031  1.00  0.00    -0.545 OA
ATOM     11  O   UNL     1       6.834  37.607   9.137  1.00  0.00    -0.545 OA
ENDBRANCH   8   9
ENDBRANCH   1   7
BRANCH   6  12
ATOM     12  O   UNL     1      -1.168  36.242   5.378  1.00  0.00    -0.508 OA
ATOM     13  H   UNL     1      -1.986  36.838   5.400  1.00  0.00     0.293 HD
ENDBRANCH   6  12
TORSDOF 3
ENDMDL
MODEL 4
REMARK VINA RESULT:    -4.283      1.307      5.951
REMARK INTER + INTRA:          -5.044
REMARK INTER:                  -4.908
REMARK INTRA:                  -0.136
REMARK UNBOUND:                -0.135
REMARK SMILES O=C([O-])C=Cc1ccc(O)cc1
REMARK SMILES IDX 6 1 7 2 12 3 8 4 11 5 9 6 5 7 4 8 2 9 1 10 3 11 10 12
REMARK H PARENT 10 13
REMARK Flexibility Score: inf
ROOT
ATOM      1  C   UNL     1       2.588  37.737   6.573  1.00  0.00    -0.025 A 
ATOM      2  C   UNL     1       2.508  36.703   5.624  1.00  0.00     0.012 A 
ATOM      3  C   UNL     1       1.394  38.253   7.118  1.00  0.00     0.012 A 
ATOM      4  C   UNL     1       1.267  36.212   5.209  1.00  0.00     0.047 A 
ATOM      5  C   UNL     1       0.154  37.758   6.700  1.00  0.00     0.047 A 
ATOM      6  C   UNL     1       0.086  36.741   5.745  1.00  0.00     0.115 A 
ENDROOT
BRANCH   1   7
ATOM      7  C   UNL     1       3.930  38.217   6.989  1.00  0.00     0.010 C 
ATOM      8  C   UNL     1       4.605  37.724   8.035  1.00  0.00     0.025 C 
BRANCH   8   9
ATOM      9  C   UNL     1       5.930  38.238   8.418  1.00  0.00     0.064 C 
ATOM     10  O   UNL     1       6.717  37.504   9.069  1.00  0.00    -0.545 OA
ATOM     11  O   UNL     1       6.327  39.525   8.071  1.00  0.00    -0.545 OA
ENDBRANCH   8   9
ENDBRANCH   1   7
BRANCH   6  12
ATOM     12  O   UNL     1      -1.157  36.260   5.338  1.00  0.00    -0.508 OA
ATOM     13  H   UNL     1      -1.383  36.141   4.358  1.00  0.00     0.293 HD
ENDBRANCH   6  12
TORSDOF 3
ENDMDL
MODEL 5
REMARK VINA RESULT:    -4.188      2.257      6.165
REMARK INTER + INTRA:          -4.935
REMARK INTER:                  -4.798
REMARK INTRA:                  -0.137
REMARK UNBOUND:                -0.135
REMARK SMILES O=C([O-])C=Cc1ccc(O)cc1
REMARK SMILES IDX 6 1 7 2 12 3 8 4 11 5 9 6 5 7 4 8 2 9 1 10 3 11 10 12
REMARK H PARENT 10 13
REMARK Flexibility Score: inf
ROOT
ATOM      1  C   UNL     1       1.446  36.954   5.936  1.00  0.00    -0.025 A 
ATOM      2  C   UNL     1       0.278  37.473   6.523  1.00  0.00     0.012 A 
ATOM      3  C   UNL     1       1.454  35.608   5.516  1.00  0.00     0.012 A 
ATOM      4  C   UNL     1      -0.845  36.663   6.710  1.00  0.00     0.047 A 
ATOM      5  C   UNL     1       0.327  34.801   5.705  1.00  0.00     0.047 A 
ATOM      6  C   UNL     1      -0.821  35.323   6.302  1.00  0.00     0.115 A 
ENDROOT
BRANCH   1   7
ATOM      7  C   UNL     1       2.609  37.857   5.750  1.00  0.00     0.010 C 
ATOM      8  C   UNL     1       3.576  38.023   6.662  1.00  0.00     0.025 C 
BRANCH   8   9
ATOM      9  C   UNL     1       4.706  38.939   6.440  1.00  0.00     0.064 C 
ATOM     10  O   UNL     1       4.884  39.442   5.300  1.00  0.00    -0.545 OA
ATOM     11  O   UNL     1       5.583  39.260   7.471  1.00  0.00    -0.545 OA
ENDBRANCH   8   9
ENDBRANCH   1   7
BRANCH   6  12
ATOM     12  O   UNL     1      -1.936  34.505   6.485  1.00  0.00    -0.508 OA
ATOM     13  H   UNL     1      -2.072  33.666   5.935  1.00  0.00     0.293 HD
ENDBRANCH   6  12
TORSDOF 3
ENDMDL
MODEL 6
REMARK VINA RESULT:    -3.991      2.353      5.996
REMARK INTER + INTRA:          -4.709
REMARK INTER:                  -4.568
REMARK INTRA:                  -0.142
REMARK UNBOUND:                -0.135
REMARK SMILES O=C([O-])C=Cc1ccc(O)cc1
REMARK SMILES IDX 6 1 7 2 12 3 8 4 11 5 9 6 5 7 4 8 2 9 1 10 3 11 10 12
REMARK H PARENT 10 13
REMARK Flexibility Score: inf
ROOT
ATOM      1  C   UNL     1       1.856  37.114   5.979  1.00  0.00    -0.025 A 
ATOM      2  C   UNL     1       1.840  35.803   5.472  1.00  0.00     0.012 A 
ATOM      3  C   UNL     1       0.688  37.622   6.585  1.00  0.00     0.012 A 
ATOM      4  C   UNL     1       0.682  35.025   5.546  1.00  0.00     0.047 A 
ATOM      5  C   UNL     1      -0.469  36.840   6.657  1.00  0.00     0.047 A 
ATOM      6  C   UNL     1      -0.477  35.544   6.137  1.00  0.00     0.115 A 
ENDROOT
BRANCH   1   7
ATOM      7  C   UNL     1       3.114  37.897   5.886  1.00  0.00     0.010 C 
ATOM      8  C   UNL     1       3.374  38.979   6.631  1.00  0.00     0.025 C 
BRANCH   8   9
ATOM      9  C   UNL     1       4.632  39.732   6.497  1.00  0.00     0.064 C 
ATOM     10  O   UNL     1       4.610  40.989   6.536  1.00  0.00    -0.545 OA
ATOM     11  O   UNL     1       5.846  39.075   6.330  1.00  0.00    -0.545 OA
ENDBRANCH   8   9
ENDBRANCH   1   7
BRANCH   6  12
ATOM     12  O   UNL     1      -1.639  34.777   6.215  1.00  0.00    -0.508 OA
ATOM     13  H   UNL     1      -2.477  35.033   5.707  1.00  0.00     0.293 HD
ENDBRANCH   6  12
TORSDOF 3
ENDMDL
MODEL 7
REMARK VINA RESULT:    -3.795      3.724      5.482
REMARK INTER + INTRA:          -4.485
REMARK INTER:                  -4.346
REMARK INTRA:                  -0.139
REMARK UNBOUND:                -0.135
REMARK SMILES O=C([O-])C=Cc1ccc(O)cc1
REMARK SMILES IDX 6 1 7 2 12 3 8 4 11 5 9 6 5 7 4 8 2 9 1 10 3 11 10 12
REMARK H PARENT 10 13
REMARK Flexibility Score: inf
ROOT
ATOM      1  C   UNL     1      -0.219  35.932   6.179  1.00  0.00    -0.025 A 
ATOM      2  C   UNL     1      -0.014  37.237   6.658  1.00  0.00     0.012 A 
ATOM      3  C   UNL     1       0.826  35.293   5.480  1.00  0.00     0.012 A 
ATOM      4  C   UNL     1       1.194  37.900   6.426  1.00  0.00     0.047 A 
ATOM      5  C   UNL     1       2.034  35.960   5.250  1.00  0.00     0.047 A 
ATOM      6  C   UNL     1       2.221  37.262   5.719  1.00  0.00     0.115 A 
ENDROOT
BRANCH   1   7
ATOM      7  C   UNL     1      -1.516  35.268   6.460  1.00  0.00     0.010 C 
ATOM      8  C   UNL     1      -1.891  34.852   7.677  1.00  0.00     0.025 C 
BRANCH   8   9
ATOM      9  C   UNL     1      -3.183  34.186   7.908  1.00  0.00     0.064 C 
ATOM     10  O   UNL     1      -4.217  34.621   7.336  1.00  0.00    -0.545 OA
ATOM     11  O   UNL     1      -3.281  33.082   8.748  1.00  0.00    -0.545 OA
ENDBRANCH   8   9
ENDBRANCH   1   7
BRANCH   6  12
ATOM     12  O   UNL     1       3.430  37.913   5.480  1.00  0.00    -0.508 OA
ATOM     13  H   UNL     1       3.676  38.767   5.966  1.00  0.00     0.293 HD
ENDBRANCH   6  12
TORSDOF 3
ENDMDL
MODEL 8
REMARK VINA RESULT:    -3.775      1.536      2.118
REMARK INTER + INTRA:          -4.461
REMARK INTER:                  -4.325
REMARK INTRA:                  -0.137
REMARK UNBOUND:                -0.135
REMARK SMILES O=C([O-])C=Cc1ccc(O)cc1
REMARK SMILES IDX 6 1 7 2 12 3 8 4 11 5 9 6 5 7 4 8 2 9 1 10 3 11 10 12
REMARK H PARENT 10 13
REMARK Flexibility Score: inf
ROOT
ATOM      1  C   UNL     1       3.217  37.837   6.013  1.00  0.00    -0.025 A 
ATOM      2  C   UNL     1       3.853  37.746   7.263  1.00  0.00     0.012 A 
ATOM      3  C   UNL     1       3.641  38.831   5.106  1.00  0.00     0.012 A 
ATOM      4  C   UNL     1       4.870  38.639   7.611  1.00  0.00     0.047 A 
ATOM      5  C   UNL     1       4.659  39.722   5.459  1.00  0.00     0.047 A 
ATOM      6  C   UNL     1       5.274  39.632   6.709  1.00  0.00     0.115 A 
ENDROOT
BRANCH   1   7
ATOM      7  C   UNL     1       2.150  36.859   5.686  1.00  0.00     0.010 C 
ATOM      8  C   UNL     1       0.879  36.980   6.093  1.00  0.00     0.025 C 
BRANCH   8   9
ATOM      9  C   UNL     1      -0.145  35.979   5.754  1.00  0.00     0.064 C 
ATOM     10  O   UNL     1       0.155  34.756   5.762  1.00  0.00    -0.545 OA
ATOM     11  O   UNL     1      -1.441  36.361   5.426  1.00  0.00    -0.545 OA
ENDBRANCH   8   9
ENDBRANCH   1   7
BRANCH   6  12
ATOM     12  O   UNL     1       6.286  40.529   7.046  1.00  0.00    -0.508 OA
ATOM     13  H   UNL     1       6.079  41.428   7.463  1.00  0.00     0.293 HD
ENDBRANCH   6  12
TORSDOF 3
ENDMDL
MODEL 9
REMARK VINA RESULT:    -3.679     12.587     13.655
REMARK INTER + INTRA:          -4.352
REMARK INTER:                  -4.205
REMARK INTRA:                  -0.147
REMARK UNBOUND:                -0.135
REMARK SMILES O=C([O-])C=Cc1ccc(O)cc1
REMARK SMILES IDX 6 1 7 2 12 3 8 4 11 5 9 6 5 7 4 8 2 9 1 10 3 11 10 12
REMARK H PARENT 10 13
REMARK Flexibility Score: inf
ROOT
ATOM      1  C   UNL     1      -4.242  47.821   9.324  1.00  0.00    -0.025 A 
ATOM      2  C   UNL     1      -5.314  48.358   8.591  1.00  0.00     0.012 A 
ATOM      3  C   UNL     1      -3.580  48.644  10.259  1.00  0.00     0.012 A 
ATOM      4  C   UNL     1      -5.702  49.689   8.767  1.00  0.00     0.047 A 
ATOM      5  C   UNL     1      -3.971  49.975  10.432  1.00  0.00     0.047 A 
ATOM      6  C   UNL     1      -5.028  50.502   9.688  1.00  0.00     0.115 A 
ENDROOT
BRANCH   1   7
ATOM      7  C   UNL     1      -3.875  46.399   9.109  1.00  0.00     0.010 C 
ATOM      8  C   UNL     1      -4.762  45.437   8.822  1.00  0.00     0.025 C 
BRANCH   8   9
ATOM      9  C   UNL     1      -4.354  44.036   8.627  1.00  0.00     0.064 C 
ATOM     10  O   UNL     1      -3.662  43.725   7.624  1.00  0.00    -0.545 OA
ATOM     11  O   UNL     1      -4.721  43.050   9.536  1.00  0.00    -0.545 OA
ENDBRANCH   8   9
ENDBRANCH   1   7
BRANCH   6  12
ATOM     12  O   UNL     1      -5.406  51.831   9.870  1.00  0.00    -0.508 OA
ATOM     13  H   UNL     1      -6.112  52.266   9.289  1.00  0.00     0.293 HD
ENDBRANCH   6  12
TORSDOF 3
ENDMDL
