MODEL 1
REMARK VINA RESULT:    -6.333      0.000      0.000
REMARK INTER + INTRA:          -7.943
REMARK INTER:                  -7.629
REMARK INTRA:                  -0.314
REMARK UNBOUND:                -0.314
REMARK SMILES O=c1c(O)c(-c2ccc(O)c(O)c2)oc2cc(O)cc(O)c12
REMARK SMILES IDX 5 1 3 2 2 3 1 4 22 5 20 6 19 7 17 8 16 9 15 10 14 11 6 12
REMARK SMILES IDX 7 13 8 14 9 15 13 16 11 17 10 18 12 20 4 22 21 24 18 26
REMARK H PARENT 10 19 12 21 4 23 21 25 18 27
REMARK Flexibility Score: inf
ROOT
ATOM      1  C   UNL     1       5.254  20.909  27.358  1.00  0.00     0.180 A 
ATOM      2  C   UNL     1       6.444  20.201  27.613  1.00  0.00     0.208 A 
ATOM      3  C   UNL     1       6.538  18.861  27.205  1.00  0.00     0.238 A 
ATOM      4  O   UNL     1       7.603  18.221  27.418  1.00  0.00    -0.285 OA
ATOM      5  C   UNL     1       5.439  18.247  26.570  1.00  0.00     0.111 A 
ATOM      6  C   UNL     1       5.450  16.902  26.132  1.00  0.00     0.134 A 
ATOM      7  C   UNL     1       4.312  16.361  25.515  1.00  0.00     0.093 A 
ATOM      8  C   UNL     1       3.166  17.137  25.330  1.00  0.00     0.123 A 
ATOM      9  C   UNL     1       3.149  18.467  25.760  1.00  0.00     0.094 A 
ATOM     10  C   UNL     1       4.273  19.026  26.375  1.00  0.00     0.146 A 
ATOM     11  O   UNL     1       4.232  20.293  26.769  1.00  0.00    -0.452 OA
ENDROOT
BRANCH   1  12
ATOM     12  C   UNL     1       5.086  22.329  27.740  1.00  0.00     0.025 A 
ATOM     13  C   UNL     1       5.582  23.335  26.895  1.00  0.00     0.016 A 
ATOM     14  C   UNL     1       5.453  24.681  27.246  1.00  0.00     0.051 A 
ATOM     15  C   UNL     1       4.840  25.041  28.454  1.00  0.00     0.157 A 
ATOM     16  C   UNL     1       4.490  22.694  28.961  1.00  0.00     0.062 A 
ATOM     17  C   UNL     1       4.361  24.042  29.316  1.00  0.00     0.158 A 
BRANCH  15  18
ATOM     18  O   UNL     1       4.711  26.386  28.800  1.00  0.00    -0.504 OA
ATOM     19  H   UNL     1       5.124  27.121  28.237  1.00  0.00     0.293 HD
ENDBRANCH  15  18
BRANCH  17  20
ATOM     20  O   UNL     1       3.759  24.367  30.531  1.00  0.00    -0.504 OA
ATOM     21  H   UNL     1       4.183  24.133  31.421  1.00  0.00     0.293 HD
ENDBRANCH  17  20
ENDBRANCH   1  12
BRANCH   2  22
ATOM     22  O   UNL     1       7.501  20.817  28.288  1.00  0.00    -0.502 OA
ATOM     23  H   UNL     1       8.303  20.301  28.629  1.00  0.00     0.293 HD
ENDBRANCH   2  22
BRANCH   6  24
ATOM     24  O   UNL     1       6.580  16.100  26.302  1.00  0.00    -0.507 OA
ATOM     25  H   UNL     1       7.310  16.051  25.601  1.00  0.00     0.293 HD
ENDBRANCH   6  24
BRANCH   8  26
ATOM     26  O   UNL     1       2.048  16.576  24.716  1.00  0.00    -0.508 OA
ATOM     27  H   UNL     1       1.995  16.466  23.710  1.00  0.00     0.293 HD
ENDBRANCH   8  26
TORSDOF 6
ENDMDL
MODEL 2
REMARK VINA RESULT:    -6.271      1.903      7.014
REMARK INTER + INTRA:          -7.867
REMARK INTER:                  -7.544
REMARK INTRA:                  -0.324
REMARK UNBOUND:                -0.314
REMARK SMILES O=c1c(O)c(-c2ccc(O)c(O)c2)oc2cc(O)cc(O)c12
REMARK SMILES IDX 5 1 3 2 2 3 1 4 22 5 20 6 19 7 17 8 16 9 15 10 14 11 6 12
REMARK SMILES IDX 7 13 8 14 9 15 13 16 11 17 10 18 12 20 4 22 21 24 18 26
REMARK H PARENT 10 19 12 21 4 23 21 25 18 27
REMARK Flexibility Score: inf
ROOT
ATOM      1  C   UNL     1       5.729  20.414  26.184  1.00  0.00     0.180 A 
ATOM      2  C   UNL     1       6.224  21.153  25.092  1.00  0.00     0.208 A 
ATOM      3  C   UNL     1       6.385  22.540  25.228  1.00  0.00     0.238 A 
ATOM      4  O   UNL     1       6.838  23.210  24.261  1.00  0.00    -0.285 OA
ATOM      5  C   UNL     1       6.032  23.167  26.441  1.00  0.00     0.111 A 
ATOM      6  C   UNL     1       6.161  24.560  26.659  1.00  0.00     0.134 A 
ATOM      7  C   UNL     1       5.779  25.109  27.892  1.00  0.00     0.093 A 
ATOM      8  C   UNL     1       5.272  24.296  28.908  1.00  0.00     0.123 A 
ATOM      9  C   UNL     1       5.144  22.920  28.699  1.00  0.00     0.094 A 
ATOM     10  C   UNL     1       5.520  22.352  27.478  1.00  0.00     0.146 A 
ATOM     11  O   UNL     1       5.393  21.042  27.308  1.00  0.00    -0.452 OA
ENDROOT
BRANCH   1  12
ATOM     12  C   UNL     1       5.549  18.946  26.124  1.00  0.00     0.025 A 
ATOM     13  C   UNL     1       6.629  18.105  26.438  1.00  0.00     0.016 A 
ATOM     14  C   UNL     1       6.488  16.717  26.368  1.00  0.00     0.051 A 
ATOM     15  C   UNL     1       5.271  16.149  25.969  1.00  0.00     0.157 A 
ATOM     16  C   UNL     1       4.336  18.372  25.704  1.00  0.00     0.062 A 
ATOM     17  C   UNL     1       4.192  16.982  25.631  1.00  0.00     0.158 A 
BRANCH  15  18
ATOM     18  O   UNL     1       5.133  14.763  25.902  1.00  0.00    -0.504 OA
ATOM     19  H   UNL     1       4.401  14.278  26.408  1.00  0.00     0.293 HD
ENDBRANCH  15  18
BRANCH  17  20
ATOM     20  O   UNL     1       2.972  16.449  25.216  1.00  0.00    -0.504 OA
ATOM     21  H   UNL     1       2.771  15.457  25.272  1.00  0.00     0.293 HD
ENDBRANCH  17  20
ENDBRANCH   1  12
BRANCH   2  22
ATOM     22  O   UNL     1       6.519  20.515  23.885  1.00  0.00    -0.502 OA
ATOM     23  H   UNL     1       6.263  19.552  23.702  1.00  0.00     0.293 HD
ENDBRANCH   2  22
BRANCH   6  24
ATOM     24  O   UNL     1       6.663  25.399  25.664  1.00  0.00    -0.507 OA
ATOM     25  H   UNL     1       7.634  25.689  25.651  1.00  0.00     0.293 HD
ENDBRANCH   6  24
BRANCH   8  26
ATOM     26  O   UNL     1       4.900  24.867  30.123  1.00  0.00    -0.508 OA
ATOM     27  H   UNL     1       4.967  24.353  30.994  1.00  0.00     0.293 HD
ENDBRANCH   8  26
TORSDOF 6
ENDMDL
MODEL 3
REMARK VINA RESULT:    -6.164      1.709      3.043
REMARK INTER + INTRA:          -7.739
REMARK INTER:                  -7.522
REMARK INTRA:                  -0.217
REMARK UNBOUND:                -0.314
REMARK SMILES O=c1c(O)c(-c2ccc(O)c(O)c2)oc2cc(O)cc(O)c12
REMARK SMILES IDX 5 1 3 2 2 3 1 4 22 5 20 6 19 7 17 8 16 9 15 10 14 11 6 12
REMARK SMILES IDX 7 13 8 14 9 15 13 16 11 17 10 18 12 20 4 22 21 24 18 26
REMARK H PARENT 10 19 12 21 4 23 21 25 18 27
REMARK Flexibility Score: inf
ROOT
ATOM      1  C   UNL     1       5.110  21.218  26.502  1.00  0.00     0.180 A 
ATOM      2  C   UNL     1       3.760  21.084  26.124  1.00  0.00     0.208 A 
ATOM      3  C   UNL     1       3.265  19.807  25.816  1.00  0.00     0.238 A 
ATOM      4  O   UNL     1       2.055  19.673  25.488  1.00  0.00    -0.285 OA
ATOM      5  C   UNL     1       4.129  18.693  25.869  1.00  0.00     0.111 A 
ATOM      6  C   UNL     1       3.711  17.375  25.570  1.00  0.00     0.134 A 
ATOM      7  C   UNL     1       4.633  16.320  25.637  1.00  0.00     0.093 A 
ATOM      8  C   UNL     1       5.962  16.558  25.996  1.00  0.00     0.123 A 
ATOM      9  C   UNL     1       6.381  17.858  26.293  1.00  0.00     0.094 A 
ATOM     10  C   UNL     1       5.476  18.923  26.234  1.00  0.00     0.146 A 
ATOM     11  O   UNL     1       5.899  20.147  26.527  1.00  0.00    -0.452 OA
ENDROOT
BRANCH   1  12
ATOM     12  C   UNL     1       5.701  22.528  26.860  1.00  0.00     0.025 A 
ATOM     13  C   UNL     1       5.932  23.479  25.854  1.00  0.00     0.016 A 
ATOM     14  C   UNL     1       6.507  24.713  26.166  1.00  0.00     0.051 A 
ATOM     15  C   UNL     1       6.874  25.009  27.486  1.00  0.00     0.157 A 
ATOM     16  C   UNL     1       6.089  22.820  28.180  1.00  0.00     0.062 A 
ATOM     17  C   UNL     1       6.668  24.055  28.496  1.00  0.00     0.158 A 
BRANCH  15  18
ATOM     18  O   UNL     1       7.446  26.242  27.795  1.00  0.00    -0.504 OA
ATOM     19  H   UNL     1       6.969  26.916  28.383  1.00  0.00     0.293 HD
ENDBRANCH  15  18
BRANCH  17  20
ATOM     20  O   UNL     1       7.035  24.312  29.817  1.00  0.00    -0.504 OA
ATOM     21  H   UNL     1       7.309  25.236  30.128  1.00  0.00     0.293 HD
ENDBRANCH  17  20
ENDBRANCH   1  12
BRANCH   2  22
ATOM     22  O   UNL     1       2.938  22.210  26.032  1.00  0.00    -0.502 OA
ATOM     23  H   UNL     1       3.267  23.142  26.253  1.00  0.00     0.293 HD
ENDBRANCH   2  22
BRANCH   6  24
ATOM     24  O   UNL     1       2.391  17.105  25.207  1.00  0.00    -0.507 OA
ATOM     25  H   UNL     1       1.812  16.465  25.740  1.00  0.00     0.293 HD
ENDBRANCH   6  24
BRANCH   8  26
ATOM     26  O   UNL     1       6.859  15.493  26.055  1.00  0.00    -0.508 OA
ATOM     27  H   UNL     1       7.374  15.188  25.237  1.00  0.00     0.293 HD
ENDBRANCH   8  26
TORSDOF 6
ENDMDL
MODEL 4
REMARK VINA RESULT:    -6.054      1.654      2.764
REMARK INTER + INTRA:          -7.606
REMARK INTER:                  -7.293
REMARK INTRA:                  -0.313
REMARK UNBOUND:                -0.314
REMARK SMILES O=c1c(O)c(-c2ccc(O)c(O)c2)oc2cc(O)cc(O)c12
REMARK SMILES IDX 5 1 3 2 2 3 1 4 22 5 20 6 19 7 17 8 16 9 15 10 14 11 6 12
REMARK SMILES IDX 7 13 8 14 9 15 13 16 11 17 10 18 12 20 4 22 21 24 18 26
REMARK H PARENT 10 19 12 21 4 23 21 25 18 27
REMARK Flexibility Score: inf
ROOT
ATOM      1  C   UNL     1       4.942  20.876  26.483  1.00  0.00     0.180 A 
ATOM      2  C   UNL     1       4.357  21.011  25.210  1.00  0.00     0.208 A 
ATOM      3  C   UNL     1       4.160  19.863  24.428  1.00  0.00     0.238 A 
ATOM      4  O   UNL     1       3.626  19.970  23.291  1.00  0.00    -0.285 OA
ATOM      5  C   UNL     1       4.569  18.606  24.920  1.00  0.00     0.111 A 
ATOM      6  C   UNL     1       4.411  17.401  24.194  1.00  0.00     0.134 A 
ATOM      7  C   UNL     1       4.851  16.191  24.749  1.00  0.00     0.093 A 
ATOM      8  C   UNL     1       5.447  16.162  26.011  1.00  0.00     0.123 A 
ATOM      9  C   UNL     1       5.605  17.348  26.734  1.00  0.00     0.094 A 
ATOM     10  C   UNL     1       5.171  18.565  26.199  1.00  0.00     0.146 A 
ATOM     11  O   UNL     1       5.329  19.676  26.909  1.00  0.00    -0.452 OA
ENDROOT
BRANCH   1  12
ATOM     12  C   UNL     1       5.164  22.037  27.375  1.00  0.00     0.025 A 
ATOM     13  C   UNL     1       6.330  22.806  27.229  1.00  0.00     0.016 A 
ATOM     14  C   UNL     1       6.570  23.893  28.073  1.00  0.00     0.051 A 
ATOM     15  C   UNL     1       5.657  24.218  29.085  1.00  0.00     0.157 A 
ATOM     16  C   UNL     1       4.261  22.353  28.405  1.00  0.00     0.062 A 
ATOM     17  C   UNL     1       4.500  23.441  29.254  1.00  0.00     0.158 A 
BRANCH  15  18
ATOM     18  O   UNL     1       5.899  25.305  29.924  1.00  0.00    -0.504 OA
ATOM     19  H   UNL     1       6.683  25.929  29.772  1.00  0.00     0.293 HD
ENDBRANCH  15  18
BRANCH  17  20
ATOM     20  O   UNL     1       3.579  23.729  30.260  1.00  0.00    -0.504 OA
ATOM     21  H   UNL     1       3.817  24.305  31.059  1.00  0.00     0.293 HD
ENDBRANCH  17  20
ENDBRANCH   1  12
BRANCH   2  22
ATOM     22  O   UNL     1       4.005  22.274  24.726  1.00  0.00    -0.502 OA
ATOM     23  H   UNL     1       4.373  23.130  25.124  1.00  0.00     0.293 HD
ENDBRANCH   2  22
BRANCH   6  24
ATOM     24  O   UNL     1       3.820  17.397  22.929  1.00  0.00    -0.507 OA
ATOM     25  H   UNL     1       3.547  18.256  22.465  1.00  0.00     0.293 HD
ENDBRANCH   6  24
BRANCH   8  26
ATOM     26  O   UNL     1       5.877  14.946  26.540  1.00  0.00    -0.508 OA
ATOM     27  H   UNL     1       6.823  14.611  26.398  1.00  0.00     0.293 HD
ENDBRANCH   8  26
TORSDOF 6
ENDMDL
MODEL 5
REMARK VINA RESULT:    -6.041      1.635      2.494
REMARK INTER + INTRA:          -7.591
REMARK INTER:                  -7.260
REMARK INTRA:                  -0.331
REMARK UNBOUND:                -0.314
REMARK SMILES O=c1c(O)c(-c2ccc(O)c(O)c2)oc2cc(O)cc(O)c12
REMARK SMILES IDX 5 1 3 2 2 3 1 4 22 5 20 6 19 7 17 8 16 9 15 10 14 11 6 12
REMARK SMILES IDX 7 13 8 14 9 15 13 16 11 17 10 18 12 20 4 22 21 24 18 26
REMARK H PARENT 10 19 12 21 4 23 21 25 18 27
REMARK Flexibility Score: inf
ROOT
ATOM      1  C   UNL     1       4.873  22.100  27.710  1.00  0.00     0.180 A 
ATOM      2  C   UNL     1       6.164  21.949  28.252  1.00  0.00     0.208 A 
ATOM      3  C   UNL     1       6.801  20.703  28.149  1.00  0.00     0.238 A 
ATOM      4  O   UNL     1       7.962  20.559  28.620  1.00  0.00    -0.285 OA
ATOM      5  C   UNL     1       6.134  19.627  27.527  1.00  0.00     0.111 A 
ATOM      6  C   UNL     1       6.704  18.340  27.386  1.00  0.00     0.134 A 
ATOM      7  C   UNL     1       5.971  17.319  26.763  1.00  0.00     0.093 A 
ATOM      8  C   UNL     1       4.683  17.559  26.281  1.00  0.00     0.123 A 
ATOM      9  C   UNL     1       4.114  18.830  26.416  1.00  0.00     0.094 A 
ATOM     10  C   UNL     1       4.829  19.861  27.033  1.00  0.00     0.146 A 
ATOM     11  O   UNL     1       4.268  21.059  27.144  1.00  0.00    -0.452 OA
ENDROOT
BRANCH   1  12
ATOM     12  C   UNL     1       4.143  23.388  27.762  1.00  0.00     0.025 A 
ATOM     13  C   UNL     1       3.293  23.656  28.846  1.00  0.00     0.016 A 
ATOM     14  C   UNL     1       2.579  24.855  28.906  1.00  0.00     0.051 A 
ATOM     15  C   UNL     1       2.692  25.797  27.875  1.00  0.00     0.157 A 
ATOM     16  C   UNL     1       4.238  24.326  26.719  1.00  0.00     0.062 A 
ATOM     17  C   UNL     1       3.523  25.528  26.774  1.00  0.00     0.158 A 
BRANCH  15  18
ATOM     18  O   UNL     1       1.980  26.994  27.938  1.00  0.00    -0.504 OA
ATOM     19  H   UNL     1       0.972  27.018  27.836  1.00  0.00     0.293 HD
ENDBRANCH  15  18
BRANCH  17  20
ATOM     20  O   UNL     1       3.646  26.438  25.725  1.00  0.00    -0.504 OA
ATOM     21  H   UNL     1       3.450  26.182  24.764  1.00  0.00     0.293 HD
ENDBRANCH  17  20
ENDBRANCH   1  12
BRANCH   2  22
ATOM     22  O   UNL     1       6.784  23.016  28.906  1.00  0.00    -0.502 OA
ATOM     23  H   UNL     1       6.374  23.942  28.945  1.00  0.00     0.293 HD
ENDBRANCH   2  22
BRANCH   6  24
ATOM     24  O   UNL     1       7.988  18.067  27.858  1.00  0.00    -0.507 OA
ATOM     25  H   UNL     1       8.797  18.586  27.534  1.00  0.00     0.293 HD
ENDBRANCH   6  24
BRANCH   8  26
ATOM     26  O   UNL     1       3.975  16.528  25.666  1.00  0.00    -0.508 OA
ATOM     27  H   UNL     1       2.981  16.403  25.817  1.00  0.00     0.293 HD
ENDBRANCH   8  26
TORSDOF 6
ENDMDL
MODEL 6
REMARK VINA RESULT:    -5.942      2.127      4.324
REMARK INTER + INTRA:          -7.471
REMARK INTER:                  -7.163
REMARK INTRA:                  -0.309
REMARK UNBOUND:                -0.314
REMARK SMILES O=c1c(O)c(-c2ccc(O)c(O)c2)oc2cc(O)cc(O)c12
REMARK SMILES IDX 5 1 3 2 2 3 1 4 22 5 20 6 19 7 17 8 16 9 15 10 14 11 6 12
REMARK SMILES IDX 7 13 8 14 9 15 13 16 11 17 10 18 12 20 4 22 21 24 18 26
REMARK H PARENT 10 19 12 21 4 23 21 25 18 27
REMARK Flexibility Score: inf
ROOT
ATOM      1  C   UNL     1       5.913  23.562  27.968  1.00  0.00     0.180 A 
ATOM      2  C   UNL     1       4.652  23.280  27.409  1.00  0.00     0.208 A 
ATOM      3  C   UNL     1       4.333  21.951  27.088  1.00  0.00     0.238 A 
ATOM      4  O   UNL     1       3.203  21.686  26.598  1.00  0.00    -0.285 OA
ATOM      5  C   UNL     1       5.284  20.933  27.311  1.00  0.00     0.111 A 
ATOM      6  C   UNL     1       5.044  19.571  27.012  1.00  0.00     0.134 A 
ATOM      7  C   UNL     1       6.044  18.619  27.255  1.00  0.00     0.093 A 
ATOM      8  C   UNL     1       7.277  19.001  27.788  1.00  0.00     0.123 A 
ATOM      9  C   UNL     1       7.520  20.345  28.086  1.00  0.00     0.094 A 
ATOM     10  C   UNL     1       6.535  21.309  27.853  1.00  0.00     0.146 A 
ATOM     11  O   UNL     1       6.790  22.578  28.150  1.00  0.00    -0.452 OA
ENDROOT
BRANCH   1  12
ATOM     12  C   UNL     1       6.316  24.935  28.350  1.00  0.00     0.025 A 
ATOM     13  C   UNL     1       5.892  25.460  29.582  1.00  0.00     0.016 A 
ATOM     14  C   UNL     1       6.242  26.760  29.954  1.00  0.00     0.051 A 
ATOM     15  C   UNL     1       7.007  27.560  29.095  1.00  0.00     0.157 A 
ATOM     16  C   UNL     1       7.065  25.748  27.482  1.00  0.00     0.062 A 
ATOM     17  C   UNL     1       7.416  27.052  27.850  1.00  0.00     0.158 A 
BRANCH  15  18
ATOM     18  O   UNL     1       7.357  28.856  29.470  1.00  0.00    -0.504 OA
ATOM     19  H   UNL     1       6.897  29.667  29.071  1.00  0.00     0.293 HD
ENDBRANCH  15  18
BRANCH  17  20
ATOM     20  O   UNL     1       8.166  27.827  26.966  1.00  0.00    -0.504 OA
ATOM     21  H   UNL     1       8.349  27.532  26.015  1.00  0.00     0.293 HD
ENDBRANCH  17  20
ENDBRANCH   1  12
BRANCH   2  22
ATOM     22  O   UNL     1       3.747  24.313  27.152  1.00  0.00    -0.502 OA
ATOM     23  H   UNL     1       3.212  24.366  26.294  1.00  0.00     0.293 HD
ENDBRANCH   2  22
BRANCH   6  24
ATOM     24  O   UNL     1       3.822  19.157  26.478  1.00  0.00    -0.507 OA
ATOM     25  H   UNL     1       3.024  19.780  26.426  1.00  0.00     0.293 HD
ENDBRANCH   6  24
BRANCH   8  26
ATOM     26  O   UNL     1       8.255  18.035  28.019  1.00  0.00    -0.508 OA
ATOM     27  H   UNL     1       8.962  18.157  28.734  1.00  0.00     0.293 HD
ENDBRANCH   8  26
TORSDOF 6
ENDMDL
MODEL 7
REMARK VINA RESULT:    -5.896      3.255      5.529
REMARK INTER + INTRA:          -7.416
REMARK INTER:                  -7.141
REMARK INTRA:                  -0.276
REMARK UNBOUND:                -0.314
REMARK SMILES O=c1c(O)c(-c2ccc(O)c(O)c2)oc2cc(O)cc(O)c12
REMARK SMILES IDX 5 1 3 2 2 3 1 4 22 5 20 6 19 7 17 8 16 9 15 10 14 11 6 12
REMARK SMILES IDX 7 13 8 14 9 15 13 16 11 17 10 18 12 20 4 22 21 24 18 26
REMARK H PARENT 10 19 12 21 4 23 21 25 18 27
REMARK Flexibility Score: inf
ROOT
ATOM      1  C   UNL     1       4.858  18.481  24.749  1.00  0.00     0.180 A 
ATOM      2  C   UNL     1       4.159  17.266  24.624  1.00  0.00     0.208 A 
ATOM      3  C   UNL     1       3.614  16.921  23.377  1.00  0.00     0.238 A 
ATOM      4  O   UNL     1       2.995  15.829  23.250  1.00  0.00    -0.285 OA
ATOM      5  C   UNL     1       3.758  17.802  22.285  1.00  0.00     0.111 A 
ATOM      6  C   UNL     1       3.236  17.532  20.998  1.00  0.00     0.134 A 
ATOM      7  C   UNL     1       3.415  18.465  19.965  1.00  0.00     0.093 A 
ATOM      8  C   UNL     1       4.101  19.659  20.195  1.00  0.00     0.123 A 
ATOM      9  C   UNL     1       4.620  19.931  21.464  1.00  0.00     0.094 A 
ATOM     10  C   UNL     1       4.455  19.014  22.507  1.00  0.00     0.146 A 
ATOM     11  O   UNL     1       4.962  19.295  23.701  1.00  0.00    -0.452 OA
ENDROOT
BRANCH   1  12
ATOM     12  C   UNL     1       5.477  18.905  26.025  1.00  0.00     0.025 A 
ATOM     13  C   UNL     1       4.904  19.960  26.754  1.00  0.00     0.016 A 
ATOM     14  C   UNL     1       5.483  20.390  27.950  1.00  0.00     0.051 A 
ATOM     15  C   UNL     1       6.653  19.784  28.428  1.00  0.00     0.157 A 
ATOM     16  C   UNL     1       6.662  18.314  26.497  1.00  0.00     0.062 A 
ATOM     17  C   UNL     1       7.247  18.744  27.694  1.00  0.00     0.158 A 
BRANCH  15  18
ATOM     18  O   UNL     1       7.227  20.214  29.623  1.00  0.00    -0.504 OA
ATOM     19  H   UNL     1       8.202  20.485  29.676  1.00  0.00     0.293 HD
ENDBRANCH  15  18
BRANCH  17  20
ATOM     20  O   UNL     1       8.419  18.129  28.134  1.00  0.00    -0.504 OA
ATOM     21  H   UNL     1       9.335  18.506  27.924  1.00  0.00     0.293 HD
ENDBRANCH  17  20
ENDBRANCH   1  12
BRANCH   2  22
ATOM     22  O   UNL     1       3.987  16.433  25.733  1.00  0.00    -0.502 OA
ATOM     23  H   UNL     1       4.553  15.607  25.884  1.00  0.00     0.293 HD
ENDBRANCH   2  22
BRANCH   6  24
ATOM     24  O   UNL     1       2.545  16.349  20.737  1.00  0.00    -0.507 OA
ATOM     25  H   UNL     1       2.231  15.739  21.483  1.00  0.00     0.293 HD
ENDBRANCH   6  24
BRANCH   8  26
ATOM     26  O   UNL     1       4.264  20.569  19.152  1.00  0.00    -0.508 OA
ATOM     27  H   UNL     1       5.091  20.563  18.567  1.00  0.00     0.293 HD
ENDBRANCH   8  26
TORSDOF 6
ENDMDL
MODEL 8
REMARK VINA RESULT:    -5.861      3.068      4.528
REMARK INTER + INTRA:          -7.373
REMARK INTER:                  -7.042
REMARK INTRA:                  -0.331
REMARK UNBOUND:                -0.314
REMARK SMILES O=c1c(O)c(-c2ccc(O)c(O)c2)oc2cc(O)cc(O)c12
REMARK SMILES IDX 5 1 3 2 2 3 1 4 22 5 20 6 19 7 17 8 16 9 15 10 14 11 6 12
REMARK SMILES IDX 7 13 8 14 9 15 13 16 11 17 10 18 12 20 4 22 21 24 18 26
REMARK H PARENT 10 19 12 21 4 23 21 25 18 27
REMARK Flexibility Score: inf
ROOT
ATOM      1  C   UNL     1       4.558  21.469  24.469  1.00  0.00     0.180 A 
ATOM      2  C   UNL     1       3.533  20.540  24.204  1.00  0.00     0.208 A 
ATOM      3  C   UNL     1       3.619  19.256  24.764  1.00  0.00     0.238 A 
ATOM      4  O   UNL     1       2.701  18.420  24.542  1.00  0.00    -0.285 OA
ATOM      5  C   UNL     1       4.732  18.915  25.560  1.00  0.00     0.111 A 
ATOM      6  C   UNL     1       4.896  17.643  26.157  1.00  0.00     0.134 A 
ATOM      7  C   UNL     1       6.037  17.379  26.929  1.00  0.00     0.093 A 
ATOM      8  C   UNL     1       7.015  18.359  27.113  1.00  0.00     0.123 A 
ATOM      9  C   UNL     1       6.858  19.618  26.526  1.00  0.00     0.094 A 
ATOM     10  C   UNL     1       5.727  19.902  25.755  1.00  0.00     0.146 A 
ATOM     11  O   UNL     1       5.600  21.107  25.213  1.00  0.00    -0.452 OA
ENDROOT
BRANCH   1  12
ATOM     12  C   UNL     1       4.530  22.848  23.931  1.00  0.00     0.025 A 
ATOM     13  C   UNL     1       5.239  23.145  22.757  1.00  0.00     0.016 A 
ATOM     14  C   UNL     1       5.244  24.444  22.242  1.00  0.00     0.051 A 
ATOM     15  C   UNL     1       4.552  25.468  22.903  1.00  0.00     0.157 A 
ATOM     16  C   UNL     1       3.854  23.883  24.602  1.00  0.00     0.062 A 
ATOM     17  C   UNL     1       3.858  25.186  24.091  1.00  0.00     0.158 A 
BRANCH  15  18
ATOM     18  O   UNL     1       4.556  26.763  22.386  1.00  0.00    -0.504 OA
ATOM     19  H   UNL     1       4.204  26.965  21.457  1.00  0.00     0.293 HD
ENDBRANCH  15  18
BRANCH  17  20
ATOM     20  O   UNL     1       3.172  26.186  24.780  1.00  0.00    -0.504 OA
ATOM     21  H   UNL     1       2.863  26.064  25.737  1.00  0.00     0.293 HD
ENDBRANCH  17  20
ENDBRANCH   1  12
BRANCH   2  22
ATOM     22  O   UNL     1       2.466  20.887  23.372  1.00  0.00    -0.502 OA
ATOM     23  H   UNL     1       2.217  20.344  22.553  1.00  0.00     0.293 HD
ENDBRANCH   2  22
BRANCH   6  24
ATOM     24  O   UNL     1       3.937  16.642  25.992  1.00  0.00    -0.507 OA
ATOM     25  H   UNL     1       3.706  16.272  25.077  1.00  0.00     0.293 HD
ENDBRANCH   6  24
BRANCH   8  26
ATOM     26  O   UNL     1       8.140  18.070  27.884  1.00  0.00    -0.508 OA
ATOM     27  H   UNL     1       8.058  17.720  28.831  1.00  0.00     0.293 HD
ENDBRANCH   8  26
TORSDOF 6
ENDMDL
MODEL 9
REMARK VINA RESULT:    -5.824      3.643      6.860
REMARK INTER + INTRA:          -7.330
REMARK INTER:                  -7.082
REMARK INTRA:                  -0.248
REMARK UNBOUND:                -0.314
REMARK SMILES O=c1c(O)c(-c2ccc(O)c(O)c2)oc2cc(O)cc(O)c12
REMARK SMILES IDX 5 1 3 2 2 3 1 4 22 5 20 6 19 7 17 8 16 9 15 10 14 11 6 12
REMARK SMILES IDX 7 13 8 14 9 15 13 16 11 17 10 18 12 20 4 22 21 24 18 26
REMARK H PARENT 10 19 12 21 4 23 21 25 18 27
REMARK Flexibility Score: inf
ROOT
ATOM      1  C   UNL     1       5.244  20.772  24.475  1.00  0.00     0.180 A 
ATOM      2  C   UNL     1       6.293  21.431  23.806  1.00  0.00     0.208 A 
ATOM      3  C   UNL     1       6.071  22.723  23.303  1.00  0.00     0.238 A 
ATOM      4  O   UNL     1       7.006  23.328  22.712  1.00  0.00    -0.285 OA
ATOM      5  C   UNL     1       4.805  23.324  23.460  1.00  0.00     0.111 A 
ATOM      6  C   UNL     1       4.498  24.620  22.980  1.00  0.00     0.134 A 
ATOM      7  C   UNL     1       3.211  25.145  23.168  1.00  0.00     0.093 A 
ATOM      8  C   UNL     1       2.227  24.401  23.822  1.00  0.00     0.123 A 
ATOM      9  C   UNL     1       2.524  23.120  24.299  1.00  0.00     0.094 A 
ATOM     10  C   UNL     1       3.802  22.580  24.124  1.00  0.00     0.146 A 
ATOM     11  O   UNL     1       4.059  21.364  24.591  1.00  0.00    -0.452 OA
ENDROOT
BRANCH   1  12
ATOM     12  C   UNL     1       5.406  19.416  25.049  1.00  0.00     0.025 A 
ATOM     13  C   UNL     1       4.706  18.339  24.483  1.00  0.00     0.016 A 
ATOM     14  C   UNL     1       4.828  17.056  25.021  1.00  0.00     0.051 A 
ATOM     15  C   UNL     1       5.639  16.833  26.142  1.00  0.00     0.157 A 
ATOM     16  C   UNL     1       6.202  19.193  26.186  1.00  0.00     0.062 A 
ATOM     17  C   UNL     1       6.325  17.909  26.729  1.00  0.00     0.158 A 
BRANCH  15  18
ATOM     18  O   UNL     1       5.760  15.550  26.675  1.00  0.00    -0.504 OA
ATOM     19  H   UNL     1       5.888  14.739  26.082  1.00  0.00     0.293 HD
ENDBRANCH  15  18
BRANCH  17  20
ATOM     20  O   UNL     1       7.128  17.723  27.854  1.00  0.00    -0.504 OA
ATOM     21  H   UNL     1       6.753  17.387  28.733  1.00  0.00     0.293 HD
ENDBRANCH  17  20
ENDBRANCH   1  12
BRANCH   2  22
ATOM     22  O   UNL     1       7.523  20.795  23.620  1.00  0.00    -0.502 OA
ATOM     23  H   UNL     1       8.401  21.219  23.895  1.00  0.00     0.293 HD
ENDBRANCH   2  22
BRANCH   6  24
ATOM     24  O   UNL     1       5.459  25.388  22.322  1.00  0.00    -0.507 OA
ATOM     25  H   UNL     1       5.245  25.893  21.469  1.00  0.00     0.293 HD
ENDBRANCH   6  24
BRANCH   8  26
ATOM     26  O   UNL     1       0.956  24.944  23.995  1.00  0.00    -0.508 OA
ATOM     27  H   UNL     1       0.508  24.969  24.904  1.00  0.00     0.293 HD
ENDBRANCH   8  26
TORSDOF 6
ENDMDL
