MODEL 1
REMARK VINA RESULT:    -3.632      0.000      0.000
REMARK INTER + INTRA:          -9.287
REMARK INTER:                  -6.604
REMARK INTRA:                  -2.682
REMARK UNBOUND:                -2.682
REMARK SMILES CCCCCCCCCCCCCCCC(=O)[O-]
REMARK SMILES IDX 9 1 10 2 11 3 12 4 13 5 14 6 15 7 16 8 17 9 18 10 8 11 7 12
REMARK SMILES IDX 6 13 5 14 4 15 3 16 2 17 1 18
REMARK H PARENT
REMARK Flexibility Score: inf
ROOT
ATOM      1  C   UNL     1      23.354  -1.616   2.574  1.00  0.00     0.000 C 
ENDROOT
BRANCH   1   2
ATOM      2  C   UNL     1      21.829  -1.643   2.403  1.00  0.00     0.000 C 
BRANCH   2   3
ATOM      3  C   UNL     1      21.289  -0.406   1.662  1.00  0.00     0.000 C 
BRANCH   3   4
ATOM      4  C   UNL     1      20.256  -0.709   0.559  1.00  0.00     0.000 C 
BRANCH   4   5
ATOM      5  C   UNL     1      20.175  -2.185   0.123  1.00  0.00     0.000 C 
BRANCH   5   6
ATOM      6  C   UNL     1      20.063  -2.408  -1.396  1.00  0.00     0.006 C 
BRANCH   6   7
ATOM      7  C   UNL     1      20.608  -3.772  -1.839  1.00  0.00     0.053 C 
BRANCH   7   8
ATOM      8  C   UNL     1      19.489  -4.667  -2.267  1.00  0.00     0.041 C 
ATOM      9  O   UNL     1      18.399  -4.664  -1.637  1.00  0.00    -0.550 OA
ATOM     10  O   UNL     1      19.666  -5.541  -3.331  1.00  0.00    -0.550 OA
ENDBRANCH   7   8
ENDBRANCH   6   7
ENDBRANCH   5   6
ENDBRANCH   4   5
ENDBRANCH   3   4
ENDBRANCH   2   3
ENDBRANCH   1   2
BRANCH   1  11
ATOM     11  C   UNL     1      23.972  -2.969   2.202  1.00  0.00     0.000 C 
BRANCH  11  12
ATOM     12  C   UNL     1      23.640  -3.348   0.755  1.00  0.00    -0.000 C 
BRANCH  12  13
ATOM     13  C   UNL     1      24.555  -2.613  -0.232  1.00  0.00    -0.000 C 
BRANCH  13  14
ATOM     14  C   UNL     1      23.765  -2.128  -1.457  1.00  0.00    -0.000 C 
BRANCH  14  15
ATOM     15  C   UNL     1      23.391  -0.640  -1.373  1.00  0.00    -0.000 C 
BRANCH  15  16
ATOM     16  C   UNL     1      24.505   0.214  -0.742  1.00  0.00    -0.000 C 
BRANCH  16  17
ATOM     17  C   UNL     1      23.969   1.514  -0.122  1.00  0.00    -0.003 C 
ATOM     18  C   UNL     1      24.394   1.697   1.336  1.00  0.00     0.004 C 
ENDBRANCH  16  17
ENDBRANCH  15  16
ENDBRANCH  14  15
ENDBRANCH  13  14
ENDBRANCH  12  13
ENDBRANCH  11  12
ENDBRANCH   1  11
TORSDOF 14
ENDMDL
MODEL 2
REMARK VINA RESULT:    -3.618      4.960      6.014
REMARK INTER + INTRA:          -9.262
REMARK INTER:                  -7.570
REMARK INTRA:                  -1.691
REMARK UNBOUND:                -2.682
REMARK SMILES CCCCCCCCCCCCCCCC(=O)[O-]
REMARK SMILES IDX 9 1 10 2 11 3 12 4 13 5 14 6 15 7 16 8 17 9 18 10 8 11 7 12
REMARK SMILES IDX 6 13 5 14 4 15 3 16 2 17 1 18
REMARK H PARENT
REMARK Flexibility Score: inf
ROOT
ATOM      1  C   UNL     1      24.399  -4.350   4.633  1.00  0.00     0.000 C 
ENDROOT
BRANCH   1   2
ATOM      2  C   UNL     1      23.937  -4.090   6.074  1.00  0.00     0.000 C 
BRANCH   2   3
ATOM      3  C   UNL     1      22.458  -3.671   6.161  1.00  0.00     0.000 C 
BRANCH   3   4
ATOM      4  C   UNL     1      21.646  -3.881   4.867  1.00  0.00     0.000 C 
BRANCH   4   5
ATOM      5  C   UNL     1      20.595  -2.795   4.568  1.00  0.00     0.000 C 
BRANCH   5   6
ATOM      6  C   UNL     1      20.490  -1.683   5.629  1.00  0.00     0.006 C 
BRANCH   6   7
ATOM      7  C   UNL     1      20.210  -0.304   5.019  1.00  0.00     0.053 C 
BRANCH   7   8
ATOM      8  C   UNL     1      18.738  -0.039   4.984  1.00  0.00     0.041 C 
ATOM      9  O   UNL     1      18.292   0.984   4.399  1.00  0.00    -0.550 OA
ATOM     10  O   UNL     1      17.861  -0.894   5.638  1.00  0.00    -0.550 OA
ENDBRANCH   7   8
ENDBRANCH   6   7
ENDBRANCH   5   6
ENDBRANCH   4   5
ENDBRANCH   3   4
ENDBRANCH   2   3
ENDBRANCH   1   2
BRANCH   1  11
ATOM     11  C   UNL     1      25.101  -3.117   4.050  1.00  0.00     0.000 C 
BRANCH  11  12
ATOM     12  C   UNL     1      24.404  -2.639   2.771  1.00  0.00    -0.000 C 
BRANCH  12  13
ATOM     13  C   UNL     1      23.912  -1.194   2.918  1.00  0.00    -0.000 C 
BRANCH  13  14
ATOM     14  C   UNL     1      24.281  -0.625   4.297  1.00  0.00    -0.000 C 
BRANCH  14  15
ATOM     15  C   UNL     1      24.640   0.869   4.248  1.00  0.00    -0.000 C 
BRANCH  15  16
ATOM     16  C   UNL     1      25.902   1.200   5.063  1.00  0.00    -0.000 C 
BRANCH  16  17
ATOM     17  C   UNL     1      26.635   2.441   4.532  1.00  0.00    -0.003 C 
ATOM     18  C   UNL     1      25.701   3.631   4.302  1.00  0.00     0.004 C 
ENDBRANCH  16  17
ENDBRANCH  15  16
ENDBRANCH  14  15
ENDBRANCH  13  14
ENDBRANCH  12  13
ENDBRANCH  11  12
ENDBRANCH   1  11
TORSDOF 14
ENDMDL
MODEL 3
REMARK VINA RESULT:    -3.608      2.914      4.693
REMARK INTER + INTRA:          -9.244
REMARK INTER:                  -7.021
REMARK INTRA:                  -2.223
REMARK UNBOUND:                -2.682
REMARK SMILES CCCCCCCCCCCCCCCC(=O)[O-]
REMARK SMILES IDX 9 1 10 2 11 3 12 4 13 5 14 6 15 7 16 8 17 9 18 10 8 11 7 12
REMARK SMILES IDX 6 13 5 14 4 15 3 16 2 17 1 18
REMARK H PARENT
REMARK Flexibility Score: inf
ROOT
ATOM      1  C   UNL     1      23.400  -1.561   2.473  1.00  0.00     0.000 C 
ENDROOT
BRANCH   1   2
ATOM      2  C   UNL     1      23.412  -1.142   3.950  1.00  0.00     0.000 C 
BRANCH   2   3
ATOM      3  C   UNL     1      23.602  -2.333   4.907  1.00  0.00     0.000 C 
BRANCH   3   4
ATOM      4  C   UNL     1      22.372  -2.672   5.774  1.00  0.00     0.000 C 
BRANCH   4   5
ATOM      5  C   UNL     1      21.047  -2.822   5.003  1.00  0.00     0.000 C 
BRANCH   5   6
ATOM      6  C   UNL     1      19.891  -1.947   5.522  1.00  0.00     0.006 C 
BRANCH   6   7
ATOM      7  C   UNL     1      19.855  -0.560   4.869  1.00  0.00     0.053 C 
BRANCH   7   8
ATOM      8  C   UNL     1      19.535  -0.676   3.413  1.00  0.00     0.041 C 
ATOM      9  O   UNL     1      20.191  -0.015   2.565  1.00  0.00    -0.550 OA
ATOM     10  O   UNL     1      18.480  -1.476   2.995  1.00  0.00    -0.550 OA
ENDBRANCH   7   8
ENDBRANCH   6   7
ENDBRANCH   5   6
ENDBRANCH   4   5
ENDBRANCH   3   4
ENDBRANCH   2   3
ENDBRANCH   1   2
BRANCH   1  11
ATOM     11  C   UNL     1      24.069  -2.928   2.284  1.00  0.00     0.000 C 
BRANCH  11  12
ATOM     12  C   UNL     1      23.291  -3.790   1.284  1.00  0.00    -0.000 C 
BRANCH  12  13
ATOM     13  C   UNL     1      21.872  -3.247   1.073  1.00  0.00    -0.000 C 
BRANCH  13  14
ATOM     14  C   UNL     1      21.460  -3.344  -0.404  1.00  0.00    -0.000 C 
BRANCH  14  15
ATOM     15  C   UNL     1      22.564  -2.871  -1.362  1.00  0.00    -0.000 C 
BRANCH  15  16
ATOM     16  C   UNL     1      22.715  -1.340  -1.380  1.00  0.00    -0.000 C 
BRANCH  16  17
ATOM     17  C   UNL     1      24.183  -0.894  -1.298  1.00  0.00    -0.003 C 
ATOM     18  C   UNL     1      25.164  -2.066  -1.336  1.00  0.00     0.004 C 
ENDBRANCH  16  17
ENDBRANCH  15  16
ENDBRANCH  14  15
ENDBRANCH  13  14
ENDBRANCH  12  13
ENDBRANCH  11  12
ENDBRANCH   1  11
TORSDOF 14
ENDMDL
MODEL 4
REMARK VINA RESULT:    -3.544      3.483      5.746
REMARK INTER + INTRA:          -9.126
REMARK INTER:                  -7.022
REMARK INTRA:                  -2.104
REMARK UNBOUND:                -2.682
REMARK SMILES CCCCCCCCCCCCCCCC(=O)[O-]
REMARK SMILES IDX 9 1 10 2 11 3 12 4 13 5 14 6 15 7 16 8 17 9 18 10 8 11 7 12
REMARK SMILES IDX 6 13 5 14 4 15 3 16 2 17 1 18
REMARK H PARENT
REMARK Flexibility Score: inf
ROOT
ATOM      1  C   UNL     1      23.664   0.075  -0.780  1.00  0.00     0.000 C 
ENDROOT
BRANCH   1   2
ATOM      2  C   UNL     1      24.242   1.059   0.246  1.00  0.00     0.000 C 
BRANCH   2   3
ATOM      3  C   UNL     1      23.627   0.891   1.648  1.00  0.00     0.000 C 
BRANCH   3   4
ATOM      4  C   UNL     1      22.522  -0.179   1.748  1.00  0.00     0.000 C 
BRANCH   4   5
ATOM      5  C   UNL     1      22.838  -1.364   2.681  1.00  0.00     0.000 C 
BRANCH   5   6
ATOM      6  C   UNL     1      24.154  -2.101   2.372  1.00  0.00     0.006 C 
BRANCH   6   7
ATOM      7  C   UNL     1      24.236  -3.478   3.042  1.00  0.00     0.053 C 
BRANCH   7   8
ATOM      8  C   UNL     1      25.053  -3.401   4.292  1.00  0.00     0.041 C 
ATOM      9  O   UNL     1      24.586  -3.828   5.382  1.00  0.00    -0.550 OA
ATOM     10  O   UNL     1      26.311  -2.814   4.267  1.00  0.00    -0.550 OA
ENDBRANCH   7   8
ENDBRANCH   6   7
ENDBRANCH   5   6
ENDBRANCH   4   5
ENDBRANCH   3   4
ENDBRANCH   2   3
ENDBRANCH   1   2
BRANCH   1  11
ATOM     11  C   UNL     1      24.759  -0.844  -1.336  1.00  0.00     0.000 C 
BRANCH  11  12
ATOM     12  C   UNL     1      24.277  -2.298  -1.403  1.00  0.00    -0.000 C 
BRANCH  12  13
ATOM     13  C   UNL     1      22.746  -2.370  -1.458  1.00  0.00    -0.000 C 
BRANCH  13  14
ATOM     14  C   UNL     1      22.203  -3.345  -0.401  1.00  0.00    -0.000 C 
BRANCH  14  15
ATOM     15  C   UNL     1      20.743  -3.057  -0.021  1.00  0.00    -0.000 C 
BRANCH  15  16
ATOM     16  C   UNL     1      19.990  -2.279  -1.115  1.00  0.00    -0.000 C 
BRANCH  16  17
ATOM     17  C   UNL     1      18.594  -2.859  -1.394  1.00  0.00    -0.003 C 
ATOM     18  C   UNL     1      17.711  -2.906  -0.146  1.00  0.00     0.004 C 
ENDBRANCH  16  17
ENDBRANCH  15  16
ENDBRANCH  14  15
ENDBRANCH  13  14
ENDBRANCH  12  13
ENDBRANCH  11  12
ENDBRANCH   1  11
TORSDOF 14
ENDMDL
MODEL 5
REMARK VINA RESULT:    -3.539      3.427      5.550
REMARK INTER + INTRA:          -9.118
REMARK INTER:                  -6.949
REMARK INTRA:                  -2.168
REMARK UNBOUND:                -2.682
REMARK SMILES CCCCCCCCCCCCCCCC(=O)[O-]
REMARK SMILES IDX 9 1 10 2 11 3 12 4 13 5 14 6 15 7 16 8 17 9 18 10 8 11 7 12
REMARK SMILES IDX 6 13 5 14 4 15 3 16 2 17 1 18
REMARK H PARENT
REMARK Flexibility Score: inf
ROOT
ATOM      1  C   UNL     1      20.356  -0.696   1.424  1.00  0.00     0.000 C 
ENDROOT
BRANCH   1   2
ATOM      2  C   UNL     1      19.149  -1.615   1.185  1.00  0.00     0.000 C 
BRANCH   2   3
ATOM      3  C   UNL     1      19.028  -2.072  -0.280  1.00  0.00     0.000 C 
BRANCH   3   4
ATOM      4  C   UNL     1      19.737  -3.401  -0.608  1.00  0.00     0.000 C 
BRANCH   4   5
ATOM      5  C   UNL     1      20.827  -3.314  -1.694  1.00  0.00     0.000 C 
BRANCH   5   6
ATOM      6  C   UNL     1      22.214  -2.877  -1.188  1.00  0.00     0.006 C 
BRANCH   6   7
ATOM      7  C   UNL     1      22.573  -1.444  -1.601  1.00  0.00     0.053 C 
BRANCH   7   8
ATOM      8  C   UNL     1      23.528  -0.842  -0.621  1.00  0.00     0.041 C 
ATOM      9  O   UNL     1      24.206  -1.582   0.139  1.00  0.00    -0.550 OA
ATOM     10  O   UNL     1      23.636   0.538  -0.513  1.00  0.00    -0.550 OA
ENDBRANCH   7   8
ENDBRANCH   6   7
ENDBRANCH   5   6
ENDBRANCH   4   5
ENDBRANCH   3   4
ENDBRANCH   2   3
ENDBRANCH   1   2
BRANCH   1  11
ATOM     11  C   UNL     1      21.351  -1.340   2.397  1.00  0.00     0.000 C 
BRANCH  11  12
ATOM     12  C   UNL     1      20.716  -2.525   3.133  1.00  0.00    -0.000 C 
BRANCH  12  13
ATOM     13  C   UNL     1      21.093  -2.518   4.619  1.00  0.00    -0.000 C 
BRANCH  13  14
ATOM     14  C   UNL     1      20.373  -1.384   5.365  1.00  0.00    -0.000 C 
BRANCH  14  15
ATOM     15  C   UNL     1      18.850  -1.578   5.415  1.00  0.00    -0.000 C 
BRANCH  15  16
ATOM     16  C   UNL     1      18.079  -0.306   5.021  1.00  0.00    -0.000 C 
BRANCH  16  17
ATOM     17  C   UNL     1      19.005   0.804   4.500  1.00  0.00    -0.003 C 
ATOM     18  C   UNL     1      18.324   2.172   4.452  1.00  0.00     0.004 C 
ENDBRANCH  16  17
ENDBRANCH  15  16
ENDBRANCH  14  15
ENDBRANCH  13  14
ENDBRANCH  12  13
ENDBRANCH  11  12
ENDBRANCH   1  11
TORSDOF 14
ENDMDL
MODEL 6
REMARK VINA RESULT:    -3.539      3.694      5.520
REMARK INTER + INTRA:          -9.117
REMARK INTER:                  -7.474
REMARK INTRA:                  -1.644
REMARK UNBOUND:                -2.682
REMARK SMILES CCCCCCCCCCCCCCCC(=O)[O-]
REMARK SMILES IDX 9 1 10 2 11 3 12 4 13 5 14 6 15 7 16 8 17 9 18 10 8 11 7 12
REMARK SMILES IDX 6 13 5 14 4 15 3 16 2 17 1 18
REMARK H PARENT
REMARK Flexibility Score: inf
ROOT
ATOM      1  C   UNL     1      24.809  -1.709   3.988  1.00  0.00     0.000 C 
ENDROOT
BRANCH   1   2
ATOM      2  C   UNL     1      23.957  -1.815   5.261  1.00  0.00     0.000 C 
BRANCH   2   3
ATOM      3  C   UNL     1      23.591  -3.267   5.617  1.00  0.00     0.000 C 
BRANCH   3   4
ATOM      4  C   UNL     1      22.139  -3.474   6.091  1.00  0.00     0.000 C 
BRANCH   4   5
ATOM      5  C   UNL     1      21.054  -2.940   5.136  1.00  0.00     0.000 C 
BRANCH   5   6
ATOM      6  C   UNL     1      20.144  -1.850   5.732  1.00  0.00     0.006 C 
BRANCH   6   7
ATOM      7  C   UNL     1      19.992  -0.633   4.811  1.00  0.00     0.053 C 
BRANCH   7   8
ATOM      8  C   UNL     1      18.591  -0.113   4.859  1.00  0.00     0.041 C 
ATOM      9  O   UNL     1      18.369   1.122   4.754  1.00  0.00    -0.550 OA
ATOM     10  O   UNL     1      17.532  -0.987   5.070  1.00  0.00    -0.550 OA
ENDBRANCH   7   8
ENDBRANCH   6   7
ENDBRANCH   5   6
ENDBRANCH   4   5
ENDBRANCH   3   4
ENDBRANCH   2   3
ENDBRANCH   1   2
BRANCH   1  11
ATOM     11  C   UNL     1      23.938  -1.835   2.733  1.00  0.00     0.000 C 
BRANCH  11  12
ATOM     12  C   UNL     1      22.993  -0.635   2.594  1.00  0.00    -0.000 C 
BRANCH  12  13
ATOM     13  C   UNL     1      23.714   0.565   1.970  1.00  0.00    -0.000 C 
BRANCH  13  14
ATOM     14  C   UNL     1      23.105   0.924   0.606  1.00  0.00    -0.000 C 
BRANCH  14  15
ATOM     15  C   UNL     1      23.860   0.283  -0.569  1.00  0.00    -0.000 C 
BRANCH  15  16
ATOM     16  C   UNL     1      23.049  -0.831  -1.254  1.00  0.00    -0.000 C 
BRANCH  16  17
ATOM     17  C   UNL     1      23.672  -2.221  -1.052  1.00  0.00    -0.003 C 
ATOM     18  C   UNL     1      25.164  -2.258  -1.385  1.00  0.00     0.004 C 
ENDBRANCH  16  17
ENDBRANCH  15  16
ENDBRANCH  14  15
ENDBRANCH  13  14
ENDBRANCH  12  13
ENDBRANCH  11  12
ENDBRANCH   1  11
TORSDOF 14
ENDMDL
MODEL 7
REMARK VINA RESULT:    -3.491      4.090      5.890
REMARK INTER + INTRA:          -9.031
REMARK INTER:                  -7.194
REMARK INTRA:                  -1.837
REMARK UNBOUND:                -2.682
REMARK SMILES CCCCCCCCCCCCCCCC(=O)[O-]
REMARK SMILES IDX 9 1 10 2 11 3 12 4 13 5 14 6 15 7 16 8 17 9 18 10 8 11 7 12
REMARK SMILES IDX 6 13 5 14 4 15 3 16 2 17 1 18
REMARK H PARENT
REMARK Flexibility Score: inf
ROOT
ATOM      1  C   UNL     1      19.601   0.981   4.217  1.00  0.00     0.000 C 
ENDROOT
BRANCH   1   2
ATOM      2  C   UNL     1      18.368   0.502   4.996  1.00  0.00     0.000 C 
BRANCH   2   3
ATOM      3  C   UNL     1      18.209  -1.029   4.982  1.00  0.00     0.000 C 
BRANCH   3   4
ATOM      4  C   UNL     1      19.458  -1.816   5.426  1.00  0.00     0.000 C 
BRANCH   4   5
ATOM      5  C   UNL     1      20.121  -2.670   4.328  1.00  0.00     0.000 C 
BRANCH   5   6
ATOM      6  C   UNL     1      21.579  -3.074   4.612  1.00  0.00     0.006 C 
BRANCH   6   7
ATOM      7  C   UNL     1      22.356  -1.996   5.378  1.00  0.00     0.053 C 
BRANCH   7   8
ATOM      8  C   UNL     1      23.820  -2.303   5.369  1.00  0.00     0.041 C 
ATOM      9  O   UNL     1      24.649  -1.424   5.014  1.00  0.00    -0.550 OA
ATOM     10  O   UNL     1      24.267  -3.573   5.706  1.00  0.00    -0.550 OA
ENDBRANCH   7   8
ENDBRANCH   6   7
ENDBRANCH   5   6
ENDBRANCH   4   5
ENDBRANCH   3   4
ENDBRANCH   2   3
ENDBRANCH   1   2
BRANCH   1  11
ATOM     11  C   UNL     1      19.328   0.989   2.708  1.00  0.00     0.000 C 
BRANCH  11  12
ATOM     12  C   UNL     1      20.390   0.185   1.951  1.00  0.00    -0.000 C 
BRANCH  12  13
ATOM     13  C   UNL     1      21.760   0.303   2.630  1.00  0.00    -0.000 C 
BRANCH  13  14
ATOM     14  C   UNL     1      22.875  -0.229   1.716  1.00  0.00    -0.000 C 
BRANCH  14  15
ATOM     15  C   UNL     1      22.331  -0.954   0.475  1.00  0.00    -0.000 C 
BRANCH  15  16
ATOM     16  C   UNL     1      22.872  -0.362  -0.838  1.00  0.00    -0.000 C 
BRANCH  16  17
ATOM     17  C   UNL     1      24.404  -0.436  -0.930  1.00  0.00    -0.003 C 
ATOM     18  C   UNL     1      24.908  -1.819  -1.344  1.00  0.00     0.004 C 
ENDBRANCH  16  17
ENDBRANCH  15  16
ENDBRANCH  14  15
ENDBRANCH  13  14
ENDBRANCH  12  13
ENDBRANCH  11  12
ENDBRANCH   1  11
TORSDOF 14
ENDMDL
MODEL 8
REMARK VINA RESULT:    -3.486      3.198      5.355
REMARK INTER + INTRA:          -9.021
REMARK INTER:                  -6.170
REMARK INTRA:                  -2.851
REMARK UNBOUND:                -2.682
REMARK SMILES CCCCCCCCCCCCCCCC(=O)[O-]
REMARK SMILES IDX 9 1 10 2 11 3 12 4 13 5 14 6 15 7 16 8 17 9 18 10 8 11 7 12
REMARK SMILES IDX 6 13 5 14 4 15 3 16 2 17 1 18
REMARK H PARENT
REMARK Flexibility Score: inf
ROOT
ATOM      1  C   UNL     1      22.279  -1.136  -1.505  1.00  0.00     0.000 C 
ENDROOT
BRANCH   1   2
ATOM      2  C   UNL     1      22.845  -0.365  -0.303  1.00  0.00     0.000 C 
BRANCH   2   3
ATOM      3  C   UNL     1      23.125  -1.271   0.910  1.00  0.00     0.000 C 
BRANCH   3   4
ATOM      4  C   UNL     1      22.234  -1.005   2.139  1.00  0.00     0.000 C 
BRANCH   4   5
ATOM      5  C   UNL     1      21.576  -2.255   2.756  1.00  0.00     0.000 C 
BRANCH   5   6
ATOM      6  C   UNL     1      20.311  -1.979   3.589  1.00  0.00     0.006 C 
BRANCH   6   7
ATOM      7  C   UNL     1      20.215  -0.522   4.059  1.00  0.00     0.053 C 
BRANCH   7   8
ATOM      8  C   UNL     1      18.786  -0.087   4.120  1.00  0.00     0.041 C 
ATOM      9  O   UNL     1      17.877  -0.925   4.358  1.00  0.00    -0.550 OA
ATOM     10  O   UNL     1      18.451   1.237   3.865  1.00  0.00    -0.550 OA
ENDBRANCH   7   8
ENDBRANCH   6   7
ENDBRANCH   5   6
ENDBRANCH   4   5
ENDBRANCH   3   4
ENDBRANCH   2   3
ENDBRANCH   1   2
BRANCH   1  11
ATOM     11  C   UNL     1      22.568  -2.637  -1.379  1.00  0.00     0.000 C 
BRANCH  11  12
ATOM     12  C   UNL     1      21.327  -3.468  -1.722  1.00  0.00    -0.000 C 
BRANCH  12  13
ATOM     13  C   UNL     1      20.703  -4.075  -0.460  1.00  0.00    -0.000 C 
BRANCH  13  14
ATOM     14  C   UNL     1      19.451  -3.294  -0.034  1.00  0.00    -0.000 C 
BRANCH  14  15
ATOM     15  C   UNL     1      18.769  -2.577  -1.210  1.00  0.00    -0.000 C 
BRANCH  15  16
ATOM     16  C   UNL     1      18.366  -1.132  -0.867  1.00  0.00    -0.000 C 
BRANCH  16  17
ATOM     17  C   UNL     1      19.033  -0.626   0.421  1.00  0.00    -0.003 C 
ATOM     18  C   UNL     1      19.405   0.856   0.355  1.00  0.00     0.004 C 
ENDBRANCH  16  17
ENDBRANCH  15  16
ENDBRANCH  14  15
ENDBRANCH  13  14
ENDBRANCH  12  13
ENDBRANCH  11  12
ENDBRANCH   1  11
TORSDOF 14
ENDMDL
MODEL 9
REMARK VINA RESULT:    -3.473      3.367      5.057
REMARK INTER + INTRA:          -8.998
REMARK INTER:                  -6.999
REMARK INTRA:                  -1.999
REMARK UNBOUND:                -2.682
REMARK SMILES CCCCCCCCCCCCCCCC(=O)[O-]
REMARK SMILES IDX 9 1 10 2 11 3 12 4 13 5 14 6 15 7 16 8 17 9 18 10 8 11 7 12
REMARK SMILES IDX 6 13 5 14 4 15 3 16 2 17 1 18
REMARK H PARENT
REMARK Flexibility Score: inf
ROOT
ATOM      1  C   UNL     1      20.060  -2.693   0.081  1.00  0.00     0.000 C 
ENDROOT
BRANCH   1   2
ATOM      2  C   UNL     1      20.043  -1.205   0.459  1.00  0.00     0.000 C 
BRANCH   2   3
ATOM      3  C   UNL     1      20.986  -0.875   1.630  1.00  0.00     0.000 C 
BRANCH   3   4
ATOM      4  C   UNL     1      21.728  -2.087   2.229  1.00  0.00     0.000 C 
BRANCH   4   5
ATOM      5  C   UNL     1      23.265  -2.029   2.132  1.00  0.00     0.000 C 
BRANCH   5   6
ATOM      6  C   UNL     1      23.953  -1.195   3.227  1.00  0.00     0.006 C 
BRANCH   6   7
ATOM      7  C   UNL     1      24.111  -1.960   4.547  1.00  0.00     0.053 C 
BRANCH   7   8
ATOM      8  C   UNL     1      25.140  -3.036   4.406  1.00  0.00     0.041 C 
ATOM      9  O   UNL     1      26.343  -2.738   4.184  1.00  0.00    -0.550 OA
ATOM     10  O   UNL     1      24.764  -4.371   4.472  1.00  0.00    -0.550 OA
ENDBRANCH   7   8
ENDBRANCH   6   7
ENDBRANCH   5   6
ENDBRANCH   4   5
ENDBRANCH   3   4
ENDBRANCH   2   3
ENDBRANCH   1   2
BRANCH   1  11
ATOM     11  C   UNL     1      20.562  -2.889  -1.354  1.00  0.00     0.000 C 
BRANCH  11  12
ATOM     12  C   UNL     1      22.090  -3.010  -1.392  1.00  0.00    -0.000 C 
BRANCH  12  13
ATOM     13  C   UNL     1      22.741  -1.668  -1.746  1.00  0.00    -0.000 C 
BRANCH  13  14
ATOM     14  C   UNL     1      24.253  -1.703  -1.479  1.00  0.00    -0.000 C 
BRANCH  14  15
ATOM     15  C   UNL     1      24.768  -0.423  -0.803  1.00  0.00    -0.000 C 
BRANCH  15  16
ATOM     16  C   UNL     1      23.651   0.607  -0.560  1.00  0.00    -0.000 C 
BRANCH  16  17
ATOM     17  C   UNL     1      24.043   2.019  -1.023  1.00  0.00    -0.003 C 
ATOM     18  C   UNL     1      25.512   2.124  -1.433  1.00  0.00     0.004 C 
ENDBRANCH  16  17
ENDBRANCH  15  16
ENDBRANCH  14  15
ENDBRANCH  13  14
ENDBRANCH  12  13
ENDBRANCH  11  12
ENDBRANCH   1  11
TORSDOF 14
ENDMDL
