MODEL 1
REMARK VINA RESULT:    -2.881      0.000      0.000
REMARK INTER + INTRA:          -7.726
REMARK INTER:                  -5.239
REMARK INTRA:                  -2.487
REMARK UNBOUND:                -2.487
REMARK SMILES CCCCCCCCCCCCCCCC(=O)[O-]
REMARK SMILES IDX 9 1 10 2 11 3 12 4 13 5 14 6 15 7 16 8 17 9 18 10 8 11 7 12
REMARK SMILES IDX 6 13 5 14 4 15 3 16 2 17 1 18
REMARK H PARENT
REMARK Flexibility Score: inf
ROOT
ATOM      1  C   UNL     1     -96.610 -27.847  78.487  1.00  0.00     0.000 C 
ENDROOT
BRANCH   1   2
ATOM      2  C   UNL     1     -95.492 -26.897  78.948  1.00  0.00     0.000 C 
BRANCH   2   3
ATOM      3  C   UNL     1     -95.983 -25.839  79.951  1.00  0.00     0.000 C 
BRANCH   3   4
ATOM      4  C   UNL     1     -95.283 -25.915  81.325  1.00  0.00     0.000 C 
BRANCH   4   5
ATOM      5  C   UNL     1     -96.242 -26.369  82.439  1.00  0.00     0.000 C 
BRANCH   5   6
ATOM      6  C   UNL     1     -96.275 -27.896  82.606  1.00  0.00     0.006 C 
BRANCH   6   7
ATOM      7  C   UNL     1     -97.117 -28.342  83.808  1.00  0.00     0.053 C 
BRANCH   7   8
ATOM      8  C   UNL     1     -96.244 -28.580  84.999  1.00  0.00     0.041 C 
ATOM      9  O   UNL     1     -95.699 -29.702  85.170  1.00  0.00    -0.550 OA
ATOM     10  O   UNL     1     -95.990 -27.548  85.893  1.00  0.00    -0.550 OA
ENDBRANCH   7   8
ENDBRANCH   6   7
ENDBRANCH   5   6
ENDBRANCH   4   5
ENDBRANCH   3   4
ENDBRANCH   2   3
ENDBRANCH   1   2
BRANCH   1  11
ATOM     11  C   UNL     1     -96.499 -29.241  79.124  1.00  0.00     0.000 C 
BRANCH  11  12
ATOM     12  C   UNL     1     -97.869 -29.896  79.365  1.00  0.00    -0.000 C 
BRANCH  12  13
ATOM     13  C   UNL     1     -98.960 -29.203  78.534  1.00  0.00    -0.000 C 
BRANCH  13  14
ATOM     14  C   UNL     1    -100.107 -28.653  79.398  1.00  0.00    -0.000 C 
BRANCH  14  15
ATOM     15  C   UNL     1     -99.766 -28.647  80.898  1.00  0.00    -0.000 C 
BRANCH  15  16
ATOM     16  C   UNL     1     -99.713 -27.227  81.485  1.00  0.00    -0.000 C 
BRANCH  16  17
ATOM     17  C   UNL     1     -99.614 -26.142  80.401  1.00  0.00    -0.003 C 
ATOM     18  C   UNL     1     -99.344 -24.773  81.020  1.00  0.00     0.004 C 
ENDBRANCH  16  17
ENDBRANCH  15  16
ENDBRANCH  14  15
ENDBRANCH  13  14
ENDBRANCH  12  13
ENDBRANCH  11  12
ENDBRANCH   1  11
TORSDOF 14
ENDMDL
MODEL 2
REMARK VINA RESULT:    -2.863     14.709     16.519
REMARK INTER + INTRA:          -7.693
REMARK INTER:                  -6.273
REMARK INTRA:                  -1.420
REMARK UNBOUND:                -2.487
REMARK SMILES CCCCCCCCCCCCCCCC(=O)[O-]
REMARK SMILES IDX 9 1 10 2 11 3 12 4 13 5 14 6 15 7 16 8 17 9 18 10 8 11 7 12
REMARK SMILES IDX 6 13 5 14 4 15 3 16 2 17 1 18
REMARK H PARENT
REMARK Flexibility Score: inf
ROOT
ATOM      1  C   UNL     1     -99.555 -39.675  93.161  1.00  0.00     0.000 C 
ENDROOT
BRANCH   1   2
ATOM      2  C   UNL     1     -98.901 -41.018  92.793  1.00  0.00     0.000 C 
BRANCH   2   3
ATOM      3  C   UNL     1     -97.371 -40.919  92.660  1.00  0.00     0.000 C 
BRANCH   3   4
ATOM      4  C   UNL     1     -96.847 -41.277  91.253  1.00  0.00     0.000 C 
BRANCH   4   5
ATOM      5  C   UNL     1     -97.987 -41.407  90.227  1.00  0.00     0.000 C 
BRANCH   5   6
ATOM      6  C   UNL     1     -98.064 -40.205  89.274  1.00  0.00     0.006 C 
BRANCH   6   7
ATOM      7  C   UNL     1     -96.991 -40.247  88.179  1.00  0.00     0.053 C 
BRANCH   7   8
ATOM      8  C   UNL     1     -97.032 -41.556  87.456  1.00  0.00     0.041 C 
ATOM      9  O   UNL     1     -98.086 -41.925  86.873  1.00  0.00    -0.550 OA
ATOM     10  O   UNL     1     -95.893 -42.346  87.383  1.00  0.00    -0.550 OA
ENDBRANCH   7   8
ENDBRANCH   6   7
ENDBRANCH   5   6
ENDBRANCH   4   5
ENDBRANCH   3   4
ENDBRANCH   2   3
ENDBRANCH   1   2
BRANCH   1  11
ATOM     11  C   UNL     1    -100.077 -38.916  91.930  1.00  0.00     0.000 C 
BRANCH  11  12
ATOM     12  C   UNL     1    -100.269 -37.415  92.194  1.00  0.00    -0.000 C 
BRANCH  12  13
ATOM     13  C   UNL     1    -101.761 -37.048  92.206  1.00  0.00    -0.000 C 
BRANCH  13  14
ATOM     14  C   UNL     1    -102.048 -35.750  92.979  1.00  0.00    -0.000 C 
BRANCH  14  15
ATOM     15  C   UNL     1    -100.888 -35.344  93.905  1.00  0.00    -0.000 C 
BRANCH  15  16
ATOM     16  C   UNL     1    -101.306 -35.284  95.382  1.00  0.00    -0.000 C 
BRANCH  16  17
ATOM     17  C   UNL     1    -101.517 -36.677  95.996  1.00  0.00    -0.003 C 
ATOM     18  C   UNL     1    -100.204 -37.452  96.062  1.00  0.00     0.004 C 
ENDBRANCH  16  17
ENDBRANCH  15  16
ENDBRANCH  14  15
ENDBRANCH  13  14
ENDBRANCH  12  13
ENDBRANCH  11  12
ENDBRANCH   1  11
TORSDOF 14
ENDMDL
MODEL 3
REMARK VINA RESULT:    -2.845     14.903     16.861
REMARK INTER + INTRA:          -7.661
REMARK INTER:                  -6.022
REMARK INTRA:                  -1.639
REMARK UNBOUND:                -2.487
REMARK SMILES CCCCCCCCCCCCCCCC(=O)[O-]
REMARK SMILES IDX 9 1 10 2 11 3 12 4 13 5 14 6 15 7 16 8 17 9 18 10 8 11 7 12
REMARK SMILES IDX 6 13 5 14 4 15 3 16 2 17 1 18
REMARK H PARENT
REMARK Flexibility Score: inf
ROOT
ATOM      1  C   UNL     1     -98.101 -42.116  93.862  1.00  0.00     0.000 C 
ENDROOT
BRANCH   1   2
ATOM      2  C   UNL     1     -96.953 -41.347  93.186  1.00  0.00     0.000 C 
BRANCH   2   3
ATOM      3  C   UNL     1     -96.463 -42.022  91.894  1.00  0.00     0.000 C 
BRANCH   3   4
ATOM      4  C   UNL     1     -96.467 -41.086  90.666  1.00  0.00     0.000 C 
BRANCH   4   5
ATOM      5  C   UNL     1     -97.871 -40.948  90.049  1.00  0.00     0.000 C 
BRANCH   5   6
ATOM      6  C   UNL     1     -97.853 -40.224  88.694  1.00  0.00     0.006 C 
BRANCH   6   7
ATOM      7  C   UNL     1     -96.876 -40.858  87.696  1.00  0.00     0.053 C 
BRANCH   7   8
ATOM      8  C   UNL     1     -97.371 -42.202  87.263  1.00  0.00     0.041 C 
ATOM      9  O   UNL     1     -96.607 -43.202  87.306  1.00  0.00    -0.550 OA
ATOM     10  O   UNL     1     -98.690 -42.361  86.861  1.00  0.00    -0.550 OA
ENDBRANCH   7   8
ENDBRANCH   6   7
ENDBRANCH   5   6
ENDBRANCH   4   5
ENDBRANCH   3   4
ENDBRANCH   2   3
ENDBRANCH   1   2
BRANCH   1  11
ATOM     11  C   UNL     1     -99.442 -41.369  93.780  1.00  0.00     0.000 C 
BRANCH  11  12
ATOM     12  C   UNL     1     -99.282 -39.909  93.328  1.00  0.00    -0.000 C 
BRANCH  12  13
ATOM     13  C   UNL     1    -100.378 -39.523  92.324  1.00  0.00    -0.000 C 
BRANCH  13  14
ATOM     14  C   UNL     1    -100.192 -38.107  91.753  1.00  0.00    -0.000 C 
BRANCH  14  15
ATOM     15  C   UNL     1    -101.220 -37.107  92.309  1.00  0.00    -0.000 C 
BRANCH  15  16
ATOM     16  C   UNL     1    -100.574 -36.021  93.183  1.00  0.00    -0.000 C 
BRANCH  16  17
ATOM     17  C   UNL     1    -100.615 -36.363  94.681  1.00  0.00    -0.003 C 
ATOM     18  C   UNL     1    -101.795 -37.275  95.002  1.00  0.00     0.004 C 
ENDBRANCH  16  17
ENDBRANCH  15  16
ENDBRANCH  14  15
ENDBRANCH  13  14
ENDBRANCH  12  13
ENDBRANCH  11  12
ENDBRANCH   1  11
TORSDOF 14
ENDMDL
MODEL 4
REMARK VINA RESULT:    -2.807      1.914      4.545
REMARK INTER + INTRA:          -7.592
REMARK INTER:                  -5.474
REMARK INTRA:                  -2.119
REMARK UNBOUND:                -2.487
REMARK SMILES CCCCCCCCCCCCCCCC(=O)[O-]
REMARK SMILES IDX 9 1 10 2 11 3 12 4 13 5 14 6 15 7 16 8 17 9 18 10 8 11 7 12
REMARK SMILES IDX 6 13 5 14 4 15 3 16 2 17 1 18
REMARK H PARENT
REMARK Flexibility Score: inf
ROOT
ATOM      1  C   UNL     1     -96.110 -28.191  78.743  1.00  0.00     0.000 C 
ENDROOT
BRANCH   1   2
ATOM      2  C   UNL     1     -96.885 -28.927  79.850  1.00  0.00     0.000 C 
BRANCH   2   3
ATOM      3  C   UNL     1     -97.968 -29.868  79.294  1.00  0.00     0.000 C 
BRANCH   3   4
ATOM      4  C   UNL     1     -99.394 -29.521  79.775  1.00  0.00     0.000 C 
BRANCH   4   5
ATOM      5  C   UNL     1     -99.534 -28.034  80.145  1.00  0.00     0.000 C 
BRANCH   5   6
ATOM      6  C   UNL     1    -100.059 -27.826  81.574  1.00  0.00     0.006 C 
BRANCH   6   7
ATOM      7  C   UNL     1    -100.407 -29.146  82.274  1.00  0.00     0.053 C 
BRANCH   7   8
ATOM      8  C   UNL     1    -100.412 -28.964  83.759  1.00  0.00     0.041 C 
ATOM      9  O   UNL     1    -100.409 -29.967  84.520  1.00  0.00    -0.550 OA
ATOM     10  O   UNL     1    -100.369 -27.688  84.303  1.00  0.00    -0.550 OA
ENDBRANCH   7   8
ENDBRANCH   6   7
ENDBRANCH   5   6
ENDBRANCH   4   5
ENDBRANCH   3   4
ENDBRANCH   2   3
ENDBRANCH   1   2
BRANCH   1  11
ATOM     11  C   UNL     1     -96.156 -26.663  78.908  1.00  0.00     0.000 C 
BRANCH  11  12
ATOM     12  C   UNL     1     -95.582 -26.192  80.253  1.00  0.00    -0.000 C 
BRANCH  12  13
ATOM     13  C   UNL     1     -96.586 -25.295  80.993  1.00  0.00    -0.000 C 
BRANCH  13  14
ATOM     14  C   UNL     1     -97.145 -25.950  82.267  1.00  0.00    -0.000 C 
BRANCH  14  15
ATOM     15  C   UNL     1     -96.130 -26.888  82.942  1.00  0.00    -0.000 C 
BRANCH  15  16
ATOM     16  C   UNL     1     -96.776 -28.186  83.452  1.00  0.00    -0.000 C 
BRANCH  16  17
ATOM     17  C   UNL     1     -96.684 -28.334  84.979  1.00  0.00    -0.003 C 
ATOM     18  C   UNL     1     -95.860 -29.560  85.363  1.00  0.00     0.004 C 
ENDBRANCH  16  17
ENDBRANCH  15  16
ENDBRANCH  14  15
ENDBRANCH  13  14
ENDBRANCH  12  13
ENDBRANCH  11  12
ENDBRANCH   1  11
TORSDOF 14
ENDMDL
MODEL 5
REMARK VINA RESULT:    -2.780     14.113     16.544
REMARK INTER + INTRA:          -7.543
REMARK INTER:                  -6.418
REMARK INTRA:                  -1.125
REMARK UNBOUND:                -2.487
REMARK SMILES CCCCCCCCCCCCCCCC(=O)[O-]
REMARK SMILES IDX 9 1 10 2 11 3 12 4 13 5 14 6 15 7 16 8 17 9 18 10 8 11 7 12
REMARK SMILES IDX 6 13 5 14 4 15 3 16 2 17 1 18
REMARK H PARENT
REMARK Flexibility Score: inf
ROOT
ATOM      1  C   UNL     1     -97.552 -41.108  93.410  1.00  0.00     0.000 C 
ENDROOT
BRANCH   1   2
ATOM      2  C   UNL     1     -98.637 -40.791  92.367  1.00  0.00     0.000 C 
BRANCH   2   3
ATOM      3  C   UNL     1     -99.519 -39.596  92.768  1.00  0.00     0.000 C 
BRANCH   3   4
ATOM      4  C   UNL     1     -99.916 -38.694  91.580  1.00  0.00     0.000 C 
BRANCH   4   5
ATOM      5  C   UNL     1    -100.884 -37.574  92.002  1.00  0.00     0.000 C 
BRANCH   5   6
ATOM      6  C   UNL     1    -100.720 -37.174  93.475  1.00  0.00     0.006 C 
BRANCH   6   7
ATOM      7  C   UNL     1    -100.533 -35.662  93.661  1.00  0.00     0.053 C 
BRANCH   7   8
ATOM      8  C   UNL     1    -101.260 -35.191  94.879  1.00  0.00     0.041 C 
ATOM      9  O   UNL     1    -101.429 -35.967  95.856  1.00  0.00    -0.550 OA
ATOM     10  O   UNL     1    -101.709 -33.879  94.958  1.00  0.00    -0.550 OA
ENDBRANCH   7   8
ENDBRANCH   6   7
ENDBRANCH   5   6
ENDBRANCH   4   5
ENDBRANCH   3   4
ENDBRANCH   2   3
ENDBRANCH   1   2
BRANCH   1  11
ATOM     11  C   UNL     1     -96.182 -41.387  92.770  1.00  0.00     0.000 C 
BRANCH  11  12
ATOM     12  C   UNL     1     -96.240 -41.430  91.236  1.00  0.00    -0.000 C 
BRANCH  12  13
ATOM     13  C   UNL     1     -96.230 -42.879  90.728  1.00  0.00    -0.000 C 
BRANCH  13  14
ATOM     14  C   UNL     1     -97.172 -43.098  89.532  1.00  0.00    -0.000 C 
BRANCH  14  15
ATOM     15  C   UNL     1     -96.423 -43.129  88.188  1.00  0.00    -0.000 C 
BRANCH  15  16
ATOM     16  C   UNL     1     -96.357 -41.748  87.518  1.00  0.00    -0.000 C 
BRANCH  16  17
ATOM     17  C   UNL     1     -97.587 -40.879  87.828  1.00  0.00    -0.003 C 
ATOM     18  C   UNL     1     -97.172 -39.472  88.248  1.00  0.00     0.004 C 
ENDBRANCH  16  17
ENDBRANCH  15  16
ENDBRANCH  14  15
ENDBRANCH  13  14
ENDBRANCH  12  13
ENDBRANCH  11  12
ENDBRANCH   1  11
TORSDOF 14
ENDMDL
MODEL 6
REMARK VINA RESULT:    -2.762     14.555     16.788
REMARK INTER + INTRA:          -7.509
REMARK INTER:                  -5.783
REMARK INTRA:                  -1.726
REMARK UNBOUND:                -2.487
REMARK SMILES CCCCCCCCCCCCCCCC(=O)[O-]
REMARK SMILES IDX 9 1 10 2 11 3 12 4 13 5 14 6 15 7 16 8 17 9 18 10 8 11 7 12
REMARK SMILES IDX 6 13 5 14 4 15 3 16 2 17 1 18
REMARK H PARENT
REMARK Flexibility Score: inf
ROOT
ATOM      1  C   UNL     1     -96.913 -41.009  93.328  1.00  0.00     0.000 C 
ENDROOT
BRANCH   1   2
ATOM      2  C   UNL     1     -97.604 -40.706  94.669  1.00  0.00     0.000 C 
BRANCH   2   3
ATOM      3  C   UNL     1     -99.133 -40.864  94.600  1.00  0.00     0.000 C 
BRANCH   3   4
ATOM      4  C   UNL     1     -99.889 -39.524  94.477  1.00  0.00     0.000 C 
BRANCH   4   5
ATOM      5  C   UNL     1    -100.636 -39.402  93.136  1.00  0.00     0.000 C 
BRANCH   5   6
ATOM      6  C   UNL     1    -100.140 -38.222  92.287  1.00  0.00     0.006 C 
BRANCH   6   7
ATOM      7  C   UNL     1    -101.227 -37.167  92.048  1.00  0.00     0.053 C 
BRANCH   7   8
ATOM      8  C   UNL     1    -101.346 -36.263  93.234  1.00  0.00     0.041 C 
ATOM      9  O   UNL     1    -102.459 -36.106  93.802  1.00  0.00    -0.550 OA
ATOM     10  O   UNL     1    -100.219 -35.632  93.744  1.00  0.00    -0.550 OA
ENDBRANCH   7   8
ENDBRANCH   6   7
ENDBRANCH   5   6
ENDBRANCH   4   5
ENDBRANCH   3   4
ENDBRANCH   2   3
ENDBRANCH   1   2
BRANCH   1  11
ATOM     11  C   UNL     1     -97.690 -42.029  92.480  1.00  0.00     0.000 C 
BRANCH  11  12
ATOM     12  C   UNL     1     -97.421 -41.878  90.975  1.00  0.00    -0.000 C 
BRANCH  12  13
ATOM     13  C   UNL     1     -98.638 -41.271  90.260  1.00  0.00    -0.000 C 
BRANCH  13  14
ATOM     14  C   UNL     1     -98.332 -39.906  89.621  1.00  0.00    -0.000 C 
BRANCH  14  15
ATOM     15  C   UNL     1     -97.075 -39.936  88.734  1.00  0.00    -0.000 C 
BRANCH  15  16
ATOM     16  C   UNL     1     -97.247 -40.833  87.498  1.00  0.00    -0.000 C 
BRANCH  16  17
ATOM     17  C   UNL     1     -96.213 -41.969  87.442  1.00  0.00    -0.003 C 
ATOM     18  C   UNL     1     -96.893 -43.333  87.522  1.00  0.00     0.004 C 
ENDBRANCH  16  17
ENDBRANCH  15  16
ENDBRANCH  14  15
ENDBRANCH  13  14
ENDBRANCH  12  13
ENDBRANCH  11  12
ENDBRANCH   1  11
TORSDOF 14
ENDMDL
MODEL 7
REMARK VINA RESULT:    -2.755     13.786     15.998
REMARK INTER + INTRA:          -7.497
REMARK INTER:                  -6.482
REMARK INTRA:                  -1.015
REMARK UNBOUND:                -2.487
REMARK SMILES CCCCCCCCCCCCCCCC(=O)[O-]
REMARK SMILES IDX 9 1 10 2 11 3 12 4 13 5 14 6 15 7 16 8 17 9 18 10 8 11 7 12
REMARK SMILES IDX 6 13 5 14 4 15 3 16 2 17 1 18
REMARK H PARENT
REMARK Flexibility Score: inf
ROOT
ATOM      1  C   UNL     1     -99.145 -40.114  92.223  1.00  0.00     0.000 C 
ENDROOT
BRANCH   1   2
ATOM      2  C   UNL     1     -99.856 -38.861  91.681  1.00  0.00     0.000 C 
BRANCH   2   3
ATOM      3  C   UNL     1    -100.699 -38.145  92.750  1.00  0.00     0.000 C 
BRANCH   3   4
ATOM      4  C   UNL     1    -100.602 -36.606  92.686  1.00  0.00     0.000 C 
BRANCH   4   5
ATOM      5  C   UNL     1    -100.578 -35.969  94.087  1.00  0.00     0.000 C 
BRANCH   5   6
ATOM      6  C   UNL     1    -101.366 -34.652  94.153  1.00  0.00     0.006 C 
BRANCH   6   7
ATOM      7  C   UNL     1    -102.481 -34.577  93.102  1.00  0.00     0.053 C 
BRANCH   7   8
ATOM      8  C   UNL     1    -102.871 -33.154  92.855  1.00  0.00     0.041 C 
ATOM      9  O   UNL     1    -103.894 -32.887  92.171  1.00  0.00    -0.550 OA
ATOM     10  O   UNL     1    -102.135 -32.123  93.422  1.00  0.00    -0.550 OA
ENDBRANCH   7   8
ENDBRANCH   6   7
ENDBRANCH   5   6
ENDBRANCH   4   5
ENDBRANCH   3   4
ENDBRANCH   2   3
ENDBRANCH   1   2
BRANCH   1  11
ATOM     11  C   UNL     1     -98.530 -40.973  91.105  1.00  0.00     0.000 C 
BRANCH  11  12
ATOM     12  C   UNL     1     -97.037 -41.257  91.328  1.00  0.00    -0.000 C 
BRANCH  12  13
ATOM     13  C   UNL     1     -96.696 -42.710  90.964  1.00  0.00    -0.000 C 
BRANCH  13  14
ATOM     14  C   UNL     1     -97.422 -43.192  89.696  1.00  0.00    -0.000 C 
BRANCH  14  15
ATOM     15  C   UNL     1     -96.457 -43.448  88.525  1.00  0.00    -0.000 C 
BRANCH  15  16
ATOM     16  C   UNL     1     -96.154 -42.174  87.721  1.00  0.00    -0.000 C 
BRANCH  16  17
ATOM     17  C   UNL     1     -97.404 -41.311  87.485  1.00  0.00    -0.003 C 
ATOM     18  C   UNL     1     -97.173 -39.875  87.945  1.00  0.00     0.004 C 
ENDBRANCH  16  17
ENDBRANCH  15  16
ENDBRANCH  14  15
ENDBRANCH  13  14
ENDBRANCH  12  13
ENDBRANCH  11  12
ENDBRANCH   1  11
TORSDOF 14
ENDMDL
MODEL 8
REMARK VINA RESULT:    -2.753      2.847      5.022
REMARK INTER + INTRA:          -7.494
REMARK INTER:                  -5.197
REMARK INTRA:                  -2.297
REMARK UNBOUND:                -2.487
REMARK SMILES CCCCCCCCCCCCCCCC(=O)[O-]
REMARK SMILES IDX 9 1 10 2 11 3 12 4 13 5 14 6 15 7 16 8 17 9 18 10 8 11 7 12
REMARK SMILES IDX 6 13 5 14 4 15 3 16 2 17 1 18
REMARK H PARENT
REMARK Flexibility Score: inf
ROOT
ATOM      1  C   UNL     1     -95.724 -27.373  78.803  1.00  0.00     0.000 C 
ENDROOT
BRANCH   1   2
ATOM      2  C   UNL     1     -96.827 -27.093  77.767  1.00  0.00     0.000 C 
BRANCH   2   3
ATOM      3  C   UNL     1     -97.589 -25.786  78.046  1.00  0.00     0.000 C 
BRANCH   3   4
ATOM      4  C   UNL     1     -98.806 -25.967  78.979  1.00  0.00     0.000 C 
BRANCH   4   5
ATOM      5  C   UNL     1     -99.373 -27.397  78.919  1.00  0.00     0.000 C 
BRANCH   5   6
ATOM      6  C   UNL     1     -99.415 -28.076  80.297  1.00  0.00     0.006 C 
BRANCH   6   7
ATOM      7  C   UNL     1     -98.484 -29.292  80.385  1.00  0.00     0.053 C 
BRANCH   7   8
ATOM      8  C   UNL     1     -98.830 -30.293  79.329  1.00  0.00     0.041 C 
ATOM      9  O   UNL     1     -97.979 -30.615  78.458  1.00  0.00    -0.550 OA
ATOM     10  O   UNL     1    -100.074 -30.909  79.336  1.00  0.00    -0.550 OA
ENDBRANCH   7   8
ENDBRANCH   6   7
ENDBRANCH   5   6
ENDBRANCH   4   5
ENDBRANCH   3   4
ENDBRANCH   2   3
ENDBRANCH   1   2
BRANCH   1  11
ATOM     11  C   UNL     1     -94.946 -26.106  79.193  1.00  0.00     0.000 C 
BRANCH  11  12
ATOM     12  C   UNL     1     -95.036 -25.791  80.694  1.00  0.00    -0.000 C 
BRANCH  12  13
ATOM     13  C   UNL     1     -96.052 -26.712  81.386  1.00  0.00    -0.000 C 
BRANCH  13  14
ATOM     14  C   UNL     1     -96.969 -25.959  82.365  1.00  0.00    -0.000 C 
BRANCH  14  15
ATOM     15  C   UNL     1     -97.633 -26.893  83.391  1.00  0.00    -0.000 C 
BRANCH  15  16
ATOM     16  C   UNL     1     -96.793 -28.148  83.676  1.00  0.00    -0.000 C 
BRANCH  16  17
ATOM     17  C   UNL     1     -96.203 -28.157  85.095  1.00  0.00    -0.003 C 
ATOM     18  C   UNL     1     -95.947 -29.583  85.573  1.00  0.00     0.004 C 
ENDBRANCH  16  17
ENDBRANCH  15  16
ENDBRANCH  14  15
ENDBRANCH  13  14
ENDBRANCH  12  13
ENDBRANCH  11  12
ENDBRANCH   1  11
TORSDOF 14
ENDMDL
MODEL 9
REMARK VINA RESULT:    -2.706      2.126      5.116
REMARK INTER + INTRA:          -7.408
REMARK INTER:                  -5.550
REMARK INTRA:                  -1.858
REMARK UNBOUND:                -2.487
REMARK SMILES CCCCCCCCCCCCCCCC(=O)[O-]
REMARK SMILES IDX 9 1 10 2 11 3 12 4 13 5 14 6 15 7 16 8 17 9 18 10 8 11 7 12
REMARK SMILES IDX 6 13 5 14 4 15 3 16 2 17 1 18
REMARK H PARENT
REMARK Flexibility Score: inf
ROOT
ATOM      1  C   UNL     1     -95.398 -26.771  78.879  1.00  0.00     0.000 C 
ENDROOT
BRANCH   1   2
ATOM      2  C   UNL     1     -96.412 -27.605  78.077  1.00  0.00     0.000 C 
BRANCH   2   3
ATOM      3  C   UNL     1     -97.574 -28.123  78.942  1.00  0.00     0.000 C 
BRANCH   3   4
ATOM      4  C   UNL     1     -97.122 -28.726  80.290  1.00  0.00     0.000 C 
BRANCH   4   5
ATOM      5  C   UNL     1     -97.790 -28.030  81.489  1.00  0.00     0.000 C 
BRANCH   5   6
ATOM      6  C   UNL     1     -96.850 -27.900  82.697  1.00  0.00     0.006 C 
BRANCH   6   7
ATOM      7  C   UNL     1     -97.490 -28.394  84.000  1.00  0.00     0.053 C 
BRANCH   7   8
ATOM      8  C   UNL     1     -96.453 -28.545  85.067  1.00  0.00     0.041 C 
ATOM      9  O   UNL     1     -95.948 -27.527  85.608  1.00  0.00    -0.550 OA
ATOM     10  O   UNL     1     -96.081 -29.811  85.501  1.00  0.00    -0.550 OA
ENDBRANCH   7   8
ENDBRANCH   6   7
ENDBRANCH   5   6
ENDBRANCH   4   5
ENDBRANCH   3   4
ENDBRANCH   2   3
ENDBRANCH   1   2
BRANCH   1  11
ATOM     11  C   UNL     1     -95.839 -25.307  79.045  1.00  0.00     0.000 C 
BRANCH  11  12
ATOM     12  C   UNL     1     -95.778 -24.830  80.504  1.00  0.00    -0.000 C 
BRANCH  12  13
ATOM     13  C   UNL     1     -94.594 -25.475  81.242  1.00  0.00    -0.000 C 
BRANCH  13  14
ATOM     14  C   UNL     1     -93.388 -24.530  81.370  1.00  0.00    -0.000 C 
BRANCH  14  15
ATOM     15  C   UNL     1     -92.282 -24.841  80.346  1.00  0.00    -0.000 C 
BRANCH  15  16
ATOM     16  C   UNL     1     -92.354 -23.934  79.108  1.00  0.00    -0.000 C 
BRANCH  16  17
ATOM     17  C   UNL     1     -91.665 -24.550  77.880  1.00  0.00    -0.003 C 
ATOM     18  C   UNL     1     -92.685 -25.177  76.935  1.00  0.00     0.004 C 
ENDBRANCH  16  17
ENDBRANCH  15  16
ENDBRANCH  14  15
ENDBRANCH  13  14
ENDBRANCH  12  13
ENDBRANCH  11  12
ENDBRANCH   1  11
TORSDOF 14
ENDMDL
