MODEL 1
REMARK VINA RESULT:    -3.964      0.000      0.000
REMARK INTER + INTRA:          -6.874
REMARK INTER:                  -6.282
REMARK INTRA:                  -0.592
REMARK UNBOUND:                -0.592
REMARK SMILES CCCCCCCCCCCC(=O)[O-]
REMARK SMILES IDX 7 1 8 2 9 3 10 4 11 5 12 6 13 7 14 8 6 9 5 10 4 11 3 12 2 13
REMARK SMILES IDX 1 14
REMARK H PARENT
REMARK Flexibility Score: inf
ROOT
ATOM      1  C   UNL     1     113.557  54.739 230.444  1.00  0.00     0.000 C 
ENDROOT
BRANCH   1   2
ATOM      2  C   UNL     1     112.667  53.568 230.889  1.00  0.00     0.000 C 
BRANCH   2   3
ATOM      3  C   UNL     1     113.100  53.040 232.262  1.00  0.00     0.000 C 
BRANCH   3   4
ATOM      4  C   UNL     1     111.914  52.987 233.231  1.00  0.00     0.006 C 
BRANCH   4   5
ATOM      5  C   UNL     1     110.587  53.163 232.486  1.00  0.00     0.053 C 
BRANCH   5   6
ATOM      6  C   UNL     1     109.581  52.163 232.963  1.00  0.00     0.041 C 
ATOM      7  O   UNL     1     109.597  50.985 232.519  1.00  0.00    -0.550 OA
ATOM      8  O   UNL     1     108.595  52.546 233.864  1.00  0.00    -0.550 OA
ENDBRANCH   5   6
ENDBRANCH   4   5
ENDBRANCH   3   4
ENDBRANCH   2   3
ENDBRANCH   1   2
BRANCH   1   9
ATOM      9  C   UNL     1     113.590  54.915 228.918  1.00  0.00     0.000 C 
BRANCH   9  10
ATOM     10  C   UNL     1     112.680  53.912 228.188  1.00  0.00    -0.000 C 
BRANCH  10  11
ATOM     11  C   UNL     1     113.349  53.306 226.942  1.00  0.00    -0.000 C 
BRANCH  11  12
ATOM     12  C   UNL     1     112.524  53.527 225.663  1.00  0.00    -0.000 C 
BRANCH  12  13
ATOM     13  C   UNL     1     111.040  53.793 225.959  1.00  0.00    -0.003 C 
ATOM     14  C   UNL     1     110.104  52.873 225.172  1.00  0.00     0.004 C 
ENDBRANCH  12  13
ENDBRANCH  11  12
ENDBRANCH  10  11
ENDBRANCH   9  10
ENDBRANCH   1   9
TORSDOF 10
ENDMDL
MODEL 2
REMARK VINA RESULT:    -3.780      3.104      6.271
REMARK INTER + INTRA:          -6.581
REMARK INTER:                  -6.004
REMARK INTRA:                  -0.577
REMARK UNBOUND:                -0.592
REMARK SMILES CCCCCCCCCCCC(=O)[O-]
REMARK SMILES IDX 7 1 8 2 9 3 10 4 11 5 12 6 13 7 14 8 6 9 5 10 4 11 3 12 2 13
REMARK SMILES IDX 1 14
REMARK H PARENT
REMARK Flexibility Score: inf
ROOT
ATOM      1  C   UNL     1     112.876  53.894 229.624  1.00  0.00     0.000 C 
ENDROOT
BRANCH   1   2
ATOM      2  C   UNL     1     112.871  54.387 228.169  1.00  0.00     0.000 C 
BRANCH   2   3
ATOM      3  C   UNL     1     113.341  53.283 227.214  1.00  0.00     0.000 C 
BRANCH   3   4
ATOM      4  C   UNL     1     112.556  53.322 225.898  1.00  0.00     0.006 C 
BRANCH   4   5
ATOM      5  C   UNL     1     111.118  53.795 226.130  1.00  0.00     0.053 C 
BRANCH   5   6
ATOM      6  C   UNL     1     110.177  53.081 225.212  1.00  0.00     0.041 C 
ATOM      7  O   UNL     1     109.651  51.992 225.563  1.00  0.00    -0.550 OA
ATOM      8  O   UNL     1     109.917  53.594 223.947  1.00  0.00    -0.550 OA
ENDBRANCH   5   6
ENDBRANCH   4   5
ENDBRANCH   3   4
ENDBRANCH   2   3
ENDBRANCH   1   2
BRANCH   1   9
ATOM      9  C   UNL     1     113.599  54.858 230.577  1.00  0.00     0.000 C 
BRANCH   9  10
ATOM     10  C   UNL     1     113.732  54.292 232.001  1.00  0.00    -0.000 C 
BRANCH  10  11
ATOM     11  C   UNL     1     112.854  53.049 232.226  1.00  0.00    -0.000 C 
BRANCH  11  12
ATOM     12  C   UNL     1     111.772  53.277 233.295  1.00  0.00    -0.000 C 
BRANCH  12  13
ATOM     13  C   UNL     1     110.349  53.172 232.723  1.00  0.00    -0.003 C 
ATOM     14  C   UNL     1     109.892  51.725 232.530  1.00  0.00     0.004 C 
ENDBRANCH  12  13
ENDBRANCH  11  12
ENDBRANCH  10  11
ENDBRANCH   9  10
ENDBRANCH   1   9
TORSDOF 10
ENDMDL
MODEL 3
REMARK VINA RESULT:    -3.710      0.732      1.166
REMARK INTER + INTRA:          -6.471
REMARK INTER:                  -5.730
REMARK INTRA:                  -0.741
REMARK UNBOUND:                -0.592
REMARK SMILES CCCCCCCCCCCC(=O)[O-]
REMARK SMILES IDX 7 1 8 2 9 3 10 4 11 5 12 6 13 7 14 8 6 9 5 10 4 11 3 12 2 13
REMARK SMILES IDX 1 14
REMARK H PARENT
REMARK Flexibility Score: inf
ROOT
ATOM      1  C   UNL     1     113.063  55.395 230.909  1.00  0.00     0.000 C 
ENDROOT
BRANCH   1   2
ATOM      2  C   UNL     1     113.662  54.268 231.765  1.00  0.00     0.000 C 
BRANCH   2   3
ATOM      3  C   UNL     1     112.724  53.055 231.810  1.00  0.00     0.000 C 
BRANCH   3   4
ATOM      4  C   UNL     1     111.773  53.139 233.010  1.00  0.00     0.006 C 
BRANCH   4   5
ATOM      5  C   UNL     1     110.333  53.387 232.554  1.00  0.00     0.053 C 
BRANCH   5   6
ATOM      6  C   UNL     1     109.440  52.277 233.010  1.00  0.00     0.041 C 
ATOM      7  O   UNL     1     108.541  52.495 233.865  1.00  0.00    -0.550 OA
ATOM      8  O   UNL     1     109.632  50.988 232.527  1.00  0.00    -0.550 OA
ENDBRANCH   5   6
ENDBRANCH   4   5
ENDBRANCH   3   4
ENDBRANCH   2   3
ENDBRANCH   1   2
BRANCH   1   9
ATOM      9  C   UNL     1     112.381  54.875 229.633  1.00  0.00     0.000 C 
BRANCH   9  10
ATOM     10  C   UNL     1     113.382  54.617 228.493  1.00  0.00    -0.000 C 
BRANCH  10  11
ATOM     11  C   UNL     1     113.077  53.321 227.722  1.00  0.00    -0.000 C 
BRANCH  11  12
ATOM     12  C   UNL     1     112.866  53.565 226.218  1.00  0.00    -0.000 C 
BRANCH  12  13
ATOM     13  C   UNL     1     111.490  54.176 225.909  1.00  0.00    -0.003 C 
ATOM     14  C   UNL     1     110.451  53.127 225.509  1.00  0.00     0.004 C 
ENDBRANCH  12  13
ENDBRANCH  11  12
ENDBRANCH  10  11
ENDBRANCH   9  10
ENDBRANCH   1   9
TORSDOF 10
ENDMDL
MODEL 4
REMARK VINA RESULT:    -3.667      3.182      6.241
REMARK INTER + INTRA:          -6.402
REMARK INTER:                  -5.521
REMARK INTRA:                  -0.881
REMARK UNBOUND:                -0.592
REMARK SMILES CCCCCCCCCCCC(=O)[O-]
REMARK SMILES IDX 7 1 8 2 9 3 10 4 11 5 12 6 13 7 14 8 6 9 5 10 4 11 3 12 2 13
REMARK SMILES IDX 1 14
REMARK H PARENT
REMARK Flexibility Score: inf
ROOT
ATOM      1  C   UNL     1     112.613  53.601 230.727  1.00  0.00     0.000 C 
ENDROOT
BRANCH   1   2
ATOM      2  C   UNL     1     113.277  54.881 230.198  1.00  0.00     0.000 C 
BRANCH   2   3
ATOM      3  C   UNL     1     113.461  54.816 228.676  1.00  0.00     0.000 C 
BRANCH   3   4
ATOM      4  C   UNL     1     112.998  53.463 228.124  1.00  0.00     0.006 C 
BRANCH   4   5
ATOM      5  C   UNL     1     113.511  53.247 226.697  1.00  0.00     0.053 C 
BRANCH   5   6
ATOM      6  C   UNL     1     112.400  53.420 225.709  1.00  0.00     0.041 C 
ATOM      7  O   UNL     1     112.604  54.022 224.623  1.00  0.00    -0.550 OA
ATOM      8  O   UNL     1     111.125  52.957 226.010  1.00  0.00    -0.550 OA
ENDBRANCH   5   6
ENDBRANCH   4   5
ENDBRANCH   3   4
ENDBRANCH   2   3
ENDBRANCH   1   2
BRANCH   1   9
ATOM      9  C   UNL     1     113.171  53.161 232.089  1.00  0.00     0.000 C 
BRANCH   9  10
ATOM     10  C   UNL     1     112.066  52.942 233.138  1.00  0.00    -0.000 C 
BRANCH  10  11
ATOM     11  C   UNL     1     110.748  52.455 232.513  1.00  0.00    -0.000 C 
BRANCH  11  12
ATOM     12  C   UNL     1     109.525  53.227 233.038  1.00  0.00    -0.000 C 
BRANCH  12  13
ATOM     13  C   UNL     1     109.761  54.745 233.078  1.00  0.00    -0.003 C 
ATOM     14  C   UNL     1     109.613  55.405 231.706  1.00  0.00     0.004 C 
ENDBRANCH  12  13
ENDBRANCH  11  12
ENDBRANCH  10  11
ENDBRANCH   9  10
ENDBRANCH   1   9
TORSDOF 10
ENDMDL
MODEL 5
REMARK VINA RESULT:    -3.526      3.178      6.408
REMARK INTER + INTRA:          -6.180
REMARK INTER:                  -5.611
REMARK INTRA:                  -0.568
REMARK UNBOUND:                -0.592
REMARK SMILES CCCCCCCCCCCC(=O)[O-]
REMARK SMILES IDX 7 1 8 2 9 3 10 4 11 5 12 6 13 7 14 8 6 9 5 10 4 11 3 12 2 13
REMARK SMILES IDX 1 14
REMARK H PARENT
REMARK Flexibility Score: inf
ROOT
ATOM      1  C   UNL     1     113.016  53.426 228.026  1.00  0.00     0.000 C 
ENDROOT
BRANCH   1   2
ATOM      2  C   UNL     1     112.685  53.418 226.525  1.00  0.00     0.000 C 
BRANCH   2   3
ATOM      3  C   UNL     1     112.058  54.750 226.095  1.00  0.00     0.000 C 
BRANCH   3   4
ATOM      4  C   UNL     1     111.099  54.552 224.915  1.00  0.00     0.006 C 
BRANCH   4   5
ATOM      5  C   UNL     1     109.761  53.975 225.385  1.00  0.00     0.053 C 
BRANCH   5   6
ATOM      6  C   UNL     1     109.529  52.627 224.779  1.00  0.00     0.041 C 
ATOM      7  O   UNL     1     109.374  52.508 223.536  1.00  0.00    -0.550 OA
ATOM      8  O   UNL     1     109.437  51.506 225.594  1.00  0.00    -0.550 OA
ENDBRANCH   5   6
ENDBRANCH   4   5
ENDBRANCH   3   4
ENDBRANCH   2   3
ENDBRANCH   1   2
BRANCH   1   9
ATOM      9  C   UNL     1     113.357  54.829 228.553  1.00  0.00     0.000 C 
BRANCH   9  10
ATOM     10  C   UNL     1     113.163  54.950 230.075  1.00  0.00    -0.000 C 
BRANCH  10  11
ATOM     11  C   UNL     1     112.672  53.639 230.714  1.00  0.00    -0.000 C 
BRANCH  11  12
ATOM     12  C   UNL     1     111.587  53.872 231.780  1.00  0.00    -0.000 C 
BRANCH  12  13
ATOM     13  C   UNL     1     111.419  52.669 232.721  1.00  0.00    -0.003 C 
ATOM     14  C   UNL     1     110.039  52.018 232.611  1.00  0.00     0.004 C 
ENDBRANCH  12  13
ENDBRANCH  11  12
ENDBRANCH  10  11
ENDBRANCH   9  10
ENDBRANCH   1   9
TORSDOF 10
ENDMDL
MODEL 6
REMARK VINA RESULT:    -3.441      3.243      6.620
REMARK INTER + INTRA:          -6.044
REMARK INTER:                  -5.260
REMARK INTRA:                  -0.783
REMARK UNBOUND:                -0.592
REMARK SMILES CCCCCCCCCCCC(=O)[O-]
REMARK SMILES IDX 7 1 8 2 9 3 10 4 11 5 12 6 13 7 14 8 6 9 5 10 4 11 3 12 2 13
REMARK SMILES IDX 1 14
REMARK H PARENT
REMARK Flexibility Score: inf
ROOT
ATOM      1  C   UNL     1     112.041  55.299 230.360  1.00  0.00     0.000 C 
ENDROOT
BRANCH   1   2
ATOM      2  C   UNL     1     113.526  55.314 229.965  1.00  0.00     0.000 C 
BRANCH   2   3
ATOM      3  C   UNL     1     113.701  54.991 228.476  1.00  0.00     0.000 C 
BRANCH   3   4
ATOM      4  C   UNL     1     113.003  53.676 228.112  1.00  0.00     0.006 C 
BRANCH   4   5
ATOM      5  C   UNL     1     113.402  53.212 226.708  1.00  0.00     0.053 C 
BRANCH   5   6
ATOM      6  C   UNL     1     112.284  53.446 225.741  1.00  0.00     0.041 C 
ATOM      7  O   UNL     1     112.509  54.000 224.633  1.00  0.00    -0.550 OA
ATOM      8  O   UNL     1     110.985  53.094 226.084  1.00  0.00    -0.550 OA
ENDBRANCH   5   6
ENDBRANCH   4   5
ENDBRANCH   3   4
ENDBRANCH   2   3
ENDBRANCH   1   2
BRANCH   1   9
ATOM      9  C   UNL     1     111.770  54.466 231.622  1.00  0.00     0.000 C 
BRANCH   9  10
ATOM     10  C   UNL     1     112.440  53.081 231.572  1.00  0.00    -0.000 C 
BRANCH  10  11
ATOM     11  C   UNL     1     113.367  52.831 232.773  1.00  0.00    -0.000 C 
BRANCH  11  12
ATOM     12  C   UNL     1     113.544  54.080 233.653  1.00  0.00    -0.000 C 
BRANCH  12  13
ATOM     13  C   UNL     1     113.021  53.872 235.083  1.00  0.00    -0.003 C 
ATOM     14  C   UNL     1     111.533  53.518 235.125  1.00  0.00     0.004 C 
ENDBRANCH  12  13
ENDBRANCH  11  12
ENDBRANCH  10  11
ENDBRANCH   9  10
ENDBRANCH   1   9
TORSDOF 10
ENDMDL
MODEL 7
REMARK VINA RESULT:    -3.421      3.218      6.655
REMARK INTER + INTRA:          -6.013
REMARK INTER:                  -5.430
REMARK INTRA:                  -0.582
REMARK UNBOUND:                -0.592
REMARK SMILES CCCCCCCCCCCC(=O)[O-]
REMARK SMILES IDX 7 1 8 2 9 3 10 4 11 5 12 6 13 7 14 8 6 9 5 10 4 11 3 12 2 13
REMARK SMILES IDX 1 14
REMARK H PARENT
REMARK Flexibility Score: inf
ROOT
ATOM      1  C   UNL     1     113.612  54.896 229.127  1.00  0.00     0.000 C 
ENDROOT
BRANCH   1   2
ATOM      2  C   UNL     1     112.565  54.282 228.185  1.00  0.00     0.000 C 
BRANCH   2   3
ATOM      3  C   UNL     1     111.802  55.375 227.426  1.00  0.00     0.000 C 
BRANCH   3   4
ATOM      4  C   UNL     1     110.695  54.770 226.555  1.00  0.00     0.006 C 
BRANCH   4   5
ATOM      5  C   UNL     1     111.197  53.527 225.814  1.00  0.00     0.053 C 
BRANCH   5   6
ATOM      6  C   UNL     1     110.068  52.849 225.104  1.00  0.00     0.041 C 
ATOM      7  O   UNL     1     109.499  51.852 225.622  1.00  0.00    -0.550 OA
ATOM      8  O   UNL     1     109.675  53.288 223.846  1.00  0.00    -0.550 OA
ENDBRANCH   5   6
ENDBRANCH   4   5
ENDBRANCH   3   4
ENDBRANCH   2   3
ENDBRANCH   1   2
BRANCH   1   9
ATOM      9  C   UNL     1     113.273  54.687 230.611  1.00  0.00     0.000 C 
BRANCH   9  10
ATOM     10  C   UNL     1     112.544  53.356 230.869  1.00  0.00    -0.000 C 
BRANCH  10  11
ATOM     11  C   UNL     1     112.793  52.812 232.286  1.00  0.00    -0.000 C 
BRANCH  11  12
ATOM     12  C   UNL     1     114.125  53.301 232.880  1.00  0.00    -0.000 C 
BRANCH  12  13
ATOM     13  C   UNL     1     113.968  53.843 234.309  1.00  0.00    -0.003 C 
ATOM     14  C   UNL     1     112.540  53.710 234.841  1.00  0.00     0.004 C 
ENDBRANCH  12  13
ENDBRANCH  11  12
ENDBRANCH  10  11
ENDBRANCH   9  10
ENDBRANCH   1   9
TORSDOF 10
ENDMDL
MODEL 8
REMARK VINA RESULT:    -3.361      4.238      7.362
REMARK INTER + INTRA:          -5.917
REMARK INTER:                  -5.352
REMARK INTRA:                  -0.565
REMARK UNBOUND:                -0.592
REMARK SMILES CCCCCCCCCCCC(=O)[O-]
REMARK SMILES IDX 7 1 8 2 9 3 10 4 11 5 12 6 13 7 14 8 6 9 5 10 4 11 3 12 2 13
REMARK SMILES IDX 1 14
REMARK H PARENT
REMARK Flexibility Score: inf
ROOT
ATOM      1  C   UNL     1     111.688  54.704 226.359  1.00  0.00     0.000 C 
ENDROOT
BRANCH   1   2
ATOM      2  C   UNL     1     110.300  54.353 225.800  1.00  0.00     0.000 C 
BRANCH   2   3
ATOM      3  C   UNL     1     110.273  52.919 225.258  1.00  0.00     0.000 C 
BRANCH   3   4
ATOM      4  C   UNL     1     108.847  52.499 224.883  1.00  0.00     0.006 C 
BRANCH   4   5
ATOM      5  C   UNL     1     108.707  52.321 223.368  1.00  0.00     0.053 C 
BRANCH   5   6
ATOM      6  C   UNL     1     108.280  53.603 222.727  1.00  0.00     0.041 C 
ATOM      7  O   UNL     1     109.002  54.146 221.849  1.00  0.00    -0.550 OA
ATOM      8  O   UNL     1     107.106  54.226 223.133  1.00  0.00    -0.550 OA
ENDBRANCH   5   6
ENDBRANCH   4   5
ENDBRANCH   3   4
ENDBRANCH   2   3
ENDBRANCH   1   2
BRANCH   1   9
ATOM      9  C   UNL     1     112.543  53.461 226.652  1.00  0.00     0.000 C 
BRANCH   9  10
ATOM     10  C   UNL     1     113.274  53.552 228.004  1.00  0.00    -0.000 C 
BRANCH  10  11
ATOM     11  C   UNL     1     112.604  54.544 228.970  1.00  0.00    -0.000 C 
BRANCH  11  12
ATOM     12  C   UNL     1     113.144  54.424 230.406  1.00  0.00    -0.000 C 
BRANCH  12  13
ATOM     13  C   UNL     1     112.270  53.519 231.289  1.00  0.00    -0.003 C 
ATOM     14  C   UNL     1     113.065  52.823 232.396  1.00  0.00     0.004 C 
ENDBRANCH  12  13
ENDBRANCH  11  12
ENDBRANCH  10  11
ENDBRANCH   9  10
ENDBRANCH   1   9
TORSDOF 10
ENDMDL
MODEL 9
REMARK VINA RESULT:    -3.340      1.473      2.443
REMARK INTER + INTRA:          -5.885
REMARK INTER:                  -4.891
REMARK INTRA:                  -0.993
REMARK UNBOUND:                -0.592
REMARK SMILES CCCCCCCCCCCC(=O)[O-]
REMARK SMILES IDX 7 1 8 2 9 3 10 4 11 5 12 6 13 7 14 8 6 9 5 10 4 11 3 12 2 13
REMARK SMILES IDX 1 14
REMARK H PARENT
REMARK Flexibility Score: inf
ROOT
ATOM      1  C   UNL     1     112.934  53.528 228.539  1.00  0.00     0.000 C 
ENDROOT
BRANCH   1   2
ATOM      2  C   UNL     1     113.252  54.824 229.300  1.00  0.00     0.000 C 
BRANCH   2   3
ATOM      3  C   UNL     1     113.041  54.641 230.808  1.00  0.00     0.000 C 
BRANCH   3   4
ATOM      4  C   UNL     1     112.519  53.235 231.124  1.00  0.00     0.006 C 
BRANCH   4   5
ATOM      5  C   UNL     1     112.014  53.148 232.567  1.00  0.00     0.053 C 
BRANCH   5   6
ATOM      6  C   UNL     1     110.538  52.906 232.592  1.00  0.00     0.041 C 
ATOM      7  O   UNL     1     109.735  53.862 232.428  1.00  0.00    -0.550 OA
ATOM      8  O   UNL     1     110.047  51.631 232.844  1.00  0.00    -0.550 OA
ENDBRANCH   5   6
ENDBRANCH   4   5
ENDBRANCH   3   4
ENDBRANCH   2   3
ENDBRANCH   1   2
BRANCH   1   9
ATOM      9  C   UNL     1     113.288  53.612 227.046  1.00  0.00     0.000 C 
BRANCH   9  10
ATOM     10  C   UNL     1     112.066  53.391 226.136  1.00  0.00    -0.000 C 
BRANCH  10  11
ATOM     11  C   UNL     1     111.820  54.571 225.182  1.00  0.00    -0.000 C 
BRANCH  11  12
ATOM     12  C   UNL     1     111.383  55.847 225.922  1.00  0.00    -0.000 C 
BRANCH  12  13
ATOM     13  C   UNL     1     110.022  55.687 226.618  1.00  0.00    -0.003 C 
ATOM     14  C   UNL     1     110.044  56.145 228.077  1.00  0.00     0.004 C 
ENDBRANCH  12  13
ENDBRANCH  11  12
ENDBRANCH  10  11
ENDBRANCH   9  10
ENDBRANCH   1   9
TORSDOF 10
ENDMDL
