MODEL 1
REMARK VINA RESULT:    -5.020      0.000      0.000
REMARK INTER + INTRA:         -10.891
REMARK INTER:                  -9.128
REMARK INTRA:                  -1.764
REMARK UNBOUND:                -1.764
REMARK SMILES CCCCCCCCCCCCCCCC(=O)[O-]
REMARK SMILES IDX 9 1 10 2 11 3 12 4 13 5 14 6 15 7 16 8 17 9 18 10 8 11 7 12
REMARK SMILES IDX 6 13 5 14 4 15 3 16 2 17 1 18
REMARK H PARENT
REMARK Flexibility Score: inf
ROOT
ATOM      1  C   UNL     1      23.107   7.366  12.995  1.00  0.00     0.000 C 
ENDROOT
BRANCH   1   2
ATOM      2  C   UNL     1      23.957   6.107  13.212  1.00  0.00     0.000 C 
BRANCH   2   3
ATOM      3  C   UNL     1      25.394   6.322  12.718  1.00  0.00     0.000 C 
BRANCH   3   4
ATOM      4  C   UNL     1      25.776   5.384  11.558  1.00  0.00     0.000 C 
BRANCH   4   5
ATOM      5  C   UNL     1      25.939   6.067  10.186  1.00  0.00     0.000 C 
BRANCH   5   6
ATOM      6  C   UNL     1      25.499   7.544  10.122  1.00  0.00     0.006 C 
BRANCH   6   7
ATOM      7  C   UNL     1      24.123   7.761   9.468  1.00  0.00     0.053 C 
BRANCH   7   8
ATOM      8  C   UNL     1      23.624   9.165   9.624  1.00  0.00     0.041 C 
ATOM      9  O   UNL     1      24.040   9.884  10.571  1.00  0.00    -0.550 OA
ATOM     10  O   UNL     1      22.671   9.670   8.748  1.00  0.00    -0.550 OA
ENDBRANCH   7   8
ENDBRANCH   6   7
ENDBRANCH   5   6
ENDBRANCH   4   5
ENDBRANCH   3   4
ENDBRANCH   2   3
ENDBRANCH   1   2
BRANCH   1  11
ATOM     11  C   UNL     1      21.899   7.067  12.099  1.00  0.00     0.000 C 
BRANCH  11  12
ATOM     12  C   UNL     1      20.998   8.304  11.957  1.00  0.00    -0.000 C 
BRANCH  12  13
ATOM     13  C   UNL     1      19.754   8.043  11.088  1.00  0.00    -0.000 C 
BRANCH  13  14
ATOM     14  C   UNL     1      19.335   6.565  10.991  1.00  0.00    -0.000 C 
BRANCH  14  15
ATOM     15  C   UNL     1      19.383   6.027   9.550  1.00  0.00    -0.000 C 
BRANCH  15  16
ATOM     16  C   UNL     1      20.347   6.819   8.650  1.00  0.00    -0.000 C 
BRANCH  16  17
ATOM     17  C   UNL     1      19.792   7.162   7.256  1.00  0.00    -0.003 C 
ATOM     18  C   UNL     1      19.086   8.519   7.213  1.00  0.00     0.004 C 
ENDBRANCH  16  17
ENDBRANCH  15  16
ENDBRANCH  14  15
ENDBRANCH  13  14
ENDBRANCH  12  13
ENDBRANCH  11  12
ENDBRANCH   1  11
TORSDOF 14
ENDMDL
MODEL 2
REMARK VINA RESULT:    -4.910      2.553      3.753
REMARK INTER + INTRA:         -10.692
REMARK INTER:                  -8.684
REMARK INTRA:                  -2.008
REMARK UNBOUND:                -1.764
REMARK SMILES CCCCCCCCCCCCCCCC(=O)[O-]
REMARK SMILES IDX 9 1 10 2 11 3 12 4 13 5 14 6 15 7 16 8 17 9 18 10 8 11 7 12
REMARK SMILES IDX 6 13 5 14 4 15 3 16 2 17 1 18
REMARK H PARENT
REMARK Flexibility Score: inf
ROOT
ATOM      1  C   UNL     1      22.826   8.105   9.832  1.00  0.00     0.000 C 
ENDROOT
BRANCH   1   2
ATOM      2  C   UNL     1      24.225   8.705  10.012  1.00  0.00     0.000 C 
BRANCH   2   3
ATOM      3  C   UNL     1      24.204   9.851  11.034  1.00  0.00     0.000 C 
BRANCH   3   4
ATOM      4  C   UNL     1      24.845   9.466  12.381  1.00  0.00     0.000 C 
BRANCH   4   5
ATOM      5  C   UNL     1      23.883   8.845  13.412  1.00  0.00     0.000 C 
BRANCH   5   6
ATOM      6  C   UNL     1      24.233   7.415  13.872  1.00  0.00     0.006 C 
BRANCH   6   7
ATOM      7  C   UNL     1      23.827   6.317  12.874  1.00  0.00     0.053 C 
BRANCH   7   8
ATOM      8  C   UNL     1      24.303   4.957  13.285  1.00  0.00     0.041 C 
ATOM      9  O   UNL     1      25.404   4.516  12.862  1.00  0.00    -0.550 OA
ATOM     10  O   UNL     1      23.515   4.160  14.107  1.00  0.00    -0.550 OA
ENDBRANCH   7   8
ENDBRANCH   6   7
ENDBRANCH   5   6
ENDBRANCH   4   5
ENDBRANCH   3   4
ENDBRANCH   2   3
ENDBRANCH   1   2
BRANCH   1  11
ATOM     11  C   UNL     1      21.738   9.125  10.189  1.00  0.00     0.000 C 
BRANCH  11  12
ATOM     12  C   UNL     1      20.891   8.638  11.376  1.00  0.00    -0.000 C 
BRANCH  12  13
ATOM     13  C   UNL     1      20.674   7.114  11.372  1.00  0.00    -0.000 C 
BRANCH  13  14
ATOM     14  C   UNL     1      19.267   6.666  10.934  1.00  0.00    -0.000 C 
BRANCH  14  15
ATOM     15  C   UNL     1      19.290   5.777   9.678  1.00  0.00    -0.000 C 
BRANCH  15  16
ATOM     16  C   UNL     1      20.016   6.438   8.493  1.00  0.00    -0.000 C 
BRANCH  16  17
ATOM     17  C   UNL     1      19.125   7.327   7.607  1.00  0.00    -0.003 C 
ATOM     18  C   UNL     1      19.901   8.455   6.924  1.00  0.00     0.004 C 
ENDBRANCH  16  17
ENDBRANCH  15  16
ENDBRANCH  14  15
ENDBRANCH  13  14
ENDBRANCH  12  13
ENDBRANCH  11  12
ENDBRANCH   1  11
TORSDOF 14
ENDMDL
MODEL 3
REMARK VINA RESULT:    -4.726      1.739      3.019
REMARK INTER + INTRA:         -10.357
REMARK INTER:                  -8.333
REMARK INTRA:                  -2.024
REMARK UNBOUND:                -1.764
REMARK SMILES CCCCCCCCCCCCCCCC(=O)[O-]
REMARK SMILES IDX 9 1 10 2 11 3 12 4 13 5 14 6 15 7 16 8 17 9 18 10 8 11 7 12
REMARK SMILES IDX 6 13 5 14 4 15 3 16 2 17 1 18
REMARK H PARENT
REMARK Flexibility Score: inf
ROOT
ATOM      1  C   UNL     1      23.519   9.508  10.013  1.00  0.00     0.000 C 
ENDROOT
BRANCH   1   2
ATOM      2  C   UNL     1      24.838   8.739  10.152  1.00  0.00     0.000 C 
BRANCH   2   3
ATOM      3  C   UNL     1      24.583   7.236  10.332  1.00  0.00     0.000 C 
BRANCH   3   4
ATOM      4  C   UNL     1      25.098   6.697  11.679  1.00  0.00     0.000 C 
BRANCH   4   5
ATOM      5  C   UNL     1      24.015   6.465  12.751  1.00  0.00     0.000 C 
BRANCH   5   6
ATOM      6  C   UNL     1      23.683   7.683  13.637  1.00  0.00     0.006 C 
BRANCH   6   7
ATOM      7  C   UNL     1      24.879   8.617  13.893  1.00  0.00     0.053 C 
BRANCH   7   8
ATOM      8  C   UNL     1      24.481  10.060  13.958  1.00  0.00     0.041 C 
ATOM      9  O   UNL     1      23.752  10.475  14.896  1.00  0.00    -0.550 OA
ATOM     10  O   UNL     1      24.885  10.942  12.963  1.00  0.00    -0.550 OA
ENDBRANCH   7   8
ENDBRANCH   6   7
ENDBRANCH   5   6
ENDBRANCH   4   5
ENDBRANCH   3   4
ENDBRANCH   2   3
ENDBRANCH   1   2
BRANCH   1  11
ATOM     11  C   UNL     1      22.330   8.546   9.895  1.00  0.00     0.000 C 
BRANCH  11  12
ATOM     12  C   UNL     1      21.317   8.779  11.028  1.00  0.00    -0.000 C 
BRANCH  12  13
ATOM     13  C   UNL     1      20.651   7.480  11.514  1.00  0.00    -0.000 C 
BRANCH  13  14
ATOM     14  C   UNL     1      19.294   7.167  10.855  1.00  0.00    -0.000 C 
BRANCH  14  15
ATOM     15  C   UNL     1      19.329   5.887  10.002  1.00  0.00    -0.000 C 
BRANCH  15  16
ATOM     16  C   UNL     1      18.925   6.135   8.538  1.00  0.00    -0.000 C 
BRANCH  16  17
ATOM     17  C   UNL     1      19.873   7.063   7.757  1.00  0.00    -0.003 C 
ATOM     18  C   UNL     1      19.150   8.248   7.114  1.00  0.00     0.004 C 
ENDBRANCH  16  17
ENDBRANCH  15  16
ENDBRANCH  14  15
ENDBRANCH  13  14
ENDBRANCH  12  13
ENDBRANCH  11  12
ENDBRANCH   1  11
TORSDOF 14
ENDMDL
MODEL 4
REMARK VINA RESULT:    -4.627      1.605      5.195
REMARK INTER + INTRA:         -10.177
REMARK INTER:                  -8.416
REMARK INTRA:                  -1.761
REMARK UNBOUND:                -1.764
REMARK SMILES CCCCCCCCCCCCCCCC(=O)[O-]
REMARK SMILES IDX 9 1 10 2 11 3 12 4 13 5 14 6 15 7 16 8 17 9 18 10 8 11 7 12
REMARK SMILES IDX 6 13 5 14 4 15 3 16 2 17 1 18
REMARK H PARENT
REMARK Flexibility Score: inf
ROOT
ATOM      1  C   UNL     1      22.801   7.367  12.921  1.00  0.00     0.000 C 
ENDROOT
BRANCH   1   2
ATOM      2  C   UNL     1      21.707   7.111  11.877  1.00  0.00     0.000 C 
BRANCH   2   3
ATOM      3  C   UNL     1      20.744   8.302  11.787  1.00  0.00     0.000 C 
BRANCH   3   4
ATOM      4  C   UNL     1      19.433   7.959  11.055  1.00  0.00     0.000 C 
BRANCH   4   5
ATOM      5  C   UNL     1      19.274   6.481  10.649  1.00  0.00     0.000 C 
BRANCH   5   6
ATOM      6  C   UNL     1      19.511   6.171   9.157  1.00  0.00     0.006 C 
BRANCH   6   7
ATOM      7  C   UNL     1      20.488   7.136   8.463  1.00  0.00     0.053 C 
BRANCH   7   8
ATOM      8  C   UNL     1      19.827   7.969   7.408  1.00  0.00     0.041 C 
ATOM      9  O   UNL     1      18.586   7.878   7.215  1.00  0.00    -0.550 OA
ATOM     10  O   UNL     1      20.584   8.820   6.612  1.00  0.00    -0.550 OA
ENDBRANCH   7   8
ENDBRANCH   6   7
ENDBRANCH   5   6
ENDBRANCH   4   5
ENDBRANCH   3   4
ENDBRANCH   2   3
ENDBRANCH   1   2
BRANCH   1  11
ATOM     11  C   UNL     1      23.768   6.180  13.009  1.00  0.00     0.000 C 
BRANCH  11  12
ATOM     12  C   UNL     1      25.217   6.661  13.191  1.00  0.00    -0.000 C 
BRANCH  12  13
ATOM     13  C   UNL     1      26.028   6.633  11.882  1.00  0.00    -0.000 C 
BRANCH  13  14
ATOM     14  C   UNL     1      25.177   6.583  10.600  1.00  0.00    -0.000 C 
BRANCH  14  15
ATOM     15  C   UNL     1      25.321   7.852   9.741  1.00  0.00    -0.000 C 
BRANCH  15  16
ATOM     16  C   UNL     1      25.246   9.145  10.570  1.00  0.00    -0.000 C 
BRANCH  16  17
ATOM     17  C   UNL     1      23.877   9.850  10.542  1.00  0.00    -0.003 C 
ATOM     18  C   UNL     1      23.047   9.489   9.309  1.00  0.00     0.004 C 
ENDBRANCH  16  17
ENDBRANCH  15  16
ENDBRANCH  14  15
ENDBRANCH  13  14
ENDBRANCH  12  13
ENDBRANCH  11  12
ENDBRANCH   1  11
TORSDOF 14
ENDMDL
MODEL 5
REMARK VINA RESULT:    -4.622      2.159      3.428
REMARK INTER + INTRA:         -10.168
REMARK INTER:                  -8.454
REMARK INTRA:                  -1.714
REMARK UNBOUND:                -1.764
REMARK SMILES CCCCCCCCCCCCCCCC(=O)[O-]
REMARK SMILES IDX 9 1 10 2 11 3 12 4 13 5 14 6 15 7 16 8 17 9 18 10 8 11 7 12
REMARK SMILES IDX 6 13 5 14 4 15 3 16 2 17 1 18
REMARK H PARENT
REMARK Flexibility Score: inf
ROOT
ATOM      1  C   UNL     1      22.764   8.553  10.215  1.00  0.00     0.000 C 
ENDROOT
BRANCH   1   2
ATOM      2  C   UNL     1      24.204   8.067  10.007  1.00  0.00     0.000 C 
BRANCH   2   3
ATOM      3  C   UNL     1      25.211   9.068  10.591  1.00  0.00     0.000 C 
BRANCH   3   4
ATOM      4  C   UNL     1      24.539  10.190  11.404  1.00  0.00     0.000 C 
BRANCH   4   5
ATOM      5  C   UNL     1      24.804  10.150  12.922  1.00  0.00     0.000 C 
BRANCH   5   6
ATOM      6  C   UNL     1      23.861   9.244  13.738  1.00  0.00     0.006 C 
BRANCH   6   7
ATOM      7  C   UNL     1      24.578   8.114  14.498  1.00  0.00     0.053 C 
BRANCH   7   8
ATOM      8  C   UNL     1      24.805   6.901  13.648  1.00  0.00     0.041 C 
ATOM      9  O   UNL     1      25.899   6.745  13.045  1.00  0.00    -0.550 OA
ATOM     10  O   UNL     1      23.796   5.958  13.492  1.00  0.00    -0.550 OA
ENDBRANCH   7   8
ENDBRANCH   6   7
ENDBRANCH   5   6
ENDBRANCH   4   5
ENDBRANCH   3   4
ENDBRANCH   2   3
ENDBRANCH   1   2
BRANCH   1  11
ATOM     11  C   UNL     1      22.015   7.649  11.202  1.00  0.00     0.000 C 
BRANCH  11  12
ATOM     12  C   UNL     1      20.758   8.348  11.745  1.00  0.00    -0.000 C 
BRANCH  12  13
ATOM     13  C   UNL     1      19.475   7.942  10.997  1.00  0.00    -0.000 C 
BRANCH  13  14
ATOM     14  C   UNL     1      19.166   6.434  11.022  1.00  0.00    -0.000 C 
BRANCH  14  15
ATOM     15  C   UNL     1      19.152   5.806   9.617  1.00  0.00    -0.000 C 
BRANCH  15  16
ATOM     16  C   UNL     1      20.039   6.566   8.616  1.00  0.00    -0.000 C 
BRANCH  16  17
ATOM     17  C   UNL     1      19.312   7.046   7.347  1.00  0.00    -0.003 C 
ATOM     18  C   UNL     1      19.313   8.569   7.199  1.00  0.00     0.004 C 
ENDBRANCH  16  17
ENDBRANCH  15  16
ENDBRANCH  14  15
ENDBRANCH  13  14
ENDBRANCH  12  13
ENDBRANCH  11  12
ENDBRANCH   1  11
TORSDOF 14
ENDMDL
MODEL 6
REMARK VINA RESULT:    -4.564      2.068      2.816
REMARK INTER + INTRA:         -10.063
REMARK INTER:                  -8.286
REMARK INTRA:                  -1.777
REMARK UNBOUND:                -1.764
REMARK SMILES CCCCCCCCCCCCCCCC(=O)[O-]
REMARK SMILES IDX 9 1 10 2 11 3 12 4 13 5 14 6 15 7 16 8 17 9 18 10 8 11 7 12
REMARK SMILES IDX 6 13 5 14 4 15 3 16 2 17 1 18
REMARK H PARENT
REMARK Flexibility Score: inf
ROOT
ATOM      1  C   UNL     1      23.105   8.677  14.128  1.00  0.00     0.000 C 
ENDROOT
BRANCH   1   2
ATOM      2  C   UNL     1      24.341   9.283  14.803  1.00  0.00     0.000 C 
BRANCH   2   3
ATOM      3  C   UNL     1      24.351  10.811  14.661  1.00  0.00     0.000 C 
BRANCH   3   4
ATOM      4  C   UNL     1      25.038  11.290  13.368  1.00  0.00     0.000 C 
BRANCH   4   5
ATOM      5  C   UNL     1      25.987  10.268  12.712  1.00  0.00     0.000 C 
BRANCH   5   6
ATOM      6  C   UNL     1      25.674   9.918  11.243  1.00  0.00     0.006 C 
BRANCH   6   7
ATOM      7  C   UNL     1      24.199  10.116  10.850  1.00  0.00     0.053 C 
BRANCH   7   8
ATOM      8  C   UNL     1      23.776   9.221   9.726  1.00  0.00     0.041 C 
ATOM      9  O   UNL     1      24.375   8.132   9.522  1.00  0.00    -0.550 OA
ATOM     10  O   UNL     1      22.744   9.604   8.878  1.00  0.00    -0.550 OA
ENDBRANCH   7   8
ENDBRANCH   6   7
ENDBRANCH   5   6
ENDBRANCH   4   5
ENDBRANCH   3   4
ENDBRANCH   2   3
ENDBRANCH   1   2
BRANCH   1  11
ATOM     11  C   UNL     1      23.499   7.535  13.182  1.00  0.00     0.000 C 
BRANCH  11  12
ATOM     12  C   UNL     1      22.313   7.117  12.298  1.00  0.00    -0.000 C 
BRANCH  12  13
ATOM     13  C   UNL     1      21.239   8.213  12.175  1.00  0.00    -0.000 C 
BRANCH  13  14
ATOM     14  C   UNL     1      20.359   8.114  10.915  1.00  0.00    -0.000 C 
BRANCH  14  15
ATOM     15  C   UNL     1      19.543   6.811  10.862  1.00  0.00    -0.000 C 
BRANCH  15  16
ATOM     16  C   UNL     1      19.490   6.198   9.452  1.00  0.00    -0.000 C 
BRANCH  16  17
ATOM     17  C   UNL     1      20.291   6.967   8.385  1.00  0.00    -0.003 C 
ATOM     18  C   UNL     1      19.398   7.709   7.389  1.00  0.00     0.004 C 
ENDBRANCH  16  17
ENDBRANCH  15  16
ENDBRANCH  14  15
ENDBRANCH  13  14
ENDBRANCH  12  13
ENDBRANCH  11  12
ENDBRANCH   1  11
TORSDOF 14
ENDMDL
MODEL 7
REMARK VINA RESULT:    -4.536      2.505      3.668
REMARK INTER + INTRA:         -10.012
REMARK INTER:                  -7.928
REMARK INTRA:                  -2.084
REMARK UNBOUND:                -1.764
REMARK SMILES CCCCCCCCCCCCCCCC(=O)[O-]
REMARK SMILES IDX 9 1 10 2 11 3 12 4 13 5 14 6 15 7 16 8 17 9 18 10 8 11 7 12
REMARK SMILES IDX 6 13 5 14 4 15 3 16 2 17 1 18
REMARK H PARENT
REMARK Flexibility Score: inf
ROOT
ATOM      1  C   UNL     1      21.625   9.459  10.084  1.00  0.00     0.000 C 
ENDROOT
BRANCH   1   2
ATOM      2  C   UNL     1      23.050   9.080   9.662  1.00  0.00     0.000 C 
BRANCH   2   3
ATOM      3  C   UNL     1      23.304   7.581   9.871  1.00  0.00     0.000 C 
BRANCH   3   4
ATOM      4  C   UNL     1      24.580   7.296  10.687  1.00  0.00     0.000 C 
BRANCH   4   5
ATOM      5  C   UNL     1      24.724   8.112  11.986  1.00  0.00     0.000 C 
BRANCH   5   6
ATOM      6  C   UNL     1      24.368   7.363  13.286  1.00  0.00     0.006 C 
BRANCH   6   7
ATOM      7  C   UNL     1      23.456   6.142  13.077  1.00  0.00     0.053 C 
BRANCH   7   8
ATOM      8  C   UNL     1      24.096   4.860  13.515  1.00  0.00     0.041 C 
ATOM      9  O   UNL     1      23.426   3.999  14.144  1.00  0.00    -0.550 OA
ATOM     10  O   UNL     1      25.443   4.629  13.261  1.00  0.00    -0.550 OA
ENDBRANCH   7   8
ENDBRANCH   6   7
ENDBRANCH   5   6
ENDBRANCH   4   5
ENDBRANCH   3   4
ENDBRANCH   2   3
ENDBRANCH   1   2
BRANCH   1  11
ATOM     11  C   UNL     1      21.186   8.664  11.319  1.00  0.00     0.000 C 
BRANCH  11  12
ATOM     12  C   UNL     1      19.800   8.034  11.106  1.00  0.00    -0.000 C 
BRANCH  12  13
ATOM     13  C   UNL     1      19.805   6.504  11.270  1.00  0.00    -0.000 C 
BRANCH  13  14
ATOM     14  C   UNL     1      19.561   5.717   9.969  1.00  0.00    -0.000 C 
BRANCH  14  15
ATOM     15  C   UNL     1      19.112   6.617   8.805  1.00  0.00    -0.000 C 
BRANCH  15  16
ATOM     16  C   UNL     1      20.248   6.918   7.812  1.00  0.00    -0.000 C 
BRANCH  16  17
ATOM     17  C   UNL     1      20.130   8.272   7.089  1.00  0.00    -0.003 C 
ATOM     18  C   UNL     1      18.681   8.722   6.899  1.00  0.00     0.004 C 
ENDBRANCH  16  17
ENDBRANCH  15  16
ENDBRANCH  14  15
ENDBRANCH  13  14
ENDBRANCH  12  13
ENDBRANCH  11  12
ENDBRANCH   1  11
TORSDOF 14
ENDMDL
MODEL 8
REMARK VINA RESULT:    -4.464      2.383      3.151
REMARK INTER + INTRA:          -9.882
REMARK INTER:                  -8.338
REMARK INTRA:                  -1.543
REMARK UNBOUND:                -1.764
REMARK SMILES CCCCCCCCCCCCCCCC(=O)[O-]
REMARK SMILES IDX 9 1 10 2 11 3 12 4 13 5 14 6 15 7 16 8 17 9 18 10 8 11 7 12
REMARK SMILES IDX 6 13 5 14 4 15 3 16 2 17 1 18
REMARK H PARENT
REMARK Flexibility Score: inf
ROOT
ATOM      1  C   UNL     1      23.306   7.289  11.557  1.00  0.00     0.000 C 
ENDROOT
BRANCH   1   2
ATOM      2  C   UNL     1      23.284   8.129  10.274  1.00  0.00     0.000 C 
BRANCH   2   3
ATOM      3  C   UNL     1      24.644   8.085   9.565  1.00  0.00     0.000 C 
BRANCH   3   4
ATOM      4  C   UNL     1      25.817   8.450  10.494  1.00  0.00     0.000 C 
BRANCH   4   5
ATOM      5  C   UNL     1      25.747   9.856  11.120  1.00  0.00     0.000 C 
BRANCH   5   6
ATOM      6  C   UNL     1      25.977   9.918  12.643  1.00  0.00     0.006 C 
BRANCH   6   7
ATOM      7  C   UNL     1      24.762  10.426  13.441  1.00  0.00     0.053 C 
BRANCH   7   8
ATOM      8  C   UNL     1      24.889  11.867  13.831  1.00  0.00     0.041 C 
ATOM      9  O   UNL     1      24.309  12.298  14.863  1.00  0.00    -0.550 OA
ATOM     10  O   UNL     1      25.616  12.745  13.037  1.00  0.00    -0.550 OA
ENDBRANCH   7   8
ENDBRANCH   6   7
ENDBRANCH   5   6
ENDBRANCH   4   5
ENDBRANCH   3   4
ENDBRANCH   2   3
ENDBRANCH   1   2
BRANCH   1  11
ATOM     11  C   UNL     1      21.931   7.285  12.237  1.00  0.00     0.000 C 
BRANCH  11  12
ATOM     12  C   UNL     1      21.052   8.431  11.709  1.00  0.00    -0.000 C 
BRANCH  12  13
ATOM     13  C   UNL     1      19.705   7.942  11.146  1.00  0.00    -0.000 C 
BRANCH  13  14
ATOM     14  C   UNL     1      19.571   6.412  11.034  1.00  0.00    -0.000 C 
BRANCH  14  15
ATOM     15  C   UNL     1      19.350   5.940   9.586  1.00  0.00    -0.000 C 
BRANCH  15  16
ATOM     16  C   UNL     1      20.153   6.760   8.562  1.00  0.00    -0.000 C 
BRANCH  16  17
ATOM     17  C   UNL     1      19.366   7.167   7.303  1.00  0.00    -0.003 C 
ATOM     18  C   UNL     1      19.698   8.580   6.823  1.00  0.00     0.004 C 
ENDBRANCH  16  17
ENDBRANCH  15  16
ENDBRANCH  14  15
ENDBRANCH  13  14
ENDBRANCH  12  13
ENDBRANCH  11  12
ENDBRANCH   1  11
TORSDOF 14
ENDMDL
MODEL 9
REMARK VINA RESULT:    -4.256      1.374      1.828
REMARK INTER + INTRA:          -9.503
REMARK INTER:                  -7.973
REMARK INTRA:                  -1.530
REMARK UNBOUND:                -1.764
REMARK SMILES CCCCCCCCCCCCCCCC(=O)[O-]
REMARK SMILES IDX 9 1 10 2 11 3 12 4 13 5 14 6 15 7 16 8 17 9 18 10 8 11 7 12
REMARK SMILES IDX 6 13 5 14 4 15 3 16 2 17 1 18
REMARK H PARENT
REMARK Flexibility Score: inf
ROOT
ATOM      1  C   UNL     1      22.716   7.513  12.992  1.00  0.00     0.000 C 
ENDROOT
BRANCH   1   2
ATOM      2  C   UNL     1      23.840   6.473  13.079  1.00  0.00     0.000 C 
BRANCH   2   3
ATOM      3  C   UNL     1      25.218   7.147  13.038  1.00  0.00     0.000 C 
BRANCH   3   4
ATOM      4  C   UNL     1      25.188   8.604  13.540  1.00  0.00     0.000 C 
BRANCH   4   5
ATOM      5  C   UNL     1      26.125   9.574  12.794  1.00  0.00     0.000 C 
BRANCH   5   6
ATOM      6  C   UNL     1      25.856   9.731  11.284  1.00  0.00     0.006 C 
BRANCH   6   7
ATOM      7  C   UNL     1      24.378   9.975  10.932  1.00  0.00     0.053 C 
BRANCH   7   8
ATOM      8  C   UNL     1      23.915   9.143   9.776  1.00  0.00     0.041 C 
ATOM      9  O   UNL     1      22.980   9.548   9.037  1.00  0.00    -0.550 OA
ATOM     10  O   UNL     1      24.489   7.901   9.534  1.00  0.00    -0.550 OA
ENDBRANCH   7   8
ENDBRANCH   6   7
ENDBRANCH   5   6
ENDBRANCH   4   5
ENDBRANCH   3   4
ENDBRANCH   2   3
ENDBRANCH   1   2
BRANCH   1  11
ATOM     11  C   UNL     1      21.814   7.248  11.781  1.00  0.00     0.000 C 
BRANCH  11  12
ATOM     12  C   UNL     1      20.746   8.344  11.638  1.00  0.00    -0.000 C 
BRANCH  12  13
ATOM     13  C   UNL     1      19.382   7.797  11.180  1.00  0.00    -0.000 C 
BRANCH  13  14
ATOM     14  C   UNL     1      19.331   6.269  10.992  1.00  0.00    -0.000 C 
BRANCH  14  15
ATOM     15  C   UNL     1      19.228   5.855   9.513  1.00  0.00    -0.000 C 
BRANCH  15  16
ATOM     16  C   UNL     1      20.038   6.771   8.580  1.00  0.00    -0.000 C 
BRANCH  16  17
ATOM     17  C   UNL     1      19.310   7.179   7.286  1.00  0.00    -0.003 C 
ATOM     18  C   UNL     1      19.299   8.692   7.060  1.00  0.00     0.004 C 
ENDBRANCH  16  17
ENDBRANCH  15  16
ENDBRANCH  14  15
ENDBRANCH  13  14
ENDBRANCH  12  13
ENDBRANCH  11  12
ENDBRANCH   1  11
TORSDOF 14
ENDMDL
