MODEL 1
REMARK VINA RESULT:    -5.023      0.000      0.000
REMARK INTER + INTRA:          -5.895
REMARK INTER:                  -5.757
REMARK INTRA:                  -0.138
REMARK UNBOUND:                -0.138
REMARK SMILES O=C([O-])C=Cc1ccc(O)cc1
REMARK SMILES IDX 6 1 7 2 12 3 8 4 11 5 9 6 5 7 4 8 2 9 1 10 3 11 10 12
REMARK H PARENT 10 13
REMARK Flexibility Score: inf
ROOT
ATOM      1  C   UNL     1     -10.638   8.503  23.855  1.00  0.00    -0.025 A 
ATOM      2  C   UNL     1     -10.998   8.945  25.139  1.00  0.00     0.012 A 
ATOM      3  C   UNL     1      -9.813   9.324  23.060  1.00  0.00     0.012 A 
ATOM      4  C   UNL     1     -10.525  10.165  25.630  1.00  0.00     0.047 A 
ATOM      5  C   UNL     1      -9.343  10.545  23.554  1.00  0.00     0.047 A 
ATOM      6  C   UNL     1      -9.697  10.967  24.841  1.00  0.00     0.115 A 
ENDROOT
BRANCH   1   7
ATOM      7  C   UNL     1     -11.174   7.204  23.375  1.00  0.00     0.010 C 
ATOM      8  C   UNL     1     -10.766   6.600  22.249  1.00  0.00     0.025 C 
BRANCH   8   9
ATOM      9  C   UNL     1     -11.312   5.305  21.811  1.00  0.00     0.064 C 
ATOM     10  O   UNL     1     -10.588   4.273  21.766  1.00  0.00    -0.545 OA
ATOM     11  O   UNL     1     -12.647   5.216  21.441  1.00  0.00    -0.545 OA
ENDBRANCH   8   9
ENDBRANCH   1   7
BRANCH   6  12
ATOM     12  O   UNL     1      -9.233  12.181  25.344  1.00  0.00    -0.508 OA
ATOM     13  H   UNL     1      -8.713  12.230  26.213  1.00  0.00     0.293 HD
ENDBRANCH   6  12
TORSDOF 3
ENDMDL
MODEL 2
REMARK VINA RESULT:    -4.910     16.117     18.087
REMARK INTER + INTRA:          -5.766
REMARK INTER:                  -5.626
REMARK INTRA:                  -0.139
REMARK UNBOUND:                -0.138
REMARK SMILES O=C([O-])C=Cc1ccc(O)cc1
REMARK SMILES IDX 6 1 7 2 12 3 8 4 11 5 9 6 5 7 4 8 2 9 1 10 3 11 10 12
REMARK H PARENT 10 13
REMARK Flexibility Score: inf
ROOT
ATOM      1  C   UNL     1      -2.178   5.565   8.673  1.00  0.00    -0.025 A 
ATOM      2  C   UNL     1      -0.998   5.211   7.997  1.00  0.00     0.012 A 
ATOM      3  C   UNL     1      -3.165   4.579   8.879  1.00  0.00     0.012 A 
ATOM      4  C   UNL     1      -0.796   3.899   7.558  1.00  0.00     0.047 A 
ATOM      5  C   UNL     1      -2.960   3.269   8.437  1.00  0.00     0.047 A 
ATOM      6  C   UNL     1      -1.773   2.925   7.777  1.00  0.00     0.115 A 
ENDROOT
BRANCH   1   7
ATOM      7  C   UNL     1      -2.350   6.973   9.111  1.00  0.00     0.010 C 
ATOM      8  C   UNL     1      -1.519   7.596   9.959  1.00  0.00     0.025 C 
BRANCH   8   9
ATOM      9  C   UNL     1      -1.715   8.998  10.362  1.00  0.00     0.064 C 
ATOM     10  O   UNL     1      -1.684   9.931   9.515  1.00  0.00    -0.545 OA
ATOM     11  O   UNL     1      -1.939   9.300  11.699  1.00  0.00    -0.545 OA
ENDBRANCH   8   9
ENDBRANCH   1   7
BRANCH   6  12
ATOM     12  O   UNL     1      -1.557   1.622   7.335  1.00  0.00    -0.508 OA
ATOM     13  H   UNL     1      -0.765   1.386   6.747  1.00  0.00     0.293 HD
ENDBRANCH   6  12
TORSDOF 3
ENDMDL
MODEL 3
REMARK VINA RESULT:    -4.736     15.203     16.856
REMARK INTER + INTRA:          -5.566
REMARK INTER:                  -5.415
REMARK INTRA:                  -0.152
REMARK UNBOUND:                -0.138
REMARK SMILES O=C([O-])C=Cc1ccc(O)cc1
REMARK SMILES IDX 6 1 7 2 12 3 8 4 11 5 9 6 5 7 4 8 2 9 1 10 3 11 10 12
REMARK H PARENT 10 13
REMARK Flexibility Score: inf
ROOT
ATOM      1  C   UNL     1      -2.491   6.354   9.563  1.00  0.00    -0.025 A 
ATOM      2  C   UNL     1      -2.456   5.427  10.618  1.00  0.00     0.012 A 
ATOM      3  C   UNL     1      -2.862   5.908   8.278  1.00  0.00     0.012 A 
ATOM      4  C   UNL     1      -2.808   4.091  10.404  1.00  0.00     0.047 A 
ATOM      5  C   UNL     1      -3.213   4.571   8.067  1.00  0.00     0.047 A 
ATOM      6  C   UNL     1      -3.188   3.660   9.131  1.00  0.00     0.115 A 
ENDROOT
BRANCH   1   7
ATOM      7  C   UNL     1      -2.099   7.760   9.840  1.00  0.00     0.010 C 
ATOM      8  C   UNL     1      -2.034   8.286  11.071  1.00  0.00     0.025 C 
BRANCH   8   9
ATOM      9  C   UNL     1      -1.630   9.682  11.308  1.00  0.00     0.064 C 
ATOM     10  O   UNL     1      -1.456  10.121  12.477  1.00  0.00    -0.545 OA
ATOM     11  O   UNL     1      -1.434  10.529  10.226  1.00  0.00    -0.545 OA
ENDBRANCH   8   9
ENDBRANCH   1   7
BRANCH   6  12
ATOM     12  O   UNL     1      -3.537   2.326   8.932  1.00  0.00    -0.508 OA
ATOM     13  H   UNL     1      -3.323   1.846   8.064  1.00  0.00     0.293 HD
ENDBRANCH   6  12
TORSDOF 3
ENDMDL
MODEL 4
REMARK VINA RESULT:    -4.553     15.264     16.153
REMARK INTER + INTRA:          -5.356
REMARK INTER:                  -5.207
REMARK INTRA:                  -0.150
REMARK UNBOUND:                -0.138
REMARK SMILES O=C([O-])C=Cc1ccc(O)cc1
REMARK SMILES IDX 6 1 7 2 12 3 8 4 11 5 9 6 5 7 4 8 2 9 1 10 3 11 10 12
REMARK H PARENT 10 13
REMARK Flexibility Score: inf
ROOT
ATOM      1  C   UNL     1      -2.166   7.813  10.332  1.00  0.00    -0.025 A 
ATOM      2  C   UNL     1      -1.629   8.805   9.494  1.00  0.00     0.012 A 
ATOM      3  C   UNL     1      -2.570   8.170  11.634  1.00  0.00     0.012 A 
ATOM      4  C   UNL     1      -1.520  10.127   9.934  1.00  0.00     0.047 A 
ATOM      5  C   UNL     1      -2.458   9.493  12.072  1.00  0.00     0.047 A 
ATOM      6  C   UNL     1      -1.935  10.475  11.222  1.00  0.00     0.115 A 
ENDROOT
BRANCH   1   7
ATOM      7  C   UNL     1      -2.252   6.422   9.821  1.00  0.00     0.010 C 
ATOM      8  C   UNL     1      -2.213   6.102   8.519  1.00  0.00     0.025 C 
BRANCH   8   9
ATOM      9  C   UNL     1      -2.289   4.709   8.049  1.00  0.00     0.064 C 
ATOM     10  O   UNL     1      -3.325   4.015   8.231  1.00  0.00    -0.545 OA
ATOM     11  O   UNL     1      -1.201   4.149   7.393  1.00  0.00    -0.545 OA
ENDBRANCH   8   9
ENDBRANCH   1   7
BRANCH   6  12
ATOM     12  O   UNL     1      -1.820  11.797  11.647  1.00  0.00    -0.508 OA
ATOM     13  H   UNL     1      -2.622  12.417  11.671  1.00  0.00     0.293 HD
ENDBRANCH   6  12
TORSDOF 3
ENDMDL
MODEL 5
REMARK VINA RESULT:    -4.481     13.119     14.181
REMARK INTER + INTRA:          -5.274
REMARK INTER:                  -5.136
REMARK INTRA:                  -0.139
REMARK UNBOUND:                -0.138
REMARK SMILES O=C([O-])C=Cc1ccc(O)cc1
REMARK SMILES IDX 6 1 7 2 12 3 8 4 11 5 9 6 5 7 4 8 2 9 1 10 3 11 10 12
REMARK H PARENT 10 13
REMARK Flexibility Score: inf
ROOT
ATOM      1  C   UNL     1      -2.141   7.952  12.528  1.00  0.00    -0.025 A 
ATOM      2  C   UNL     1      -2.019   9.351  12.595  1.00  0.00     0.012 A 
ATOM      3  C   UNL     1      -2.055   7.322  11.269  1.00  0.00     0.012 A 
ATOM      4  C   UNL     1      -1.790  10.101  11.439  1.00  0.00     0.047 A 
ATOM      5  C   UNL     1      -1.827   8.077  10.115  1.00  0.00     0.047 A 
ATOM      6  C   UNL     1      -1.692   9.469  10.197  1.00  0.00     0.115 A 
ENDROOT
BRANCH   1   7
ATOM      7  C   UNL     1      -2.393   7.200  13.783  1.00  0.00     0.010 C 
ATOM      8  C   UNL     1      -2.654   5.885  13.824  1.00  0.00     0.025 C 
BRANCH   8   9
ATOM      9  C   UNL     1      -2.888   5.170  15.089  1.00  0.00     0.064 C 
ATOM     10  O   UNL     1      -1.942   4.610  15.706  1.00  0.00    -0.545 OA
ATOM     11  O   UNL     1      -4.171   5.112  15.614  1.00  0.00    -0.545 OA
ENDBRANCH   8   9
ENDBRANCH   1   7
BRANCH   6  12
ATOM     12  O   UNL     1      -1.464  10.230   9.053  1.00  0.00    -0.508 OA
ATOM     13  H   UNL     1      -2.113  10.951   8.758  1.00  0.00     0.293 HD
ENDBRANCH   6  12
TORSDOF 3
ENDMDL
MODEL 6
REMARK VINA RESULT:    -4.398     14.091     16.286
REMARK INTER + INTRA:          -5.179
REMARK INTER:                  -5.039
REMARK INTRA:                  -0.140
REMARK UNBOUND:                -0.138
REMARK SMILES O=C([O-])C=Cc1ccc(O)cc1
REMARK SMILES IDX 6 1 7 2 12 3 8 4 11 5 9 6 5 7 4 8 2 9 1 10 3 11 10 12
REMARK H PARENT 10 13
REMARK Flexibility Score: inf
ROOT
ATOM      1  C   UNL     1      -2.238   3.778  10.849  1.00  0.00    -0.025 A 
ATOM      2  C   UNL     1      -3.291   3.454   9.976  1.00  0.00     0.012 A 
ATOM      3  C   UNL     1      -0.915   3.502  10.449  1.00  0.00     0.012 A 
ATOM      4  C   UNL     1      -3.030   2.891   8.724  1.00  0.00     0.047 A 
ATOM      5  C   UNL     1      -0.657   2.938   9.196  1.00  0.00     0.047 A 
ATOM      6  C   UNL     1      -1.715   2.633   8.330  1.00  0.00     0.115 A 
ENDROOT
BRANCH   1   7
ATOM      7  C   UNL     1      -2.568   4.366  12.172  1.00  0.00     0.010 C 
ATOM      8  C   UNL     1      -3.200   3.697  13.148  1.00  0.00     0.025 C 
BRANCH   8   9
ATOM      9  C   UNL     1      -3.500   4.309  14.452  1.00  0.00     0.064 C 
ATOM     10  O   UNL     1      -4.185   3.699  15.317  1.00  0.00    -0.545 OA
ATOM     11  O   UNL     1      -3.019   5.580  14.737  1.00  0.00    -0.545 OA
ENDBRANCH   8   9
ENDBRANCH   1   7
BRANCH   6  12
ATOM     12  O   UNL     1      -1.469   2.071   7.078  1.00  0.00    -0.508 OA
ATOM     13  H   UNL     1      -1.860   2.472   6.232  1.00  0.00     0.293 HD
ENDBRANCH   6  12
TORSDOF 3
ENDMDL
MODEL 7
REMARK VINA RESULT:    -4.356     12.841     14.160
REMARK INTER + INTRA:          -5.131
REMARK INTER:                  -4.998
REMARK INTRA:                  -0.133
REMARK UNBOUND:                -0.138
REMARK SMILES O=C([O-])C=Cc1ccc(O)cc1
REMARK SMILES IDX 6 1 7 2 12 3 8 4 11 5 9 6 5 7 4 8 2 9 1 10 3 11 10 12
REMARK H PARENT 10 13
REMARK Flexibility Score: inf
ROOT
ATOM      1  C   UNL     1      -2.074   7.453  13.340  1.00  0.00    -0.025 A 
ATOM      2  C   UNL     1      -2.303   7.762  14.692  1.00  0.00     0.012 A 
ATOM      3  C   UNL     1      -2.374   6.155  12.880  1.00  0.00     0.012 A 
ATOM      4  C   UNL     1      -2.842   6.808  15.559  1.00  0.00     0.047 A 
ATOM      5  C   UNL     1      -2.912   5.202  13.751  1.00  0.00     0.047 A 
ATOM      6  C   UNL     1      -3.149   5.528  15.092  1.00  0.00     0.115 A 
ENDROOT
BRANCH   1   7
ATOM      7  C   UNL     1      -1.491   8.498  12.461  1.00  0.00     0.010 C 
ATOM      8  C   UNL     1      -2.224   9.345  11.724  1.00  0.00     0.025 C 
BRANCH   8   9
ATOM      9  C   UNL     1      -1.611  10.378  10.872  1.00  0.00     0.064 C 
ATOM     10  O   UNL     1      -1.103  11.418  11.371  1.00  0.00    -0.545 OA
ATOM     11  O   UNL     1      -1.589  10.203   9.495  1.00  0.00    -0.545 OA
ENDBRANCH   8   9
ENDBRANCH   1   7
BRANCH   6  12
ATOM     12  O   UNL     1      -3.687   4.586  15.968  1.00  0.00    -0.508 OA
ATOM     13  H   UNL     1      -4.688   4.455  16.055  1.00  0.00     0.293 HD
ENDBRANCH   6  12
TORSDOF 3
ENDMDL
MODEL 8
REMARK VINA RESULT:    -4.309     12.901     14.577
REMARK INTER + INTRA:          -5.077
REMARK INTER:                  -4.926
REMARK INTRA:                  -0.151
REMARK UNBOUND:                -0.138
REMARK SMILES O=C([O-])C=Cc1ccc(O)cc1
REMARK SMILES IDX 6 1 7 2 12 3 8 4 11 5 9 6 5 7 4 8 2 9 1 10 3 11 10 12
REMARK H PARENT 10 13
REMARK Flexibility Score: inf
ROOT
ATOM      1  C   UNL     1      -3.057   4.274  12.471  1.00  0.00    -0.025 A 
ATOM      2  C   UNL     1      -3.663   3.078  12.891  1.00  0.00     0.012 A 
ATOM      3  C   UNL     1      -2.792   5.274  13.429  1.00  0.00     0.012 A 
ATOM      4  C   UNL     1      -3.974   2.873  14.238  1.00  0.00     0.047 A 
ATOM      5  C   UNL     1      -3.105   5.066  14.775  1.00  0.00     0.047 A 
ATOM      6  C   UNL     1      -3.696   3.863  15.183  1.00  0.00     0.115 A 
ENDROOT
BRANCH   1   7
ATOM      7  C   UNL     1      -2.755   4.449  11.028  1.00  0.00     0.010 C 
ATOM      8  C   UNL     1      -3.219   3.637  10.066  1.00  0.00     0.025 C 
BRANCH   8   9
ATOM      9  C   UNL     1      -2.908   3.848   8.643  1.00  0.00     0.064 C 
ATOM     10  O   UNL     1      -2.149   3.059   8.017  1.00  0.00    -0.545 OA
ATOM     11  O   UNL     1      -3.460   4.934   7.977  1.00  0.00    -0.545 OA
ENDBRANCH   8   9
ENDBRANCH   1   7
BRANCH   6  12
ATOM     12  O   UNL     1      -4.011   3.644  16.523  1.00  0.00    -0.508 OA
ATOM     13  H   UNL     1      -3.381   3.145  17.140  1.00  0.00     0.293 HD
ENDBRANCH   6  12
TORSDOF 3
ENDMDL
MODEL 9
REMARK VINA RESULT:    -4.239      6.075      7.878
REMARK INTER + INTRA:          -4.997
REMARK INTER:                  -4.857
REMARK INTRA:                  -0.140
REMARK UNBOUND:                -0.138
REMARK SMILES O=C([O-])C=Cc1ccc(O)cc1
REMARK SMILES IDX 6 1 7 2 12 3 8 4 11 5 9 6 5 7 4 8 2 9 1 10 3 11 10 12
REMARK H PARENT 10 13
REMARK Flexibility Score: inf
ROOT
ATOM      1  C   UNL     1     -11.618   1.448  21.563  1.00  0.00    -0.025 A 
ATOM      2  C   UNL     1     -13.016   1.591  21.577  1.00  0.00     0.012 A 
ATOM      3  C   UNL     1     -10.826   2.551  21.181  1.00  0.00     0.012 A 
ATOM      4  C   UNL     1     -13.610   2.811  21.243  1.00  0.00     0.047 A 
ATOM      5  C   UNL     1     -11.424   3.769  20.846  1.00  0.00     0.047 A 
ATOM      6  C   UNL     1     -12.818   3.903  20.879  1.00  0.00     0.115 A 
ENDROOT
BRANCH   1   7
ATOM      7  C   UNL     1     -11.035   0.129  21.917  1.00  0.00     0.010 C 
ATOM      8  C   UNL     1      -9.731  -0.161  21.811  1.00  0.00     0.025 C 
BRANCH   8   9
ATOM      9  C   UNL     1      -9.186  -1.478  22.182  1.00  0.00     0.064 C 
ATOM     10  O   UNL     1      -8.304  -2.041  21.480  1.00  0.00    -0.545 OA
ATOM     11  O   UNL     1      -9.651  -2.110  23.327  1.00  0.00    -0.545 OA
ENDBRANCH   8   9
ENDBRANCH   1   7
BRANCH   6  12
ATOM     12  O   UNL     1     -13.424   5.113  20.548  1.00  0.00    -0.508 OA
ATOM     13  H   UNL     1     -13.959   5.641  21.229  1.00  0.00     0.293 HD
ENDBRANCH   6  12
TORSDOF 3
ENDMDL
