MODEL 1
REMARK VINA RESULT:    -4.496      0.000      0.000
REMARK INTER + INTRA:          -4.952
REMARK INTER:                  -4.890
REMARK INTRA:                  -0.062
REMARK UNBOUND:                -0.062
REMARK SMILES COc1cc2ccc(=O)oc2cc1O
REMARK SMILES IDX 3 1 13 2 12 3 11 4 5 5 4 6 6 7 7 8 8 9 9 10 10 11 2 12 1 13
REMARK SMILES IDX 14 14
REMARK H PARENT 14 15
REMARK Flexibility Score: inf
ROOT
ATOM      1  C   UNL     1       3.022  38.803   5.783  1.00  0.00     0.161 A 
ATOM      2  C   UNL     1       1.974  39.476   6.442  1.00  0.00     0.161 A 
ATOM      3  C   UNL     1       0.781  38.804   6.736  1.00  0.00     0.098 A 
ATOM      4  C   UNL     1       0.618  37.464   6.380  1.00  0.00     0.142 A 
ATOM      5  C   UNL     1       1.661  36.783   5.720  1.00  0.00     0.022 A 
ATOM      6  C   UNL     1       2.857  37.450   5.424  1.00  0.00     0.062 A 
ATOM      7  C   UNL     1       1.468  35.441   5.376  1.00  0.00     0.019 A 
ATOM      8  C   UNL     1       0.259  34.820   5.692  1.00  0.00     0.094 A 
ATOM      9  C   UNL     1      -0.731  35.559   6.347  1.00  0.00     0.336 A 
ATOM     10  O   UNL     1      -1.828  35.018   6.641  1.00  0.00    -0.246 OA
ATOM     11  O   UNL     1      -0.521  36.835   6.662  1.00  0.00    -0.423 OA
ENDROOT
BRANCH   1  12
ATOM     12  O   UNL     1       4.205  39.507   5.504  1.00  0.00    -0.493 OA
ATOM     13  C   UNL     1       5.360  39.509   6.338  1.00  0.00     0.278 C 
ENDBRANCH   1  12
BRANCH   2  14
ATOM     14  O   UNL     1       2.100  40.814   6.813  1.00  0.00    -0.504 OA
ATOM     15  H   UNL     1       1.495  41.242   7.504  1.00  0.00     0.293 HD
ENDBRANCH   2  14
TORSDOF 2
ENDMDL
MODEL 2
REMARK VINA RESULT:    -4.258      1.307      5.366
REMARK INTER + INTRA:          -4.693
REMARK INTER:                  -4.628
REMARK INTRA:                  -0.065
REMARK UNBOUND:                -0.062
REMARK SMILES COc1cc2ccc(=O)oc2cc1O
REMARK SMILES IDX 3 1 13 2 12 3 11 4 5 5 4 6 6 7 7 8 8 9 9 10 10 11 2 12 1 13
REMARK SMILES IDX 14 14
REMARK H PARENT 14 15
REMARK Flexibility Score: inf
ROOT
ATOM      1  C   UNL     1      -0.188  36.503   6.296  1.00  0.00     0.161 A 
ATOM      2  C   UNL     1       0.790  35.694   5.685  1.00  0.00     0.161 A 
ATOM      3  C   UNL     1       2.062  36.210   5.411  1.00  0.00     0.098 A 
ATOM      4  C   UNL     1       2.375  37.531   5.740  1.00  0.00     0.142 A 
ATOM      5  C   UNL     1       1.403  38.349   6.352  1.00  0.00     0.022 A 
ATOM      6  C   UNL     1       0.128  37.836   6.628  1.00  0.00     0.062 A 
ATOM      7  C   UNL     1       1.746  39.667   6.669  1.00  0.00     0.019 A 
ATOM      8  C   UNL     1       3.029  40.131   6.374  1.00  0.00     0.094 A 
ATOM      9  C   UNL     1       3.940  39.262   5.767  1.00  0.00     0.336 A 
ATOM     10  O   UNL     1       5.101  39.661   5.492  1.00  0.00    -0.246 OA
ATOM     11  O   UNL     1       3.587  38.013   5.475  1.00  0.00    -0.423 OA
ENDROOT
BRANCH   1  12
ATOM     12  O   UNL     1      -1.454  35.953   6.557  1.00  0.00    -0.493 OA
ATOM     13  C   UNL     1      -1.856  35.410   7.810  1.00  0.00     0.278 C 
ENDBRANCH   1  12
BRANCH   2  14
ATOM     14  O   UNL     1       0.515  34.370   5.342  1.00  0.00    -0.504 OA
ATOM     15  H   UNL     1       0.606  34.028   4.393  1.00  0.00     0.293 HD
ENDBRANCH   2  14
TORSDOF 2
ENDMDL
MODEL 3
REMARK VINA RESULT:    -4.191      2.492      5.674
REMARK INTER + INTRA:          -4.620
REMARK INTER:                  -4.572
REMARK INTRA:                  -0.048
REMARK UNBOUND:                -0.062
REMARK SMILES COc1cc2ccc(=O)oc2cc1O
REMARK SMILES IDX 3 1 13 2 12 3 11 4 5 5 4 6 6 7 7 8 8 9 9 10 10 11 2 12 1 13
REMARK SMILES IDX 14 14
REMARK H PARENT 14 15
REMARK Flexibility Score: inf
ROOT
ATOM      1  C   UNL     1       2.706  38.586   6.181  1.00  0.00     0.161 A 
ATOM      2  C   UNL     1       3.160  39.888   5.892  1.00  0.00     0.161 A 
ATOM      3  C   UNL     1       4.353  40.359   6.452  1.00  0.00     0.098 A 
ATOM      4  C   UNL     1       5.104  39.546   7.303  1.00  0.00     0.142 A 
ATOM      5  C   UNL     1       4.657  38.242   7.600  1.00  0.00     0.022 A 
ATOM      6  C   UNL     1       3.464  37.765   7.041  1.00  0.00     0.062 A 
ATOM      7  C   UNL     1       5.431  37.452   8.456  1.00  0.00     0.019 A 
ATOM      8  C   UNL     1       6.612  37.971   8.988  1.00  0.00     0.094 A 
ATOM      9  C   UNL     1       6.992  39.274   8.649  1.00  0.00     0.336 A 
ATOM     10  O   UNL     1       8.053  39.761   9.118  1.00  0.00    -0.246 OA
ATOM     11  O   UNL     1       6.236  40.004   7.832  1.00  0.00    -0.423 OA
ENDROOT
BRANCH   1  12
ATOM     12  O   UNL     1       1.505  38.144   5.602  1.00  0.00    -0.493 OA
ATOM     13  C   UNL     1       1.282  36.827   5.109  1.00  0.00     0.278 C 
ENDBRANCH   1  12
BRANCH   2  14
ATOM     14  O   UNL     1       2.437  40.729   5.046  1.00  0.00    -0.504 OA
ATOM     15  H   UNL     1       1.704  40.384   4.438  1.00  0.00     0.293 HD
ENDBRANCH   2  14
TORSDOF 2
ENDMDL
MODEL 4
REMARK VINA RESULT:    -4.149      2.955      4.744
REMARK INTER + INTRA:          -4.575
REMARK INTER:                  -4.510
REMARK INTRA:                  -0.065
REMARK UNBOUND:                -0.062
REMARK SMILES COc1cc2ccc(=O)oc2cc1O
REMARK SMILES IDX 3 1 13 2 12 3 11 4 5 5 4 6 6 7 7 8 8 9 9 10 10 11 2 12 1 13
REMARK SMILES IDX 14 14
REMARK H PARENT 14 15
REMARK Flexibility Score: inf
ROOT
ATOM      1  C   UNL     1       6.572  39.715   8.411  1.00  0.00     0.161 A 
ATOM      2  C   UNL     1       6.362  38.427   8.943  1.00  0.00     0.161 A 
ATOM      3  C   UNL     1       5.336  37.617   8.444  1.00  0.00     0.098 A 
ATOM      4  C   UNL     1       4.510  38.075   7.415  1.00  0.00     0.142 A 
ATOM      5  C   UNL     1       4.711  39.363   6.877  1.00  0.00     0.022 A 
ATOM      6  C   UNL     1       5.738  40.177   7.373  1.00  0.00     0.062 A 
ATOM      7  C   UNL     1       3.868  39.793   5.848  1.00  0.00     0.019 A 
ATOM      8  C   UNL     1       2.859  38.946   5.388  1.00  0.00     0.094 A 
ATOM      9  C   UNL     1       2.720  37.682   5.970  1.00  0.00     0.336 A 
ATOM     10  O   UNL     1       1.817  36.902   5.570  1.00  0.00    -0.246 OA
ATOM     11  O   UNL     1       3.536  37.297   6.948  1.00  0.00    -0.423 OA
ENDROOT
BRANCH   1  12
ATOM     12  O   UNL     1       7.611  40.501   8.935  1.00  0.00    -0.493 OA
ATOM     13  C   UNL     1       7.439  41.514   9.922  1.00  0.00     0.278 C 
ENDBRANCH   1  12
BRANCH   2  14
ATOM     14  O   UNL     1       7.167  37.934   9.970  1.00  0.00    -0.504 OA
ATOM     15  H   UNL     1       7.392  38.483  10.791  1.00  0.00     0.293 HD
ENDBRANCH   2  14
TORSDOF 2
ENDMDL
MODEL 5
REMARK VINA RESULT:    -4.053      1.733      5.113
REMARK INTER + INTRA:          -4.470
REMARK INTER:                  -4.409
REMARK INTRA:                  -0.061
REMARK UNBOUND:                -0.062
REMARK SMILES COc1cc2ccc(=O)oc2cc1O
REMARK SMILES IDX 3 1 13 2 12 3 11 4 5 5 4 6 6 7 7 8 8 9 9 10 10 11 2 12 1 13
REMARK SMILES IDX 14 14
REMARK H PARENT 14 15
REMARK Flexibility Score: inf
ROOT
ATOM      1  C   UNL     1      -1.536  35.435   6.886  1.00  0.00     0.161 A 
ATOM      2  C   UNL     1      -1.770  36.777   7.247  1.00  0.00     0.161 A 
ATOM      3  C   UNL     1      -0.868  37.776   6.865  1.00  0.00     0.098 A 
ATOM      4  C   UNL     1       0.273  37.455   6.126  1.00  0.00     0.142 A 
ATOM      5  C   UNL     1       0.516  36.115   5.761  1.00  0.00     0.022 A 
ATOM      6  C   UNL     1      -0.385  35.111   6.140  1.00  0.00     0.062 A 
ATOM      7  C   UNL     1       1.666  35.825   5.020  1.00  0.00     0.019 A 
ATOM      8  C   UNL     1       2.533  36.859   4.667  1.00  0.00     0.094 A 
ATOM      9  C   UNL     1       2.227  38.164   5.065  1.00  0.00     0.336 A 
ATOM     10  O   UNL     1       2.995  39.112   4.756  1.00  0.00    -0.246 OA
ATOM     11  O   UNL     1       1.126  38.413   5.769  1.00  0.00    -0.423 OA
ENDROOT
BRANCH   1  12
ATOM     12  O   UNL     1      -2.463  34.457   7.285  1.00  0.00    -0.493 OA
ATOM     13  C   UNL     1      -2.354  33.677   8.471  1.00  0.00     0.278 C 
ENDBRANCH   1  12
BRANCH   2  14
ATOM     14  O   UNL     1      -2.898  37.136   7.985  1.00  0.00    -0.504 OA
ATOM     15  H   UNL     1      -2.981  36.939   8.974  1.00  0.00     0.293 HD
ENDBRANCH   2  14
TORSDOF 2
ENDMDL
MODEL 6
REMARK VINA RESULT:    -4.045      2.153      5.303
REMARK INTER + INTRA:          -4.461
REMARK INTER:                  -4.396
REMARK INTRA:                  -0.065
REMARK UNBOUND:                -0.062
REMARK SMILES COc1cc2ccc(=O)oc2cc1O
REMARK SMILES IDX 3 1 13 2 12 3 11 4 5 5 4 6 6 7 7 8 8 9 9 10 10 11 2 12 1 13
REMARK SMILES IDX 14 14
REMARK H PARENT 14 15
REMARK Flexibility Score: inf
ROOT
ATOM      1  C   UNL     1      -2.681  36.293   7.164  1.00  0.00     0.161 A 
ATOM      2  C   UNL     1      -2.371  37.656   7.341  1.00  0.00     0.161 A 
ATOM      3  C   UNL     1      -1.114  38.146   6.969  1.00  0.00     0.098 A 
ATOM      4  C   UNL     1      -0.155  37.292   6.422  1.00  0.00     0.142 A 
ATOM      5  C   UNL     1      -0.455  35.926   6.242  1.00  0.00     0.022 A 
ATOM      6  C   UNL     1      -1.712  35.430   6.611  1.00  0.00     0.062 A 
ATOM      7  C   UNL     1       0.527  35.096   5.691  1.00  0.00     0.019 A 
ATOM      8  C   UNL     1       1.764  35.637   5.339  1.00  0.00     0.094 A 
ATOM      9  C   UNL     1       1.990  37.001   5.547  1.00  0.00     0.336 A 
ATOM     10  O   UNL     1       3.098  37.509   5.236  1.00  0.00    -0.246 OA
ATOM     11  O   UNL     1       1.038  37.769   6.073  1.00  0.00    -0.423 OA
ENDROOT
BRANCH   1  12
ATOM     12  O   UNL     1      -3.952  35.833   7.547  1.00  0.00    -0.493 OA
ATOM     13  C   UNL     1      -5.029  35.594   6.647  1.00  0.00     0.278 C 
ENDBRANCH   1  12
BRANCH   2  14
ATOM     14  O   UNL     1      -3.303  38.540   7.884  1.00  0.00    -0.504 OA
ATOM     15  H   UNL     1      -4.300  38.428   7.743  1.00  0.00     0.293 HD
ENDBRANCH   2  14
TORSDOF 2
ENDMDL
MODEL 7
REMARK VINA RESULT:    -3.990      2.200      5.815
REMARK INTER + INTRA:          -4.402
REMARK INTER:                  -4.343
REMARK INTRA:                  -0.059
REMARK UNBOUND:                -0.062
REMARK SMILES COc1cc2ccc(=O)oc2cc1O
REMARK SMILES IDX 3 1 13 2 12 3 11 4 5 5 4 6 6 7 7 8 8 9 9 10 10 11 2 12 1 13
REMARK SMILES IDX 14 14
REMARK H PARENT 14 15
REMARK Flexibility Score: inf
ROOT
ATOM      1  C   UNL     1      -2.815  36.340   7.410  1.00  0.00     0.161 A 
ATOM      2  C   UNL     1      -2.389  35.123   6.841  1.00  0.00     0.161 A 
ATOM      3  C   UNL     1      -1.133  35.033   6.229  1.00  0.00     0.098 A 
ATOM      4  C   UNL     1      -0.291  36.146   6.175  1.00  0.00     0.142 A 
ATOM      5  C   UNL     1      -0.709  37.368   6.741  1.00  0.00     0.022 A 
ATOM      6  C   UNL     1      -1.964  37.463   7.355  1.00  0.00     0.062 A 
ATOM      7  C   UNL     1       0.157  38.465   6.672  1.00  0.00     0.019 A 
ATOM      8  C   UNL     1       1.397  38.320   6.049  1.00  0.00     0.094 A 
ATOM      9  C   UNL     1       1.744  37.078   5.510  1.00  0.00     0.336 A 
ATOM     10  O   UNL     1       2.857  36.926   4.945  1.00  0.00    -0.246 OA
ATOM     11  O   UNL     1       0.901  36.051   5.590  1.00  0.00    -0.423 OA
ENDROOT
BRANCH   1  12
ATOM     12  O   UNL     1      -4.080  36.395   8.016  1.00  0.00    -0.493 OA
ATOM     13  C   UNL     1      -4.303  36.662   9.397  1.00  0.00     0.278 C 
ENDBRANCH   1  12
BRANCH   2  14
ATOM     14  O   UNL     1      -3.201  33.990   6.875  1.00  0.00    -0.504 OA
ATOM     15  H   UNL     1      -3.550  33.602   7.742  1.00  0.00     0.293 HD
ENDBRANCH   2  14
TORSDOF 2
ENDMDL
MODEL 8
REMARK VINA RESULT:    -3.974      2.405      4.045
REMARK INTER + INTRA:          -4.385
REMARK INTER:                  -4.337
REMARK INTRA:                  -0.047
REMARK UNBOUND:                -0.062
REMARK SMILES COc1cc2ccc(=O)oc2cc1O
REMARK SMILES IDX 3 1 13 2 12 3 11 4 5 5 4 6 6 7 7 8 8 9 9 10 10 11 2 12 1 13
REMARK SMILES IDX 14 14
REMARK H PARENT 14 15
REMARK Flexibility Score: inf
ROOT
ATOM      1  C   UNL     1       1.086  36.715   5.652  1.00  0.00     0.161 A 
ATOM      2  C   UNL     1       0.251  35.595   5.834  1.00  0.00     0.161 A 
ATOM      3  C   UNL     1      -0.968  35.727   6.508  1.00  0.00     0.098 A 
ATOM      4  C   UNL     1      -1.370  36.967   7.008  1.00  0.00     0.142 A 
ATOM      5  C   UNL     1      -0.540  38.094   6.832  1.00  0.00     0.022 A 
ATOM      6  C   UNL     1       0.681  37.967   6.157  1.00  0.00     0.062 A 
ATOM      7  C   UNL     1      -0.969  39.323   7.344  1.00  0.00     0.019 A 
ATOM      8  C   UNL     1      -2.194  39.398   8.009  1.00  0.00     0.094 A 
ATOM      9  C   UNL     1      -2.963  38.239   8.146  1.00  0.00     0.336 A 
ATOM     10  O   UNL     1      -4.070  38.285   8.742  1.00  0.00    -0.246 OA
ATOM     11  O   UNL     1      -2.530  37.082   7.649  1.00  0.00    -0.423 OA
ENDROOT
BRANCH   1  12
ATOM     12  O   UNL     1       2.303  36.547   4.970  1.00  0.00    -0.493 OA
ATOM     13  C   UNL     1       2.869  37.504   4.081  1.00  0.00     0.278 C 
ENDBRANCH   1  12
BRANCH   2  14
ATOM     14  O   UNL     1       0.617  34.339   5.348  1.00  0.00    -0.504 OA
ATOM     15  H   UNL     1       1.234  33.721   5.860  1.00  0.00     0.293 HD
ENDBRANCH   2  14
TORSDOF 2
ENDMDL
MODEL 9
REMARK VINA RESULT:    -3.959      6.725      9.100
REMARK INTER + INTRA:          -4.367
REMARK INTER:                  -4.324
REMARK INTRA:                  -0.043
REMARK UNBOUND:                -0.062
REMARK SMILES COc1cc2ccc(=O)oc2cc1O
REMARK SMILES IDX 3 1 13 2 12 3 11 4 5 5 4 6 6 7 7 8 8 9 9 10 10 11 2 12 1 13
REMARK SMILES IDX 14 14
REMARK H PARENT 14 15
REMARK Flexibility Score: inf
ROOT
ATOM      1  C   UNL     1      -4.132  39.885  10.092  1.00  0.00     0.161 A 
ATOM      2  C   UNL     1      -3.186  39.943   9.050  1.00  0.00     0.161 A 
ATOM      3  C   UNL     1      -3.035  41.115   8.301  1.00  0.00     0.098 A 
ATOM      4  C   UNL     1      -3.818  42.237   8.577  1.00  0.00     0.142 A 
ATOM      5  C   UNL     1      -4.768  42.189   9.618  1.00  0.00     0.022 A 
ATOM      6  C   UNL     1      -4.923  41.018  10.371  1.00  0.00     0.062 A 
ATOM      7  C   UNL     1      -5.538  43.329   9.871  1.00  0.00     0.019 A 
ATOM      8  C   UNL     1      -5.347  44.471   9.092  1.00  0.00     0.094 A 
ATOM      9  C   UNL     1      -4.386  44.446   8.077  1.00  0.00     0.336 A 
ATOM     10  O   UNL     1      -4.198  45.465   7.364  1.00  0.00    -0.246 OA
ATOM     11  O   UNL     1      -3.668  43.347   7.858  1.00  0.00    -0.423 OA
ENDROOT
BRANCH   1  12
ATOM     12  O   UNL     1      -4.258  38.693  10.825  1.00  0.00    -0.493 OA
ATOM     13  C   UNL     1      -5.048  38.546  12.000  1.00  0.00     0.278 C 
ENDBRANCH   1  12
BRANCH   2  14
ATOM     14  O   UNL     1      -2.385  38.843   8.744  1.00  0.00    -0.504 OA
ATOM     15  H   UNL     1      -1.457  38.943   8.353  1.00  0.00     0.293 HD
ENDBRANCH   2  14
TORSDOF 2
ENDMDL
