MODEL 1
REMARK VINA RESULT:    -4.314      0.000      0.000
REMARK INTER + INTRA:          -5.337
REMARK INTER:                  -5.070
REMARK INTRA:                  -0.267
REMARK UNBOUND:                -0.267
REMARK SMILES O=c1cc(-c2ccc(O)c(O)c2)oc2cc(O)cc(O)c12
REMARK SMILES IDX 4 1 3 2 2 3 1 4 21 5 19 6 18 7 16 8 15 9 14 10 13 11 5 12
REMARK SMILES IDX 6 13 7 14 8 15 12 16 10 17 9 18 11 20 20 22 17 24
REMARK H PARENT 9 19 11 21 20 23 17 25
REMARK Flexibility Score: inf
ROOT
ATOM      1  C   UNL     1      21.367  34.058  42.751  1.00  0.00     0.138 A 
ATOM      2  C   UNL     1      22.584  33.621  43.293  1.00  0.00     0.100 A 
ATOM      3  C   UNL     1      23.001  34.108  44.533  1.00  0.00     0.197 A 
ATOM      4  O   UNL     1      24.070  33.655  45.018  1.00  0.00    -0.289 OA
ATOM      5  C   UNL     1      22.213  35.065  45.215  1.00  0.00     0.107 A 
ATOM      6  C   UNL     1      22.555  35.658  46.467  1.00  0.00     0.134 A 
ATOM      7  C   UNL     1      21.646  36.521  47.094  1.00  0.00     0.093 A 
ATOM      8  C   UNL     1      20.435  36.858  46.485  1.00  0.00     0.123 A 
ATOM      9  C   UNL     1      20.114  36.324  45.239  1.00  0.00     0.094 A 
ATOM     10  C   UNL     1      20.984  35.433  44.605  1.00  0.00     0.146 A 
ATOM     11  O   UNL     1      20.630  34.933  43.426  1.00  0.00    -0.456 OA
ENDROOT
BRANCH   1  12
ATOM     12  C   UNL     1      20.876  33.575  41.435  1.00  0.00     0.021 A 
ATOM     13  C   UNL     1      20.196  32.352  41.302  1.00  0.00     0.016 A 
ATOM     14  C   UNL     1      19.738  31.929  40.053  1.00  0.00     0.051 A 
ATOM     15  C   UNL     1      19.939  32.714  38.914  1.00  0.00     0.157 A 
ATOM     16  C   UNL     1      21.067  34.370  40.291  1.00  0.00     0.062 A 
ATOM     17  C   UNL     1      20.610  33.953  39.035  1.00  0.00     0.158 A 
BRANCH  15  18
ATOM     18  O   UNL     1      19.457  32.232  37.695  1.00  0.00    -0.504 OA
ATOM     19  H   UNL     1      18.547  32.454  37.320  1.00  0.00     0.293 HD
ENDBRANCH  15  18
BRANCH  17  20
ATOM     20  O   UNL     1      20.844  34.793  37.945  1.00  0.00    -0.504 OA
ATOM     21  H   UNL     1      21.579  35.486  37.912  1.00  0.00     0.293 HD
ENDBRANCH  17  20
ENDBRANCH   1  12
BRANCH   6  22
ATOM     22  O   UNL     1      23.772  35.454  47.125  1.00  0.00    -0.507 OA
ATOM     23  H   UNL     1      24.662  35.324  46.670  1.00  0.00     0.293 HD
ENDBRANCH   6  22
BRANCH   8  24
ATOM     24  O   UNL     1      19.544  37.729  47.108  1.00  0.00    -0.508 OA
ATOM     25  H   UNL     1      19.658  38.734  47.049  1.00  0.00     0.293 HD
ENDBRANCH   8  24
TORSDOF 5
ENDMDL
MODEL 2
REMARK VINA RESULT:    -4.258      3.501      7.133
REMARK INTER + INTRA:          -5.272
REMARK INTER:                  -5.010
REMARK INTRA:                  -0.262
REMARK UNBOUND:                -0.267
REMARK SMILES O=c1cc(-c2ccc(O)c(O)c2)oc2cc(O)cc(O)c12
REMARK SMILES IDX 4 1 3 2 2 3 1 4 21 5 19 6 18 7 16 8 15 9 14 10 13 11 5 12
REMARK SMILES IDX 6 13 7 14 8 15 12 16 10 17 9 18 11 20 20 22 17 24
REMARK H PARENT 9 19 11 21 20 23 17 25
REMARK Flexibility Score: inf
ROOT
ATOM      1  C   UNL     1      18.999  34.897  44.725  1.00  0.00     0.138 A 
ATOM      2  C   UNL     1      17.852  34.837  45.528  1.00  0.00     0.100 A 
ATOM      3  C   UNL     1      16.591  34.796  44.929  1.00  0.00     0.197 A 
ATOM      4  O   UNL     1      15.584  34.687  45.676  1.00  0.00    -0.289 OA
ATOM      5  C   UNL     1      16.479  34.853  43.519  1.00  0.00     0.107 A 
ATOM      6  C   UNL     1      15.246  34.854  42.800  1.00  0.00     0.134 A 
ATOM      7  C   UNL     1      15.264  34.812  41.400  1.00  0.00     0.093 A 
ATOM      8  C   UNL     1      16.469  34.830  40.693  1.00  0.00     0.123 A 
ATOM      9  C   UNL     1      17.676  34.880  41.386  1.00  0.00     0.094 A 
ATOM     10  C   UNL     1      17.693  34.887  42.782  1.00  0.00     0.146 A 
ATOM     11  O   UNL     1      18.868  34.917  43.402  1.00  0.00    -0.456 OA
ENDROOT
BRANCH   1  12
ATOM     12  C   UNL     1      20.364  34.944  45.308  1.00  0.00     0.021 A 
ATOM     13  C   UNL     1      21.175  33.799  45.388  1.00  0.00     0.016 A 
ATOM     14  C   UNL     1      22.458  33.878  45.933  1.00  0.00     0.051 A 
ATOM     15  C   UNL     1      22.962  35.094  46.402  1.00  0.00     0.157 A 
ATOM     16  C   UNL     1      20.877  36.170  45.767  1.00  0.00     0.062 A 
ATOM     17  C   UNL     1      22.162  36.257  46.316  1.00  0.00     0.158 A 
BRANCH  15  18
ATOM     18  O   UNL     1      24.253  35.103  46.937  1.00  0.00    -0.504 OA
ATOM     19  H   UNL     1      24.453  35.119  47.926  1.00  0.00     0.293 HD
ENDBRANCH  15  18
BRANCH  17  20
ATOM     20  O   UNL     1      22.599  37.507  46.758  1.00  0.00    -0.504 OA
ATOM     21  H   UNL     1      23.167  38.135  46.208  1.00  0.00     0.293 HD
ENDBRANCH  17  20
ENDBRANCH   1  12
BRANCH   6  22
ATOM     22  O   UNL     1      13.987  34.916  43.404  1.00  0.00    -0.507 OA
ATOM     23  H   UNL     1      13.636  35.698  43.934  1.00  0.00     0.293 HD
ENDBRANCH   6  22
BRANCH   8  24
ATOM     24  O   UNL     1      16.477  34.805  39.300  1.00  0.00    -0.508 OA
ATOM     25  H   UNL     1      17.341  34.858  38.775  1.00  0.00     0.293 HD
ENDBRANCH   8  24
TORSDOF 5
ENDMDL
MODEL 3
REMARK VINA RESULT:    -4.169      3.556      3.851
REMARK INTER + INTRA:          -5.168
REMARK INTER:                  -4.902
REMARK INTRA:                  -0.266
REMARK UNBOUND:                -0.267
REMARK SMILES O=c1cc(-c2ccc(O)c(O)c2)oc2cc(O)cc(O)c12
REMARK SMILES IDX 4 1 3 2 2 3 1 4 21 5 19 6 18 7 16 8 15 9 14 10 13 11 5 12
REMARK SMILES IDX 6 13 7 14 8 15 12 16 10 17 9 18 11 20 20 22 17 24
REMARK H PARENT 9 19 11 21 20 23 17 25
REMARK Flexibility Score: inf
ROOT
ATOM      1  C   UNL     1      18.652  34.566  43.503  1.00  0.00     0.138 A 
ATOM      2  C   UNL     1      19.340  33.349  43.404  1.00  0.00     0.100 A 
ATOM      3  C   UNL     1      20.563  33.193  44.059  1.00  0.00     0.197 A 
ATOM      4  O   UNL     1      21.129  32.070  43.996  1.00  0.00    -0.289 OA
ATOM      5  C   UNL     1      21.116  34.273  44.786  1.00  0.00     0.107 A 
ATOM      6  C   UNL     1      22.371  34.241  45.464  1.00  0.00     0.134 A 
ATOM      7  C   UNL     1      22.768  35.342  46.235  1.00  0.00     0.093 A 
ATOM      8  C   UNL     1      21.983  36.495  46.302  1.00  0.00     0.123 A 
ATOM      9  C   UNL     1      20.780  36.555  45.604  1.00  0.00     0.094 A 
ATOM     10  C   UNL     1      20.340  35.462  44.855  1.00  0.00     0.146 A 
ATOM     11  O   UNL     1      19.177  35.555  44.218  1.00  0.00    -0.456 OA
ENDROOT
BRANCH   1  12
ATOM     12  C   UNL     1      17.349  34.788  42.826  1.00  0.00     0.021 A 
ATOM     13  C   UNL     1      16.133  34.749  43.529  1.00  0.00     0.016 A 
ATOM     14  C   UNL     1      14.924  34.972  42.866  1.00  0.00     0.051 A 
ATOM     15  C   UNL     1      14.901  35.244  41.495  1.00  0.00     0.157 A 
ATOM     16  C   UNL     1      17.325  35.076  41.450  1.00  0.00     0.062 A 
ATOM     17  C   UNL     1      16.118  35.300  40.777  1.00  0.00     0.158 A 
BRANCH  15  18
ATOM     18  O   UNL     1      13.658  35.456  40.892  1.00  0.00    -0.504 OA
ATOM     19  H   UNL     1      13.289  34.886  40.145  1.00  0.00     0.293 HD
ENDBRANCH  15  18
BRANCH  17  20
ATOM     20  O   UNL     1      16.175  35.572  39.409  1.00  0.00    -0.504 OA
ATOM     21  H   UNL     1      16.307  36.494  39.021  1.00  0.00     0.293 HD
ENDBRANCH  17  20
ENDBRANCH   1  12
BRANCH   6  22
ATOM     22  O   UNL     1      23.270  33.172  45.399  1.00  0.00    -0.507 OA
ATOM     23  H   UNL     1      24.086  33.064  45.980  1.00  0.00     0.293 HD
ENDBRANCH   6  22
BRANCH   8  24
ATOM     24  O   UNL     1      22.394  37.591  47.058  1.00  0.00    -0.508 OA
ATOM     25  H   UNL     1      22.756  38.430  46.621  1.00  0.00     0.293 HD
ENDBRANCH   8  24
TORSDOF 5
ENDMDL
MODEL 4
REMARK VINA RESULT:    -4.164      3.361      4.363
REMARK INTER + INTRA:          -5.162
REMARK INTER:                  -4.884
REMARK INTRA:                  -0.278
REMARK UNBOUND:                -0.267
REMARK SMILES O=c1cc(-c2ccc(O)c(O)c2)oc2cc(O)cc(O)c12
REMARK SMILES IDX 4 1 3 2 2 3 1 4 21 5 19 6 18 7 16 8 15 9 14 10 13 11 5 12
REMARK SMILES IDX 6 13 7 14 8 15 12 16 10 17 9 18 11 20 20 22 17 24
REMARK H PARENT 9 19 11 21 20 23 17 25
REMARK Flexibility Score: inf
ROOT
ATOM      1  C   UNL     1      18.829  34.912  44.239  1.00  0.00     0.138 A 
ATOM      2  C   UNL     1      18.931  36.266  44.583  1.00  0.00     0.100 A 
ATOM      3  C   UNL     1      20.087  36.733  45.213  1.00  0.00     0.197 A 
ATOM      4  O   UNL     1      20.171  37.964  45.459  1.00  0.00    -0.289 OA
ATOM      5  C   UNL     1      21.128  35.829  45.533  1.00  0.00     0.107 A 
ATOM      6  C   UNL     1      22.336  36.183  46.205  1.00  0.00     0.134 A 
ATOM      7  C   UNL     1      23.338  35.220  46.378  1.00  0.00     0.093 A 
ATOM      8  C   UNL     1      23.151  33.902  45.957  1.00  0.00     0.123 A 
ATOM      9  C   UNL     1      21.956  33.534  45.344  1.00  0.00     0.094 A 
ATOM     10  C   UNL     1      20.952  34.479  45.126  1.00  0.00     0.146 A 
ATOM     11  O   UNL     1      19.834  34.090  44.521  1.00  0.00    -0.456 OA
ENDROOT
BRANCH   1  12
ATOM     12  C   UNL     1      17.622  34.361  43.570  1.00  0.00     0.021 A 
ATOM     13  C   UNL     1      17.063  33.129  43.949  1.00  0.00     0.016 A 
ATOM     14  C   UNL     1      15.922  32.642  43.308  1.00  0.00     0.051 A 
ATOM     15  C   UNL     1      15.312  33.372  42.284  1.00  0.00     0.157 A 
ATOM     16  C   UNL     1      17.000  35.100  42.549  1.00  0.00     0.062 A 
ATOM     17  C   UNL     1      15.856  34.619  41.900  1.00  0.00     0.158 A 
BRANCH  15  18
ATOM     18  O   UNL     1      14.175  32.827  41.682  1.00  0.00    -0.504 OA
ATOM     19  H   UNL     1      14.022  32.800  40.684  1.00  0.00     0.293 HD
ENDBRANCH  15  18
BRANCH  17  20
ATOM     20  O   UNL     1      15.300  35.406  40.890  1.00  0.00    -0.504 OA
ATOM     21  H   UNL     1      14.863  35.034  40.059  1.00  0.00     0.293 HD
ENDBRANCH  17  20
ENDBRANCH   1  12
BRANCH   6  22
ATOM     22  O   UNL     1      22.593  37.450  46.739  1.00  0.00    -0.507 OA
ATOM     23  H   UNL     1      22.720  37.653  47.718  1.00  0.00     0.293 HD
ENDBRANCH   6  22
BRANCH   8  24
ATOM     24  O   UNL     1      24.147  32.946  46.147  1.00  0.00    -0.508 OA
ATOM     25  H   UNL     1      24.775  32.987  46.941  1.00  0.00     0.293 HD
ENDBRANCH   8  24
TORSDOF 5
ENDMDL
MODEL 5
REMARK VINA RESULT:    -4.134      4.064      7.645
REMARK INTER + INTRA:          -5.126
REMARK INTER:                  -4.852
REMARK INTRA:                  -0.274
REMARK UNBOUND:                -0.267
REMARK SMILES O=c1cc(-c2ccc(O)c(O)c2)oc2cc(O)cc(O)c12
REMARK SMILES IDX 4 1 3 2 2 3 1 4 21 5 19 6 18 7 16 8 15 9 14 10 13 11 5 12
REMARK SMILES IDX 6 13 7 14 8 15 12 16 10 17 9 18 11 20 20 22 17 24
REMARK H PARENT 9 19 11 21 20 23 17 25
REMARK Flexibility Score: inf
ROOT
ATOM      1  C   UNL     1      17.856  35.347  44.217  1.00  0.00     0.138 A 
ATOM      2  C   UNL     1      16.814  34.768  44.955  1.00  0.00     0.100 A 
ATOM      3  C   UNL     1      15.681  34.292  44.294  1.00  0.00     0.197 A 
ATOM      4  O   UNL     1      14.788  33.728  44.979  1.00  0.00    -0.289 OA
ATOM      5  C   UNL     1      15.575  34.430  42.889  1.00  0.00     0.107 A 
ATOM      6  C   UNL     1      14.453  34.015  42.112  1.00  0.00     0.134 A 
ATOM      7  C   UNL     1      14.505  34.113  40.716  1.00  0.00     0.093 A 
ATOM      8  C   UNL     1      15.614  34.667  40.073  1.00  0.00     0.123 A 
ATOM      9  C   UNL     1      16.694  35.122  40.826  1.00  0.00     0.094 A 
ATOM     10  C   UNL     1      16.687  35.006  42.217  1.00  0.00     0.146 A 
ATOM     11  O   UNL     1      17.746  35.436  42.896  1.00  0.00    -0.456 OA
ENDROOT
BRANCH   1  12
ATOM     12  C   UNL     1      19.083  35.871  44.869  1.00  0.00     0.021 A 
ATOM     13  C   UNL     1      19.040  36.956  45.762  1.00  0.00     0.016 A 
ATOM     14  C   UNL     1      20.209  37.420  46.367  1.00  0.00     0.051 A 
ATOM     15  C   UNL     1      21.441  36.814  46.103  1.00  0.00     0.157 A 
ATOM     16  C   UNL     1      20.319  35.253  44.614  1.00  0.00     0.062 A 
ATOM     17  C   UNL     1      21.497  35.713  45.216  1.00  0.00     0.158 A 
BRANCH  15  18
ATOM     18  O   UNL     1      22.573  37.329  46.739  1.00  0.00    -0.504 OA
ATOM     19  H   UNL     1      23.105  38.114  46.395  1.00  0.00     0.293 HD
ENDBRANCH  15  18
BRANCH  17  20
ATOM     20  O   UNL     1      22.688  35.054  44.907  1.00  0.00    -0.504 OA
ATOM     21  H   UNL     1      22.866  34.082  45.115  1.00  0.00     0.293 HD
ENDBRANCH  17  20
ENDBRANCH   1  12
BRANCH   6  22
ATOM     22  O   UNL     1      13.262  33.522  42.656  1.00  0.00    -0.507 OA
ATOM     23  H   UNL     1      13.194  32.966  43.495  1.00  0.00     0.293 HD
ENDBRANCH   6  22
BRANCH   8  24
ATOM     24  O   UNL     1      15.651  34.776  38.685  1.00  0.00    -0.508 OA
ATOM     25  H   UNL     1      16.498  34.588  38.161  1.00  0.00     0.293 HD
ENDBRANCH   8  24
TORSDOF 5
ENDMDL
MODEL 6
REMARK VINA RESULT:    -3.952      1.694      2.912
REMARK INTER + INTRA:          -4.912
REMARK INTER:                  -4.618
REMARK INTRA:                  -0.295
REMARK UNBOUND:                -0.267
REMARK SMILES O=c1cc(-c2ccc(O)c(O)c2)oc2cc(O)cc(O)c12
REMARK SMILES IDX 4 1 3 2 2 3 1 4 21 5 19 6 18 7 16 8 15 9 14 10 13 11 5 12
REMARK SMILES IDX 6 13 7 14 8 15 12 16 10 17 9 18 11 20 20 22 17 24
REMARK H PARENT 9 19 11 21 20 23 17 25
REMARK Flexibility Score: inf
ROOT
ATOM      1  C   UNL     1      19.826  34.301  42.703  1.00  0.00     0.138 A 
ATOM      2  C   UNL     1      18.499  34.287  43.154  1.00  0.00     0.100 A 
ATOM      3  C   UNL     1      18.174  34.905  44.363  1.00  0.00     0.197 A 
ATOM      4  O   UNL     1      16.966  34.923  44.713  1.00  0.00    -0.289 OA
ATOM      5  C   UNL     1      19.191  35.508  45.141  1.00  0.00     0.107 A 
ATOM      6  C   UNL     1      18.984  36.135  46.406  1.00  0.00     0.134 A 
ATOM      7  C   UNL     1      20.053  36.785  47.038  1.00  0.00     0.093 A 
ATOM      8  C   UNL     1      21.333  36.778  46.479  1.00  0.00     0.123 A 
ATOM      9  C   UNL     1      21.556  36.124  45.269  1.00  0.00     0.094 A 
ATOM     10  C   UNL     1      20.504  35.497  44.598  1.00  0.00     0.146 A 
ATOM     11  O   UNL     1      20.757  34.901  43.437  1.00  0.00    -0.456 OA
ENDROOT
BRANCH   1  12
ATOM     12  C   UNL     1      20.228  33.658  41.426  1.00  0.00     0.021 A 
ATOM     13  C   UNL     1      19.741  32.395  41.048  1.00  0.00     0.016 A 
ATOM     14  C   UNL     1      20.129  31.821  39.836  1.00  0.00     0.051 A 
ATOM     15  C   UNL     1      21.003  32.490  38.975  1.00  0.00     0.157 A 
ATOM     16  C   UNL     1      21.097  34.337  40.554  1.00  0.00     0.062 A 
ATOM     17  C   UNL     1      21.491  33.767  39.337  1.00  0.00     0.158 A 
BRANCH  15  18
ATOM     18  O   UNL     1      21.354  31.859  37.779  1.00  0.00    -0.504 OA
ATOM     19  H   UNL     1      21.827  32.319  37.016  1.00  0.00     0.293 HD
ENDBRANCH  15  18
BRANCH  17  20
ATOM     20  O   UNL     1      22.363  34.499  38.527  1.00  0.00    -0.504 OA
ATOM     21  H   UNL     1      22.722  34.170  37.642  1.00  0.00     0.293 HD
ENDBRANCH  17  20
ENDBRANCH   1  12
BRANCH   6  22
ATOM     22  O   UNL     1      17.766  36.133  47.092  1.00  0.00    -0.507 OA
ATOM     23  H   UNL     1      17.621  36.501  48.020  1.00  0.00     0.293 HD
ENDBRANCH   6  22
BRANCH   8  24
ATOM     24  O   UNL     1      22.393  37.413  47.121  1.00  0.00    -0.508 OA
ATOM     25  H   UNL     1      23.349  37.098  47.003  1.00  0.00     0.293 HD
ENDBRANCH   8  24
TORSDOF 5
ENDMDL
MODEL 7
REMARK VINA RESULT:    -3.896      4.646      7.486
REMARK INTER + INTRA:          -4.847
REMARK INTER:                  -4.575
REMARK INTRA:                  -0.272
REMARK UNBOUND:                -0.267
REMARK SMILES O=c1cc(-c2ccc(O)c(O)c2)oc2cc(O)cc(O)c12
REMARK SMILES IDX 4 1 3 2 2 3 1 4 21 5 19 6 18 7 16 8 15 9 14 10 13 11 5 12
REMARK SMILES IDX 6 13 7 14 8 15 12 16 10 17 9 18 11 20 20 22 17 24
REMARK H PARENT 9 19 11 21 20 23 17 25
REMARK Flexibility Score: inf
ROOT
ATOM      1  C   UNL     1      17.777  35.334  44.286  1.00  0.00     0.138 A 
ATOM      2  C   UNL     1      17.669  35.115  42.906  1.00  0.00     0.100 A 
ATOM      3  C   UNL     1      16.479  34.611  42.378  1.00  0.00     0.197 A 
ATOM      4  O   UNL     1      16.395  34.478  41.129  1.00  0.00    -0.289 OA
ATOM      5  C   UNL     1      15.405  34.290  43.242  1.00  0.00     0.107 A 
ATOM      6  C   UNL     1      14.158  33.738  42.822  1.00  0.00     0.134 A 
ATOM      7  C   UNL     1      13.133  33.555  43.759  1.00  0.00     0.093 A 
ATOM      8  C   UNL     1      13.331  33.848  45.110  1.00  0.00     0.123 A 
ATOM      9  C   UNL     1      14.562  34.340  45.539  1.00  0.00     0.094 A 
ATOM     10  C   UNL     1      15.592  34.567  44.623  1.00  0.00     0.146 A 
ATOM     11  O   UNL     1      16.744  35.054  45.073  1.00  0.00    -0.456 OA
ENDROOT
BRANCH   1  12
ATOM     12  C   UNL     1      19.020  35.866  44.901  1.00  0.00     0.021 A 
ATOM     13  C   UNL     1      18.999  36.956  45.787  1.00  0.00     0.016 A 
ATOM     14  C   UNL     1      20.183  37.427  46.358  1.00  0.00     0.051 A 
ATOM     15  C   UNL     1      21.408  36.822  46.065  1.00  0.00     0.157 A 
ATOM     16  C   UNL     1      20.251  35.248  44.618  1.00  0.00     0.062 A 
ATOM     17  C   UNL     1      21.443  35.715  45.185  1.00  0.00     0.158 A 
BRANCH  15  18
ATOM     18  O   UNL     1      22.555  37.344  46.667  1.00  0.00    -0.504 OA
ATOM     19  H   UNL     1      22.784  38.327  46.689  1.00  0.00     0.293 HD
ENDBRANCH  15  18
BRANCH  17  20
ATOM     20  O   UNL     1      22.627  35.055  44.850  1.00  0.00    -0.504 OA
ATOM     21  H   UNL     1      23.007  34.278  45.369  1.00  0.00     0.293 HD
ENDBRANCH  17  20
ENDBRANCH   1  12
BRANCH   6  22
ATOM     22  O   UNL     1      13.882  33.335  41.512  1.00  0.00    -0.507 OA
ATOM     23  H   UNL     1      14.164  33.831  40.681  1.00  0.00     0.293 HD
ENDBRANCH   6  22
BRANCH   8  24
ATOM     24  O   UNL     1      12.311  33.648  46.038  1.00  0.00    -0.508 OA
ATOM     25  H   UNL     1      11.548  34.308  46.137  1.00  0.00     0.293 HD
ENDBRANCH   8  24
TORSDOF 5
ENDMDL
MODEL 8
REMARK VINA RESULT:    -3.861      1.877      6.734
REMARK INTER + INTRA:          -4.806
REMARK INTER:                  -4.541
REMARK INTRA:                  -0.265
REMARK UNBOUND:                -0.267
REMARK SMILES O=c1cc(-c2ccc(O)c(O)c2)oc2cc(O)cc(O)c12
REMARK SMILES IDX 4 1 3 2 2 3 1 4 21 5 19 6 18 7 16 8 15 9 14 10 13 11 5 12
REMARK SMILES IDX 6 13 7 14 8 15 12 16 10 17 9 18 11 20 20 22 17 24
REMARK H PARENT 9 19 11 21 20 23 17 25
REMARK Flexibility Score: inf
ROOT
ATOM      1  C   UNL     1      21.301  34.304  43.177  1.00  0.00     0.138 A 
ATOM      2  C   UNL     1      21.997  33.141  43.532  1.00  0.00     0.100 A 
ATOM      3  C   UNL     1      22.462  32.282  42.534  1.00  0.00     0.197 A 
ATOM      4  O   UNL     1      23.131  31.275  42.883  1.00  0.00    -0.289 OA
ATOM      5  C   UNL     1      22.195  32.574  41.175  1.00  0.00     0.107 A 
ATOM      6  C   UNL     1      22.588  31.755  40.074  1.00  0.00     0.134 A 
ATOM      7  C   UNL     1      22.354  32.197  38.766  1.00  0.00     0.093 A 
ATOM      8  C   UNL     1      21.688  33.400  38.520  1.00  0.00     0.123 A 
ATOM      9  C   UNL     1      21.256  34.183  39.588  1.00  0.00     0.094 A 
ATOM     10  C   UNL     1      21.505  33.786  40.903  1.00  0.00     0.146 A 
ATOM     11  O   UNL     1      21.091  34.571  41.893  1.00  0.00    -0.456 OA
ENDROOT
BRANCH   1  12
ATOM     12  C   UNL     1      20.782  35.251  44.197  1.00  0.00     0.021 A 
ATOM     13  C   UNL     1      19.406  35.492  44.351  1.00  0.00     0.016 A 
ATOM     14  C   UNL     1      18.948  36.380  45.326  1.00  0.00     0.051 A 
ATOM     15  C   UNL     1      19.846  37.040  46.171  1.00  0.00     0.157 A 
ATOM     16  C   UNL     1      21.684  35.904  45.056  1.00  0.00     0.062 A 
ATOM     17  C   UNL     1      21.233  36.796  46.036  1.00  0.00     0.158 A 
BRANCH  15  18
ATOM     18  O   UNL     1      19.322  37.917  47.123  1.00  0.00    -0.504 OA
ATOM     19  H   UNL     1      19.222  37.693  48.102  1.00  0.00     0.293 HD
ENDBRANCH  15  18
BRANCH  17  20
ATOM     20  O   UNL     1      22.189  37.413  46.845  1.00  0.00    -0.504 OA
ATOM     21  H   UNL     1      22.431  37.099  47.774  1.00  0.00     0.293 HD
ENDBRANCH  17  20
ENDBRANCH   1  12
BRANCH   6  22
ATOM     22  O   UNL     1      23.188  30.498  40.207  1.00  0.00    -0.507 OA
ATOM     23  H   UNL     1      23.563  30.123  41.064  1.00  0.00     0.293 HD
ENDBRANCH   6  22
BRANCH   8  24
ATOM     24  O   UNL     1      21.445  33.825  37.215  1.00  0.00    -0.508 OA
ATOM     25  H   UNL     1      20.997  34.713  37.022  1.00  0.00     0.293 HD
ENDBRANCH   8  24
TORSDOF 5
ENDMDL
MODEL 9
REMARK VINA RESULT:    -3.839      2.504      3.994
REMARK INTER + INTRA:          -4.780
REMARK INTER:                  -4.463
REMARK INTRA:                  -0.317
REMARK UNBOUND:                -0.267
REMARK SMILES O=c1cc(-c2ccc(O)c(O)c2)oc2cc(O)cc(O)c12
REMARK SMILES IDX 4 1 3 2 2 3 1 4 21 5 19 6 18 7 16 8 15 9 14 10 13 11 5 12
REMARK SMILES IDX 6 13 7 14 8 15 12 16 10 17 9 18 11 20 20 22 17 24
REMARK H PARENT 9 19 11 21 20 23 17 25
REMARK Flexibility Score: inf
ROOT
ATOM      1  C   UNL     1      19.727  34.581  43.715  1.00  0.00     0.138 A 
ATOM      2  C   UNL     1      19.707  35.569  44.709  1.00  0.00     0.100 A 
ATOM      3  C   UNL     1      20.850  35.799  45.476  1.00  0.00     0.197 A 
ATOM      4  O   UNL     1      20.818  36.731  46.322  1.00  0.00    -0.289 OA
ATOM      5  C   UNL     1      22.007  35.010  45.271  1.00  0.00     0.107 A 
ATOM      6  C   UNL     1      23.218  35.131  46.016  1.00  0.00     0.134 A 
ATOM      7  C   UNL     1      24.331  34.361  45.655  1.00  0.00     0.093 A 
ATOM      8  C   UNL     1      24.258  33.431  44.615  1.00  0.00     0.123 A 
ATOM      9  C   UNL     1      23.065  33.270  43.914  1.00  0.00     0.094 A 
ATOM     10  C   UNL     1      21.948  34.048  44.227  1.00  0.00     0.146 A 
ATOM     11  O   UNL     1      20.836  33.875  43.521  1.00  0.00    -0.456 OA
ENDROOT
BRANCH   1  12
ATOM     12  C   UNL     1      18.539  34.292  42.871  1.00  0.00     0.021 A 
ATOM     13  C   UNL     1      17.412  35.131  42.868  1.00  0.00     0.016 A 
ATOM     14  C   UNL     1      16.315  34.839  42.056  1.00  0.00     0.051 A 
ATOM     15  C   UNL     1      16.317  33.712  41.229  1.00  0.00     0.157 A 
ATOM     16  C   UNL     1      18.547  33.166  42.030  1.00  0.00     0.062 A 
ATOM     17  C   UNL     1      17.450  32.865  41.213  1.00  0.00     0.158 A 
BRANCH  15  18
ATOM     18  O   UNL     1      15.186  33.475  40.444  1.00  0.00    -0.504 OA
ATOM     19  H   UNL     1      14.550  32.705  40.589  1.00  0.00     0.293 HD
ENDBRANCH  15  18
BRANCH  17  20
ATOM     20  O   UNL     1      17.528  31.725  40.410  1.00  0.00    -0.504 OA
ATOM     21  H   UNL     1      18.388  31.359  40.030  1.00  0.00     0.293 HD
ENDBRANCH  17  20
ENDBRANCH   1  12
BRANCH   6  22
ATOM     22  O   UNL     1      23.375  35.969  47.125  1.00  0.00    -0.507 OA
ATOM     23  H   UNL     1      22.789  35.963  47.945  1.00  0.00     0.293 HD
ENDBRANCH   6  22
BRANCH   8  24
ATOM     24  O   UNL     1      25.365  32.658  44.273  1.00  0.00    -0.508 OA
ATOM     25  H   UNL     1      25.295  31.899  43.605  1.00  0.00     0.293 HD
ENDBRANCH   8  24
TORSDOF 5
ENDMDL
