MODEL 1
REMARK VINA RESULT:    -6.850      0.000      0.000
REMARK INTER + INTRA:         -13.642
REMARK INTER:                 -11.256
REMARK INTRA:                  -2.386
REMARK UNBOUND:                -2.386
REMARK SMILES C[C@@H]1O[C@@H](OC[C@H]2O[C@H](Oc3c(-c4ccc(O)c(O)c4)oc4cc(O)cc(O)c4c3=O)[C@@H](O)[C@H](O)[C@H]2O)[C@H](O)[C@H](O)[C@@H]1O
REMARK SMILES IDX 7 1 36 2 34 3 32 4 9 5 8 6 6 7 5 8 4 9 1 10 2 11 42 12 3 13
REMARK SMILES IDX 40 14 38 15 43 16 41 18 39 20 37 22 35 24 10 26 11 27 12 28
REMARK SMILES IDX 30 29 21 30 29 31 31 32 22 33 27 34 23 35 26 36 24 37 13 38
REMARK SMILES IDX 20 39 14 40 18 41 15 42 16 43 19 44 17 46 28 48 25 50 33 52
REMARK H PARENT 43 17 41 19 39 21 37 23 35 25 19 45 17 47 28 49 25 51 33 53
REMARK Flexibility Score: inf
ROOT
ATOM      1  C   UNL     1      74.113  44.406   7.194  1.00  0.00     0.180 C 
ATOM      2  C   UNL     1      74.317  44.104   5.636  1.00  0.00     0.177 C 
ATOM      3  C   UNL     1      73.290  43.022   5.145  1.00  0.00     0.180 C 
ATOM      4  C   UNL     1      71.850  43.214   5.786  1.00  0.00     0.214 C 
ATOM      5  C   UNL     1      71.844  43.921   7.343  1.00  0.00     0.339 C 
ATOM      6  O   UNL     1      73.075  43.668   7.937  1.00  0.00    -0.332 OA
ENDROOT
BRANCH   1   7
ATOM      7  C   UNL     1      74.191  45.872   7.725  1.00  0.00     0.198 C 
BRANCH   7   8
ATOM      8  O   UNL     1      72.946  46.354   8.294  1.00  0.00    -0.347 OA
BRANCH   8   9
ATOM      9  C   UNL     1      72.423  47.581   7.695  1.00  0.00     0.281 C 
ATOM     10  C   UNL     1      71.828  50.673   8.105  1.00  0.00     0.041 C 
ATOM     11  C   UNL     1      71.146  49.358   8.648  1.00  0.00     0.150 C 
ATOM     12  C   UNL     1      69.834  48.746   7.971  1.00  0.00     0.174 C 
ATOM     13  O   UNL     1      72.182  48.416   8.759  1.00  0.00    -0.344 OA
ATOM     14  C   UNL     1      70.107  48.220   6.593  1.00  0.00     0.179 C 
ATOM     15  C   UNL     1      71.209  47.233   6.669  1.00  0.00     0.202 C 
BRANCH  12  16
ATOM     16  O   UNL     1      68.560  49.396   7.972  1.00  0.00    -0.388 OA
ATOM     17  H   UNL     1      68.271  49.168   6.984  1.00  0.00     0.211 HD
ENDBRANCH  12  16
BRANCH  14  18
ATOM     18  O   UNL     1      70.356  49.313   5.672  1.00  0.00    -0.387 OA
ATOM     19  H   UNL     1      70.408  48.989   4.706  1.00  0.00     0.211 HD
ENDBRANCH  14  18
BRANCH  15  20
ATOM     20  O   UNL     1      71.754  47.001   5.367  1.00  0.00    -0.385 OA
ATOM     21  H   UNL     1      71.265  47.652   4.808  1.00  0.00     0.211 HD
ENDBRANCH  15  20
ENDBRANCH   8   9
ENDBRANCH   7   8
ENDBRANCH   1   7
BRANCH   2  22
ATOM     22  O   UNL     1      74.372  45.288   4.888  1.00  0.00    -0.387 OA
ATOM     23  H   UNL     1      74.559  46.192   5.461  1.00  0.00     0.211 HD
ENDBRANCH   2  22
BRANCH   3  24
ATOM     24  O   UNL     1      73.834  41.732   5.288  1.00  0.00    -0.387 OA
ATOM     25  H   UNL     1      73.904  41.253   4.387  1.00  0.00     0.211 HD
ENDBRANCH   3  24
BRANCH   5  26
ATOM     26  O   UNL     1      70.900  43.478   8.369  1.00  0.00    -0.454 OA
BRANCH  26  27
ATOM     27  C   UNL     1      69.483  43.315   8.271  1.00  0.00     0.214 A 
ATOM     28  C   UNL     1      68.540  42.090   8.041  1.00  0.00     0.180 A 
ATOM     29  C   UNL     1      68.757  44.465   7.843  1.00  0.00     0.239 A 
ATOM     30  O   UNL     1      67.176  42.322   8.211  1.00  0.00    -0.452 OA
ATOM     31  C   UNL     1      67.511  44.622   8.433  1.00  0.00     0.111 A 
ATOM     32  O   UNL     1      68.884  44.696   6.611  1.00  0.00    -0.285 OA
ATOM     33  C   UNL     1      66.649  43.552   8.470  1.00  0.00     0.146 A 
ATOM     34  C   UNL     1      67.242  45.741   9.257  1.00  0.00     0.134 A 
ATOM     35  C   UNL     1      65.327  43.755   8.768  1.00  0.00     0.094 A 
ATOM     36  C   UNL     1      65.928  46.039   9.475  1.00  0.00     0.093 A 
ATOM     37  C   UNL     1      64.914  45.085   9.148  1.00  0.00     0.123 A 
BRANCH  28  38
ATOM     38  C   UNL     1      68.893  40.753   7.455  1.00  0.00     0.025 A 
ATOM     39  C   UNL     1      69.082  40.628   6.109  1.00  0.00     0.062 A 
ATOM     40  C   UNL     1      68.930  39.595   8.246  1.00  0.00     0.016 A 
ATOM     41  C   UNL     1      69.403  39.387   5.502  1.00  0.00     0.158 A 
ATOM     42  C   UNL     1      69.180  38.305   7.603  1.00  0.00     0.051 A 
ATOM     43  C   UNL     1      69.413  38.225   6.269  1.00  0.00     0.157 A 
BRANCH  41  44
ATOM     44  O   UNL     1      69.785  39.367   4.129  1.00  0.00    -0.504 OA
ATOM     45  H   UNL     1      70.158  40.215   3.644  1.00  0.00     0.293 HD
ENDBRANCH  41  44
BRANCH  43  46
ATOM     46  O   UNL     1      69.733  37.016   5.661  1.00  0.00    -0.504 OA
ATOM     47  H   UNL     1      69.843  36.897   4.660  1.00  0.00     0.293 HD
ENDBRANCH  43  46
ENDBRANCH  28  38
BRANCH  34  48
ATOM     48  O   UNL     1      68.265  46.324  10.016  1.00  0.00    -0.507 OA
ATOM     49  H   UNL     1      68.909  45.643  10.399  1.00  0.00     0.293 HD
ENDBRANCH  34  48
BRANCH  37  50
ATOM     50  O   UNL     1      63.578  45.417   9.360  1.00  0.00    -0.508 OA
ATOM     51  H   UNL     1      62.898  44.683   9.564  1.00  0.00     0.293 HD
ENDBRANCH  37  50
ENDBRANCH  26  27
ENDBRANCH   5  26
BRANCH   4  52
ATOM     52  O   UNL     1      71.240  44.129   4.863  1.00  0.00    -0.384 OA
ATOM     53  H   UNL     1      70.286  44.201   5.071  1.00  0.00     0.211 HD
ENDBRANCH   4  52
TORSDOF 16
ENDMDL
MODEL 2
REMARK VINA RESULT:    -6.837      1.860      7.166
REMARK INTER + INTRA:         -13.619
REMARK INTER:                 -11.672
REMARK INTRA:                  -1.947
REMARK UNBOUND:                -2.386
REMARK SMILES C[C@@H]1O[C@@H](OC[C@H]2O[C@H](Oc3c(-c4ccc(O)c(O)c4)oc4cc(O)cc(O)c4c3=O)[C@@H](O)[C@H](O)[C@H]2O)[C@H](O)[C@H](O)[C@@H]1O
REMARK SMILES IDX 7 1 36 2 34 3 32 4 9 5 8 6 6 7 5 8 4 9 1 10 2 11 42 12 3 13
REMARK SMILES IDX 40 14 38 15 43 16 41 18 39 20 37 22 35 24 10 26 11 27 12 28
REMARK SMILES IDX 30 29 21 30 29 31 31 32 22 33 27 34 23 35 26 36 24 37 13 38
REMARK SMILES IDX 20 39 14 40 18 41 15 42 16 43 19 44 17 46 28 48 25 50 33 52
REMARK H PARENT 43 17 41 19 39 21 37 23 35 25 19 45 17 47 28 49 25 51 33 53
REMARK Flexibility Score: inf
ROOT
ATOM      1  C   UNL     1      68.647  47.877  10.045  1.00  0.00     0.180 C 
ATOM      2  C   UNL     1      69.004  49.218   9.249  1.00  0.00     0.177 C 
ATOM      3  C   UNL     1      70.325  49.033   8.420  1.00  0.00     0.180 C 
ATOM      4  C   UNL     1      70.424  47.599   7.745  1.00  0.00     0.214 C 
ATOM      5  C   UNL     1      69.628  46.347   8.596  1.00  0.00     0.339 C 
ATOM      6  O   UNL     1      69.549  46.716   9.934  1.00  0.00    -0.332 OA
ENDROOT
BRANCH   1   7
ATOM      7  C   UNL     1      67.169  47.383  10.125  1.00  0.00     0.198 C 
BRANCH   7   8
ATOM      8  O   UNL     1      66.308  47.949   9.103  1.00  0.00    -0.347 OA
BRANCH   8   9
ATOM      9  C   UNL     1      65.366  47.010   8.494  1.00  0.00     0.281 C 
ATOM     10  C   UNL     1      62.397  45.886   8.482  1.00  0.00     0.041 C 
ATOM     11  C   UNL     1      63.617  45.709   9.465  1.00  0.00     0.150 C 
ATOM     12  C   UNL     1      64.570  44.428   9.407  1.00  0.00     0.174 C 
ATOM     13  O   UNL     1      64.334  46.915   9.395  1.00  0.00    -0.344 OA
ATOM     14  C   UNL     1      65.382  44.390   8.146  1.00  0.00     0.179 C 
ATOM     15  C   UNL     1      66.142  45.657   8.030  1.00  0.00     0.202 C 
BRANCH  12  16
ATOM     16  O   UNL     1      64.140  43.099   9.716  1.00  0.00    -0.388 OA
ATOM     17  H   UNL     1      63.395  43.003   8.976  1.00  0.00     0.211 HD
ENDBRANCH  12  16
BRANCH  14  18
ATOM     18  O   UNL     1      64.535  44.104   7.003  1.00  0.00    -0.387 OA
ATOM     19  H   UNL     1      64.178  44.957   6.575  1.00  0.00     0.211 HD
ENDBRANCH  14  18
BRANCH  15  20
ATOM     20  O   UNL     1      66.613  45.829   6.691  1.00  0.00    -0.385 OA
ATOM     21  H   UNL     1      66.264  46.722   6.450  1.00  0.00     0.211 HD
ENDBRANCH  15  20
ENDBRANCH   8   9
ENDBRANCH   7   8
ENDBRANCH   1   7
BRANCH   2  22
ATOM     22  O   UNL     1      67.895  49.705   8.543  1.00  0.00    -0.387 OA
ATOM     23  H   UNL     1      68.010  50.702   8.128  1.00  0.00     0.211 HD
ENDBRANCH   2  22
BRANCH   3  24
ATOM     24  O   UNL     1      71.443  49.400   9.192  1.00  0.00    -0.387 OA
ATOM     25  H   UNL     1      71.175  50.000   9.976  1.00  0.00     0.211 HD
ENDBRANCH   3  24
BRANCH   5  26
ATOM     26  O   UNL     1      70.202  45.003   8.671  1.00  0.00    -0.454 OA
BRANCH  26  27
ATOM     27  C   UNL     1      70.494  44.093   7.608  1.00  0.00     0.214 A 
ATOM     28  C   UNL     1      71.599  44.026   6.504  1.00  0.00     0.180 A 
ATOM     29  C   UNL     1      69.385  43.348   7.111  1.00  0.00     0.239 A 
ATOM     30  O   UNL     1      71.656  42.847   5.761  1.00  0.00    -0.452 OA
ATOM     31  C   UNL     1      69.682  42.049   6.721  1.00  0.00     0.111 A 
ATOM     32  O   UNL     1      68.608  44.038   6.398  1.00  0.00    -0.285 OA
ATOM     33  C   UNL     1      70.760  41.829   5.897  1.00  0.00     0.146 A 
ATOM     34  C   UNL     1      69.104  40.947   7.394  1.00  0.00     0.134 A 
ATOM     35  C   UNL     1      70.894  40.621   5.265  1.00  0.00     0.094 A 
ATOM     36  C   UNL     1      69.118  39.751   6.736  1.00  0.00     0.093 A 
ATOM     37  C   UNL     1      69.949  39.578   5.586  1.00  0.00     0.123 A 
BRANCH  28  38
ATOM     38  C   UNL     1      72.465  45.143   5.998  1.00  0.00     0.025 A 
ATOM     39  C   UNL     1      72.953  46.074   6.868  1.00  0.00     0.062 A 
ATOM     40  C   UNL     1      72.704  45.318   4.627  1.00  0.00     0.016 A 
ATOM     41  C   UNL     1      73.764  47.157   6.442  1.00  0.00     0.158 A 
ATOM     42  C   UNL     1      73.472  46.483   4.185  1.00  0.00     0.051 A 
ATOM     43  C   UNL     1      73.984  47.361   5.082  1.00  0.00     0.157 A 
BRANCH  41  44
ATOM     44  O   UNL     1      74.403  47.970   7.422  1.00  0.00    -0.504 OA
ATOM     45  H   UNL     1      74.728  47.584   8.339  1.00  0.00     0.293 HD
ENDBRANCH  41  44
BRANCH  43  46
ATOM     46  O   UNL     1      74.784  48.424   4.679  1.00  0.00    -0.504 OA
ATOM     47  H   UNL     1      74.450  49.375   4.567  1.00  0.00     0.293 HD
ENDBRANCH  43  46
ENDBRANCH  28  38
BRANCH  34  48
ATOM     48  O   UNL     1      68.793  41.033   8.758  1.00  0.00    -0.507 OA
ATOM     49  H   UNL     1      68.532  40.140   9.160  1.00  0.00     0.293 HD
ENDBRANCH  34  48
BRANCH  37  50
ATOM     50  O   UNL     1      69.934  38.356   4.916  1.00  0.00    -0.508 OA
ATOM     51  H   UNL     1      69.485  38.283   4.002  1.00  0.00     0.293 HD
ENDBRANCH  37  50
ENDBRANCH  26  27
ENDBRANCH   5  26
BRANCH   4  52
ATOM     52  O   UNL     1      69.741  47.815   6.500  1.00  0.00    -0.384 OA
ATOM     53  H   UNL     1      70.209  48.512   5.998  1.00  0.00     0.211 HD
ENDBRANCH   4  52
TORSDOF 16
ENDMDL
MODEL 3
REMARK VINA RESULT:    -6.739      2.007      5.064
REMARK INTER + INTRA:         -13.458
REMARK INTER:                 -11.378
REMARK INTRA:                  -2.080
REMARK UNBOUND:                -2.386
REMARK SMILES C[C@@H]1O[C@@H](OC[C@H]2O[C@H](Oc3c(-c4ccc(O)c(O)c4)oc4cc(O)cc(O)c4c3=O)[C@@H](O)[C@H](O)[C@H]2O)[C@H](O)[C@H](O)[C@@H]1O
REMARK SMILES IDX 7 1 36 2 34 3 32 4 9 5 8 6 6 7 5 8 4 9 1 10 2 11 42 12 3 13
REMARK SMILES IDX 40 14 38 15 43 16 41 18 39 20 37 22 35 24 10 26 11 27 12 28
REMARK SMILES IDX 30 29 21 30 29 31 31 32 22 33 27 34 23 35 26 36 24 37 13 38
REMARK SMILES IDX 20 39 14 40 18 41 15 42 16 43 19 44 17 46 28 48 25 50 33 52
REMARK H PARENT 43 17 41 19 39 21 37 23 35 25 19 45 17 47 28 49 25 51 33 53
REMARK Flexibility Score: inf
ROOT
ATOM      1  C   UNL     1      71.090  42.620   8.002  1.00  0.00     0.180 C 
ATOM      2  C   UNL     1      71.140  41.307   7.090  1.00  0.00     0.177 C 
ATOM      3  C   UNL     1      69.910  40.378   7.392  1.00  0.00     0.180 C 
ATOM      4  C   UNL     1      68.569  41.199   7.618  1.00  0.00     0.214 C 
ATOM      5  C   UNL     1      68.786  42.765   8.269  1.00  0.00     0.339 C 
ATOM      6  O   UNL     1      69.987  42.781   8.967  1.00  0.00    -0.332 OA
ENDROOT
BRANCH   1   7
ATOM      7  C   UNL     1      71.459  44.010   7.396  1.00  0.00     0.198 C 
BRANCH   7   8
ATOM      8  O   UNL     1      72.789  44.467   7.749  1.00  0.00    -0.347 OA
BRANCH   8   9
ATOM      9  C   UNL     1      73.168  45.767   7.194  1.00  0.00     0.281 C 
ATOM     10  C   UNL     1      73.072  48.919   7.554  1.00  0.00     0.041 C 
ATOM     11  C   UNL     1      71.993  47.843   7.148  1.00  0.00     0.150 C 
ATOM     12  C   UNL     1      71.609  47.565   5.622  1.00  0.00     0.174 C 
ATOM     13  O   UNL     1      72.356  46.671   7.833  1.00  0.00    -0.344 OA
ATOM     14  C   UNL     1      72.743  46.939   4.864  1.00  0.00     0.179 C 
ATOM     15  C   UNL     1      73.163  45.705   5.568  1.00  0.00     0.202 C 
BRANCH  12  16
ATOM     16  O   UNL     1      70.961  48.519   4.777  1.00  0.00    -0.388 OA
ATOM     17  H   UNL     1      69.976  48.152   4.857  1.00  0.00     0.211 HD
ENDBRANCH  12  16
BRANCH  14  18
ATOM     18  O   UNL     1      73.812  47.899   4.665  1.00  0.00    -0.387 OA
ATOM     19  H   UNL     1      74.423  47.958   5.479  1.00  0.00     0.211 HD
ENDBRANCH  14  18
BRANCH  15  20
ATOM     20  O   UNL     1      74.457  45.297   5.116  1.00  0.00    -0.385 OA
ATOM     21  H   UNL     1      74.829  44.837   5.908  1.00  0.00     0.211 HD
ENDBRANCH  15  20
ENDBRANCH   8   9
ENDBRANCH   7   8
ENDBRANCH   1   7
BRANCH   2  22
ATOM     22  O   UNL     1      71.356  41.627   5.742  1.00  0.00    -0.387 OA
ATOM     23  H   UNL     1      70.670  41.164   5.039  1.00  0.00     0.211 HD
ENDBRANCH   2  22
BRANCH   3  24
ATOM     24  O   UNL     1      70.225  39.467   8.417  1.00  0.00    -0.387 OA
ATOM     25  H   UNL     1      70.796  39.904   9.144  1.00  0.00     0.211 HD
ENDBRANCH   3  24
BRANCH   5  26
ATOM     26  O   UNL     1      67.844  43.313   9.246  1.00  0.00    -0.454 OA
BRANCH  26  27
ATOM     27  C   UNL     1      67.221  44.599   9.265  1.00  0.00     0.214 A 
ATOM     28  C   UNL     1      65.750  45.095   9.451  1.00  0.00     0.180 A 
ATOM     29  C   UNL     1      67.903  45.627   8.550  1.00  0.00     0.239 A 
ATOM     30  O   UNL     1      65.579  46.471   9.607  1.00  0.00    -0.452 OA
ATOM     31  C   UNL     1      67.825  46.888   9.124  1.00  0.00     0.111 A 
ATOM     32  O   UNL     1      67.789  45.515   7.300  1.00  0.00    -0.285 OA
ATOM     33  C   UNL     1      66.599  47.370   9.515  1.00  0.00     0.146 A 
ATOM     34  C   UNL     1      68.992  47.538   9.592  1.00  0.00     0.134 A 
ATOM     35  C   UNL     1      66.454  48.702   9.800  1.00  0.00     0.094 A 
ATOM     36  C   UNL     1      68.911  48.888   9.772  1.00  0.00     0.093 A 
ATOM     37  C   UNL     1      67.634  49.532   9.789  1.00  0.00     0.123 A 
BRANCH  28  38
ATOM     38  C   UNL     1      64.483  44.310   9.271  1.00  0.00     0.025 A 
ATOM     39  C   UNL     1      63.318  44.762   9.820  1.00  0.00     0.062 A 
ATOM     40  C   UNL     1      64.483  43.058   8.637  1.00  0.00     0.016 A 
ATOM     41  C   UNL     1      62.096  44.053   9.692  1.00  0.00     0.158 A 
ATOM     42  C   UNL     1      63.237  42.293   8.581  1.00  0.00     0.051 A 
ATOM     43  C   UNL     1      62.086  42.797   9.094  1.00  0.00     0.157 A 
BRANCH  41  44
ATOM     44  O   UNL     1      60.887  44.679  10.112  1.00  0.00    -0.504 OA
ATOM     45  H   UNL     1      60.535  44.606  11.094  1.00  0.00     0.293 HD
ENDBRANCH  41  44
BRANCH  43  46
ATOM     46  O   UNL     1      60.881  42.115   8.971  1.00  0.00    -0.504 OA
ATOM     47  H   UNL     1      60.007  42.553   8.699  1.00  0.00     0.293 HD
ENDBRANCH  43  46
ENDBRANCH  28  38
BRANCH  34  48
ATOM     48  O   UNL     1      70.065  46.791  10.097  1.00  0.00    -0.507 OA
ATOM     49  H   UNL     1      69.855  45.803  10.175  1.00  0.00     0.293 HD
ENDBRANCH  34  48
BRANCH  37  50
ATOM     50  O   UNL     1      67.575  50.914   9.954  1.00  0.00    -0.508 OA
ATOM     51  H   UNL     1      67.142  51.493   9.233  1.00  0.00     0.293 HD
ENDBRANCH  37  50
ENDBRANCH  26  27
ENDBRANCH   5  26
BRANCH   4  52
ATOM     52  O   UNL     1      68.073  41.323   6.276  1.00  0.00    -0.384 OA
ATOM     53  H   UNL     1      67.382  42.016   6.257  1.00  0.00     0.211 HD
ENDBRANCH   4  52
TORSDOF 16
ENDMDL
MODEL 4
REMARK VINA RESULT:    -6.583      2.306      5.764
REMARK INTER + INTRA:         -13.202
REMARK INTER:                 -10.990
REMARK INTRA:                  -2.212
REMARK UNBOUND:                -2.386
REMARK SMILES C[C@@H]1O[C@@H](OC[C@H]2O[C@H](Oc3c(-c4ccc(O)c(O)c4)oc4cc(O)cc(O)c4c3=O)[C@@H](O)[C@H](O)[C@H]2O)[C@H](O)[C@H](O)[C@@H]1O
REMARK SMILES IDX 7 1 36 2 34 3 32 4 9 5 8 6 6 7 5 8 4 9 1 10 2 11 42 12 3 13
REMARK SMILES IDX 40 14 38 15 43 16 41 18 39 20 37 22 35 24 10 26 11 27 12 28
REMARK SMILES IDX 30 29 21 30 29 31 31 32 22 33 27 34 23 35 26 36 24 37 13 38
REMARK SMILES IDX 20 39 14 40 18 41 15 42 16 43 19 44 17 46 28 48 25 50 33 52
REMARK H PARENT 43 17 41 19 39 21 37 23 35 25 19 45 17 47 28 49 25 51 33 53
REMARK Flexibility Score: inf
ROOT
ATOM      1  C   UNL     1      68.628  42.160   8.413  1.00  0.00     0.180 C 
ATOM      2  C   UNL     1      67.967  40.712   8.578  1.00  0.00     0.177 C 
ATOM      3  C   UNL     1      68.944  39.597   8.060  1.00  0.00     0.180 C 
ATOM      4  C   UNL     1      70.457  39.884   8.452  1.00  0.00     0.214 C 
ATOM      5  C   UNL     1      70.861  41.539   8.594  1.00  0.00     0.339 C 
ATOM      6  O   UNL     1      69.971  42.270   7.815  1.00  0.00    -0.332 OA
ENDROOT
BRANCH   1   7
ATOM      7  C   UNL     1      68.470  43.226   9.541  1.00  0.00     0.198 C 
BRANCH   7   8
ATOM      8  O   UNL     1      67.365  44.141   9.329  1.00  0.00    -0.347 OA
BRANCH   8   9
ATOM      9  C   UNL     1      67.738  45.458   8.811  1.00  0.00     0.281 C 
ATOM     10  C   UNL     1      68.748  48.383   9.518  1.00  0.00     0.041 C 
ATOM     11  C   UNL     1      67.367  47.643   9.696  1.00  0.00     0.150 C 
ATOM     12  C   UNL     1      66.166  47.833   8.659  1.00  0.00     0.174 C 
ATOM     13  O   UNL     1      67.689  46.290   9.902  1.00  0.00    -0.344 OA
ATOM     14  C   UNL     1      66.485  47.243   7.317  1.00  0.00     0.179 C 
ATOM     15  C   UNL     1      66.847  45.817   7.498  1.00  0.00     0.202 C 
BRANCH  12  16
ATOM     16  O   UNL     1      65.468  49.066   8.465  1.00  0.00    -0.388 OA
ATOM     17  H   UNL     1      65.723  49.229   7.455  1.00  0.00     0.211 HD
ENDBRANCH  12  16
BRANCH  14  18
ATOM     18  O   UNL     1      67.502  48.029   6.644  1.00  0.00    -0.387 OA
ATOM     19  H   UNL     1      67.356  49.029   6.779  1.00  0.00     0.211 HD
ENDBRANCH  14  18
BRANCH  15  20
ATOM     20  O   UNL     1      67.519  45.328   6.334  1.00  0.00    -0.385 OA
ATOM     21  H   UNL     1      68.219  44.745   6.716  1.00  0.00     0.211 HD
ENDBRANCH  15  20
ENDBRANCH   8   9
ENDBRANCH   7   8
ENDBRANCH   1   7
BRANCH   2  22
ATOM     22  O   UNL     1      67.448  40.530   9.867  1.00  0.00    -0.387 OA
ATOM     23  H   UNL     1      66.894  39.608  10.019  1.00  0.00     0.211 HD
ENDBRANCH   2  22
BRANCH   3  24
ATOM     24  O   UNL     1      68.725  39.350   6.692  1.00  0.00    -0.387 OA
ATOM     25  H   UNL     1      67.731  39.406   6.457  1.00  0.00     0.211 HD
ENDBRANCH   3  24
BRANCH   5  26
ATOM     26  O   UNL     1      72.161  42.039   8.145  1.00  0.00    -0.454 OA
BRANCH  26  27
ATOM     27  C   UNL     1      72.487  42.725   6.934  1.00  0.00     0.214 A 
ATOM     28  C   UNL     1      72.655  42.285   5.444  1.00  0.00     0.180 A 
ATOM     29  C   UNL     1      73.248  43.921   7.087  1.00  0.00     0.239 A 
ATOM     30  O   UNL     1      72.787  43.312   4.509  1.00  0.00    -0.452 OA
ATOM     31  C   UNL     1      72.938  44.930   6.186  1.00  0.00     0.111 A 
ATOM     32  O   UNL     1      74.456  43.702   7.368  1.00  0.00    -0.285 OA
ATOM     33  C   UNL     1      72.863  44.630   4.847  1.00  0.00     0.146 A 
ATOM     34  C   UNL     1      72.401  46.158   6.639  1.00  0.00     0.134 A 
ATOM     35  C   UNL     1      72.857  45.643   3.924  1.00  0.00     0.094 A 
ATOM     36  C   UNL     1      72.489  47.218   5.783  1.00  0.00     0.093 A 
ATOM     37  C   UNL     1      72.814  47.002   4.409  1.00  0.00     0.123 A 
BRANCH  28  38
ATOM     38  C   UNL     1      72.907  40.903   4.914  1.00  0.00     0.025 A 
ATOM     39  C   UNL     1      72.228  39.840   5.436  1.00  0.00     0.062 A 
ATOM     40  C   UNL     1      73.906  40.656   3.961  1.00  0.00     0.016 A 
ATOM     41  C   UNL     1      72.437  38.512   4.983  1.00  0.00     0.158 A 
ATOM     42  C   UNL     1      74.175  39.276   3.557  1.00  0.00     0.051 A 
ATOM     43  C   UNL     1      73.446  38.248   4.060  1.00  0.00     0.157 A 
BRANCH  41  44
ATOM     44  O   UNL     1      71.556  37.484   5.425  1.00  0.00    -0.504 OA
ATOM     45  H   UNL     1      71.452  37.237   6.436  1.00  0.00     0.293 HD
ENDBRANCH  41  44
BRANCH  43  46
ATOM     46  O   UNL     1      73.637  36.943   3.621  1.00  0.00    -0.504 OA
ATOM     47  H   UNL     1      74.497  36.605   3.203  1.00  0.00     0.293 HD
ENDBRANCH  43  46
ENDBRANCH  28  38
BRANCH  34  48
ATOM     48  O   UNL     1      71.587  46.198   7.780  1.00  0.00    -0.507 OA
ATOM     49  H   UNL     1      71.368  47.142   8.075  1.00  0.00     0.293 HD
ENDBRANCH  34  48
BRANCH  37  50
ATOM     50  O   UNL     1      72.919  48.099   3.556  1.00  0.00    -0.508 OA
ATOM     51  H   UNL     1      72.643  48.011   2.578  1.00  0.00     0.293 HD
ENDBRANCH  37  50
ENDBRANCH  26  27
ENDBRANCH   5  26
BRANCH   4  52
ATOM     52  O   UNL     1      70.542  39.276   9.750  1.00  0.00    -0.384 OA
ATOM     53  H   UNL     1      70.573  39.981  10.428  1.00  0.00     0.211 HD
ENDBRANCH   4  52
TORSDOF 16
ENDMDL
MODEL 5
REMARK VINA RESULT:    -6.582      2.274      5.699
REMARK INTER + INTRA:         -13.200
REMARK INTER:                 -10.409
REMARK INTRA:                  -2.791
REMARK UNBOUND:                -2.386
REMARK SMILES C[C@@H]1O[C@@H](OC[C@H]2O[C@H](Oc3c(-c4ccc(O)c(O)c4)oc4cc(O)cc(O)c4c3=O)[C@@H](O)[C@H](O)[C@H]2O)[C@H](O)[C@H](O)[C@@H]1O
REMARK SMILES IDX 7 1 36 2 34 3 32 4 9 5 8 6 6 7 5 8 4 9 1 10 2 11 42 12 3 13
REMARK SMILES IDX 40 14 38 15 43 16 41 18 39 20 37 22 35 24 10 26 11 27 12 28
REMARK SMILES IDX 30 29 21 30 29 31 31 32 22 33 27 34 23 35 26 36 24 37 13 38
REMARK SMILES IDX 20 39 14 40 18 41 15 42 16 43 19 44 17 46 28 48 25 50 33 52
REMARK H PARENT 43 17 41 19 39 21 37 23 35 25 19 45 17 47 28 49 25 51 33 53
REMARK Flexibility Score: inf
ROOT
ATOM      1  C   UNL     1      72.240  45.022   5.697  1.00  0.00     0.180 C 
ATOM      2  C   UNL     1      73.035  45.866   4.594  1.00  0.00     0.177 C 
ATOM      3  C   UNL     1      72.743  47.401   4.757  1.00  0.00     0.180 C 
ATOM      4  C   UNL     1      72.679  47.849   6.279  1.00  0.00     0.214 C 
ATOM      5  C   UNL     1      72.147  46.639   7.364  1.00  0.00     0.339 C 
ATOM      6  O   UNL     1      71.371  45.732   6.653  1.00  0.00    -0.332 OA
ENDROOT
BRANCH   1   7
ATOM      7  C   UNL     1      72.933  43.822   6.414  1.00  0.00     0.198 C 
BRANCH   7   8
ATOM      8  O   UNL     1      73.349  42.764   5.513  1.00  0.00    -0.347 OA
BRANCH   8   9
ATOM      9  C   UNL     1      72.801  41.441   5.812  1.00  0.00     0.281 C 
ATOM     10  C   UNL     1      73.254  38.670   7.294  1.00  0.00     0.041 C 
ATOM     11  C   UNL     1      73.872  39.316   5.995  1.00  0.00     0.150 C 
ATOM     12  C   UNL     1      73.342  38.949   4.534  1.00  0.00     0.174 C 
ATOM     13  O   UNL     1      73.880  40.701   6.231  1.00  0.00    -0.344 OA
ATOM     14  C   UNL     1      71.945  39.447   4.302  1.00  0.00     0.179 C 
ATOM     15  C   UNL     1      71.911  40.906   4.559  1.00  0.00     0.202 C 
BRANCH  12  16
ATOM     16  O   UNL     1      73.472  37.654   3.940  1.00  0.00    -0.388 OA
ATOM     17  H   UNL     1      72.506  37.290   4.151  1.00  0.00     0.211 HD
ENDBRANCH  12  16
BRANCH  14  18
ATOM     18  O   UNL     1      70.997  38.686   5.094  1.00  0.00    -0.387 OA
ATOM     19  H   UNL     1      70.874  37.741   4.731  1.00  0.00     0.211 HD
ENDBRANCH  14  18
BRANCH  15  20
ATOM     20  O   UNL     1      70.561  41.345   4.729  1.00  0.00    -0.385 OA
ATOM     21  H   UNL     1      70.122  40.552   5.124  1.00  0.00     0.211 HD
ENDBRANCH  15  20
ENDBRANCH   8   9
ENDBRANCH   7   8
ENDBRANCH   1   7
BRANCH   2  22
ATOM     22  O   UNL     1      74.386  45.496   4.542  1.00  0.00    -0.387 OA
ATOM     23  H   UNL     1      74.728  45.122   3.582  1.00  0.00     0.211 HD
ENDBRANCH   2  22
BRANCH   3  24
ATOM     24  O   UNL     1      71.626  47.771   3.985  1.00  0.00    -0.387 OA
ATOM     25  H   UNL     1      70.810  47.197   4.208  1.00  0.00     0.211 HD
ENDBRANCH   3  24
BRANCH   5  26
ATOM     26  O   UNL     1      71.287  46.971   8.501  1.00  0.00    -0.454 OA
BRANCH  26  27
ATOM     27  C   UNL     1      69.881  46.760   8.651  1.00  0.00     0.214 A 
ATOM     28  C   UNL     1      68.982  45.494   8.834  1.00  0.00     0.180 A 
ATOM     29  C   UNL     1      69.042  47.771   8.098  1.00  0.00     0.239 A 
ATOM     30  O   UNL     1      67.645  45.729   9.150  1.00  0.00    -0.452 OA
ATOM     31  C   UNL     1      67.884  48.028   8.818  1.00  0.00     0.111 A 
ATOM     32  O   UNL     1      68.983  47.726   6.840  1.00  0.00    -0.285 OA
ATOM     33  C   UNL     1      67.095  46.974   9.213  1.00  0.00     0.146 A 
ATOM     34  C   UNL     1      67.674  49.295   9.412  1.00  0.00     0.134 A 
ATOM     35  C   UNL     1      65.819  47.211   9.653  1.00  0.00     0.094 A 
ATOM     36  C   UNL     1      66.389  49.606   9.753  1.00  0.00     0.093 A 
ATOM     37  C   UNL     1      65.393  48.582   9.794  1.00  0.00     0.123 A 
BRANCH  28  38
ATOM     38  C   UNL     1      69.321  44.069   8.505  1.00  0.00     0.025 A 
ATOM     39  C   UNL     1      68.494  43.342   7.697  1.00  0.00     0.062 A 
ATOM     40  C   UNL     1      70.417  43.423   9.095  1.00  0.00     0.016 A 
ATOM     41  C   UNL     1      68.759  41.989   7.365  1.00  0.00     0.158 A 
ATOM     42  C   UNL     1      70.638  42.004   8.815  1.00  0.00     0.051 A 
ATOM     43  C   UNL     1      69.825  41.326   7.967  1.00  0.00     0.157 A 
BRANCH  41  44
ATOM     44  O   UNL     1      67.970  41.356   6.361  1.00  0.00    -0.504 OA
ATOM     45  H   UNL     1      67.019  40.970   6.562  1.00  0.00     0.293 HD
ENDBRANCH  41  44
BRANCH  43  46
ATOM     46  O   UNL     1      70.075  40.000   7.629  1.00  0.00    -0.504 OA
ATOM     47  H   UNL     1      70.460  39.315   8.271  1.00  0.00     0.293 HD
ENDBRANCH  43  46
ENDBRANCH  28  38
BRANCH  34  48
ATOM     48  O   UNL     1      68.761  50.054   9.867  1.00  0.00    -0.507 OA
ATOM     49  H   UNL     1      68.756  50.187  10.871  1.00  0.00     0.293 HD
ENDBRANCH  34  48
BRANCH  37  50
ATOM     50  O   UNL     1      64.083  48.924  10.124  1.00  0.00    -0.508 OA
ATOM     51  H   UNL     1      63.304  48.422   9.698  1.00  0.00     0.293 HD
ENDBRANCH  37  50
ENDBRANCH  26  27
ENDBRANCH   5  26
BRANCH   4  52
ATOM     52  O   UNL     1      74.058  48.140   6.555  1.00  0.00    -0.384 OA
ATOM     53  H   UNL     1      74.364  47.563   7.283  1.00  0.00     0.211 HD
ENDBRANCH   4  52
TORSDOF 16
ENDMDL
MODEL 6
REMARK VINA RESULT:    -6.537      1.832      7.135
REMARK INTER + INTRA:         -13.127
REMARK INTER:                 -11.165
REMARK INTRA:                  -1.962
REMARK UNBOUND:                -2.386
REMARK SMILES C[C@@H]1O[C@@H](OC[C@H]2O[C@H](Oc3c(-c4ccc(O)c(O)c4)oc4cc(O)cc(O)c4c3=O)[C@@H](O)[C@H](O)[C@H]2O)[C@H](O)[C@H](O)[C@@H]1O
REMARK SMILES IDX 7 1 36 2 34 3 32 4 9 5 8 6 6 7 5 8 4 9 1 10 2 11 42 12 3 13
REMARK SMILES IDX 40 14 38 15 43 16 41 18 39 20 37 22 35 24 10 26 11 27 12 28
REMARK SMILES IDX 30 29 21 30 29 31 31 32 22 33 27 34 23 35 26 36 24 37 13 38
REMARK SMILES IDX 20 39 14 40 18 41 15 42 16 43 19 44 17 46 28 48 25 50 33 52
REMARK H PARENT 43 17 41 19 39 21 37 23 35 25 19 45 17 47 28 49 25 51 33 53
REMARK Flexibility Score: inf
ROOT
ATOM      1  C   UNL     1      71.535  42.094   7.391  1.00  0.00     0.180 C 
ATOM      2  C   UNL     1      72.903  42.922   7.428  1.00  0.00     0.177 C 
ATOM      3  C   UNL     1      72.738  44.294   6.682  1.00  0.00     0.180 C 
ATOM      4  C   UNL     1      71.331  44.975   6.965  1.00  0.00     0.214 C 
ATOM      5  C   UNL     1      70.055  43.883   7.283  1.00  0.00     0.339 C 
ATOM      6  O   UNL     1      70.370  42.665   6.691  1.00  0.00    -0.332 OA
ENDROOT
BRANCH   1   7
ATOM      7  C   UNL     1      71.053  41.320   8.658  1.00  0.00     0.198 C 
BRANCH   7   8
ATOM      8  O   UNL     1      71.626  39.993   8.785  1.00  0.00    -0.347 OA
BRANCH   8   9
ATOM      9  C   UNL     1      71.200  39.032   7.768  1.00  0.00     0.281 C 
ATOM     10  C   UNL     1      72.064  37.284   5.262  1.00  0.00     0.041 C 
ATOM     11  C   UNL     1      71.805  38.826   5.468  1.00  0.00     0.150 C 
ATOM     12  C   UNL     1      70.419  39.512   5.067  1.00  0.00     0.174 C 
ATOM     13  O   UNL     1      72.171  39.093   6.799  1.00  0.00    -0.344 OA
ATOM     14  C   UNL     1      69.290  39.049   5.940  1.00  0.00     0.179 C 
ATOM     15  C   UNL     1      69.649  39.301   7.356  1.00  0.00     0.202 C 
BRANCH  12  16
ATOM     16  O   UNL     1      69.945  39.622   3.722  1.00  0.00    -0.388 OA
ATOM     17  H   UNL     1      70.869  39.525   3.224  1.00  0.00     0.211 HD
ENDBRANCH  12  16
BRANCH  14  18
ATOM     18  O   UNL     1      68.959  37.666   5.652  1.00  0.00    -0.387 OA
ATOM     19  H   UNL     1      69.778  37.061   5.711  1.00  0.00     0.211 HD
ENDBRANCH  14  18
BRANCH  15  20
ATOM     20  O   UNL     1      68.801  38.542   8.222  1.00  0.00    -0.385 OA
ATOM     21  H   UNL     1      67.949  38.513   7.721  1.00  0.00     0.211 HD
ENDBRANCH  15  20
ENDBRANCH   8   9
ENDBRANCH   7   8
ENDBRANCH   1   7
BRANCH   2  22
ATOM     22  O   UNL     1      73.430  42.983   8.725  1.00  0.00    -0.387 OA
ATOM     23  H   UNL     1      74.298  42.356   8.904  1.00  0.00     0.211 HD
ENDBRANCH   2  22
BRANCH   3  24
ATOM     24  O   UNL     1      73.062  44.153   5.320  1.00  0.00    -0.387 OA
ATOM     25  H   UNL     1      73.526  43.260   5.136  1.00  0.00     0.211 HD
ENDBRANCH   3  24
BRANCH   5  26
ATOM     26  O   UNL     1      68.703  44.138   6.784  1.00  0.00    -0.454 OA
BRANCH  26  27
ATOM     27  C   UNL     1      67.632  44.840   7.419  1.00  0.00     0.214 A 
ATOM     28  C   UNL     1      67.370  46.341   7.771  1.00  0.00     0.180 A 
ATOM     29  C   UNL     1      66.839  44.073   8.321  1.00  0.00     0.239 A 
ATOM     30  O   UNL     1      66.089  46.653   8.223  1.00  0.00    -0.452 OA
ATOM     31  C   UNL     1      65.490  44.399   8.335  1.00  0.00     0.111 A 
ATOM     32  O   UNL     1      67.423  43.840   9.413  1.00  0.00    -0.285 OA
ATOM     33  C   UNL     1      65.122  45.719   8.446  1.00  0.00     0.146 A 
ATOM     34  C   UNL     1      64.518  43.454   7.929  1.00  0.00     0.134 A 
ATOM     35  C   UNL     1      63.827  46.038   8.760  1.00  0.00     0.094 A 
ATOM     36  C   UNL     1      63.234  43.685   8.329  1.00  0.00     0.093 A 
ATOM     37  C   UNL     1      62.866  44.965   8.849  1.00  0.00     0.123 A 
BRANCH  28  38
ATOM     38  C   UNL     1      68.377  47.449   7.889  1.00  0.00     0.025 A 
ATOM     39  C   UNL     1      68.794  48.111   6.770  1.00  0.00     0.062 A 
ATOM     40  C   UNL     1      68.987  47.755   9.114  1.00  0.00     0.016 A 
ATOM     41  C   UNL     1      69.753  49.155   6.823  1.00  0.00     0.158 A 
ATOM     42  C   UNL     1      70.034  48.776   9.149  1.00  0.00     0.051 A 
ATOM     43  C   UNL     1      70.388  49.450   8.026  1.00  0.00     0.157 A 
BRANCH  41  44
ATOM     44  O   UNL     1      69.990  49.936   5.655  1.00  0.00    -0.504 OA
ATOM     45  H   UNL     1      69.640  49.646   4.712  1.00  0.00     0.293 HD
ENDBRANCH  41  44
BRANCH  43  46
ATOM     46  O   UNL     1      71.323  50.478   8.064  1.00  0.00    -0.504 OA
ATOM     47  H   UNL     1      71.969  50.685   7.310  1.00  0.00     0.293 HD
ENDBRANCH  43  46
ENDBRANCH  28  38
BRANCH  34  48
ATOM     48  O   UNL     1      64.823  42.501   6.947  1.00  0.00    -0.507 OA
ATOM     49  H   UNL     1      64.418  41.593   7.139  1.00  0.00     0.293 HD
ENDBRANCH  34  48
BRANCH  37  50
ATOM     50  O   UNL     1      61.555  45.174   9.271  1.00  0.00    -0.508 OA
ATOM     51  H   UNL     1      61.259  46.104   9.569  1.00  0.00     0.293 HD
ENDBRANCH  37  50
ENDBRANCH  26  27
ENDBRANCH   5  26
BRANCH   4  52
ATOM     52  O   UNL     1      71.605  45.723   8.160  1.00  0.00    -0.384 OA
ATOM     53  H   UNL     1      72.290  45.253   8.678  1.00  0.00     0.211 HD
ENDBRANCH   4  52
TORSDOF 16
ENDMDL
MODEL 7
REMARK VINA RESULT:    -6.342      1.845      6.111
REMARK INTER + INTRA:         -12.807
REMARK INTER:                  -9.792
REMARK INTRA:                  -3.015
REMARK UNBOUND:                -2.386
REMARK SMILES C[C@@H]1O[C@@H](OC[C@H]2O[C@H](Oc3c(-c4ccc(O)c(O)c4)oc4cc(O)cc(O)c4c3=O)[C@@H](O)[C@H](O)[C@H]2O)[C@H](O)[C@H](O)[C@@H]1O
REMARK SMILES IDX 7 1 36 2 34 3 32 4 9 5 8 6 6 7 5 8 4 9 1 10 2 11 42 12 3 13
REMARK SMILES IDX 40 14 38 15 43 16 41 18 39 20 37 22 35 24 10 26 11 27 12 28
REMARK SMILES IDX 30 29 21 30 29 31 31 32 22 33 27 34 23 35 26 36 24 37 13 38
REMARK SMILES IDX 20 39 14 40 18 41 15 42 16 43 19 44 17 46 28 48 25 50 33 52
REMARK H PARENT 43 17 41 19 39 21 37 23 35 25 19 45 17 47 28 49 25 51 33 53
REMARK Flexibility Score: inf
ROOT
ATOM      1  C   UNL     1      68.861  47.979   8.122  1.00  0.00     0.180 C 
ATOM      2  C   UNL     1      67.481  48.500   8.740  1.00  0.00     0.177 C 
ATOM      3  C   UNL     1      66.285  47.607   8.250  1.00  0.00     0.180 C 
ATOM      4  C   UNL     1      66.658  46.064   8.199  1.00  0.00     0.214 C 
ATOM      5  C   UNL     1      68.307  45.733   7.889  1.00  0.00     0.339 C 
ATOM      6  O   UNL     1      68.846  46.820   7.210  1.00  0.00    -0.332 OA
ENDROOT
BRANCH   1   7
ATOM      7  C   UNL     1      70.147  47.930   9.005  1.00  0.00     0.198 C 
BRANCH   7   8
ATOM      8  O   UNL     1      71.236  48.742   8.495  1.00  0.00    -0.347 OA
BRANCH   8   9
ATOM      9  C   UNL     1      72.230  48.020   7.700  1.00  0.00     0.281 C 
ATOM     10  C   UNL     1      73.650  47.739   4.874  1.00  0.00     0.041 C 
ATOM     11  C   UNL     1      72.212  47.367   5.405  1.00  0.00     0.150 C 
ATOM     12  C   UNL     1      71.837  45.881   5.856  1.00  0.00     0.174 C 
ATOM     13  O   UNL     1      71.919  48.319   6.396  1.00  0.00    -0.344 OA
ATOM     14  C   UNL     1      72.570  45.469   7.099  1.00  0.00     0.179 C 
ATOM     15  C   UNL     1      72.297  46.463   8.164  1.00  0.00     0.202 C 
BRANCH  12  16
ATOM     16  O   UNL     1      71.785  44.765   4.962  1.00  0.00    -0.388 OA
ATOM     17  H   UNL     1      70.737  44.684   4.878  1.00  0.00     0.211 HD
ENDBRANCH  12  16
BRANCH  14  18
ATOM     18  O   UNL     1      73.981  45.279   6.817  1.00  0.00    -0.387 OA
ATOM     19  H   UNL     1      74.290  45.852   6.032  1.00  0.00     0.211 HD
ENDBRANCH  14  18
BRANCH  15  20
ATOM     20  O   UNL     1      73.257  46.333   9.217  1.00  0.00    -0.385 OA
ATOM     21  H   UNL     1      74.053  45.987   8.744  1.00  0.00     0.211 HD
ENDBRANCH  15  20
ENDBRANCH   8   9
ENDBRANCH   7   8
ENDBRANCH   1   7
BRANCH   2  22
ATOM     22  O   UNL     1      67.581  48.693  10.125  1.00  0.00    -0.387 OA
ATOM     23  H   UNL     1      68.451  49.252  10.455  1.00  0.00     0.211 HD
ENDBRANCH   2  22
BRANCH   3  24
ATOM     24  O   UNL     1      65.745  48.124   7.058  1.00  0.00    -0.387 OA
ATOM     25  H   UNL     1      65.390  47.379   6.453  1.00  0.00     0.211 HD
ENDBRANCH   3  24
BRANCH   5  26
ATOM     26  O   UNL     1      68.704  44.604   7.047  1.00  0.00    -0.454 OA
BRANCH  26  27
ATOM     27  C   UNL     1      68.760  43.215   7.380  1.00  0.00     0.214 A 
ATOM     28  C   UNL     1      67.690  42.145   7.772  1.00  0.00     0.180 A 
ATOM     29  C   UNL     1      69.999  42.757   7.914  1.00  0.00     0.239 A 
ATOM     30  O   UNL     1      68.133  40.824   7.830  1.00  0.00    -0.452 OA
ATOM     31  C   UNL     1      70.357  41.470   7.538  1.00  0.00     0.111 A 
ATOM     32  O   UNL     1      70.185  43.120   9.106  1.00  0.00    -0.285 OA
ATOM     33  C   UNL     1      69.434  40.459   7.652  1.00  0.00     0.146 A 
ATOM     34  C   UNL     1      71.519  41.245   6.762  1.00  0.00     0.134 A 
ATOM     35  C   UNL     1      69.844  39.154   7.576  1.00  0.00     0.094 A 
ATOM     36  C   UNL     1      72.020  39.976   6.763  1.00  0.00     0.093 A 
ATOM     37  C   UNL     1      71.228  38.895   7.260  1.00  0.00     0.123 A 
BRANCH  28  38
ATOM     38  C   UNL     1      66.304  42.378   8.301  1.00  0.00     0.025 A 
ATOM     39  C   UNL     1      65.359  42.954   7.502  1.00  0.00     0.062 A 
ATOM     40  C   UNL     1      65.979  42.114   9.640  1.00  0.00     0.016 A 
ATOM     41  C   UNL     1      64.039  43.210   7.956  1.00  0.00     0.158 A 
ATOM     42  C   UNL     1      64.641  42.456  10.124  1.00  0.00     0.051 A 
ATOM     43  C   UNL     1      63.711  42.982   9.289  1.00  0.00     0.157 A 
BRANCH  41  44
ATOM     44  O   UNL     1      63.053  43.622   7.014  1.00  0.00    -0.504 OA
ATOM     45  H   UNL     1      62.932  43.147   6.090  1.00  0.00     0.293 HD
ENDBRANCH  41  44
BRANCH  43  46
ATOM     46  O   UNL     1      62.412  43.233   9.718  1.00  0.00    -0.504 OA
ATOM     47  H   UNL     1      61.586  42.834   9.286  1.00  0.00     0.293 HD
ENDBRANCH  43  46
ENDBRANCH  28  38
BRANCH  34  48
ATOM     48  O   UNL     1      71.952  42.208   5.839  1.00  0.00    -0.507 OA
ATOM     49  H   UNL     1      71.261  42.410   5.127  1.00  0.00     0.293 HD
ENDBRANCH  34  48
BRANCH  37  50
ATOM     50  O   UNL     1      71.766  37.610   7.271  1.00  0.00    -0.508 OA
ATOM     51  H   UNL     1      71.159  36.806   7.437  1.00  0.00     0.293 HD
ENDBRANCH  37  50
ENDBRANCH  26  27
ENDBRANCH   5  26
BRANCH   4  52
ATOM     52  O   UNL     1      66.348  45.645   9.537  1.00  0.00    -0.384 OA
ATOM     53  H   UNL     1      67.068  45.933  10.134  1.00  0.00     0.211 HD
ENDBRANCH   4  52
TORSDOF 16
ENDMDL
MODEL 8
REMARK VINA RESULT:    -6.322      1.715      4.841
REMARK INTER + INTRA:         -12.774
REMARK INTER:                 -10.469
REMARK INTRA:                  -2.305
REMARK UNBOUND:                -2.386
REMARK SMILES C[C@@H]1O[C@@H](OC[C@H]2O[C@H](Oc3c(-c4ccc(O)c(O)c4)oc4cc(O)cc(O)c4c3=O)[C@@H](O)[C@H](O)[C@H]2O)[C@H](O)[C@H](O)[C@@H]1O
REMARK SMILES IDX 7 1 36 2 34 3 32 4 9 5 8 6 6 7 5 8 4 9 1 10 2 11 42 12 3 13
REMARK SMILES IDX 40 14 38 15 43 16 41 18 39 20 37 22 35 24 10 26 11 27 12 28
REMARK SMILES IDX 30 29 21 30 29 31 31 32 22 33 27 34 23 35 26 36 24 37 13 38
REMARK SMILES IDX 20 39 14 40 18 41 15 42 16 43 19 44 17 46 28 48 25 50 33 52
REMARK H PARENT 43 17 41 19 39 21 37 23 35 25 19 45 17 47 28 49 25 51 33 53
REMARK Flexibility Score: inf
ROOT
ATOM      1  C   UNL     1      73.140  45.974   5.714  1.00  0.00     0.180 C 
ATOM      2  C   UNL     1      73.695  44.974   4.595  1.00  0.00     0.177 C 
ATOM      3  C   UNL     1      73.176  43.513   4.854  1.00  0.00     0.180 C 
ATOM      4  C   UNL     1      71.664  43.482   5.337  1.00  0.00     0.214 C 
ATOM      5  C   UNL     1      71.161  44.861   6.216  1.00  0.00     0.339 C 
ATOM      6  O   UNL     1      72.286  45.441   6.791  1.00  0.00    -0.332 OA
ENDROOT
BRANCH   1   7
ATOM      7  C   UNL     1      72.645  47.399   5.314  1.00  0.00     0.198 C 
BRANCH   7   8
ATOM      8  O   UNL     1      72.979  48.426   6.283  1.00  0.00    -0.347 OA
BRANCH   8   9
ATOM      9  C   UNL     1      71.858  48.908   7.090  1.00  0.00     0.281 C 
ATOM     10  C   UNL     1      70.824  49.642  10.000  1.00  0.00     0.041 C 
ATOM     11  C   UNL     1      71.123  48.276   9.271  1.00  0.00     0.150 C 
ATOM     12  C   UNL     1      69.964  47.404   8.602  1.00  0.00     0.174 C 
ATOM     13  O   UNL     1      72.173  48.550   8.378  1.00  0.00    -0.344 OA
ATOM     14  C   UNL     1      69.365  48.087   7.408  1.00  0.00     0.179 C 
ATOM     15  C   UNL     1      70.449  48.406   6.449  1.00  0.00     0.202 C 
BRANCH  12  16
ATOM     16  O   UNL     1      68.917  46.769   9.341  1.00  0.00    -0.388 OA
ATOM     17  H   UNL     1      69.515  46.219  10.014  1.00  0.00     0.211 HD
ENDBRANCH  12  16
BRANCH  14  18
ATOM     18  O   UNL     1      68.584  49.238   7.819  1.00  0.00    -0.387 OA
ATOM     19  H   UNL     1      68.356  49.204   8.813  1.00  0.00     0.211 HD
ENDBRANCH  14  18
BRANCH  15  20
ATOM     20  O   UNL     1      69.998  49.379   5.502  1.00  0.00    -0.385 OA
ATOM     21  H   UNL     1      70.351  49.030   4.647  1.00  0.00     0.211 HD
ENDBRANCH  15  20
ENDBRANCH   8   9
ENDBRANCH   7   8
ENDBRANCH   1   7
BRANCH   2  22
ATOM     22  O   UNL     1      73.492  45.483   3.306  1.00  0.00    -0.387 OA
ATOM     23  H   UNL     1      72.658  45.049   2.761  1.00  0.00     0.211 HD
ENDBRANCH   2  22
BRANCH   3  24
ATOM     24  O   UNL     1      74.075  42.813   5.679  1.00  0.00    -0.387 OA
ATOM     25  H   UNL     1      73.654  42.586   6.583  1.00  0.00     0.211 HD
ENDBRANCH   3  24
BRANCH   5  26
ATOM     26  O   UNL     1      70.249  44.739   7.353  1.00  0.00    -0.454 OA
BRANCH  26  27
ATOM     27  C   UNL     1      69.543  43.585   7.816  1.00  0.00     0.214 A 
ATOM     28  C   UNL     1      68.031  43.221   7.967  1.00  0.00     0.180 A 
ATOM     29  C   UNL     1      70.249  42.758   8.738  1.00  0.00     0.239 A 
ATOM     30  O   UNL     1      67.745  41.892   8.278  1.00  0.00    -0.452 OA
ATOM     31  C   UNL     1      70.003  41.398   8.608  1.00  0.00     0.111 A 
ATOM     32  O   UNL     1      70.322  43.259   9.891  1.00  0.00    -0.285 OA
ATOM     33  C   UNL     1      68.703  40.958   8.534  1.00  0.00     0.146 A 
ATOM     34  C   UNL     1      71.043  40.511   8.241  1.00  0.00     0.134 A 
ATOM     35  C   UNL     1      68.427  39.627   8.707  1.00  0.00     0.094 A 
ATOM     36  C   UNL     1      70.844  39.188   8.511  1.00  0.00     0.093 A 
ATOM     37  C   UNL     1      69.538  38.716   8.846  1.00  0.00     0.123 A 
BRANCH  28  38
ATOM     38  C   UNL     1      66.859  44.159   8.032  1.00  0.00     0.025 A 
ATOM     39  C   UNL     1      66.953  45.404   7.481  1.00  0.00     0.062 A 
ATOM     40  C   UNL     1      65.696  43.827   8.741  1.00  0.00     0.016 A 
ATOM     41  C   UNL     1      65.883  46.334   7.526  1.00  0.00     0.158 A 
ATOM     42  C   UNL     1      64.627  44.820   8.855  1.00  0.00     0.051 A 
ATOM     43  C   UNL     1      64.735  46.031   8.252  1.00  0.00     0.157 A 
BRANCH  41  44
ATOM     44  O   UNL     1      65.975  47.532   6.759  1.00  0.00    -0.504 OA
ATOM     45  H   UNL     1      66.151  48.463   7.202  1.00  0.00     0.293 HD
ENDBRANCH  41  44
BRANCH  43  46
ATOM     46  O   UNL     1      63.692  46.949   8.284  1.00  0.00    -0.504 OA
ATOM     47  H   UNL     1      62.887  46.872   8.897  1.00  0.00     0.293 HD
ENDBRANCH  43  46
ENDBRANCH  28  38
BRANCH  34  48
ATOM     48  O   UNL     1      72.081  40.945   7.405  1.00  0.00    -0.507 OA
ATOM     49  H   UNL     1      72.826  40.263   7.315  1.00  0.00     0.293 HD
ENDBRANCH  34  48
BRANCH  37  50
ATOM     50  O   UNL     1      69.360  37.365   9.138  1.00  0.00    -0.508 OA
ATOM     51  H   UNL     1      68.705  37.085   9.868  1.00  0.00     0.293 HD
ENDBRANCH  37  50
ENDBRANCH  26  27
ENDBRANCH   5  26
BRANCH   4  52
ATOM     52  O   UNL     1      70.958  43.451   4.087  1.00  0.00    -0.384 OA
ATOM     53  H   UNL     1      71.583  43.666   3.365  1.00  0.00     0.211 HD
ENDBRANCH   4  52
TORSDOF 16
ENDMDL
MODEL 9
REMARK VINA RESULT:    -6.180      1.730      6.423
REMARK INTER + INTRA:         -12.539
REMARK INTER:                 -10.721
REMARK INTRA:                  -1.819
REMARK UNBOUND:                -2.386
REMARK SMILES C[C@@H]1O[C@@H](OC[C@H]2O[C@H](Oc3c(-c4ccc(O)c(O)c4)oc4cc(O)cc(O)c4c3=O)[C@@H](O)[C@H](O)[C@H]2O)[C@H](O)[C@H](O)[C@@H]1O
REMARK SMILES IDX 7 1 36 2 34 3 32 4 9 5 8 6 6 7 5 8 4 9 1 10 2 11 42 12 3 13
REMARK SMILES IDX 40 14 38 15 43 16 41 18 39 20 37 22 35 24 10 26 11 27 12 28
REMARK SMILES IDX 30 29 21 30 29 31 31 32 22 33 27 34 23 35 26 36 24 37 13 38
REMARK SMILES IDX 20 39 14 40 18 41 15 42 16 43 19 44 17 46 28 48 25 50 33 52
REMARK H PARENT 43 17 41 19 39 21 37 23 35 25 19 45 17 47 28 49 25 51 33 53
REMARK Flexibility Score: inf
ROOT
ATOM      1  C   UNL     1      67.356  41.506   7.917  1.00  0.00     0.180 C 
ATOM      2  C   UNL     1      68.192  40.155   8.101  1.00  0.00     0.177 C 
ATOM      3  C   UNL     1      69.551  40.236   7.316  1.00  0.00     0.180 C 
ATOM      4  C   UNL     1      70.228  41.669   7.419  1.00  0.00     0.214 C 
ATOM      5  C   UNL     1      69.134  42.970   7.602  1.00  0.00     0.339 C 
ATOM      6  O   UNL     1      67.908  42.582   7.074  1.00  0.00    -0.332 OA
ENDROOT
BRANCH   1   7
ATOM      7  C   UNL     1      66.601  42.131   9.132  1.00  0.00     0.198 C 
BRANCH   7   8
ATOM      8  O   UNL     1      65.263  42.592   8.813  1.00  0.00    -0.347 OA
BRANCH   8   9
ATOM      9  C   UNL     1      65.170  43.991   8.395  1.00  0.00     0.281 C 
ATOM     10  C   UNL     1      66.167  46.965   8.891  1.00  0.00     0.041 C 
ATOM     11  C   UNL     1      65.194  46.004   9.678  1.00  0.00     0.150 C 
ATOM     12  C   UNL     1      63.606  46.095   9.520  1.00  0.00     0.174 C 
ATOM     13  O   UNL     1      65.682  44.706   9.450  1.00  0.00    -0.344 OA
ATOM     14  C   UNL     1      63.154  45.683   8.150  1.00  0.00     0.179 C 
ATOM     15  C   UNL     1      63.667  44.322   7.868  1.00  0.00     0.202 C 
BRANCH  12  16
ATOM     16  O   UNL     1      62.826  47.216   9.944  1.00  0.00    -0.388 OA
ATOM     17  H   UNL     1      62.078  46.692  10.471  1.00  0.00     0.211 HD
ENDBRANCH  12  16
BRANCH  14  18
ATOM     18  O   UNL     1      63.544  46.676   7.166  1.00  0.00    -0.387 OA
ATOM     19  H   UNL     1      63.100  47.577   7.342  1.00  0.00     0.211 HD
ENDBRANCH  14  18
BRANCH  15  20
ATOM     20  O   UNL     1      63.597  44.049   6.466  1.00  0.00    -0.385 OA
ATOM     21  H   UNL     1      64.110  44.796   6.073  1.00  0.00     0.211 HD
ENDBRANCH  15  20
ENDBRANCH   8   9
ENDBRANCH   7   8
ENDBRANCH   1   7
BRANCH   2  22
ATOM     22  O   UNL     1      68.280  39.786   9.450  1.00  0.00    -0.387 OA
ATOM     23  H   UNL     1      68.104  38.734   9.656  1.00  0.00     0.211 HD
ENDBRANCH   2  22
BRANCH   3  24
ATOM     24  O   UNL     1      69.388  39.752   6.005  1.00  0.00    -0.387 OA
ATOM     25  H   UNL     1      68.413  39.508   5.814  1.00  0.00     0.211 HD
ENDBRANCH   3  24
BRANCH   5  26
ATOM     26  O   UNL     1      69.372  44.254   6.942  1.00  0.00    -0.454 OA
BRANCH  26  27
ATOM     27  C   UNL     1      70.446  45.177   7.139  1.00  0.00     0.214 A 
ATOM     28  C   UNL     1      71.980  45.144   6.840  1.00  0.00     0.180 A 
ATOM     29  C   UNL     1      70.263  46.122   8.191  1.00  0.00     0.239 A 
ATOM     30  O   UNL     1      72.665  46.347   7.005  1.00  0.00    -0.452 OA
ATOM     31  C   UNL     1      70.794  47.380   7.943  1.00  0.00     0.111 A 
ATOM     32  O   UNL     1      70.398  45.615   9.336  1.00  0.00    -0.285 OA
ATOM     33  C   UNL     1      72.086  47.482   7.486  1.00  0.00     0.146 A 
ATOM     34  C   UNL     1      69.949  48.512   7.853  1.00  0.00     0.134 A 
ATOM     35  C   UNL     1      72.723  48.694   7.521  1.00  0.00     0.094 A 
ATOM     36  C   UNL     1      70.541  49.732   8.003  1.00  0.00     0.093 A 
ATOM     37  C   UNL     1      71.964  49.850   7.934  1.00  0.00     0.123 A 
BRANCH  28  38
ATOM     38  C   UNL     1      72.847  43.940   6.606  1.00  0.00     0.025 A 
ATOM     39  C   UNL     1      72.894  43.366   5.369  1.00  0.00     0.062 A 
ATOM     40  C   UNL     1      73.536  43.320   7.659  1.00  0.00     0.016 A 
ATOM     41  C   UNL     1      73.686  42.221   5.096  1.00  0.00     0.158 A 
ATOM     42  C   UNL     1      74.284  42.092   7.389  1.00  0.00     0.051 A 
ATOM     43  C   UNL     1      74.350  41.576   6.136  1.00  0.00     0.157 A 
BRANCH  41  44
ATOM     44  O   UNL     1      73.847  41.797   3.745  1.00  0.00    -0.504 OA
ATOM     45  H   UNL     1      73.977  42.478   2.961  1.00  0.00     0.293 HD
ENDBRANCH  41  44
BRANCH  43  46
ATOM     46  O   UNL     1      75.125  40.457   5.854  1.00  0.00    -0.504 OA
ATOM     47  H   UNL     1      75.307  40.116   4.916  1.00  0.00     0.293 HD
ENDBRANCH  43  46
ENDBRANCH  28  38
BRANCH  34  48
ATOM     48  O   UNL     1      68.641  48.382   7.364  1.00  0.00    -0.507 OA
ATOM     49  H   UNL     1      68.041  49.152   7.635  1.00  0.00     0.293 HD
ENDBRANCH  34  48
BRANCH  37  50
ATOM     50  O   UNL     1      72.550  51.101   8.110  1.00  0.00    -0.508 OA
ATOM     51  H   UNL     1      72.189  51.907   7.598  1.00  0.00     0.293 HD
ENDBRANCH  37  50
ENDBRANCH  26  27
ENDBRANCH   5  26
BRANCH   4  52
ATOM     52  O   UNL     1      70.998  41.542   8.624  1.00  0.00    -0.384 OA
ATOM     53  H   UNL     1      71.680  42.243   8.640  1.00  0.00     0.211 HD
ENDBRANCH   4  52
TORSDOF 16
ENDMDL
