MODEL 1
REMARK VINA RESULT:    -6.027      0.000      0.000
REMARK INTER + INTRA:          -7.159
REMARK INTER:                  -6.908
REMARK INTRA:                  -0.251
REMARK UNBOUND:                -0.251
REMARK SMILES O=C([O-])C=Cc1ccc(O)cc1
REMARK SMILES IDX 6 1 7 2 12 3 8 4 11 5 9 6 5 7 4 8 2 9 1 10 3 11 10 12
REMARK H PARENT 10 13
REMARK Flexibility Score: inf
ROOT
ATOM      1  C   UNL     1     -11.808   0.414 -10.374  1.00  0.00    -0.025 A 
ATOM      2  C   UNL     1     -13.108  -0.068 -10.584  1.00  0.00     0.012 A 
ATOM      3  C   UNL     1     -11.622   1.592  -9.628  1.00  0.00     0.012 A 
ATOM      4  C   UNL     1     -14.204   0.587 -10.013  1.00  0.00     0.047 A 
ATOM      5  C   UNL     1     -12.720   2.244  -9.058  1.00  0.00     0.047 A 
ATOM      6  C   UNL     1     -14.014   1.741  -9.246  1.00  0.00     0.115 A 
ENDROOT
BRANCH   1   7
ATOM      7  C   UNL     1     -10.670  -0.263 -11.031  1.00  0.00     0.010 C 
ATOM      8  C   UNL     1     -10.023  -1.337 -10.553  1.00  0.00     0.025 C 
BRANCH   8   9
ATOM      9  C   UNL     1     -10.434  -2.144  -9.388  1.00  0.00     0.064 C 
ATOM     10  O   UNL     1     -11.214  -3.126  -9.509  1.00  0.00    -0.545 OA
ATOM     11  O   UNL     1      -9.893  -1.858  -8.141  1.00  0.00    -0.545 OA
ENDBRANCH   8   9
ENDBRANCH   1   7
BRANCH   6  12
ATOM     12  O   UNL     1     -15.114   2.382  -8.683  1.00  0.00    -0.508 OA
ATOM     13  H   UNL     1     -15.866   2.747  -9.256  1.00  0.00     0.293 HD
ENDBRANCH   6  12
TORSDOF 3
ENDMDL
MODEL 2
REMARK VINA RESULT:    -5.794      2.262      4.702
REMARK INTER + INTRA:          -6.892
REMARK INTER:                  -7.308
REMARK INTRA:                   0.417
REMARK UNBOUND:                -0.251
REMARK SMILES O=C([O-])C=Cc1ccc(O)cc1
REMARK SMILES IDX 6 1 7 2 12 3 8 4 11 5 9 6 5 7 4 8 2 9 1 10 3 11 10 12
REMARK H PARENT 10 13
REMARK Flexibility Score: inf
ROOT
ATOM      1  C   UNL     1     -13.198   1.573  -9.592  1.00  0.00    -0.025 A 
ATOM      2  C   UNL     1     -14.074   0.641 -10.167  1.00  0.00     0.012 A 
ATOM      3  C   UNL     1     -11.831   1.261  -9.489  1.00  0.00     0.012 A 
ATOM      4  C   UNL     1     -13.583  -0.563 -10.682  1.00  0.00     0.047 A 
ATOM      5  C   UNL     1     -11.343   0.057 -10.005  1.00  0.00     0.047 A 
ATOM      6  C   UNL     1     -12.218  -0.858 -10.606  1.00  0.00     0.115 A 
ENDROOT
BRANCH   1   7
ATOM      7  C   UNL     1     -13.745   2.815  -9.007  1.00  0.00     0.010 C 
ATOM      8  C   UNL     1     -13.046   3.936  -8.767  1.00  0.00     0.025 C 
BRANCH   8   9
ATOM      9  C   UNL     1     -11.661   4.198  -9.201  1.00  0.00     0.064 C 
ATOM     10  O   UNL     1     -11.397   4.562 -10.378  1.00  0.00    -0.545 OA
ATOM     11  O   UNL     1     -10.632   4.110  -8.272  1.00  0.00    -0.545 OA
ENDBRANCH   8   9
ENDBRANCH   1   7
BRANCH   6  12
ATOM     12  O   UNL     1     -11.743  -2.060 -11.124  1.00  0.00    -0.508 OA
ATOM     13  H   UNL     1     -12.370  -2.752 -11.515  1.00  0.00     0.293 HD
ENDBRANCH   6  12
TORSDOF 3
ENDMDL
MODEL 3
REMARK VINA RESULT:    -5.621      2.049      4.966
REMARK INTER + INTRA:          -6.693
REMARK INTER:                  -7.235
REMARK INTRA:                   0.541
REMARK UNBOUND:                -0.251
REMARK SMILES O=C([O-])C=Cc1ccc(O)cc1
REMARK SMILES IDX 6 1 7 2 12 3 8 4 11 5 9 6 5 7 4 8 2 9 1 10 3 11 10 12
REMARK H PARENT 10 13
REMARK Flexibility Score: inf
ROOT
ATOM      1  C   UNL     1     -12.881   1.005  -9.811  1.00  0.00    -0.025 A 
ATOM      2  C   UNL     1     -11.602   1.073  -9.240  1.00  0.00     0.012 A 
ATOM      3  C   UNL     1     -13.167  -0.009 -10.742  1.00  0.00     0.012 A 
ATOM      4  C   UNL     1     -10.638   0.108  -9.552  1.00  0.00     0.047 A 
ATOM      5  C   UNL     1     -12.201  -0.972 -11.052  1.00  0.00     0.047 A 
ATOM      6  C   UNL     1     -10.935  -0.917 -10.455  1.00  0.00     0.115 A 
ENDROOT
BRANCH   1   7
ATOM      7  C   UNL     1     -13.866   2.064  -9.507  1.00  0.00     0.010 C 
ATOM      8  C   UNL     1     -13.570   3.304  -9.086  1.00  0.00     0.025 C 
BRANCH   8   9
ATOM      9  C   UNL     1     -12.220   3.894  -9.020  1.00  0.00     0.064 C 
ATOM     10  O   UNL     1     -11.622   4.290 -10.056  1.00  0.00    -0.545 OA
ATOM     11  O   UNL     1     -11.622   4.081  -7.781  1.00  0.00    -0.545 OA
ENDBRANCH   8   9
ENDBRANCH   1   7
BRANCH   6  12
ATOM     12  O   UNL     1      -9.966  -1.871 -10.756  1.00  0.00    -0.508 OA
ATOM     13  H   UNL     1     -10.116  -2.570 -11.474  1.00  0.00     0.293 HD
ENDBRANCH   6  12
TORSDOF 3
ENDMDL
MODEL 4
REMARK VINA RESULT:    -5.481      1.738      2.366
REMARK INTER + INTRA:          -6.532
REMARK INTER:                  -6.974
REMARK INTRA:                   0.442
REMARK UNBOUND:                -0.251
REMARK SMILES O=C([O-])C=Cc1ccc(O)cc1
REMARK SMILES IDX 6 1 7 2 12 3 8 4 11 5 9 6 5 7 4 8 2 9 1 10 3 11 10 12
REMARK H PARENT 10 13
REMARK Flexibility Score: inf
ROOT
ATOM      1  C   UNL     1     -13.059   1.188  -9.791  1.00  0.00    -0.025 A 
ATOM      2  C   UNL     1     -14.166   1.835  -9.223  1.00  0.00     0.012 A 
ATOM      3  C   UNL     1     -11.787   1.780  -9.687  1.00  0.00     0.012 A 
ATOM      4  C   UNL     1     -13.998   3.029  -8.514  1.00  0.00     0.047 A 
ATOM      5  C   UNL     1     -11.623   2.973  -8.977  1.00  0.00     0.047 A 
ATOM      6  C   UNL     1     -12.728   3.600  -8.387  1.00  0.00     0.115 A 
ENDROOT
BRANCH   1   7
ATOM      7  C   UNL     1     -13.266  -0.044 -10.580  1.00  0.00     0.010 C 
ATOM      8  C   UNL     1     -12.318  -0.945 -10.880  1.00  0.00     0.025 C 
BRANCH   8   9
ATOM      9  C   UNL     1     -10.947  -0.968 -10.335  1.00  0.00     0.064 C 
ATOM     10  O   UNL     1     -10.698  -1.446  -9.196  1.00  0.00    -0.545 OA
ATOM     11  O   UNL     1      -9.897  -0.516 -11.124  1.00  0.00    -0.545 OA
ENDBRANCH   8   9
ENDBRANCH   1   7
BRANCH   6  12
ATOM     12  O   UNL     1     -12.575   4.789  -7.678  1.00  0.00    -0.508 OA
ATOM     13  H   UNL     1     -12.395   4.791  -6.681  1.00  0.00     0.293 HD
ENDBRANCH   6  12
TORSDOF 3
ENDMDL
MODEL 5
REMARK VINA RESULT:    -5.253      2.573      4.649
REMARK INTER + INTRA:          -6.272
REMARK INTER:                  -7.034
REMARK INTRA:                   0.762
REMARK UNBOUND:                -0.251
REMARK SMILES O=C([O-])C=Cc1ccc(O)cc1
REMARK SMILES IDX 6 1 7 2 12 3 8 4 11 5 9 6 5 7 4 8 2 9 1 10 3 11 10 12
REMARK H PARENT 10 13
REMARK Flexibility Score: inf
ROOT
ATOM      1  C   UNL     1     -11.828   1.706  -9.421  1.00  0.00    -0.025 A 
ATOM      2  C   UNL     1     -11.394   0.501  -9.992  1.00  0.00     0.012 A 
ATOM      3  C   UNL     1     -13.195   2.036  -9.465  1.00  0.00     0.012 A 
ATOM      4  C   UNL     1     -12.318  -0.388 -10.551  1.00  0.00     0.047 A 
ATOM      5  C   UNL     1     -14.116   1.145 -10.024  1.00  0.00     0.047 A 
ATOM      6  C   UNL     1     -13.680  -0.071 -10.566  1.00  0.00     0.115 A 
ENDROOT
BRANCH   1   7
ATOM      7  C   UNL     1     -10.830   2.653  -8.884  1.00  0.00     0.010 C 
ATOM      8  C   UNL     1     -11.102   3.866  -8.375  1.00  0.00     0.025 C 
BRANCH   8   9
ATOM      9  C   UNL     1     -12.448   4.401  -8.095  1.00  0.00     0.064 C 
ATOM     10  O   UNL     1     -12.993   4.257  -6.969  1.00  0.00    -0.545 OA
ATOM     11  O   UNL     1     -13.098   5.142  -9.073  1.00  0.00    -0.545 OA
ENDBRANCH   8   9
ENDBRANCH   1   7
BRANCH   6  12
ATOM     12  O   UNL     1     -14.589  -0.966 -11.125  1.00  0.00    -0.508 OA
ATOM     13  H   UNL     1     -15.542  -1.032 -10.789  1.00  0.00     0.293 HD
ENDBRANCH   6  12
TORSDOF 3
ENDMDL
MODEL 6
REMARK VINA RESULT:    -4.897      2.160      2.738
REMARK INTER + INTRA:          -5.863
REMARK INTER:                  -7.431
REMARK INTRA:                   1.568
REMARK UNBOUND:                -0.251
REMARK SMILES O=C([O-])C=Cc1ccc(O)cc1
REMARK SMILES IDX 6 1 7 2 12 3 8 4 11 5 9 6 5 7 4 8 2 9 1 10 3 11 10 12
REMARK H PARENT 10 13
REMARK Flexibility Score: inf
ROOT
ATOM      1  C   UNL     1     -11.985   1.433  -9.611  1.00  0.00    -0.025 A 
ATOM      2  C   UNL     1     -13.376   1.607  -9.584  1.00  0.00     0.012 A 
ATOM      3  C   UNL     1     -11.155   2.440  -9.086  1.00  0.00     0.012 A 
ATOM      4  C   UNL     1     -13.934   2.746  -8.994  1.00  0.00     0.047 A 
ATOM      5  C   UNL     1     -11.716   3.577  -8.496  1.00  0.00     0.047 A 
ATOM      6  C   UNL     1     -13.107   3.732  -8.446  1.00  0.00     0.115 A 
ENDROOT
BRANCH   1   7
ATOM      7  C   UNL     1     -11.416   0.248 -10.286  1.00  0.00     0.010 C 
ATOM      8  C   UNL     1     -12.100  -0.856 -10.627  1.00  0.00     0.025 C 
BRANCH   8   9
ATOM      9  C   UNL     1     -13.564  -1.021 -10.554  1.00  0.00     0.064 C 
ATOM     10  O   UNL     1     -14.347  -0.213 -11.122  1.00  0.00    -0.545 OA
ATOM     11  O   UNL     1     -14.089  -2.130  -9.905  1.00  0.00    -0.545 OA
ENDBRANCH   8   9
ENDBRANCH   1   7
BRANCH   6  12
ATOM     12  O   UNL     1     -13.676   4.860  -7.860  1.00  0.00    -0.508 OA
ATOM     13  H   UNL     1     -14.504   5.297  -8.247  1.00  0.00     0.293 HD
ENDBRANCH   6  12
TORSDOF 3
ENDMDL
MODEL 7
REMARK VINA RESULT:    -4.590      1.317      4.901
REMARK INTER + INTRA:          -5.512
REMARK INTER:                  -5.870
REMARK INTRA:                   0.359
REMARK UNBOUND:                -0.251
REMARK SMILES O=C([O-])C=Cc1ccc(O)cc1
REMARK SMILES IDX 6 1 7 2 12 3 8 4 11 5 9 6 5 7 4 8 2 9 1 10 3 11 10 12
REMARK H PARENT 10 13
REMARK Flexibility Score: inf
ROOT
ATOM      1  C   UNL     1     -12.638  -0.863 -10.685  1.00  0.00    -0.025 A 
ATOM      2  C   UNL     1     -11.399  -0.211 -10.756  1.00  0.00     0.012 A 
ATOM      3  C   UNL     1     -12.684  -2.214 -10.297  1.00  0.00     0.012 A 
ATOM      4  C   UNL     1     -10.227  -0.882 -10.391  1.00  0.00     0.047 A 
ATOM      5  C   UNL     1     -11.511  -2.882  -9.932  1.00  0.00     0.047 A 
ATOM      6  C   UNL     1     -10.279  -2.217  -9.976  1.00  0.00     0.115 A 
ENDROOT
BRANCH   1   7
ATOM      7  C   UNL     1     -13.857  -0.152 -11.125  1.00  0.00     0.010 C 
ATOM      8  C   UNL     1     -14.468   0.834 -10.450  1.00  0.00     0.025 C 
BRANCH   8   9
ATOM      9  C   UNL     1     -13.946   1.508  -9.246  1.00  0.00     0.064 C 
ATOM     10  O   UNL     1     -12.765   1.943  -9.194  1.00  0.00    -0.545 OA
ATOM     11  O   UNL     1     -14.798   1.731  -8.172  1.00  0.00    -0.545 OA
ENDBRANCH   8   9
ENDBRANCH   1   7
BRANCH   6  12
ATOM     12  O   UNL     1      -9.105  -2.872  -9.615  1.00  0.00    -0.508 OA
ATOM     13  H   UNL     1      -8.350  -3.009 -10.277  1.00  0.00     0.293 HD
ENDBRANCH   6  12
TORSDOF 3
ENDMDL
MODEL 8
REMARK VINA RESULT:    -4.540     14.941     16.695
REMARK INTER + INTRA:          -5.454
REMARK INTER:                  -5.262
REMARK INTRA:                  -0.192
REMARK UNBOUND:                -0.251
REMARK SMILES O=C([O-])C=Cc1ccc(O)cc1
REMARK SMILES IDX 6 1 7 2 12 3 8 4 11 5 9 6 5 7 4 8 2 9 1 10 3 11 10 12
REMARK H PARENT 10 13
REMARK Flexibility Score: inf
ROOT
ATOM      1  C   UNL     1     -12.528   6.436   5.838  1.00  0.00    -0.025 A 
ATOM      2  C   UNL     1     -13.212   5.387   6.468  1.00  0.00     0.012 A 
ATOM      3  C   UNL     1     -11.125   6.388   5.748  1.00  0.00     0.012 A 
ATOM      4  C   UNL     1     -12.511   4.278   6.954  1.00  0.00     0.047 A 
ATOM      5  C   UNL     1     -10.427   5.278   6.234  1.00  0.00     0.047 A 
ATOM      6  C   UNL     1     -11.119   4.218   6.835  1.00  0.00     0.115 A 
ENDROOT
BRANCH   1   7
ATOM      7  C   UNL     1     -13.283   7.621   5.380  1.00  0.00     0.010 C 
ATOM      8  C   UNL     1     -13.975   7.707   4.234  1.00  0.00     0.025 C 
BRANCH   8   9
ATOM      9  C   UNL     1     -14.259   6.591   3.311  1.00  0.00     0.064 C 
ATOM     10  O   UNL     1     -15.125   5.717   3.581  1.00  0.00    -0.545 OA
ATOM     11  O   UNL     1     -13.606   6.542   2.087  1.00  0.00    -0.545 OA
ENDBRANCH   8   9
ENDBRANCH   1   7
BRANCH   6  12
ATOM     12  O   UNL     1     -10.433   3.108   7.322  1.00  0.00    -0.508 OA
ATOM     13  H   UNL     1     -10.579   2.767   8.265  1.00  0.00     0.293 HD
ENDBRANCH   6  12
TORSDOF 3
ENDMDL
MODEL 9
REMARK VINA RESULT:    -4.449     15.699     17.405
REMARK INTER + INTRA:          -5.350
REMARK INTER:                  -5.057
REMARK INTRA:                  -0.293
REMARK UNBOUND:                -0.251
REMARK SMILES O=C([O-])C=Cc1ccc(O)cc1
REMARK SMILES IDX 6 1 7 2 12 3 8 4 11 5 9 6 5 7 4 8 2 9 1 10 3 11 10 12
REMARK H PARENT 10 13
REMARK Flexibility Score: inf
ROOT
ATOM      1  C   UNL     1     -11.930   5.397   5.525  1.00  0.00    -0.025 A 
ATOM      2  C   UNL     1     -10.720   6.099   5.629  1.00  0.00     0.012 A 
ATOM      3  C   UNL     1     -12.389   4.650   6.624  1.00  0.00     0.012 A 
ATOM      4  C   UNL     1     -10.006   6.099   6.832  1.00  0.00     0.047 A 
ATOM      5  C   UNL     1     -11.673   4.653   7.825  1.00  0.00     0.047 A 
ATOM      6  C   UNL     1     -10.481   5.380   7.933  1.00  0.00     0.115 A 
ENDROOT
BRANCH   1   7
ATOM      7  C   UNL     1     -12.640   5.368   4.229  1.00  0.00     0.010 C 
ATOM      8  C   UNL     1     -13.703   6.122   3.907  1.00  0.00     0.025 C 
BRANCH   8   9
ATOM      9  C   UNL     1     -14.244   7.236   4.709  1.00  0.00     0.064 C 
ATOM     10  O   UNL     1     -15.125   7.047   5.589  1.00  0.00    -0.545 OA
ATOM     11  O   UNL     1     -13.721   8.511   4.536  1.00  0.00    -0.545 OA
ENDBRANCH   8   9
ENDBRANCH   1   7
BRANCH   6  12
ATOM     12  O   UNL     1      -9.760   5.390   9.125  1.00  0.00    -0.508 OA
ATOM     13  H   UNL     1      -9.424   6.254   9.533  1.00  0.00     0.293 HD
ENDBRANCH   6  12
TORSDOF 3
ENDMDL
