MODEL 1
REMARK VINA RESULT:    -4.780      0.000      0.000
REMARK INTER + INTRA:         -16.044
REMARK INTER:                 -12.045
REMARK INTRA:                  -4.000
REMARK UNBOUND:                -4.000
REMARK SMILES CCCCCCCCCCCCCCCCCCCCCCCCCCCC(=O)[O-]
REMARK SMILES IDX 15 1 16 2 17 3 18 4 19 5 20 6 21 7 22 8 23 9 24 10 25 11
REMARK SMILES IDX 26 12 27 13 28 14 29 15 30 16 14 17 13 18 12 19 11 20 10 21
REMARK SMILES IDX 9 22 8 23 7 24 6 25 5 26 4 27 3 28 2 29 1 30
REMARK H PARENT
REMARK Flexibility Score: inf
ROOT
ATOM      1  C   UNL     1      -2.910 -19.855 -14.327  1.00  0.00     0.000 C 
ENDROOT
BRANCH   1   2
ATOM      2  C   UNL     1      -3.541 -21.241 -14.539  1.00  0.00     0.000 C 
BRANCH   2   3
ATOM      3  C   UNL     1      -3.944 -21.479 -16.004  1.00  0.00     0.000 C 
BRANCH   3   4
ATOM      4  C   UNL     1      -4.254 -22.960 -16.291  1.00  0.00     0.000 C 
BRANCH   4   5
ATOM      5  C   UNL     1      -3.144 -23.904 -15.778  1.00  0.00     0.000 C 
BRANCH   5   6
ATOM      6  C   UNL     1      -1.865 -23.877 -16.634  1.00  0.00     0.000 C 
BRANCH   6   7
ATOM      7  C   UNL     1      -0.584 -23.919 -15.791  1.00  0.00     0.000 C 
BRANCH   7   8
ATOM      8  C   UNL     1       0.432 -22.870 -16.265  1.00  0.00     0.000 C 
BRANCH   8   9
ATOM      9  C   UNL     1       0.115 -21.459 -15.745  1.00  0.00     0.000 C 
BRANCH   9  10
ATOM     10  C   UNL     1       1.060 -21.016 -14.617  1.00  0.00     0.000 C 
BRANCH  10  11
ATOM     11  C   UNL     1       0.549 -21.482 -13.247  1.00  0.00     0.000 C 
BRANCH  11  12
ATOM     12  C   UNL     1       1.690 -21.835 -12.276  1.00  0.00     0.006 C 
BRANCH  12  13
ATOM     13  C   UNL     1       2.891 -20.875 -12.336  1.00  0.00     0.053 C 
BRANCH  13  14
ATOM     14  C   UNL     1       4.144 -21.508 -11.814  1.00  0.00     0.041 C 
ATOM     15  O   UNL     1       4.123 -22.172 -10.744  1.00  0.00    -0.550 OA
ATOM     16  O   UNL     1       5.336 -21.366 -12.513  1.00  0.00    -0.550 OA
ENDBRANCH  13  14
ENDBRANCH  12  13
ENDBRANCH  11  12
ENDBRANCH  10  11
ENDBRANCH   9  10
ENDBRANCH   8   9
ENDBRANCH   7   8
ENDBRANCH   6   7
ENDBRANCH   5   6
ENDBRANCH   4   5
ENDBRANCH   3   4
ENDBRANCH   2   3
ENDBRANCH   1   2
BRANCH   1  17
ATOM     17  C   UNL     1      -3.822 -18.900 -13.533  1.00  0.00     0.000 C 
BRANCH  17  18
ATOM     18  C   UNL     1      -3.977 -17.492 -14.142  1.00  0.00     0.000 C 
BRANCH  18  19
ATOM     19  C   UNL     1      -4.623 -17.439 -15.541  1.00  0.00     0.000 C 
BRANCH  19  20
ATOM     20  C   UNL     1      -6.151 -17.654 -15.539  1.00  0.00     0.000 C 
BRANCH  20  21
ATOM     21  C   UNL     1      -6.563 -19.020 -16.111  1.00  0.00     0.000 C 
BRANCH  21  22
ATOM     22  C   UNL     1      -7.924 -19.462 -15.556  1.00  0.00    -0.000 C 
BRANCH  22  23
ATOM     23  C   UNL     1      -7.824 -20.833 -14.876  1.00  0.00    -0.000 C 
BRANCH  23  24
ATOM     24  C   UNL     1      -8.108 -20.722 -13.370  1.00  0.00    -0.000 C 
BRANCH  24  25
ATOM     25  C   UNL     1      -6.871 -20.287 -12.568  1.00  0.00    -0.000 C 
BRANCH  25  26
ATOM     26  C   UNL     1      -7.214 -19.257 -11.478  1.00  0.00    -0.000 C 
BRANCH  26  27
ATOM     27  C   UNL     1      -7.047 -17.801 -11.951  1.00  0.00    -0.000 C 
BRANCH  27  28
ATOM     28  C   UNL     1      -7.346 -16.730 -10.888  1.00  0.00    -0.000 C 
BRANCH  28  29
ATOM     29  C   UNL     1      -7.387 -15.306 -11.463  1.00  0.00    -0.003 C 
ATOM     30  C   UNL     1      -6.391 -15.149 -12.609  1.00  0.00     0.004 C 
ENDBRANCH  28  29
ENDBRANCH  27  28
ENDBRANCH  26  27
ENDBRANCH  25  26
ENDBRANCH  24  25
ENDBRANCH  23  24
ENDBRANCH  22  23
ENDBRANCH  21  22
ENDBRANCH  20  21
ENDBRANCH  19  20
ENDBRANCH  18  19
ENDBRANCH  17  18
ENDBRANCH   1  17
TORSDOF 26
ENDMDL
MODEL 2
REMARK VINA RESULT:    -4.621      3.325      5.041
REMARK INTER + INTRA:         -15.645
REMARK INTER:                 -11.987
REMARK INTRA:                  -3.658
REMARK UNBOUND:                -4.000
REMARK SMILES CCCCCCCCCCCCCCCCCCCCCCCCCCCC(=O)[O-]
REMARK SMILES IDX 15 1 16 2 17 3 18 4 19 5 20 6 21 7 22 8 23 9 24 10 25 11
REMARK SMILES IDX 26 12 27 13 28 14 29 15 30 16 14 17 13 18 12 19 11 20 10 21
REMARK SMILES IDX 9 22 8 23 7 24 6 25 5 26 4 27 3 28 2 29 1 30
REMARK H PARENT
REMARK Flexibility Score: inf
ROOT
ATOM      1  C   UNL     1      -5.276 -21.341 -15.244  1.00  0.00     0.000 C 
ENDROOT
BRANCH   1   2
ATOM      2  C   UNL     1      -4.213 -21.937 -16.182  1.00  0.00     0.000 C 
BRANCH   2   3
ATOM      3  C   UNL     1      -3.391 -23.043 -15.499  1.00  0.00     0.000 C 
BRANCH   3   4
ATOM      4  C   UNL     1      -2.221 -23.527 -16.378  1.00  0.00     0.000 C 
BRANCH   4   5
ATOM      5  C   UNL     1      -1.327 -24.557 -15.654  1.00  0.00     0.000 C 
BRANCH   5   6
ATOM      6  C   UNL     1       0.133 -24.100 -15.488  1.00  0.00     0.000 C 
BRANCH   6   7
ATOM      7  C   UNL     1       0.485 -22.900 -16.376  1.00  0.00     0.000 C 
BRANCH   7   8
ATOM      8  C   UNL     1       1.043 -21.735 -15.545  1.00  0.00     0.000 C 
BRANCH   8   9
ATOM      9  C   UNL     1      -0.061 -20.816 -14.996  1.00  0.00     0.000 C 
BRANCH   9  10
ATOM     10  C   UNL     1       0.135 -20.474 -13.512  1.00  0.00     0.000 C 
BRANCH  10  11
ATOM     11  C   UNL     1       0.626 -21.693 -12.719  1.00  0.00     0.000 C 
BRANCH  11  12
ATOM     12  C   UNL     1       1.728 -21.338 -11.705  1.00  0.00     0.006 C 
BRANCH  12  13
ATOM     13  C   UNL     1       3.006 -20.758 -12.335  1.00  0.00     0.053 C 
BRANCH  13  14
ATOM     14  C   UNL     1       4.240 -21.447 -11.841  1.00  0.00     0.041 C 
ATOM     15  O   UNL     1       5.308 -21.393 -12.505  1.00  0.00    -0.550 OA
ATOM     16  O   UNL     1       4.211 -22.147 -10.641  1.00  0.00    -0.550 OA
ENDBRANCH  13  14
ENDBRANCH  12  13
ENDBRANCH  11  12
ENDBRANCH  10  11
ENDBRANCH   9  10
ENDBRANCH   8   9
ENDBRANCH   7   8
ENDBRANCH   6   7
ENDBRANCH   5   6
ENDBRANCH   4   5
ENDBRANCH   3   4
ENDBRANCH   2   3
ENDBRANCH   1   2
BRANCH   1  17
ATOM     17  C   UNL     1      -5.777 -22.350 -14.193  1.00  0.00     0.000 C 
BRANCH  17  18
ATOM     18  C   UNL     1      -7.140 -22.997 -14.509  1.00  0.00     0.000 C 
BRANCH  18  19
ATOM     19  C   UNL     1      -7.087 -24.264 -15.387  1.00  0.00     0.000 C 
BRANCH  19  20
ATOM     20  C   UNL     1      -8.388 -24.545 -16.168  1.00  0.00     0.000 C 
BRANCH  20  21
ATOM     21  C   UNL     1      -9.647 -24.074 -15.423  1.00  0.00     0.000 C 
BRANCH  21  22
ATOM     22  C   UNL     1     -10.280 -25.224 -14.628  1.00  0.00    -0.000 C 
BRANCH  22  23
ATOM     23  C   UNL     1     -10.100 -26.562 -15.354  1.00  0.00    -0.000 C 
BRANCH  23  24
ATOM     24  C   UNL     1      -9.614 -27.652 -14.387  1.00  0.00    -0.000 C 
BRANCH  24  25
ATOM     25  C   UNL     1      -8.209 -27.366 -13.834  1.00  0.00    -0.000 C 
BRANCH  25  26
ATOM     26  C   UNL     1      -8.206 -27.198 -12.305  1.00  0.00    -0.000 C 
BRANCH  26  27
ATOM     27  C   UNL     1      -7.811 -25.779 -11.856  1.00  0.00    -0.000 C 
BRANCH  27  28
ATOM     28  C   UNL     1      -8.956 -24.940 -11.261  1.00  0.00    -0.000 C 
BRANCH  28  29
ATOM     29  C   UNL     1      -8.605 -23.451 -11.129  1.00  0.00    -0.003 C 
ATOM     30  C   UNL     1      -9.685 -22.574 -11.757  1.00  0.00     0.004 C 
ENDBRANCH  28  29
ENDBRANCH  27  28
ENDBRANCH  26  27
ENDBRANCH  25  26
ENDBRANCH  24  25
ENDBRANCH  23  24
ENDBRANCH  22  23
ENDBRANCH  21  22
ENDBRANCH  20  21
ENDBRANCH  19  20
ENDBRANCH  18  19
ENDBRANCH  17  18
ENDBRANCH   1  17
TORSDOF 26
ENDMDL
MODEL 3
REMARK VINA RESULT:    -4.523      2.038      4.155
REMARK INTER + INTRA:         -15.398
REMARK INTER:                 -11.449
REMARK INTRA:                  -3.949
REMARK UNBOUND:                -4.000
REMARK SMILES CCCCCCCCCCCCCCCCCCCCCCCCCCCC(=O)[O-]
REMARK SMILES IDX 15 1 16 2 17 3 18 4 19 5 20 6 21 7 22 8 23 9 24 10 25 11
REMARK SMILES IDX 26 12 27 13 28 14 29 15 30 16 14 17 13 18 12 19 11 20 10 21
REMARK SMILES IDX 9 22 8 23 7 24 6 25 5 26 4 27 3 28 2 29 1 30
REMARK H PARENT
REMARK Flexibility Score: inf
ROOT
ATOM      1  C   UNL     1      -3.281 -19.900 -14.451  1.00  0.00     0.000 C 
ENDROOT
BRANCH   1   2
ATOM      2  C   UNL     1      -3.283 -21.374 -14.891  1.00  0.00     0.000 C 
BRANCH   2   3
ATOM      3  C   UNL     1      -4.043 -21.584 -16.212  1.00  0.00     0.000 C 
BRANCH   3   4
ATOM      4  C   UNL     1      -4.274 -23.076 -16.520  1.00  0.00     0.000 C 
BRANCH   4   5
ATOM      5  C   UNL     1      -3.722 -23.999 -15.411  1.00  0.00     0.000 C 
BRANCH   5   6
ATOM      6  C   UNL     1      -2.523 -24.854 -15.858  1.00  0.00     0.000 C 
BRANCH   6   7
ATOM      7  C   UNL     1      -1.409 -24.912 -14.805  1.00  0.00     0.000 C 
BRANCH   7   8
ATOM      8  C   UNL     1      -0.096 -24.331 -15.348  1.00  0.00     0.000 C 
BRANCH   8   9
ATOM      9  C   UNL     1      -0.323 -23.177 -16.339  1.00  0.00     0.000 C 
BRANCH   9  10
ATOM     10  C   UNL     1       0.757 -22.089 -16.240  1.00  0.00     0.000 C 
BRANCH  10  11
ATOM     11  C   UNL     1       0.422 -21.070 -15.140  1.00  0.00     0.000 C 
BRANCH  11  12
ATOM     12  C   UNL     1       1.337 -21.202 -13.910  1.00  0.00     0.006 C 
BRANCH  12  13
ATOM     13  C   UNL     1       2.656 -20.418 -14.014  1.00  0.00     0.053 C 
BRANCH  13  14
ATOM     14  C   UNL     1       3.437 -20.457 -12.737  1.00  0.00     0.041 C 
ATOM     15  O   UNL     1       2.961 -19.958 -11.684  1.00  0.00    -0.550 OA
ATOM     16  O   UNL     1       4.693 -21.051 -12.710  1.00  0.00    -0.550 OA
ENDBRANCH  13  14
ENDBRANCH  12  13
ENDBRANCH  11  12
ENDBRANCH  10  11
ENDBRANCH   9  10
ENDBRANCH   8   9
ENDBRANCH   7   8
ENDBRANCH   6   7
ENDBRANCH   5   6
ENDBRANCH   4   5
ENDBRANCH   3   4
ENDBRANCH   2   3
ENDBRANCH   1   2
BRANCH   1  17
ATOM     17  C   UNL     1      -3.947 -19.686 -13.078  1.00  0.00     0.000 C 
BRANCH  17  18
ATOM     18  C   UNL     1      -4.860 -18.448 -12.984  1.00  0.00     0.000 C 
BRANCH  18  19
ATOM     19  C   UNL     1      -4.948 -17.587 -14.261  1.00  0.00     0.000 C 
BRANCH  19  20
ATOM     20  C   UNL     1      -6.369 -17.478 -14.852  1.00  0.00     0.000 C 
BRANCH  20  21
ATOM     21  C   UNL     1      -6.655 -18.542 -15.923  1.00  0.00     0.000 C 
BRANCH  21  22
ATOM     22  C   UNL     1      -7.825 -19.443 -15.508  1.00  0.00    -0.000 C 
BRANCH  22  23
ATOM     23  C   UNL     1      -7.390 -20.911 -15.430  1.00  0.00    -0.000 C 
BRANCH  23  24
ATOM     24  C   UNL     1      -7.271 -21.373 -13.970  1.00  0.00    -0.000 C 
BRANCH  24  25
ATOM     25  C   UNL     1      -7.239 -22.904 -13.836  1.00  0.00    -0.000 C 
BRANCH  25  26
ATOM     26  C   UNL     1      -7.592 -23.613 -15.154  1.00  0.00    -0.000 C 
BRANCH  26  27
ATOM     27  C   UNL     1      -9.099 -23.895 -15.302  1.00  0.00    -0.000 C 
BRANCH  27  28
ATOM     28  C   UNL     1      -9.472 -24.874 -16.429  1.00  0.00    -0.000 C 
BRANCH  28  29
ATOM     29  C   UNL     1      -8.274 -25.268 -17.306  1.00  0.00    -0.003 C 
ATOM     30  C   UNL     1      -8.622 -25.168 -18.788  1.00  0.00     0.004 C 
ENDBRANCH  28  29
ENDBRANCH  27  28
ENDBRANCH  26  27
ENDBRANCH  25  26
ENDBRANCH  24  25
ENDBRANCH  23  24
ENDBRANCH  22  23
ENDBRANCH  21  22
ENDBRANCH  20  21
ENDBRANCH  19  20
ENDBRANCH  18  19
ENDBRANCH  17  18
ENDBRANCH   1  17
TORSDOF 26
ENDMDL
MODEL 4
REMARK VINA RESULT:    -4.502      5.805      8.517
REMARK INTER + INTRA:         -15.345
REMARK INTER:                 -11.100
REMARK INTRA:                  -4.245
REMARK UNBOUND:                -4.000
REMARK SMILES CCCCCCCCCCCCCCCCCCCCCCCCCCCC(=O)[O-]
REMARK SMILES IDX 15 1 16 2 17 3 18 4 19 5 20 6 21 7 22 8 23 9 24 10 25 11
REMARK SMILES IDX 26 12 27 13 28 14 29 15 30 16 14 17 13 18 12 19 11 20 10 21
REMARK SMILES IDX 9 22 8 23 7 24 6 25 5 26 4 27 3 28 2 29 1 30
REMARK H PARENT
REMARK Flexibility Score: inf
ROOT
ATOM      1  C   UNL     1      -2.326 -23.520 -10.946  1.00  0.00     0.000 C 
ENDROOT
BRANCH   1   2
ATOM      2  C   UNL     1      -1.370 -23.413 -12.146  1.00  0.00     0.000 C 
BRANCH   2   3
ATOM      3  C   UNL     1       0.089 -23.703 -11.754  1.00  0.00     0.000 C 
BRANCH   3   4
ATOM      4  C   UNL     1       0.647 -24.951 -12.464  1.00  0.00     0.000 C 
BRANCH   4   5
ATOM      5  C   UNL     1      -0.156 -25.314 -13.732  1.00  0.00     0.000 C 
BRANCH   5   6
ATOM      6  C   UNL     1       0.476 -24.793 -15.035  1.00  0.00     0.000 C 
BRANCH   6   7
ATOM      7  C   UNL     1      -0.423 -23.792 -15.773  1.00  0.00     0.000 C 
BRANCH   7   8
ATOM      8  C   UNL     1       0.406 -22.700 -16.463  1.00  0.00     0.000 C 
BRANCH   8   9
ATOM      9  C   UNL     1       1.181 -21.824 -15.465  1.00  0.00     0.000 C 
BRANCH   9  10
ATOM     10  C   UNL     1       0.296 -20.761 -14.796  1.00  0.00     0.000 C 
BRANCH  10  11
ATOM     11  C   UNL     1       0.999 -20.135 -13.582  1.00  0.00     0.000 C 
BRANCH  11  12
ATOM     12  C   UNL     1       2.204 -20.963 -13.102  1.00  0.00     0.006 C 
BRANCH  12  13
ATOM     13  C   UNL     1       3.557 -20.242 -13.224  1.00  0.00     0.053 C 
BRANCH  13  14
ATOM     14  C   UNL     1       4.514 -20.653 -12.148  1.00  0.00     0.041 C 
ATOM     15  O   UNL     1       5.503 -21.383 -12.421  1.00  0.00    -0.550 OA
ATOM     16  O   UNL     1       4.314 -20.225 -10.841  1.00  0.00    -0.550 OA
ENDBRANCH  13  14
ENDBRANCH  12  13
ENDBRANCH  11  12
ENDBRANCH  10  11
ENDBRANCH   9  10
ENDBRANCH   8   9
ENDBRANCH   7   8
ENDBRANCH   6   7
ENDBRANCH   5   6
ENDBRANCH   4   5
ENDBRANCH   3   4
ENDBRANCH   2   3
ENDBRANCH   1   2
BRANCH   1  17
ATOM     17  C   UNL     1      -2.525 -24.971 -10.470  1.00  0.00     0.000 C 
BRANCH  17  18
ATOM     18  C   UNL     1      -2.959 -25.963 -11.567  1.00  0.00     0.000 C 
BRANCH  18  19
ATOM     19  C   UNL     1      -2.497 -27.421 -11.367  1.00  0.00     0.000 C 
BRANCH  19  20
ATOM     20  C   UNL     1      -1.422 -27.598 -10.274  1.00  0.00     0.000 C 
BRANCH  20  21
ATOM     21  C   UNL     1      -0.570 -28.862 -10.472  1.00  0.00     0.000 C 
BRANCH  21  22
ATOM     22  C   UNL     1      -0.975 -29.961  -9.481  1.00  0.00    -0.000 C 
BRANCH  22  23
ATOM     23  C   UNL     1      -1.853 -31.020 -10.160  1.00  0.00    -0.000 C 
BRANCH  23  24
ATOM     24  C   UNL     1      -3.273 -31.014  -9.574  1.00  0.00    -0.000 C 
BRANCH  24  25
ATOM     25  C   UNL     1      -4.305 -30.402 -10.534  1.00  0.00    -0.000 C 
BRANCH  25  26
ATOM     26  C   UNL     1      -5.435 -29.670  -9.789  1.00  0.00    -0.000 C 
BRANCH  26  27
ATOM     27  C   UNL     1      -4.916 -28.604  -8.808  1.00  0.00    -0.000 C 
BRANCH  27  28
ATOM     28  C   UNL     1      -5.219 -28.880  -7.324  1.00  0.00    -0.000 C 
BRANCH  28  29
ATOM     29  C   UNL     1      -3.972 -28.795  -6.431  1.00  0.00    -0.003 C 
ATOM     30  C   UNL     1      -2.920 -27.875  -7.042  1.00  0.00     0.004 C 
ENDBRANCH  28  29
ENDBRANCH  27  28
ENDBRANCH  26  27
ENDBRANCH  25  26
ENDBRANCH  24  25
ENDBRANCH  23  24
ENDBRANCH  22  23
ENDBRANCH  21  22
ENDBRANCH  20  21
ENDBRANCH  19  20
ENDBRANCH  18  19
ENDBRANCH  17  18
ENDBRANCH   1  17
TORSDOF 26
ENDMDL
MODEL 5
REMARK VINA RESULT:    -4.451     11.847     16.065
REMARK INTER + INTRA:         -15.216
REMARK INTER:                 -10.665
REMARK INTRA:                  -4.550
REMARK UNBOUND:                -4.000
REMARK SMILES CCCCCCCCCCCCCCCCCCCCCCCCCCCC(=O)[O-]
REMARK SMILES IDX 15 1 16 2 17 3 18 4 19 5 20 6 21 7 22 8 23 9 24 10 25 11
REMARK SMILES IDX 26 12 27 13 28 14 29 15 30 16 14 17 13 18 12 19 11 20 10 21
REMARK SMILES IDX 9 22 8 23 7 24 6 25 5 26 4 27 3 28 2 29 1 30
REMARK H PARENT
REMARK Flexibility Score: inf
ROOT
ATOM      1  C   UNL     1       0.992 -29.275  -0.452  1.00  0.00     0.000 C 
ENDROOT
BRANCH   1   2
ATOM      2  C   UNL     1       1.546 -29.206   0.980  1.00  0.00     0.000 C 
BRANCH   2   3
ATOM      3  C   UNL     1       2.917 -29.893   1.106  1.00  0.00     0.000 C 
BRANCH   3   4
ATOM      4  C   UNL     1       3.968 -29.276   0.163  1.00  0.00     0.000 C 
BRANCH   4   5
ATOM      5  C   UNL     1       4.073 -27.744   0.322  1.00  0.00     0.000 C 
BRANCH   5   6
ATOM      6  C   UNL     1       4.966 -27.072  -0.736  1.00  0.00     0.000 C 
BRANCH   6   7
ATOM      7  C   UNL     1       4.213 -26.031  -1.575  1.00  0.00     0.000 C 
BRANCH   7   8
ATOM      8  C   UNL     1       3.474 -25.023  -0.682  1.00  0.00     0.000 C 
BRANCH   8   9
ATOM      9  C   UNL     1       3.686 -23.568  -1.131  1.00  0.00     0.000 C 
BRANCH   9  10
ATOM     10  C   UNL     1       2.518 -23.030  -1.972  1.00  0.00     0.000 C 
BRANCH  10  11
ATOM     11  C   UNL     1       3.024 -22.223  -3.176  1.00  0.00     0.000 C 
BRANCH  11  12
ATOM     12  C   UNL     1       3.612 -23.115  -4.285  1.00  0.00     0.006 C 
BRANCH  12  13
ATOM     13  C   UNL     1       2.683 -24.253  -4.740  1.00  0.00     0.053 C 
BRANCH  13  14
ATOM     14  C   UNL     1       3.275 -25.047  -5.863  1.00  0.00     0.041 C 
ATOM     15  O   UNL     1       4.163 -25.910  -5.633  1.00  0.00    -0.550 OA
ATOM     16  O   UNL     1       2.841 -24.837  -7.166  1.00  0.00    -0.550 OA
ENDBRANCH  13  14
ENDBRANCH  12  13
ENDBRANCH  11  12
ENDBRANCH  10  11
ENDBRANCH   9  10
ENDBRANCH   8   9
ENDBRANCH   7   8
ENDBRANCH   6   7
ENDBRANCH   5   6
ENDBRANCH   4   5
ENDBRANCH   3   4
ENDBRANCH   2   3
ENDBRANCH   1   2
BRANCH   1  17
ATOM     17  C   UNL     1       0.263 -30.600  -0.747  1.00  0.00     0.000 C 
BRANCH  17  18
ATOM     18  C   UNL     1       0.865 -31.432  -1.896  1.00  0.00     0.000 C 
BRANCH  18  19
ATOM     19  C   UNL     1       2.000 -32.397  -1.495  1.00  0.00     0.000 C 
BRANCH  19  20
ATOM     20  C   UNL     1       3.360 -32.081  -2.153  1.00  0.00     0.000 C 
BRANCH  20  21
ATOM     21  C   UNL     1       3.230 -31.176  -3.388  1.00  0.00     0.000 C 
BRANCH  21  22
ATOM     22  C   UNL     1       4.039 -29.884  -3.214  1.00  0.00    -0.000 C 
BRANCH  22  23
ATOM     23  C   UNL     1       3.549 -28.792  -4.171  1.00  0.00    -0.000 C 
BRANCH  23  24
ATOM     24  C   UNL     1       2.189 -28.237  -3.721  1.00  0.00    -0.000 C 
BRANCH  24  25
ATOM     25  C   UNL     1       1.081 -28.480  -4.759  1.00  0.00    -0.000 C 
BRANCH  25  26
ATOM     26  C   UNL     1      -0.299 -28.672  -4.105  1.00  0.00    -0.000 C 
BRANCH  26  27
ATOM     27  C   UNL     1      -1.049 -29.909  -4.634  1.00  0.00    -0.000 C 
BRANCH  27  28
ATOM     28  C   UNL     1      -0.541 -30.453  -5.981  1.00  0.00    -0.000 C 
BRANCH  28  29
ATOM     29  C   UNL     1      -1.309 -29.888  -7.186  1.00  0.00    -0.003 C 
ATOM     30  C   UNL     1      -0.715 -30.389  -8.499  1.00  0.00     0.004 C 
ENDBRANCH  28  29
ENDBRANCH  27  28
ENDBRANCH  26  27
ENDBRANCH  25  26
ENDBRANCH  24  25
ENDBRANCH  23  24
ENDBRANCH  22  23
ENDBRANCH  21  22
ENDBRANCH  20  21
ENDBRANCH  19  20
ENDBRANCH  18  19
ENDBRANCH  17  18
ENDBRANCH   1  17
TORSDOF 26
ENDMDL
MODEL 6
REMARK VINA RESULT:    -4.451      3.560      5.872
REMARK INTER + INTRA:         -15.215
REMARK INTER:                 -10.523
REMARK INTRA:                  -4.692
REMARK UNBOUND:                -4.000
REMARK SMILES CCCCCCCCCCCCCCCCCCCCCCCCCCCC(=O)[O-]
REMARK SMILES IDX 15 1 16 2 17 3 18 4 19 5 20 6 21 7 22 8 23 9 24 10 25 11
REMARK SMILES IDX 26 12 27 13 28 14 29 15 30 16 14 17 13 18 12 19 11 20 10 21
REMARK SMILES IDX 9 22 8 23 7 24 6 25 5 26 4 27 3 28 2 29 1 30
REMARK H PARENT
REMARK Flexibility Score: inf
ROOT
ATOM      1  C   UNL     1       0.875 -22.131 -15.784  1.00  0.00     0.000 C 
ENDROOT
BRANCH   1   2
ATOM      2  C   UNL     1       0.630 -20.820 -15.019  1.00  0.00     0.000 C 
BRANCH   2   3
ATOM      3  C   UNL     1      -0.869 -20.510 -14.865  1.00  0.00     0.000 C 
BRANCH   3   4
ATOM      4  C   UNL     1      -1.160 -19.639 -13.627  1.00  0.00     0.000 C 
BRANCH   4   5
ATOM      5  C   UNL     1      -1.867 -20.430 -12.505  1.00  0.00     0.000 C 
BRANCH   5   6
ATOM      6  C   UNL     1      -2.704 -21.616 -13.016  1.00  0.00     0.000 C 
BRANCH   6   7
ATOM      7  C   UNL     1      -2.153 -22.973 -12.558  1.00  0.00     0.000 C 
BRANCH   7   8
ATOM      8  C   UNL     1      -0.900 -22.801 -11.687  1.00  0.00     0.000 C 
BRANCH   8   9
ATOM      9  C   UNL     1       0.348 -23.449 -12.310  1.00  0.00     0.000 C 
BRANCH   9  10
ATOM     10  C   UNL     1       1.639 -22.684 -11.984  1.00  0.00     0.000 C 
BRANCH  10  11
ATOM     11  C   UNL     1       1.360 -21.487 -11.064  1.00  0.00     0.000 C 
BRANCH  11  12
ATOM     12  C   UNL     1       1.924 -20.167 -11.619  1.00  0.00     0.006 C 
BRANCH  12  13
ATOM     13  C   UNL     1       3.110 -20.341 -12.583  1.00  0.00     0.053 C 
BRANCH  13  14
ATOM     14  C   UNL     1       4.391 -20.612 -11.857  1.00  0.00     0.041 C 
ATOM     15  O   UNL     1       5.258 -21.375 -12.359  1.00  0.00    -0.550 OA
ATOM     16  O   UNL     1       4.629 -20.018 -10.624  1.00  0.00    -0.550 OA
ENDBRANCH  13  14
ENDBRANCH  12  13
ENDBRANCH  11  12
ENDBRANCH  10  11
ENDBRANCH   9  10
ENDBRANCH   8   9
ENDBRANCH   7   8
ENDBRANCH   6   7
ENDBRANCH   5   6
ENDBRANCH   4   5
ENDBRANCH   3   4
ENDBRANCH   2   3
ENDBRANCH   1   2
BRANCH   1  17
ATOM     17  C   UNL     1      -0.430 -22.792 -16.269  1.00  0.00     0.000 C 
BRANCH  17  18
ATOM     18  C   UNL     1      -0.667 -24.224 -15.748  1.00  0.00     0.000 C 
BRANCH  18  19
ATOM     19  C   UNL     1      -2.106 -24.757 -15.901  1.00  0.00     0.000 C 
BRANCH  19  20
ATOM     20  C   UNL     1      -3.168 -23.658 -16.112  1.00  0.00     0.000 C 
BRANCH  20  21
ATOM     21  C   UNL     1      -4.173 -24.002 -17.223  1.00  0.00     0.000 C 
BRANCH  21  22
ATOM     22  C   UNL     1      -5.612 -23.976 -16.692  1.00  0.00    -0.000 C 
BRANCH  22  23
ATOM     23  C   UNL     1      -5.685 -23.278 -15.329  1.00  0.00    -0.000 C 
BRANCH  23  24
ATOM     24  C   UNL     1      -6.605 -24.044 -14.368  1.00  0.00    -0.000 C 
BRANCH  24  25
ATOM     25  C   UNL     1      -8.024 -23.456 -14.315  1.00  0.00    -0.000 C 
BRANCH  25  26
ATOM     26  C   UNL     1      -9.091 -24.463 -14.780  1.00  0.00    -0.000 C 
BRANCH  26  27
ATOM     27  C   UNL     1      -9.739 -24.077 -16.123  1.00  0.00    -0.000 C 
BRANCH  27  28
ATOM     28  C   UNL     1      -9.677 -25.161 -17.213  1.00  0.00    -0.000 C 
BRANCH  28  29
ATOM     29  C   UNL     1      -8.381 -25.984 -17.170  1.00  0.00    -0.003 C 
ATOM     30  C   UNL     1      -7.908 -26.336 -18.578  1.00  0.00     0.004 C 
ENDBRANCH  28  29
ENDBRANCH  27  28
ENDBRANCH  26  27
ENDBRANCH  25  26
ENDBRANCH  24  25
ENDBRANCH  23  24
ENDBRANCH  22  23
ENDBRANCH  21  22
ENDBRANCH  20  21
ENDBRANCH  19  20
ENDBRANCH  18  19
ENDBRANCH  17  18
ENDBRANCH   1  17
TORSDOF 26
ENDMDL
MODEL 7
REMARK VINA RESULT:    -4.447      2.098      4.210
REMARK INTER + INTRA:         -15.205
REMARK INTER:                 -10.511
REMARK INTRA:                  -4.694
REMARK UNBOUND:                -4.000
REMARK SMILES CCCCCCCCCCCCCCCCCCCCCCCCCCCC(=O)[O-]
REMARK SMILES IDX 15 1 16 2 17 3 18 4 19 5 20 6 21 7 22 8 23 9 24 10 25 11
REMARK SMILES IDX 26 12 27 13 28 14 29 15 30 16 14 17 13 18 12 19 11 20 10 21
REMARK SMILES IDX 9 22 8 23 7 24 6 25 5 26 4 27 3 28 2 29 1 30
REMARK H PARENT
REMARK Flexibility Score: inf
ROOT
ATOM      1  C   UNL     1      -1.391 -24.382 -15.752  1.00  0.00     0.000 C 
ENDROOT
BRANCH   1   2
ATOM      2  C   UNL     1       0.021 -23.829 -15.495  1.00  0.00     0.000 C 
BRANCH   2   3
ATOM      3  C   UNL     1       0.208 -22.420 -16.083  1.00  0.00     0.000 C 
BRANCH   3   4
ATOM      4  C   UNL     1       1.219 -21.582 -15.277  1.00  0.00     0.000 C 
BRANCH   4   5
ATOM      5  C   UNL     1       0.574 -20.329 -14.645  1.00  0.00     0.000 C 
BRANCH   5   6
ATOM      6  C   UNL     1      -0.963 -20.320 -14.721  1.00  0.00     0.000 C 
BRANCH   6   7
ATOM      7  C   UNL     1      -1.626 -20.291 -13.338  1.00  0.00     0.000 C 
BRANCH   7   8
ATOM      8  C   UNL     1      -0.807 -21.084 -12.309  1.00  0.00     0.000 C 
BRANCH   8   9
ATOM      9  C   UNL     1      -1.279 -22.541 -12.171  1.00  0.00     0.000 C 
BRANCH   9  10
ATOM     10  C   UNL     1      -0.271 -23.423 -11.419  1.00  0.00     0.000 C 
BRANCH  10  11
ATOM     11  C   UNL     1       1.128 -23.329 -12.046  1.00  0.00     0.000 C 
BRANCH  11  12
ATOM     12  C   UNL     1       2.118 -22.537 -11.172  1.00  0.00     0.006 C 
BRANCH  12  13
ATOM     13  C   UNL     1       2.740 -21.315 -11.870  1.00  0.00     0.053 C 
BRANCH  13  14
ATOM     14  C   UNL     1       4.161 -21.093 -11.453  1.00  0.00     0.041 C 
ATOM     15  O   UNL     1       4.423 -20.589 -10.329  1.00  0.00    -0.550 OA
ATOM     16  O   UNL     1       5.199 -21.447 -12.307  1.00  0.00    -0.550 OA
ENDBRANCH  13  14
ENDBRANCH  12  13
ENDBRANCH  11  12
ENDBRANCH  10  11
ENDBRANCH   9  10
ENDBRANCH   8   9
ENDBRANCH   7   8
ENDBRANCH   6   7
ENDBRANCH   5   6
ENDBRANCH   4   5
ENDBRANCH   3   4
ENDBRANCH   2   3
ENDBRANCH   1   2
BRANCH   1  17
ATOM     17  C   UNL     1      -2.431 -23.271 -15.997  1.00  0.00     0.000 C 
BRANCH  17  18
ATOM     18  C   UNL     1      -3.568 -23.203 -14.959  1.00  0.00     0.000 C 
BRANCH  18  19
ATOM     19  C   UNL     1      -4.429 -21.924 -14.998  1.00  0.00     0.000 C 
BRANCH  19  20
ATOM     20  C   UNL     1      -4.200 -21.047 -16.247  1.00  0.00     0.000 C 
BRANCH  20  21
ATOM     21  C   UNL     1      -5.262 -19.947 -16.409  1.00  0.00     0.000 C 
BRANCH  21  22
ATOM     22  C   UNL     1      -6.118 -19.817 -15.142  1.00  0.00    -0.000 C 
BRANCH  22  23
ATOM     23  C   UNL     1      -6.702 -18.405 -15.014  1.00  0.00    -0.000 C 
BRANCH  23  24
ATOM     24  C   UNL     1      -7.521 -18.033 -16.259  1.00  0.00    -0.000 C 
BRANCH  24  25
ATOM     25  C   UNL     1      -6.930 -16.834 -17.018  1.00  0.00    -0.000 C 
BRANCH  25  26
ATOM     26  C   UNL     1      -7.134 -15.508 -16.265  1.00  0.00    -0.000 C 
BRANCH  26  27
ATOM     27  C   UNL     1      -5.822 -14.735 -16.040  1.00  0.00    -0.000 C 
BRANCH  27  28
ATOM     28  C   UNL     1      -4.537 -15.564 -16.214  1.00  0.00    -0.000 C 
BRANCH  28  29
ATOM     29  C   UNL     1      -3.908 -15.987 -14.878  1.00  0.00    -0.003 C 
ATOM     30  C   UNL     1      -3.106 -17.275 -15.033  1.00  0.00     0.004 C 
ENDBRANCH  28  29
ENDBRANCH  27  28
ENDBRANCH  26  27
ENDBRANCH  25  26
ENDBRANCH  24  25
ENDBRANCH  23  24
ENDBRANCH  22  23
ENDBRANCH  21  22
ENDBRANCH  20  21
ENDBRANCH  19  20
ENDBRANCH  18  19
ENDBRANCH  17  18
ENDBRANCH   1  17
TORSDOF 26
ENDMDL
MODEL 8
REMARK VINA RESULT:    -4.432      4.317      8.886
REMARK INTER + INTRA:         -15.168
REMARK INTER:                 -10.735
REMARK INTRA:                  -4.434
REMARK UNBOUND:                -4.000
REMARK SMILES CCCCCCCCCCCCCCCCCCCCCCCCCCCC(=O)[O-]
REMARK SMILES IDX 15 1 16 2 17 3 18 4 19 5 20 6 21 7 22 8 23 9 24 10 25 11
REMARK SMILES IDX 26 12 27 13 28 14 29 15 30 16 14 17 13 18 12 19 11 20 10 21
REMARK SMILES IDX 9 22 8 23 7 24 6 25 5 26 4 27 3 28 2 29 1 30
REMARK H PARENT
REMARK Flexibility Score: inf
ROOT
ATOM      1  C   UNL     1      -3.169 -21.598 -14.523  1.00  0.00     0.000 C 
ENDROOT
BRANCH   1   2
ATOM      2  C   UNL     1      -4.304 -21.421 -15.545  1.00  0.00     0.000 C 
BRANCH   2   3
ATOM      3  C   UNL     1      -4.221 -22.447 -16.688  1.00  0.00     0.000 C 
BRANCH   3   4
ATOM      4  C   UNL     1      -4.804 -23.816 -16.287  1.00  0.00     0.000 C 
BRANCH   4   5
ATOM      5  C   UNL     1      -6.294 -23.727 -15.889  1.00  0.00     0.000 C 
BRANCH   5   6
ATOM      6  C   UNL     1      -6.593 -24.284 -14.486  1.00  0.00     0.000 C 
BRANCH   6   7
ATOM      7  C   UNL     1      -7.495 -23.357 -13.659  1.00  0.00     0.000 C 
BRANCH   7   8
ATOM      8  C   UNL     1      -8.164 -22.295 -14.543  1.00  0.00     0.000 C 
BRANCH   8   9
ATOM      9  C   UNL     1      -7.787 -20.861 -14.136  1.00  0.00     0.000 C 
BRANCH   9  10
ATOM     10  C   UNL     1      -7.410 -19.983 -15.339  1.00  0.00     0.000 C 
BRANCH  10  11
ATOM     11  C   UNL     1      -6.804 -18.647 -14.884  1.00  0.00     0.000 C 
BRANCH  11  12
ATOM     12  C   UNL     1      -6.249 -17.818 -16.057  1.00  0.00     0.006 C 
BRANCH  12  13
ATOM     13  C   UNL     1      -6.880 -16.423 -16.200  1.00  0.00     0.053 C 
BRANCH  13  14
ATOM     14  C   UNL     1      -7.744 -16.318 -17.419  1.00  0.00     0.041 C 
ATOM     15  O   UNL     1      -7.590 -17.118 -18.378  1.00  0.00    -0.550 OA
ATOM     16  O   UNL     1      -8.724 -15.336 -17.493  1.00  0.00    -0.550 OA
ENDBRANCH  13  14
ENDBRANCH  12  13
ENDBRANCH  11  12
ENDBRANCH  10  11
ENDBRANCH   9  10
ENDBRANCH   8   9
ENDBRANCH   7   8
ENDBRANCH   6   7
ENDBRANCH   5   6
ENDBRANCH   4   5
ENDBRANCH   3   4
ENDBRANCH   2   3
ENDBRANCH   1   2
BRANCH   1  17
ATOM     17  C   UNL     1      -3.678 -22.031 -13.135  1.00  0.00     0.000 C 
BRANCH  17  18
ATOM     18  C   UNL     1      -3.003 -23.291 -12.558  1.00  0.00     0.000 C 
BRANCH  18  19
ATOM     19  C   UNL     1      -2.318 -24.210 -13.590  1.00  0.00     0.000 C 
BRANCH  19  20
ATOM     20  C   UNL     1      -0.924 -24.713 -13.159  1.00  0.00     0.000 C 
BRANCH  20  21
ATOM     21  C   UNL     1       0.110 -24.657 -14.296  1.00  0.00     0.000 C 
BRANCH  21  22
ATOM     22  C   UNL     1      -0.501 -24.055 -15.567  1.00  0.00    -0.000 C 
BRANCH  22  23
ATOM     23  C   UNL     1       0.515 -23.172 -16.302  1.00  0.00    -0.000 C 
BRANCH  23  24
ATOM     24  C   UNL     1       0.250 -21.684 -16.028  1.00  0.00    -0.000 C 
BRANCH  24  25
ATOM     25  C   UNL     1       1.005 -21.169 -14.792  1.00  0.00    -0.000 C 
BRANCH  25  26
ATOM     26  C   UNL     1       0.067 -20.904 -13.602  1.00  0.00    -0.000 C 
BRANCH  26  27
ATOM     27  C   UNL     1       0.792 -20.940 -12.244  1.00  0.00    -0.000 C 
BRANCH  27  28
ATOM     28  C   UNL     1       2.172 -21.621 -12.258  1.00  0.00    -0.000 C 
BRANCH  28  29
ATOM     29  C   UNL     1       3.309 -20.684 -11.824  1.00  0.00    -0.003 C 
ATOM     30  C   UNL     1       4.032 -20.101 -13.035  1.00  0.00     0.004 C 
ENDBRANCH  28  29
ENDBRANCH  27  28
ENDBRANCH  26  27
ENDBRANCH  25  26
ENDBRANCH  24  25
ENDBRANCH  23  24
ENDBRANCH  22  23
ENDBRANCH  21  22
ENDBRANCH  20  21
ENDBRANCH  19  20
ENDBRANCH  18  19
ENDBRANCH  17  18
ENDBRANCH   1  17
TORSDOF 26
ENDMDL
MODEL 9
REMARK VINA RESULT:    -4.418      2.213      4.739
REMARK INTER + INTRA:         -15.133
REMARK INTER:                 -10.533
REMARK INTRA:                  -4.600
REMARK UNBOUND:                -4.000
REMARK SMILES CCCCCCCCCCCCCCCCCCCCCCCCCCCC(=O)[O-]
REMARK SMILES IDX 15 1 16 2 17 3 18 4 19 5 20 6 21 7 22 8 23 9 24 10 25 11
REMARK SMILES IDX 26 12 27 13 28 14 29 15 30 16 14 17 13 18 12 19 11 20 10 21
REMARK SMILES IDX 9 22 8 23 7 24 6 25 5 26 4 27 3 28 2 29 1 30
REMARK H PARENT
REMARK Flexibility Score: inf
ROOT
ATOM      1  C   UNL     1       0.340 -25.127 -13.580  1.00  0.00     0.000 C 
ENDROOT
BRANCH   1   2
ATOM      2  C   UNL     1      -0.903 -26.000 -13.339  1.00  0.00     0.000 C 
BRANCH   2   3
ATOM      3  C   UNL     1      -1.891 -25.345 -12.357  1.00  0.00     0.000 C 
BRANCH   3   4
ATOM      4  C   UNL     1      -2.589 -24.114 -12.967  1.00  0.00     0.000 C 
BRANCH   4   5
ATOM      5  C   UNL     1      -2.009 -22.786 -12.434  1.00  0.00     0.000 C 
BRANCH   5   6
ATOM      6  C   UNL     1      -2.821 -21.546 -12.850  1.00  0.00     0.000 C 
BRANCH   6   7
ATOM      7  C   UNL     1      -2.105 -20.694 -13.906  1.00  0.00     0.000 C 
BRANCH   7   8
ATOM      8  C   UNL     1      -1.609 -19.368 -13.312  1.00  0.00     0.000 C 
BRANCH   8   9
ATOM      9  C   UNL     1      -0.113 -19.125 -13.571  1.00  0.00     0.000 C 
BRANCH   9  10
ATOM     10  C   UNL     1       0.758 -20.332 -13.194  1.00  0.00     0.000 C 
BRANCH  10  11
ATOM     11  C   UNL     1       1.862 -20.570 -14.235  1.00  0.00     0.000 C 
BRANCH  11  12
ATOM     12  C   UNL     1       3.241 -20.076 -13.760  1.00  0.00     0.006 C 
BRANCH  12  13
ATOM     13  C   UNL     1       3.371 -19.931 -12.235  1.00  0.00     0.053 C 
BRANCH  13  14
ATOM     14  C   UNL     1       4.282 -20.964 -11.647  1.00  0.00     0.041 C 
ATOM     15  O   UNL     1       5.237 -21.429 -12.323  1.00  0.00    -0.550 OA
ATOM     16  O   UNL     1       4.077 -21.412 -10.347  1.00  0.00    -0.550 OA
ENDBRANCH  13  14
ENDBRANCH  12  13
ENDBRANCH  11  12
ENDBRANCH  10  11
ENDBRANCH   9  10
ENDBRANCH   8   9
ENDBRANCH   7   8
ENDBRANCH   6   7
ENDBRANCH   5   6
ENDBRANCH   4   5
ENDBRANCH   3   4
ENDBRANCH   2   3
ENDBRANCH   1   2
BRANCH   1  17
ATOM     17  C   UNL     1       0.542 -24.774 -15.066  1.00  0.00     0.000 C 
BRANCH  17  18
ATOM     18  C   UNL     1       0.150 -23.335 -15.453  1.00  0.00     0.000 C 
BRANCH  18  19
ATOM     19  C   UNL     1      -0.996 -23.209 -16.477  1.00  0.00     0.000 C 
BRANCH  19  20
ATOM     20  C   UNL     1      -1.864 -24.477 -16.612  1.00  0.00     0.000 C 
BRANCH  20  21
ATOM     21  C   UNL     1      -3.371 -24.178 -16.572  1.00  0.00     0.000 C 
BRANCH  21  22
ATOM     22  C   UNL     1      -3.632 -22.702 -16.245  1.00  0.00    -0.000 C 
BRANCH  22  23
ATOM     23  C   UNL     1      -5.106 -22.341 -16.461  1.00  0.00    -0.000 C 
BRANCH  23  24
ATOM     24  C   UNL     1      -5.848 -22.235 -15.120  1.00  0.00    -0.000 C 
BRANCH  24  25
ATOM     25  C   UNL     1      -5.975 -20.784 -14.629  1.00  0.00    -0.000 C 
BRANCH  25  26
ATOM     26  C   UNL     1      -6.808 -19.914 -15.586  1.00  0.00    -0.000 C 
BRANCH  26  27
ATOM     27  C   UNL     1      -6.017 -18.725 -16.161  1.00  0.00    -0.000 C 
BRANCH  27  28
ATOM     28  C   UNL     1      -4.501 -18.761 -15.900  1.00  0.00    -0.000 C 
BRANCH  28  29
ATOM     29  C   UNL     1      -3.800 -17.437 -16.237  1.00  0.00    -0.003 C 
ATOM     30  C   UNL     1      -4.262 -16.319 -15.306  1.00  0.00     0.004 C 
ENDBRANCH  28  29
ENDBRANCH  27  28
ENDBRANCH  26  27
ENDBRANCH  25  26
ENDBRANCH  24  25
ENDBRANCH  23  24
ENDBRANCH  22  23
ENDBRANCH  21  22
ENDBRANCH  20  21
ENDBRANCH  19  20
ENDBRANCH  18  19
ENDBRANCH  17  18
ENDBRANCH   1  17
TORSDOF 26
ENDMDL
