MODEL 1
REMARK VINA RESULT:    -6.413      0.000      0.000
REMARK INTER + INTRA:          -8.042
REMARK INTER:                  -7.725
REMARK INTRA:                  -0.317
REMARK UNBOUND:                -0.317
REMARK SMILES O=c1c(O)c(-c2ccc(O)c(O)c2)oc2cc(O)cc(O)c12
REMARK SMILES IDX 5 1 3 2 2 3 1 4 22 5 20 6 19 7 17 8 16 9 15 10 14 11 6 12
REMARK SMILES IDX 7 13 8 14 9 15 13 16 11 17 10 18 12 20 4 22 21 24 18 26
REMARK H PARENT 10 19 12 21 4 23 21 25 18 27
REMARK Flexibility Score: inf
ROOT
ATOM      1  C   UNL     1       1.170   6.296  -6.287  1.00  0.00     0.180 A 
ATOM      2  C   UNL     1       1.126   6.650  -4.928  1.00  0.00     0.208 A 
ATOM      3  C   UNL     1       0.258   7.676  -4.520  1.00  0.00     0.238 A 
ATOM      4  O   UNL     1       0.278   8.039  -3.315  1.00  0.00    -0.285 OA
ATOM      5  C   UNL     1      -0.596   8.296  -5.465  1.00  0.00     0.111 A 
ATOM      6  C   UNL     1      -1.548   9.314  -5.155  1.00  0.00     0.134 A 
ATOM      7  C   UNL     1      -2.263   9.928  -6.190  1.00  0.00     0.093 A 
ATOM      8  C   UNL     1      -2.108   9.517  -7.516  1.00  0.00     0.123 A 
ATOM      9  C   UNL     1      -1.224   8.487  -7.822  1.00  0.00     0.094 A 
ATOM     10  C   UNL     1      -0.467   7.880  -6.816  1.00  0.00     0.146 A 
ATOM     11  O   UNL     1       0.381   6.917  -7.156  1.00  0.00    -0.452 OA
ENDROOT
BRANCH   1  12
ATOM     12  C   UNL     1       2.069   5.235  -6.797  1.00  0.00     0.025 A 
ATOM     13  C   UNL     1       1.636   3.902  -6.913  1.00  0.00     0.016 A 
ATOM     14  C   UNL     1       2.509   2.913  -7.373  1.00  0.00     0.051 A 
ATOM     15  C   UNL     1       3.829   3.237  -7.710  1.00  0.00     0.157 A 
ATOM     16  C   UNL     1       3.398   5.550  -7.116  1.00  0.00     0.062 A 
ATOM     17  C   UNL     1       4.277   4.563  -7.577  1.00  0.00     0.158 A 
BRANCH  15  18
ATOM     18  O   UNL     1       4.698   2.249  -8.169  1.00  0.00    -0.504 OA
ATOM     19  H   UNL     1       4.434   1.271  -8.173  1.00  0.00     0.293 HD
ENDBRANCH  15  18
BRANCH  17  20
ATOM     20  O   UNL     1       5.587   4.916  -7.897  1.00  0.00    -0.504 OA
ATOM     21  H   UNL     1       6.048   5.713  -7.475  1.00  0.00     0.293 HD
ENDBRANCH  17  20
ENDBRANCH   1  12
BRANCH   2  22
ATOM     22  O   UNL     1       1.920   5.975  -3.998  1.00  0.00    -0.502 OA
ATOM     23  H   UNL     1       1.528   5.450  -3.226  1.00  0.00     0.293 HD
ENDBRANCH   2  22
BRANCH   6  24
ATOM     24  O   UNL     1      -1.845   9.739  -3.856  1.00  0.00    -0.507 OA
ATOM     25  H   UNL     1      -2.300  10.608  -3.621  1.00  0.00     0.293 HD
ENDBRANCH   6  24
BRANCH   8  26
ATOM     26  O   UNL     1      -2.837  10.123  -8.537  1.00  0.00    -0.508 OA
ATOM     27  H   UNL     1      -3.827  10.318  -8.438  1.00  0.00     0.293 HD
ENDBRANCH   8  26
TORSDOF 6
ENDMDL
MODEL 2
REMARK VINA RESULT:    -6.359      1.817      3.702
REMARK INTER + INTRA:          -7.977
REMARK INTER:                  -7.680
REMARK INTRA:                  -0.297
REMARK UNBOUND:                -0.317
REMARK SMILES O=c1c(O)c(-c2ccc(O)c(O)c2)oc2cc(O)cc(O)c12
REMARK SMILES IDX 5 1 3 2 2 3 1 4 22 5 20 6 19 7 17 8 16 9 15 10 14 11 6 12
REMARK SMILES IDX 7 13 8 14 9 15 13 16 11 17 10 18 12 20 4 22 21 24 18 26
REMARK H PARENT 10 19 12 21 4 23 21 25 18 27
REMARK Flexibility Score: inf
ROOT
ATOM      1  C   UNL     1       0.640   6.728  -5.712  1.00  0.00     0.180 A 
ATOM      2  C   UNL     1      -0.520   7.305  -6.258  1.00  0.00     0.208 A 
ATOM      3  C   UNL     1      -1.299   8.155  -5.456  1.00  0.00     0.238 A 
ATOM      4  O   UNL     1      -2.376   8.607  -5.926  1.00  0.00    -0.285 OA
ATOM      5  C   UNL     1      -0.879   8.464  -4.139  1.00  0.00     0.111 A 
ATOM      6  C   UNL     1      -1.566   9.349  -3.254  1.00  0.00     0.134 A 
ATOM      7  C   UNL     1      -1.115   9.496  -1.937  1.00  0.00     0.093 A 
ATOM      8  C   UNL     1       0.036   8.840  -1.492  1.00  0.00     0.123 A 
ATOM      9  C   UNL     1       0.744   8.019  -2.364  1.00  0.00     0.094 A 
ATOM     10  C   UNL     1       0.298   7.821  -3.673  1.00  0.00     0.146 A 
ATOM     11  O   UNL     1       0.991   7.011  -4.463  1.00  0.00    -0.452 OA
ENDROOT
BRANCH   1  12
ATOM     12  C   UNL     1       1.505   5.811  -6.489  1.00  0.00     0.025 A 
ATOM     13  C   UNL     1       2.666   6.272  -7.135  1.00  0.00     0.016 A 
ATOM     14  C   UNL     1       3.454   5.393  -7.883  1.00  0.00     0.051 A 
ATOM     15  C   UNL     1       3.087   4.047  -8.009  1.00  0.00     0.157 A 
ATOM     16  C   UNL     1       1.131   4.467  -6.635  1.00  0.00     0.062 A 
ATOM     17  C   UNL     1       1.917   3.583  -7.383  1.00  0.00     0.158 A 
BRANCH  15  18
ATOM     18  O   UNL     1       3.875   3.173  -8.755  1.00  0.00    -0.504 OA
ATOM     19  H   UNL     1       4.593   2.604  -8.321  1.00  0.00     0.293 HD
ENDBRANCH  15  18
BRANCH  17  20
ATOM     20  O   UNL     1       1.520   2.251  -7.496  1.00  0.00    -0.504 OA
ATOM     21  H   UNL     1       2.114   1.546  -7.915  1.00  0.00     0.293 HD
ENDBRANCH  17  20
ENDBRANCH   1  12
BRANCH   2  22
ATOM     22  O   UNL     1      -0.877   7.048  -7.584  1.00  0.00    -0.502 OA
ATOM     23  H   UNL     1      -1.667   6.465  -7.831  1.00  0.00     0.293 HD
ENDBRANCH   2  22
BRANCH   6  24
ATOM     24  O   UNL     1      -2.673  10.121  -3.621  1.00  0.00    -0.507 OA
ATOM     25  H   UNL     1      -3.075  10.858  -3.064  1.00  0.00     0.293 HD
ENDBRANCH   6  24
BRANCH   8  26
ATOM     26  O   UNL     1       0.488   9.006  -0.185  1.00  0.00    -0.508 OA
ATOM     27  H   UNL     1       1.300   8.509   0.163  1.00  0.00     0.293 HD
ENDBRANCH   8  26
TORSDOF 6
ENDMDL
MODEL 3
REMARK VINA RESULT:    -6.310      1.942      7.326
REMARK INTER + INTRA:          -7.918
REMARK INTER:                  -7.598
REMARK INTRA:                  -0.320
REMARK UNBOUND:                -0.317
REMARK SMILES O=c1c(O)c(-c2ccc(O)c(O)c2)oc2cc(O)cc(O)c12
REMARK SMILES IDX 5 1 3 2 2 3 1 4 22 5 20 6 19 7 17 8 16 9 15 10 14 11 6 12
REMARK SMILES IDX 7 13 8 14 9 15 13 16 11 17 10 18 12 20 4 22 21 24 18 26
REMARK H PARENT 10 19 12 21 4 23 21 25 18 27
REMARK Flexibility Score: inf
ROOT
ATOM      1  C   UNL     1       2.015   5.777  -6.526  1.00  0.00     0.180 A 
ATOM      2  C   UNL     1       2.939   6.514  -7.286  1.00  0.00     0.208 A 
ATOM      3  C   UNL     1       4.045   5.852  -7.842  1.00  0.00     0.238 A 
ATOM      4  O   UNL     1       4.909   6.531  -8.457  1.00  0.00    -0.285 OA
ATOM      5  C   UNL     1       4.184   4.451  -7.681  1.00  0.00     0.111 A 
ATOM      6  C   UNL     1       5.240   3.669  -8.240  1.00  0.00     0.134 A 
ATOM      7  C   UNL     1       5.331   2.308  -7.925  1.00  0.00     0.093 A 
ATOM      8  C   UNL     1       4.369   1.686  -7.125  1.00  0.00     0.123 A 
ATOM      9  C   UNL     1       3.306   2.428  -6.621  1.00  0.00     0.094 A 
ATOM     10  C   UNL     1       3.207   3.797  -6.885  1.00  0.00     0.146 A 
ATOM     11  O   UNL     1       2.188   4.470  -6.365  1.00  0.00    -0.452 OA
ENDROOT
BRANCH   1  12
ATOM     12  C   UNL     1       0.832   6.406  -5.896  1.00  0.00     0.025 A 
ATOM     13  C   UNL     1       0.853   6.823  -4.554  1.00  0.00     0.016 A 
ATOM     14  C   UNL     1      -0.284   7.393  -3.973  1.00  0.00     0.051 A 
ATOM     15  C   UNL     1      -1.460   7.541  -4.719  1.00  0.00     0.157 A 
ATOM     16  C   UNL     1      -0.355   6.538  -6.633  1.00  0.00     0.062 A 
ATOM     17  C   UNL     1      -1.496   7.107  -6.056  1.00  0.00     0.158 A 
BRANCH  15  18
ATOM     18  O   UNL     1      -2.592   8.110  -4.138  1.00  0.00    -0.504 OA
ATOM     19  H   UNL     1      -3.126   7.623  -3.429  1.00  0.00     0.293 HD
ENDBRANCH  15  18
BRANCH  17  20
ATOM     20  O   UNL     1      -2.653   7.234  -6.823  1.00  0.00    -0.504 OA
ATOM     21  H   UNL     1      -3.384   6.533  -6.814  1.00  0.00     0.293 HD
ENDBRANCH  17  20
ENDBRANCH   1  12
BRANCH   2  22
ATOM     22  O   UNL     1       2.746   7.882  -7.497  1.00  0.00    -0.502 OA
ATOM     23  H   UNL     1       1.938   8.378  -7.141  1.00  0.00     0.293 HD
ENDBRANCH   2  22
BRANCH   6  24
ATOM     24  O   UNL     1       6.202   4.169  -9.122  1.00  0.00    -0.507 OA
ATOM     25  H   UNL     1       7.164   4.355  -8.885  1.00  0.00     0.293 HD
ENDBRANCH   6  24
BRANCH   8  26
ATOM     26  O   UNL     1       4.460   0.328  -6.831  1.00  0.00    -0.508 OA
ATOM     27  H   UNL     1       5.173  -0.034  -6.208  1.00  0.00     0.293 HD
ENDBRANCH   8  26
TORSDOF 6
ENDMDL
MODEL 4
REMARK VINA RESULT:    -6.259      1.647      7.175
REMARK INTER + INTRA:          -7.857
REMARK INTER:                  -7.564
REMARK INTRA:                  -0.293
REMARK UNBOUND:                -0.317
REMARK SMILES O=c1c(O)c(-c2ccc(O)c(O)c2)oc2cc(O)cc(O)c12
REMARK SMILES IDX 5 1 3 2 2 3 1 4 22 5 20 6 19 7 17 8 16 9 15 10 14 11 6 12
REMARK SMILES IDX 7 13 8 14 9 15 13 16 11 17 10 18 12 20 4 22 21 24 18 26
REMARK H PARENT 10 19 12 21 4 23 21 25 18 27
REMARK Flexibility Score: inf
ROOT
ATOM      1  C   UNL     1       1.748   5.872  -6.848  1.00  0.00     0.180 A 
ATOM      2  C   UNL     1       1.340   4.530  -6.767  1.00  0.00     0.208 A 
ATOM      3  C   UNL     1       2.271   3.517  -7.049  1.00  0.00     0.238 A 
ATOM      4  O   UNL     1       1.880   2.321  -7.049  1.00  0.00    -0.285 OA
ATOM      5  C   UNL     1       3.613   3.857  -7.352  1.00  0.00     0.111 A 
ATOM      6  C   UNL     1       4.652   2.912  -7.609  1.00  0.00     0.134 A 
ATOM      7  C   UNL     1       5.916   3.366  -8.002  1.00  0.00     0.093 A 
ATOM      8  C   UNL     1       6.198   4.732  -8.085  1.00  0.00     0.123 A 
ATOM      9  C   UNL     1       5.207   5.661  -7.783  1.00  0.00     0.094 A 
ATOM     10  C   UNL     1       3.924   5.240  -7.425  1.00  0.00     0.146 A 
ATOM     11  O   UNL     1       3.004   6.161  -7.166  1.00  0.00    -0.452 OA
ENDROOT
BRANCH   1  12
ATOM     12  C   UNL     1       0.821   6.996  -6.580  1.00  0.00     0.025 A 
ATOM     13  C   UNL     1       0.785   7.631  -5.326  1.00  0.00     0.016 A 
ATOM     14  C   UNL     1      -0.115   8.673  -5.088  1.00  0.00     0.051 A 
ATOM     15  C   UNL     1      -1.002   9.085  -6.091  1.00  0.00     0.157 A 
ATOM     16  C   UNL     1      -0.084   7.398  -7.575  1.00  0.00     0.062 A 
ATOM     17  C   UNL     1      -0.987   8.441  -7.341  1.00  0.00     0.158 A 
BRANCH  15  18
ATOM     18  O   UNL     1      -1.898  10.125  -5.851  1.00  0.00    -0.504 OA
ATOM     19  H   UNL     1      -1.591  11.089  -5.803  1.00  0.00     0.293 HD
ENDBRANCH  15  18
BRANCH  17  20
ATOM     20  O   UNL     1      -1.862   8.822  -8.358  1.00  0.00    -0.504 OA
ATOM     21  H   UNL     1      -1.921   9.777  -8.686  1.00  0.00     0.293 HD
ENDBRANCH  17  20
ENDBRANCH   1  12
BRANCH   2  22
ATOM     22  O   UNL     1       0.031   4.212  -6.393  1.00  0.00    -0.502 OA
ATOM     23  H   UNL     1      -0.391   3.315  -6.598  1.00  0.00     0.293 HD
ENDBRANCH   2  22
BRANCH   6  24
ATOM     24  O   UNL     1       4.504   1.528  -7.470  1.00  0.00    -0.507 OA
ATOM     25  H   UNL     1       4.124   0.913  -8.173  1.00  0.00     0.293 HD
ENDBRANCH   6  24
BRANCH   8  26
ATOM     26  O   UNL     1       7.464   5.175  -8.460  1.00  0.00    -0.508 OA
ATOM     27  H   UNL     1       8.246   5.153  -7.816  1.00  0.00     0.293 HD
ENDBRANCH   8  26
TORSDOF 6
ENDMDL
MODEL 5
REMARK VINA RESULT:    -6.207      1.248      3.058
REMARK INTER + INTRA:          -7.794
REMARK INTER:                  -7.473
REMARK INTRA:                  -0.322
REMARK UNBOUND:                -0.317
REMARK SMILES O=c1c(O)c(-c2ccc(O)c(O)c2)oc2cc(O)cc(O)c12
REMARK SMILES IDX 5 1 3 2 2 3 1 4 22 5 20 6 19 7 17 8 16 9 15 10 14 11 6 12
REMARK SMILES IDX 7 13 8 14 9 15 13 16 11 17 10 18 12 20 4 22 21 24 18 26
REMARK H PARENT 10 19 12 21 4 23 21 25 18 27
REMARK Flexibility Score: inf
ROOT
ATOM      1  C   UNL     1       1.331   6.312  -6.294  1.00  0.00     0.180 A 
ATOM      2  C   UNL     1       0.416   6.998  -7.110  1.00  0.00     0.208 A 
ATOM      3  C   UNL     1      -0.430   7.957  -6.529  1.00  0.00     0.238 A 
ATOM      4  O   UNL     1      -1.298   8.513  -7.251  1.00  0.00    -0.285 OA
ATOM      5  C   UNL     1      -0.310   8.260  -5.150  1.00  0.00     0.111 A 
ATOM      6  C   UNL     1      -1.083   9.246  -4.464  1.00  0.00     0.134 A 
ATOM      7  C   UNL     1      -0.952   9.383  -3.078  1.00  0.00     0.093 A 
ATOM      8  C   UNL     1      -0.030   8.616  -2.360  1.00  0.00     0.123 A 
ATOM      9  C   UNL     1       0.767   7.691  -3.028  1.00  0.00     0.094 A 
ATOM     10  C   UNL     1       0.633   7.503  -4.406  1.00  0.00     0.146 A 
ATOM     11  O   UNL     1       1.398   6.594  -4.998  1.00  0.00    -0.452 OA
ENDROOT
BRANCH   1  12
ATOM     12  C   UNL     1       2.245   5.278  -6.830  1.00  0.00     0.025 A 
ATOM     13  C   UNL     1       1.823   3.949  -7.008  1.00  0.00     0.016 A 
ATOM     14  C   UNL     1       2.710   2.985  -7.493  1.00  0.00     0.051 A 
ATOM     15  C   UNL     1       4.034   3.330  -7.794  1.00  0.00     0.157 A 
ATOM     16  C   UNL     1       3.578   5.614  -7.113  1.00  0.00     0.062 A 
ATOM     17  C   UNL     1       4.470   4.652  -7.599  1.00  0.00     0.158 A 
BRANCH  15  18
ATOM     18  O   UNL     1       4.917   2.366  -8.278  1.00  0.00    -0.504 OA
ATOM     19  H   UNL     1       5.368   2.466  -9.180  1.00  0.00     0.293 HD
ENDBRANCH  15  18
BRANCH  17  20
ATOM     20  O   UNL     1       5.784   5.026  -7.882  1.00  0.00    -0.504 OA
ATOM     21  H   UNL     1       6.137   5.076  -8.829  1.00  0.00     0.293 HD
ENDBRANCH  17  20
ENDBRANCH   1  12
BRANCH   2  22
ATOM     22  O   UNL     1       0.365   6.740  -8.483  1.00  0.00    -0.502 OA
ATOM     23  H   UNL     1      -0.498   6.776  -9.011  1.00  0.00     0.293 HD
ENDBRANCH   2  22
BRANCH   6  24
ATOM     24  O   UNL     1      -1.968  10.125  -5.096  1.00  0.00    -0.507 OA
ATOM     25  H   UNL     1      -2.344  10.000  -6.023  1.00  0.00     0.293 HD
ENDBRANCH   6  24
BRANCH   8  26
ATOM     26  O   UNL     1       0.105   8.773  -0.983  1.00  0.00    -0.508 OA
ATOM     27  H   UNL     1      -0.024   7.995  -0.345  1.00  0.00     0.293 HD
ENDBRANCH   8  26
TORSDOF 6
ENDMDL
MODEL 6
REMARK VINA RESULT:    -5.909     13.085     14.767
REMARK INTER + INTRA:          -7.435
REMARK INTER:                  -7.551
REMARK INTRA:                   0.116
REMARK UNBOUND:                -0.317
REMARK SMILES O=c1c(O)c(-c2ccc(O)c(O)c2)oc2cc(O)cc(O)c12
REMARK SMILES IDX 5 1 3 2 2 3 1 4 22 5 20 6 19 7 17 8 16 9 15 10 14 11 6 12
REMARK SMILES IDX 7 13 8 14 9 15 13 16 11 17 10 18 12 20 4 22 21 24 18 26
REMARK H PARENT 10 19 12 21 4 23 21 25 18 27
REMARK Flexibility Score: inf
ROOT
ATOM      1  C   UNL     1      -2.299   4.111   7.670  1.00  0.00     0.180 A 
ATOM      2  C   UNL     1      -1.780   5.363   8.043  1.00  0.00     0.208 A 
ATOM      3  C   UNL     1      -2.289   6.520   7.432  1.00  0.00     0.238 A 
ATOM      4  O   UNL     1      -1.768   7.630   7.714  1.00  0.00    -0.285 OA
ATOM      5  C   UNL     1      -3.350   6.417   6.498  1.00  0.00     0.111 A 
ATOM      6  C   UNL     1      -3.975   7.526   5.852  1.00  0.00     0.134 A 
ATOM      7  C   UNL     1      -4.943   7.296   4.868  1.00  0.00     0.093 A 
ATOM      8  C   UNL     1      -5.357   5.999   4.553  1.00  0.00     0.123 A 
ATOM      9  C   UNL     1      -4.793   4.914   5.217  1.00  0.00     0.094 A 
ATOM     10  C   UNL     1      -3.797   5.108   6.177  1.00  0.00     0.146 A 
ATOM     11  O   UNL     1      -3.272   4.043   6.769  1.00  0.00    -0.452 OA
ENDROOT
BRANCH   1  12
ATOM     12  C   UNL     1      -1.804   2.845   8.259  1.00  0.00     0.025 A 
ATOM     13  C   UNL     1      -0.436   2.639   8.506  1.00  0.00     0.016 A 
ATOM     14  C   UNL     1       0.011   1.427   9.039  1.00  0.00     0.051 A 
ATOM     15  C   UNL     1      -0.899   0.400   9.320  1.00  0.00     0.157 A 
ATOM     16  C   UNL     1      -2.710   1.806   8.523  1.00  0.00     0.062 A 
ATOM     17  C   UNL     1      -2.267   0.591   9.057  1.00  0.00     0.158 A 
BRANCH  15  18
ATOM     18  O   UNL     1      -0.451  -0.807   9.854  1.00  0.00    -0.504 OA
ATOM     19  H   UNL     1      -0.662  -1.077  10.807  1.00  0.00     0.293 HD
ENDBRANCH  15  18
BRANCH  17  20
ATOM     20  O   UNL     1      -3.197  -0.415   9.319  1.00  0.00    -0.504 OA
ATOM     21  H   UNL     1      -3.612  -0.540  10.234  1.00  0.00     0.293 HD
ENDBRANCH  17  20
ENDBRANCH   1  12
BRANCH   2  22
ATOM     22  O   UNL     1      -0.785   5.450   9.021  1.00  0.00    -0.502 OA
ATOM     23  H   UNL     1      -0.544   4.672   9.622  1.00  0.00     0.293 HD
ENDBRANCH   2  22
BRANCH   6  24
ATOM     24  O   UNL     1      -3.701   8.864   6.155  1.00  0.00    -0.507 OA
ATOM     25  H   UNL     1      -2.792   9.295   6.099  1.00  0.00     0.293 HD
ENDBRANCH   6  24
BRANCH   8  26
ATOM     26  O   UNL     1      -6.334   5.781   3.584  1.00  0.00    -0.508 OA
ATOM     27  H   UNL     1      -7.317   5.721   3.826  1.00  0.00     0.293 HD
ENDBRANCH   8  26
TORSDOF 6
ENDMDL
MODEL 7
REMARK VINA RESULT:    -5.906     11.021     12.805
REMARK INTER + INTRA:          -7.431
REMARK INTER:                  -7.110
REMARK INTRA:                  -0.321
REMARK UNBOUND:                -0.317
REMARK SMILES O=c1c(O)c(-c2ccc(O)c(O)c2)oc2cc(O)cc(O)c12
REMARK SMILES IDX 5 1 3 2 2 3 1 4 22 5 20 6 19 7 17 8 16 9 15 10 14 11 6 12
REMARK SMILES IDX 7 13 8 14 9 15 13 16 11 17 10 18 12 20 4 22 21 24 18 26
REMARK H PARENT 10 19 12 21 4 23 21 25 18 27
REMARK Flexibility Score: inf
ROOT
ATOM      1  C   UNL     1      -8.635   5.086   0.133  1.00  0.00     0.180 A 
ATOM      2  C   UNL     1      -8.528   6.201  -0.716  1.00  0.00     0.208 A 
ATOM      3  C   UNL     1      -8.737   6.030  -2.094  1.00  0.00     0.238 A 
ATOM      4  O   UNL     1      -8.566   7.016  -2.857  1.00  0.00    -0.285 OA
ATOM      5  C   UNL     1      -9.106   4.758  -2.599  1.00  0.00     0.111 A 
ATOM      6  C   UNL     1      -9.387   4.479  -3.971  1.00  0.00     0.134 A 
ATOM      7  C   UNL     1      -9.638   3.161  -4.369  1.00  0.00     0.093 A 
ATOM      8  C   UNL     1      -9.683   2.122  -3.437  1.00  0.00     0.123 A 
ATOM      9  C   UNL     1      -9.465   2.393  -2.089  1.00  0.00     0.094 A 
ATOM     10  C   UNL     1      -9.173   3.691  -1.665  1.00  0.00     0.146 A 
ATOM     11  O   UNL     1      -8.950   3.901  -0.373  1.00  0.00    -0.452 OA
ENDROOT
BRANCH   1  12
ATOM     12  C   UNL     1      -8.415   5.185   1.595  1.00  0.00     0.025 A 
ATOM     13  C   UNL     1      -9.477   5.444   2.479  1.00  0.00     0.016 A 
ATOM     14  C   UNL     1      -9.242   5.556   3.851  1.00  0.00     0.051 A 
ATOM     15  C   UNL     1      -7.943   5.427   4.359  1.00  0.00     0.157 A 
ATOM     16  C   UNL     1      -7.113   5.077   2.106  1.00  0.00     0.062 A 
ATOM     17  C   UNL     1      -6.872   5.189   3.480  1.00  0.00     0.158 A 
BRANCH  15  18
ATOM     18  O   UNL     1      -7.712   5.539   5.729  1.00  0.00    -0.504 OA
ATOM     19  H   UNL     1      -8.004   4.818   6.377  1.00  0.00     0.293 HD
ENDBRANCH  15  18
BRANCH  17  20
ATOM     20  O   UNL     1      -5.567   5.063   3.953  1.00  0.00    -0.504 OA
ATOM     21  H   UNL     1      -5.354   4.603   4.829  1.00  0.00     0.293 HD
ENDBRANCH  17  20
ENDBRANCH   1  12
BRANCH   2  22
ATOM     22  O   UNL     1      -8.238   7.463  -0.189  1.00  0.00    -0.502 OA
ATOM     23  H   UNL     1      -7.985   8.251  -0.773  1.00  0.00     0.293 HD
ENDBRANCH   2  22
BRANCH   6  24
ATOM     24  O   UNL     1      -9.456   5.455  -4.970  1.00  0.00    -0.507 OA
ATOM     25  H   UNL     1      -9.126   6.403  -4.877  1.00  0.00     0.293 HD
ENDBRANCH   6  24
BRANCH   8  26
ATOM     26  O   UNL     1      -9.950   0.816  -3.841  1.00  0.00    -0.508 OA
ATOM     27  H   UNL     1     -10.794   0.333  -3.551  1.00  0.00     0.293 HD
ENDBRANCH   8  26
TORSDOF 6
ENDMDL
MODEL 8
REMARK VINA RESULT:    -5.877      2.027      7.226
REMARK INTER + INTRA:          -7.397
REMARK INTER:                  -7.077
REMARK INTRA:                  -0.319
REMARK UNBOUND:                -0.317
REMARK SMILES O=c1c(O)c(-c2ccc(O)c(O)c2)oc2cc(O)cc(O)c12
REMARK SMILES IDX 5 1 3 2 2 3 1 4 22 5 20 6 19 7 17 8 16 9 15 10 14 11 6 12
REMARK SMILES IDX 7 13 8 14 9 15 13 16 11 17 10 18 12 20 4 22 21 24 18 26
REMARK H PARENT 10 19 12 21 4 23 21 25 18 27
REMARK Flexibility Score: inf
ROOT
ATOM      1  C   UNL     1       2.126   6.088  -6.613  1.00  0.00     0.180 A 
ATOM      2  C   UNL     1       2.918   6.896  -7.446  1.00  0.00     0.208 A 
ATOM      3  C   UNL     1       4.003   6.317  -8.124  1.00  0.00     0.238 A 
ATOM      4  O   UNL     1       4.754   7.061  -8.808  1.00  0.00    -0.285 OA
ATOM      5  C   UNL     1       4.249   4.927  -8.006  1.00  0.00     0.111 A 
ATOM      6  C   UNL     1       5.292   4.225  -8.683  1.00  0.00     0.134 A 
ATOM      7  C   UNL     1       5.504   2.870  -8.406  1.00  0.00     0.093 A 
ATOM      8  C   UNL     1       4.671   2.174  -7.526  1.00  0.00     0.123 A 
ATOM      9  C   UNL     1       3.618   2.836  -6.903  1.00  0.00     0.094 A 
ATOM     10  C   UNL     1       3.403   4.198  -7.129  1.00  0.00     0.146 A 
ATOM     11  O   UNL     1       2.400   4.794  -6.496  1.00  0.00    -0.452 OA
ENDROOT
BRANCH   1  12
ATOM     12  C   UNL     1       0.974   6.628  -5.855  1.00  0.00     0.025 A 
ATOM     13  C   UNL     1      -0.299   6.742  -6.441  1.00  0.00     0.016 A 
ATOM     14  C   UNL     1      -1.366   7.277  -5.714  1.00  0.00     0.051 A 
ATOM     15  C   UNL     1      -1.174   7.719  -4.399  1.00  0.00     0.157 A 
ATOM     16  C   UNL     1       1.166   7.091  -4.544  1.00  0.00     0.062 A 
ATOM     17  C   UNL     1       0.100   7.628  -3.813  1.00  0.00     0.158 A 
BRANCH  15  18
ATOM     18  O   UNL     1      -2.240   8.252  -3.676  1.00  0.00    -0.504 OA
ATOM     19  H   UNL     1      -2.755   7.696  -3.004  1.00  0.00     0.293 HD
ENDBRANCH  15  18
BRANCH  17  20
ATOM     20  O   UNL     1       0.326   8.067  -2.508  1.00  0.00    -0.504 OA
ATOM     21  H   UNL     1       1.022   8.768  -2.289  1.00  0.00     0.293 HD
ENDBRANCH  17  20
ENDBRANCH   1  12
BRANCH   2  22
ATOM     22  O   UNL     1       2.614   8.250  -7.610  1.00  0.00    -0.502 OA
ATOM     23  H   UNL     1       3.184   8.987  -7.213  1.00  0.00     0.293 HD
ENDBRANCH   2  22
BRANCH   6  24
ATOM     24  O   UNL     1       6.125   4.801  -9.647  1.00  0.00    -0.507 OA
ATOM     25  H   UNL     1       5.874   5.579 -10.238  1.00  0.00     0.293 HD
ENDBRANCH   6  24
BRANCH   8  26
ATOM     26  O   UNL     1       4.880   0.821  -7.271  1.00  0.00    -0.508 OA
ATOM     27  H   UNL     1       5.634   0.307  -7.713  1.00  0.00     0.293 HD
ENDBRANCH   8  26
TORSDOF 6
ENDMDL
MODEL 9
REMARK VINA RESULT:    -5.827      2.370      6.806
REMARK INTER + INTRA:          -7.336
REMARK INTER:                  -7.013
REMARK INTRA:                  -0.323
REMARK UNBOUND:                -0.317
REMARK SMILES O=c1c(O)c(-c2ccc(O)c(O)c2)oc2cc(O)cc(O)c12
REMARK SMILES IDX 5 1 3 2 2 3 1 4 22 5 20 6 19 7 17 8 16 9 15 10 14 11 6 12
REMARK SMILES IDX 7 13 8 14 9 15 13 16 11 17 10 18 12 20 4 22 21 24 18 26
REMARK H PARENT 10 19 12 21 4 23 21 25 18 27
REMARK Flexibility Score: inf
ROOT
ATOM      1  C   UNL     1       0.867   7.893  -5.159  1.00  0.00     0.180 A 
ATOM      2  C   UNL     1       1.706   8.723  -5.922  1.00  0.00     0.208 A 
ATOM      3  C   UNL     1       2.445   8.160  -6.976  1.00  0.00     0.238 A 
ATOM      4  O   UNL     1       3.251   8.893  -7.606  1.00  0.00    -0.285 OA
ATOM      5  C   UNL     1       2.291   6.787  -7.291  1.00  0.00     0.111 A 
ATOM      6  C   UNL     1       2.955   6.121  -8.366  1.00  0.00     0.134 A 
ATOM      7  C   UNL     1       2.808   4.737  -8.515  1.00  0.00     0.093 A 
ATOM      8  C   UNL     1       1.970   4.005  -7.669  1.00  0.00     0.123 A 
ATOM      9  C   UNL     1       1.276   4.655  -6.653  1.00  0.00     0.094 A 
ATOM     10  C   UNL     1       1.432   6.029  -6.453  1.00  0.00     0.146 A 
ATOM     11  O   UNL     1       0.768   6.603  -5.458  1.00  0.00    -0.452 OA
ENDROOT
BRANCH   1  12
ATOM     12  C   UNL     1       0.068   8.410  -4.025  1.00  0.00     0.025 A 
ATOM     13  C   UNL     1      -1.234   8.907  -4.212  1.00  0.00     0.016 A 
ATOM     14  C   UNL     1      -1.960   9.412  -3.130  1.00  0.00     0.051 A 
ATOM     15  C   UNL     1      -1.392   9.442  -1.850  1.00  0.00     0.157 A 
ATOM     16  C   UNL     1       0.640   8.461  -2.744  1.00  0.00     0.062 A 
ATOM     17  C   UNL     1      -0.083   8.966  -1.658  1.00  0.00     0.158 A 
BRANCH  15  18
ATOM     18  O   UNL     1      -2.119   9.945  -0.772  1.00  0.00    -0.504 OA
ATOM     19  H   UNL     1      -2.954   9.482  -0.433  1.00  0.00     0.293 HD
ENDBRANCH  15  18
BRANCH  17  20
ATOM     20  O   UNL     1       0.513   8.989  -0.397  1.00  0.00    -0.504 OA
ATOM     21  H   UNL     1       0.119   9.512   0.375  1.00  0.00     0.293 HD
ENDBRANCH  17  20
ENDBRANCH   1  12
BRANCH   2  22
ATOM     22  O   UNL     1       1.786  10.091  -5.645  1.00  0.00    -0.502 OA
ATOM     23  H   UNL     1       1.429  10.493  -4.788  1.00  0.00     0.293 HD
ENDBRANCH   2  22
BRANCH   6  24
ATOM     24  O   UNL     1       3.743   6.769  -9.321  1.00  0.00    -0.507 OA
ATOM     25  H   UNL     1       4.421   6.318  -9.915  1.00  0.00     0.293 HD
ENDBRANCH   6  24
BRANCH   8  26
ATOM     26  O   UNL     1       1.817   2.631  -7.836  1.00  0.00    -0.508 OA
ATOM     27  H   UNL     1       2.610   2.000  -7.798  1.00  0.00     0.293 HD
ENDBRANCH   8  26
TORSDOF 6
ENDMDL
