MODEL 1
REMARK VINA RESULT:    -6.500      0.000      0.000
REMARK INTER + INTRA:         -14.299
REMARK INTER:                 -12.199
REMARK INTRA:                  -2.100
REMARK UNBOUND:                -2.100
REMARK SMILES CCCCCCCCC=CCCCCCCCC(=O)[O-]
REMARK SMILES IDX 10 1 9 2 11 3 12 4 13 5 14 6 15 7 16 8 17 9 18 10 19 11
REMARK SMILES IDX 20 12 8 13 7 14 6 15 5 16 4 17 3 18 2 19 1 20
REMARK H PARENT
REMARK Flexibility Score: inf
ROOT
ATOM      1  C   UNL     1     130.544 125.065 127.076  1.00  0.00    -0.031 C 
ATOM      2  C   UNL     1     131.328 126.004 126.512  1.00  0.00    -0.031 C 
ENDROOT
BRANCH   1   3
ATOM      3  C   UNL     1     129.739 124.036 126.320  1.00  0.00     0.027 C 
BRANCH   3   4
ATOM      4  C   UNL     1     128.249 124.406 126.226  1.00  0.00     0.004 C 
BRANCH   4   5
ATOM      5  C   UNL     1     127.826 125.536 127.193  1.00  0.00     0.000 C 
BRANCH   5   6
ATOM      6  C   UNL     1     127.042 125.039 128.422  1.00  0.00     0.000 C 
BRANCH   6   7
ATOM      7  C   UNL     1     127.001 123.508 128.589  1.00  0.00     0.000 C 
BRANCH   7   8
ATOM      8  C   UNL     1     127.788 122.961 129.799  1.00  0.00     0.006 C 
BRANCH   8   9
ATOM      9  C   UNL     1     128.903 123.889 130.308  1.00  0.00     0.053 C 
BRANCH   9  10
ATOM     10  C   UNL     1     128.843 124.076 131.792  1.00  0.00     0.041 C 
ATOM     11  O   UNL     1     128.266 123.223 132.516  1.00  0.00    -0.550 OA
ATOM     12  O   UNL     1     129.394 125.211 132.373  1.00  0.00    -0.550 OA
ENDBRANCH   9  10
ENDBRANCH   8   9
ENDBRANCH   7   8
ENDBRANCH   6   7
ENDBRANCH   5   6
ENDBRANCH   4   5
ENDBRANCH   3   4
ENDBRANCH   1   3
BRANCH   2  13
ATOM     13  C   UNL     1     131.493 126.220 125.025  1.00  0.00     0.027 C 
BRANCH  13  14
ATOM     14  C   UNL     1     131.235 127.684 124.643  1.00  0.00     0.004 C 
BRANCH  14  15
ATOM     15  C   UNL     1     129.741 127.965 124.407  1.00  0.00     0.000 C 
BRANCH  15  16
ATOM     16  C   UNL     1     129.028 126.826 123.658  1.00  0.00     0.000 C 
BRANCH  16  17
ATOM     17  C   UNL     1     127.492 126.922 123.645  1.00  0.00    -0.000 C 
BRANCH  17  18
ATOM     18  C   UNL     1     126.932 127.386 122.289  1.00  0.00    -0.000 C 
BRANCH  18  19
ATOM     19  C   UNL     1     125.991 128.592 122.421  1.00  0.00    -0.003 C 
ATOM     20  C   UNL     1     126.614 129.886 121.897  1.00  0.00     0.004 C 
ENDBRANCH  18  19
ENDBRANCH  17  18
ENDBRANCH  16  17
ENDBRANCH  15  16
ENDBRANCH  14  15
ENDBRANCH  13  14
ENDBRANCH   2  13
TORSDOF 15
ENDMDL
MODEL 2
REMARK VINA RESULT:    -6.408      3.859      7.708
REMARK INTER + INTRA:         -14.127
REMARK INTER:                 -12.768
REMARK INTRA:                  -1.360
REMARK UNBOUND:                -2.100
REMARK SMILES CCCCCCCCC=CCCCCCCCC(=O)[O-]
REMARK SMILES IDX 10 1 9 2 11 3 12 4 13 5 14 6 15 7 16 8 17 9 18 10 19 11
REMARK SMILES IDX 20 12 8 13 7 14 6 15 5 16 4 17 3 18 2 19 1 20
REMARK H PARENT
REMARK Flexibility Score: inf
ROOT
ATOM      1  C   UNL     1     130.629 126.901 127.770  1.00  0.00    -0.031 C 
ATOM      2  C   UNL     1     130.115 125.671 127.964  1.00  0.00    -0.031 C 
ENDROOT
BRANCH   1   3
ATOM      3  C   UNL     1     130.806 127.567 126.427  1.00  0.00     0.027 C 
BRANCH   3   4
ATOM      4  C   UNL     1     131.509 126.656 125.407  1.00  0.00     0.004 C 
BRANCH   4   5
ATOM      5  C   UNL     1     130.755 126.528 124.063  1.00  0.00     0.000 C 
BRANCH   5   6
ATOM      6  C   UNL     1     129.556 127.486 123.931  1.00  0.00     0.000 C 
BRANCH   6   7
ATOM      7  C   UNL     1     128.176 126.803 123.943  1.00  0.00     0.000 C 
BRANCH   7   8
ATOM      8  C   UNL     1     127.297 127.080 122.705  1.00  0.00     0.006 C 
BRANCH   8   9
ATOM      9  C   UNL     1     127.459 128.488 122.110  1.00  0.00     0.053 C 
BRANCH   9  10
ATOM     10  C   UNL     1     126.162 129.236 122.078  1.00  0.00     0.041 C 
ATOM     11  O   UNL     1     126.154 130.485 121.925  1.00  0.00    -0.550 OA
ATOM     12  O   UNL     1     124.963 128.556 122.252  1.00  0.00    -0.550 OA
ENDBRANCH   9  10
ENDBRANCH   8   9
ENDBRANCH   7   8
ENDBRANCH   6   7
ENDBRANCH   5   6
ENDBRANCH   4   5
ENDBRANCH   3   4
ENDBRANCH   1   3
BRANCH   2  13
ATOM     13  C   UNL     1     129.678 124.727 126.867  1.00  0.00     0.027 C 
BRANCH  13  14
ATOM     14  C   UNL     1     128.150 124.599 126.820  1.00  0.00     0.004 C 
BRANCH  14  15
ATOM     15  C   UNL     1     127.467 125.391 127.948  1.00  0.00     0.000 C 
BRANCH  15  16
ATOM     16  C   UNL     1     126.695 124.492 128.929  1.00  0.00     0.000 C 
BRANCH  16  17
ATOM     17  C   UNL     1     127.124 123.014 128.927  1.00  0.00    -0.000 C 
BRANCH  17  18
ATOM     18  C   UNL     1     128.339 122.742 129.830  1.00  0.00    -0.000 C 
BRANCH  18  19
ATOM     19  C   UNL     1     128.536 123.830 130.896  1.00  0.00    -0.003 C 
ATOM     20  C   UNL     1     128.510 123.272 132.319  1.00  0.00     0.004 C 
ENDBRANCH  18  19
ENDBRANCH  17  18
ENDBRANCH  16  17
ENDBRANCH  15  16
ENDBRANCH  14  15
ENDBRANCH  13  14
ENDBRANCH   2  13
TORSDOF 15
ENDMDL
MODEL 3
REMARK VINA RESULT:    -5.928      4.048      7.490
REMARK INTER + INTRA:         -13.227
REMARK INTER:                 -11.793
REMARK INTRA:                  -1.434
REMARK UNBOUND:                -2.100
REMARK SMILES CCCCCCCCC=CCCCCCCCC(=O)[O-]
REMARK SMILES IDX 10 1 9 2 11 3 12 4 13 5 14 6 15 7 16 8 17 9 18 10 19 11
REMARK SMILES IDX 20 12 8 13 7 14 6 15 5 16 4 17 3 18 2 19 1 20
REMARK H PARENT
REMARK Flexibility Score: inf
ROOT
ATOM      1  C   UNL     1     131.846 125.986 125.794  1.00  0.00    -0.031 C 
ATOM      2  C   UNL     1     131.242 125.090 126.596  1.00  0.00    -0.031 C 
ENDROOT
BRANCH   1   3
ATOM      3  C   UNL     1     131.327 126.442 124.452  1.00  0.00     0.027 C 
BRANCH   3   4
ATOM      4  C   UNL     1     130.928 127.927 124.448  1.00  0.00     0.004 C 
BRANCH   4   5
ATOM      5  C   UNL     1     129.491 128.185 123.937  1.00  0.00     0.000 C 
BRANCH   5   6
ATOM      6  C   UNL     1     128.805 126.934 123.359  1.00  0.00     0.000 C 
BRANCH   6   7
ATOM      7  C   UNL     1     127.280 126.877 123.566  1.00  0.00     0.000 C 
BRANCH   7   8
ATOM      8  C   UNL     1     126.437 127.288 122.339  1.00  0.00     0.006 C 
BRANCH   8   9
ATOM      9  C   UNL     1     125.839 128.701 122.420  1.00  0.00     0.053 C 
BRANCH   9  10
ATOM     10  C   UNL     1     126.698 129.714 121.728  1.00  0.00     0.041 C 
ATOM     11  O   UNL     1     127.749 129.355 121.134  1.00  0.00    -0.550 OA
ATOM     12  O   UNL     1     126.356 131.060 121.768  1.00  0.00    -0.550 OA
ENDBRANCH   9  10
ENDBRANCH   8   9
ENDBRANCH   7   8
ENDBRANCH   6   7
ENDBRANCH   5   6
ENDBRANCH   4   5
ENDBRANCH   3   4
ENDBRANCH   1   3
BRANCH   2  13
ATOM     13  C   UNL     1     129.967 124.347 126.266  1.00  0.00     0.027 C 
BRANCH  13  14
ATOM     14  C   UNL     1     128.734 125.235 126.481  1.00  0.00     0.004 C 
BRANCH  14  15
ATOM     15  C   UNL     1     128.797 126.001 127.814  1.00  0.00     0.000 C 
BRANCH  15  16
ATOM     16  C   UNL     1     129.498 125.206 128.929  1.00  0.00     0.000 C 
BRANCH  16  17
ATOM     17  C   UNL     1     128.549 124.476 129.897  1.00  0.00    -0.000 C 
BRANCH  17  18
ATOM     18  C   UNL     1     128.494 122.959 129.651  1.00  0.00    -0.000 C 
BRANCH  18  19
ATOM     19  C   UNL     1     127.180 122.516 128.993  1.00  0.00    -0.003 C 
ATOM     20  C   UNL     1     126.180 123.663 128.841  1.00  0.00     0.004 C 
ENDBRANCH  18  19
ENDBRANCH  17  18
ENDBRANCH  16  17
ENDBRANCH  15  16
ENDBRANCH  14  15
ENDBRANCH  13  14
ENDBRANCH   2  13
TORSDOF 15
ENDMDL
MODEL 4
REMARK VINA RESULT:    -5.619      2.826      4.737
REMARK INTER + INTRA:         -12.647
REMARK INTER:                 -11.620
REMARK INTRA:                  -1.027
REMARK UNBOUND:                -2.100
REMARK SMILES CCCCCCCCC=CCCCCCCCC(=O)[O-]
REMARK SMILES IDX 10 1 9 2 11 3 12 4 13 5 14 6 15 7 16 8 17 9 18 10 19 11
REMARK SMILES IDX 20 12 8 13 7 14 6 15 5 16 4 17 3 18 2 19 1 20
REMARK H PARENT
REMARK Flexibility Score: inf
ROOT
ATOM      1  C   UNL     1     128.833 126.745 124.353  1.00  0.00    -0.031 C 
ATOM      2  C   UNL     1     127.700 126.768 123.626  1.00  0.00    -0.031 C 
ENDROOT
BRANCH   1   3
ATOM      3  C   UNL     1     129.895 127.817 124.341  1.00  0.00     0.027 C 
BRANCH   3   4
ATOM      4  C   UNL     1     131.077 127.486 125.268  1.00  0.00     0.004 C 
BRANCH   4   5
ATOM      5  C   UNL     1     131.389 125.974 125.363  1.00  0.00     0.000 C 
BRANCH   5   6
ATOM      6  C   UNL     1     130.853 125.311 126.646  1.00  0.00     0.000 C 
BRANCH   6   7
ATOM      7  C   UNL     1     130.165 123.949 126.434  1.00  0.00     0.000 C 
BRANCH   7   8
ATOM      8  C   UNL     1     128.642 123.940 126.686  1.00  0.00     0.006 C 
BRANCH   8   9
ATOM      9  C   UNL     1     128.141 125.058 127.614  1.00  0.00     0.053 C 
BRANCH   9  10
ATOM     10  C   UNL     1     127.916 124.568 129.011  1.00  0.00     0.041 C 
ATOM     11  O   UNL     1     126.749 124.328 129.418  1.00  0.00    -0.550 OA
ATOM     12  O   UNL     1     128.991 124.409 129.875  1.00  0.00    -0.550 OA
ENDBRANCH   9  10
ENDBRANCH   8   9
ENDBRANCH   7   8
ENDBRANCH   6   7
ENDBRANCH   5   6
ENDBRANCH   4   5
ENDBRANCH   3   4
ENDBRANCH   1   3
BRANCH   2  13
ATOM     13  C   UNL     1     127.323 127.845 122.635  1.00  0.00     0.027 C 
BRANCH  13  14
ATOM     14  C   UNL     1     126.263 127.345 121.645  1.00  0.00     0.004 C 
BRANCH  14  15
ATOM     15  C   UNL     1     124.865 127.901 121.966  1.00  0.00     0.000 C 
BRANCH  15  16
ATOM     16  C   UNL     1     123.737 126.896 121.671  1.00  0.00     0.000 C 
BRANCH  16  17
ATOM     17  C   UNL     1     122.328 127.510 121.586  1.00  0.00    -0.000 C 
BRANCH  17  18
ATOM     18  C   UNL     1     121.293 126.752 122.433  1.00  0.00    -0.000 C 
BRANCH  18  19
ATOM     19  C   UNL     1     119.990 127.543 122.618  1.00  0.00    -0.003 C 
ATOM     20  C   UNL     1     119.362 127.965 121.290  1.00  0.00     0.004 C 
ENDBRANCH  18  19
ENDBRANCH  17  18
ENDBRANCH  16  17
ENDBRANCH  15  16
ENDBRANCH  14  15
ENDBRANCH  13  14
ENDBRANCH   2  13
TORSDOF 15
ENDMDL
MODEL 5
REMARK VINA RESULT:    -5.607      3.983      6.467
REMARK INTER + INTRA:         -12.624
REMARK INTER:                 -11.687
REMARK INTRA:                  -0.937
REMARK UNBOUND:                -2.100
REMARK SMILES CCCCCCCCC=CCCCCCCCC(=O)[O-]
REMARK SMILES IDX 10 1 9 2 11 3 12 4 13 5 14 6 15 7 16 8 17 9 18 10 19 11
REMARK SMILES IDX 20 12 8 13 7 14 6 15 5 16 4 17 3 18 2 19 1 20
REMARK H PARENT
REMARK Flexibility Score: inf
ROOT
ATOM      1  C   UNL     1     127.081 128.193 122.218  1.00  0.00    -0.031 C 
ATOM      2  C   UNL     1     125.882 128.798 122.127  1.00  0.00    -0.031 C 
ENDROOT
BRANCH   1   3
ATOM      3  C   UNL     1     127.325 126.834 122.828  1.00  0.00     0.027 C 
BRANCH   3   4
ATOM      4  C   UNL     1     128.089 126.915 124.160  1.00  0.00     0.004 C 
BRANCH   4   5
ATOM      5  C   UNL     1     129.552 127.396 124.012  1.00  0.00     0.000 C 
BRANCH   5   6
ATOM      6  C   UNL     1     130.594 126.278 124.202  1.00  0.00     0.000 C 
BRANCH   6   7
ATOM      7  C   UNL     1     131.470 126.416 125.461  1.00  0.00     0.000 C 
BRANCH   7   8
ATOM      8  C   UNL     1     131.286 125.300 126.513  1.00  0.00     0.006 C 
BRANCH   8   9
ATOM      9  C   UNL     1     129.850 125.151 127.039  1.00  0.00     0.053 C 
BRANCH   9  10
ATOM     10  C   UNL     1     129.302 123.780 126.792  1.00  0.00     0.041 C 
ATOM     11  O   UNL     1     128.229 123.416 127.341  1.00  0.00    -0.550 OA
ATOM     12  O   UNL     1     129.995 122.890 125.980  1.00  0.00    -0.550 OA
ENDBRANCH   9  10
ENDBRANCH   8   9
ENDBRANCH   7   8
ENDBRANCH   6   7
ENDBRANCH   5   6
ENDBRANCH   4   5
ENDBRANCH   3   4
ENDBRANCH   1   3
BRANCH   2  13
ATOM     13  C   UNL     1     124.584 128.243 122.666  1.00  0.00     0.027 C 
BRANCH  13  14
ATOM     14  C   UNL     1     124.010 127.165 121.737  1.00  0.00     0.004 C 
BRANCH  14  15
ATOM     15  C   UNL     1     122.532 127.422 121.396  1.00  0.00     0.000 C 
BRANCH  15  16
ATOM     16  C   UNL     1     121.574 126.995 122.522  1.00  0.00     0.000 C 
BRANCH  16  17
ATOM     17  C   UNL     1     120.080 127.198 122.212  1.00  0.00    -0.000 C 
BRANCH  17  18
ATOM     18  C   UNL     1     119.836 128.212 121.081  1.00  0.00    -0.000 C 
BRANCH  18  19
ATOM     19  C   UNL     1     118.469 128.902 121.194  1.00  0.00    -0.003 C 
ATOM     20  C   UNL     1     118.471 130.054 122.199  1.00  0.00     0.004 C 
ENDBRANCH  18  19
ENDBRANCH  17  18
ENDBRANCH  16  17
ENDBRANCH  15  16
ENDBRANCH  14  15
ENDBRANCH  13  14
ENDBRANCH   2  13
TORSDOF 15
ENDMDL
MODEL 6
REMARK VINA RESULT:    -5.504      6.027      9.234
REMARK INTER + INTRA:         -12.430
REMARK INTER:                 -11.804
REMARK INTRA:                  -0.627
REMARK UNBOUND:                -2.100
REMARK SMILES CCCCCCCCC=CCCCCCCCC(=O)[O-]
REMARK SMILES IDX 10 1 9 2 11 3 12 4 13 5 14 6 15 7 16 8 17 9 18 10 19 11
REMARK SMILES IDX 20 12 8 13 7 14 6 15 5 16 4 17 3 18 2 19 1 20
REMARK H PARENT
REMARK Flexibility Score: inf
ROOT
ATOM      1  C   UNL     1     127.128 128.195 122.001  1.00  0.00    -0.031 C 
ATOM      2  C   UNL     1     128.160 128.157 122.865  1.00  0.00    -0.031 C 
ENDROOT
BRANCH   1   3
ATOM      3  C   UNL     1     126.093 127.110 121.834  1.00  0.00     0.027 C 
BRANCH   3   4
ATOM      4  C   UNL     1     124.655 127.655 121.880  1.00  0.00     0.004 C 
BRANCH   4   5
ATOM      5  C   UNL     1     123.577 126.599 121.540  1.00  0.00     0.000 C 
BRANCH   5   6
ATOM      6  C   UNL     1     122.147 127.168 121.490  1.00  0.00     0.000 C 
BRANCH   6   7
ATOM      7  C   UNL     1     121.359 127.058 122.808  1.00  0.00     0.000 C 
BRANCH   7   8
ATOM      8  C   UNL     1     119.892 127.535 122.736  1.00  0.00     0.006 C 
BRANCH   8   9
ATOM      9  C   UNL     1     119.527 128.280 121.442  1.00  0.00     0.053 C 
BRANCH   9  10
ATOM     10  C   UNL     1     118.527 129.368 121.685  1.00  0.00     0.041 C 
ATOM     11  O   UNL     1     117.467 129.418 121.008  1.00  0.00    -0.550 OA
ATOM     12  O   UNL     1     118.781 130.346 122.638  1.00  0.00    -0.550 OA
ENDBRANCH   9  10
ENDBRANCH   8   9
ENDBRANCH   7   8
ENDBRANCH   6   7
ENDBRANCH   5   6
ENDBRANCH   4   5
ENDBRANCH   3   4
ENDBRANCH   1   3
BRANCH   2  13
ATOM     13  C   UNL     1     128.489 126.997 123.777  1.00  0.00     0.027 C 
BRANCH  13  14
ATOM     14  C   UNL     1     129.708 127.306 124.655  1.00  0.00     0.004 C 
BRANCH  14  15
ATOM     15  C   UNL     1     130.824 126.262 124.484  1.00  0.00     0.000 C 
BRANCH  15  16
ATOM     16  C   UNL     1     131.128 125.491 125.781  1.00  0.00     0.000 C 
BRANCH  16  17
ATOM     17  C   UNL     1     129.982 124.596 126.285  1.00  0.00    -0.000 C 
BRANCH  17  18
ATOM     18  C   UNL     1     129.575 124.903 127.736  1.00  0.00    -0.000 C 
BRANCH  18  19
ATOM     19  C   UNL     1     128.832 123.735 128.400  1.00  0.00    -0.003 C 
ATOM     20  C   UNL     1     128.759 123.871 129.921  1.00  0.00     0.004 C 
ENDBRANCH  18  19
ENDBRANCH  17  18
ENDBRANCH  16  17
ENDBRANCH  15  16
ENDBRANCH  14  15
ENDBRANCH  13  14
ENDBRANCH   2  13
TORSDOF 15
ENDMDL
MODEL 7
REMARK VINA RESULT:    -5.443      5.078      8.209
REMARK INTER + INTRA:         -12.316
REMARK INTER:                 -11.223
REMARK INTRA:                  -1.093
REMARK UNBOUND:                -2.100
REMARK SMILES CCCCCCCCC=CCCCCCCCC(=O)[O-]
REMARK SMILES IDX 10 1 9 2 11 3 12 4 13 5 14 6 15 7 16 8 17 9 18 10 19 11
REMARK SMILES IDX 20 12 8 13 7 14 6 15 5 16 4 17 3 18 2 19 1 20
REMARK H PARENT
REMARK Flexibility Score: inf
ROOT
ATOM      1  C   UNL     1     129.537 127.854 123.664  1.00  0.00    -0.031 C 
ATOM      2  C   UNL     1     130.128 127.849 124.874  1.00  0.00    -0.031 C 
ENDROOT
BRANCH   1   3
ATOM      3  C   UNL     1     128.269 127.115 123.312  1.00  0.00     0.027 C 
BRANCH   3   4
ATOM      4  C   UNL     1     127.284 127.984 122.511  1.00  0.00     0.004 C 
BRANCH   4   5
ATOM      5  C   UNL     1     126.186 127.173 121.785  1.00  0.00     0.000 C 
BRANCH   5   6
ATOM      6  C   UNL     1     124.792 127.826 121.843  1.00  0.00     0.000 C 
BRANCH   6   7
ATOM      7  C   UNL     1     123.611 126.849 121.697  1.00  0.00     0.000 C 
BRANCH   7   8
ATOM      8  C   UNL     1     122.216 127.510 121.655  1.00  0.00     0.006 C 
BRANCH   8   9
ATOM      9  C   UNL     1     121.178 126.868 122.589  1.00  0.00     0.053 C 
BRANCH   9  10
ATOM     10  C   UNL     1     119.841 127.533 122.480  1.00  0.00     0.041 C 
ATOM     11  O   UNL     1     119.251 127.595 121.370  1.00  0.00    -0.550 OA
ATOM     12  O   UNL     1     119.260 128.115 123.600  1.00  0.00    -0.550 OA
ENDBRANCH   9  10
ENDBRANCH   8   9
ENDBRANCH   7   8
ENDBRANCH   6   7
ENDBRANCH   5   6
ENDBRANCH   4   5
ENDBRANCH   3   4
ENDBRANCH   1   3
BRANCH   2  13
ATOM     13  C   UNL     1     129.651 127.059 126.071  1.00  0.00     0.027 C 
BRANCH  13  14
ATOM     14  C   UNL     1     130.821 126.672 126.985  1.00  0.00     0.004 C 
BRANCH  14  15
ATOM     15  C   UNL     1     131.393 125.288 126.637  1.00  0.00     0.000 C 
BRANCH  15  16
ATOM     16  C   UNL     1     130.447 124.451 125.759  1.00  0.00     0.000 C 
BRANCH  16  17
ATOM     17  C   UNL     1     129.727 123.304 126.492  1.00  0.00    -0.000 C 
BRANCH  17  18
ATOM     18  C   UNL     1     128.447 123.763 127.210  1.00  0.00    -0.000 C 
BRANCH  18  19
ATOM     19  C   UNL     1     128.423 123.354 128.690  1.00  0.00    -0.003 C 
ATOM     20  C   UNL     1     128.959 124.448 129.613  1.00  0.00     0.004 C 
ENDBRANCH  18  19
ENDBRANCH  17  18
ENDBRANCH  16  17
ENDBRANCH  15  16
ENDBRANCH  14  15
ENDBRANCH  13  14
ENDBRANCH   2  13
TORSDOF 15
ENDMDL
MODEL 8
REMARK VINA RESULT:    -5.358      4.687      7.795
REMARK INTER + INTRA:         -12.157
REMARK INTER:                 -11.391
REMARK INTRA:                  -0.766
REMARK UNBOUND:                -2.100
REMARK SMILES CCCCCCCCC=CCCCCCCCC(=O)[O-]
REMARK SMILES IDX 10 1 9 2 11 3 12 4 13 5 14 6 15 7 16 8 17 9 18 10 19 11
REMARK SMILES IDX 20 12 8 13 7 14 6 15 5 16 4 17 3 18 2 19 1 20
REMARK H PARENT
REMARK Flexibility Score: inf
ROOT
ATOM      1  C   UNL     1     124.937 126.934 121.646  1.00  0.00    -0.031 C 
ATOM      2  C   UNL     1     123.693 126.487 121.392  1.00  0.00    -0.031 C 
ENDROOT
BRANCH   1   3
ATOM      3  C   UNL     1     125.277 128.307 122.171  1.00  0.00     0.027 C 
BRANCH   3   4
ATOM      4  C   UNL     1     126.772 128.458 122.501  1.00  0.00     0.004 C 
BRANCH   4   5
ATOM      5  C   UNL     1     127.530 127.113 122.585  1.00  0.00     0.000 C 
BRANCH   5   6
ATOM      6  C   UNL     1     128.025 126.769 124.003  1.00  0.00     0.000 C 
BRANCH   6   7
ATOM      7  C   UNL     1     129.414 127.331 124.359  1.00  0.00     0.000 C 
BRANCH   7   8
ATOM      8  C   UNL     1     130.588 126.346 124.167  1.00  0.00     0.006 C 
BRANCH   8   9
ATOM      9  C   UNL     1     131.462 126.146 125.415  1.00  0.00     0.053 C 
BRANCH   9  10
ATOM     10  C   UNL     1     130.824 126.715 126.644  1.00  0.00     0.041 C 
ATOM     11  O   UNL     1     131.078 127.896 127.002  1.00  0.00    -0.550 OA
ATOM     12  O   UNL     1     129.973 125.932 127.414  1.00  0.00    -0.550 OA
ENDBRANCH   9  10
ENDBRANCH   8   9
ENDBRANCH   7   8
ENDBRANCH   6   7
ENDBRANCH   5   6
ENDBRANCH   4   5
ENDBRANCH   3   4
ENDBRANCH   1   3
BRANCH   2  13
ATOM     13  C   UNL     1     122.428 127.301 121.540  1.00  0.00     0.027 C 
BRANCH  13  14
ATOM     14  C   UNL     1     121.502 126.703 122.607  1.00  0.00     0.004 C 
BRANCH  14  15
ATOM     15  C   UNL     1     120.173 127.471 122.715  1.00  0.00     0.000 C 
BRANCH  15  16
ATOM     16  C   UNL     1     119.367 127.463 121.404  1.00  0.00     0.000 C 
BRANCH  16  17
ATOM     17  C   UNL     1     119.046 128.856 120.834  1.00  0.00    -0.000 C 
BRANCH  17  18
ATOM     18  C   UNL     1     118.017 129.626 121.679  1.00  0.00    -0.000 C 
BRANCH  18  19
ATOM     19  C   UNL     1     118.655 130.760 122.494  1.00  0.00    -0.003 C 
ATOM     20  C   UNL     1     118.669 130.473 123.995  1.00  0.00     0.004 C 
ENDBRANCH  18  19
ENDBRANCH  17  18
ENDBRANCH  16  17
ENDBRANCH  15  16
ENDBRANCH  14  15
ENDBRANCH  13  14
ENDBRANCH   2  13
TORSDOF 15
ENDMDL
MODEL 9
REMARK VINA RESULT:    -5.348      5.883      9.300
REMARK INTER + INTRA:         -12.137
REMARK INTER:                 -11.443
REMARK INTRA:                  -0.694
REMARK UNBOUND:                -2.100
REMARK SMILES CCCCCCCCC=CCCCCCCCC(=O)[O-]
REMARK SMILES IDX 10 1 9 2 11 3 12 4 13 5 14 6 15 7 16 8 17 9 18 10 19 11
REMARK SMILES IDX 20 12 8 13 7 14 6 15 5 16 4 17 3 18 2 19 1 20
REMARK H PARENT
REMARK Flexibility Score: inf
ROOT
ATOM      1  C   UNL     1     124.782 128.331 122.166  1.00  0.00    -0.031 C 
ATOM      2  C   UNL     1     126.100 128.326 122.439  1.00  0.00    -0.031 C 
ENDROOT
BRANCH   1   3
ATOM      3  C   UNL     1     123.973 127.124 121.759  1.00  0.00     0.027 C 
BRANCH   3   4
ATOM      4  C   UNL     1     122.493 127.462 121.516  1.00  0.00     0.004 C 
BRANCH   4   5
ATOM      5  C   UNL     1     121.527 126.778 122.512  1.00  0.00     0.000 C 
BRANCH   5   6
ATOM      6  C   UNL     1     120.038 127.015 122.194  1.00  0.00     0.000 C 
BRANCH   6   7
ATOM      7  C   UNL     1     119.748 128.268 121.346  1.00  0.00     0.000 C 
BRANCH   7   8
ATOM      8  C   UNL     1     118.516 129.086 121.788  1.00  0.00     0.006 C 
BRANCH   8   9
ATOM      9  C   UNL     1     118.849 130.393 122.526  1.00  0.00     0.053 C 
BRANCH   9  10
ATOM     10  C   UNL     1     118.821 130.219 124.013  1.00  0.00     0.041 C 
ATOM     11  O   UNL     1     118.464 131.171 124.757  1.00  0.00    -0.550 OA
ATOM     12  O   UNL     1     119.221 129.016 124.581  1.00  0.00    -0.550 OA
ENDBRANCH   9  10
ENDBRANCH   8   9
ENDBRANCH   7   8
ENDBRANCH   6   7
ENDBRANCH   5   6
ENDBRANCH   4   5
ENDBRANCH   3   4
ENDBRANCH   1   3
BRANCH   2  13
ATOM     13  C   UNL     1     127.006 127.120 122.332  1.00  0.00     0.027 C 
BRANCH  13  14
ATOM     14  C   UNL     1     127.613 126.757 123.694  1.00  0.00     0.004 C 
BRANCH  14  15
ATOM     15  C   UNL     1     128.976 127.433 123.918  1.00  0.00     0.000 C 
BRANCH  15  16
ATOM     16  C   UNL     1     130.113 126.424 124.161  1.00  0.00     0.000 C 
BRANCH  16  17
ATOM     17  C   UNL     1     130.812 126.553 125.526  1.00  0.00    -0.000 C 
BRANCH  17  18
ATOM     18  C   UNL     1     130.448 125.415 126.495  1.00  0.00    -0.000 C 
BRANCH  18  19
ATOM     19  C   UNL     1     129.194 125.727 127.325  1.00  0.00    -0.003 C 
ATOM     20  C   UNL     1     129.192 125.018 128.679  1.00  0.00     0.004 C 
ENDBRANCH  18  19
ENDBRANCH  17  18
ENDBRANCH  16  17
ENDBRANCH  15  16
ENDBRANCH  14  15
ENDBRANCH  13  14
ENDBRANCH   2  13
TORSDOF 15
ENDMDL
