MODEL 1
REMARK VINA RESULT:    -5.365      0.000      0.000
REMARK INTER + INTRA:          -6.288
REMARK INTER:                  -6.149
REMARK INTRA:                  -0.139
REMARK UNBOUND:                -0.139
REMARK SMILES O=C([O-])C=Cc1ccc(O)cc1
REMARK SMILES IDX 6 1 7 2 12 3 8 4 11 5 9 6 5 7 4 8 2 9 1 10 3 11 10 12
REMARK H PARENT 10 13
REMARK Flexibility Score: inf
ROOT
ATOM      1  C   UNL     1     202.773 206.724 278.592  1.00  0.00    -0.025 A 
ATOM      2  C   UNL     1     202.827 208.100 278.873  1.00  0.00     0.012 A 
ATOM      3  C   UNL     1     202.315 205.844 279.594  1.00  0.00     0.012 A 
ATOM      4  C   UNL     1     202.460 208.584 280.131  1.00  0.00     0.047 A 
ATOM      5  C   UNL     1     201.947 206.333 280.852  1.00  0.00     0.047 A 
ATOM      6  C   UNL     1     202.021 207.701 281.125  1.00  0.00     0.115 A 
ENDROOT
BRANCH   1   7
ATOM      7  C   UNL     1     203.164 206.259 277.238  1.00  0.00     0.010 C 
ATOM      8  C   UNL     1     204.401 206.383 276.736  1.00  0.00     0.025 C 
BRANCH   8   9
ATOM      9  C   UNL     1     204.748 205.919 275.382  1.00  0.00     0.064 C 
ATOM     10  O   UNL     1     204.243 204.870 274.901  1.00  0.00    -0.545 OA
ATOM     11  O   UNL     1     205.651 206.652 274.622  1.00  0.00    -0.545 OA
ENDBRANCH   8   9
ENDBRANCH   1   7
BRANCH   6  12
ATOM     12  O   UNL     1     201.651 208.173 282.383  1.00  0.00    -0.508 OA
ATOM     13  H   UNL     1     202.113 208.969 282.807  1.00  0.00     0.293 HD
ENDBRANCH   6  12
TORSDOF 3
ENDMDL
MODEL 2
REMARK VINA RESULT:    -5.350      1.585      1.859
REMARK INTER + INTRA:          -6.271
REMARK INTER:                  -6.133
REMARK INTRA:                  -0.138
REMARK UNBOUND:                -0.139
REMARK SMILES O=C([O-])C=Cc1ccc(O)cc1
REMARK SMILES IDX 6 1 7 2 12 3 8 4 11 5 9 6 5 7 4 8 2 9 1 10 3 11 10 12
REMARK H PARENT 10 13
REMARK Flexibility Score: inf
ROOT
ATOM      1  C   UNL     1     202.283 206.587 278.418  1.00  0.00    -0.025 A 
ATOM      2  C   UNL     1     202.391 207.973 278.619  1.00  0.00     0.012 A 
ATOM      3  C   UNL     1     201.993 205.761 279.524  1.00  0.00     0.012 A 
ATOM      4  C   UNL     1     202.240 208.522 279.896  1.00  0.00     0.047 A 
ATOM      5  C   UNL     1     201.841 206.314 280.800  1.00  0.00     0.047 A 
ATOM      6  C   UNL     1     201.967 207.692 280.990  1.00  0.00     0.115 A 
ENDROOT
BRANCH   1   7
ATOM      7  C   UNL     1     202.442 206.053 277.043  1.00  0.00     0.010 C 
ATOM      8  C   UNL     1     201.517 206.186 276.081  1.00  0.00     0.025 C 
BRANCH   8   9
ATOM      9  C   UNL     1     201.705 205.632 274.729  1.00  0.00     0.064 C 
ATOM     10  O   UNL     1     200.739 205.147 274.082  1.00  0.00    -0.545 OA
ATOM     11  O   UNL     1     202.971 205.644 274.158  1.00  0.00    -0.545 OA
ENDBRANCH   8   9
ENDBRANCH   1   7
BRANCH   6  12
ATOM     12  O   UNL     1     201.814 208.228 282.267  1.00  0.00    -0.508 OA
ATOM     13  H   UNL     1     202.220 209.121 282.519  1.00  0.00     0.293 HD
ENDBRANCH   6  12
TORSDOF 3
ENDMDL
MODEL 3
REMARK VINA RESULT:    -5.271      1.585      5.845
REMARK INTER + INTRA:          -6.181
REMARK INTER:                  -6.043
REMARK INTRA:                  -0.138
REMARK UNBOUND:                -0.139
REMARK SMILES O=C([O-])C=Cc1ccc(O)cc1
REMARK SMILES IDX 6 1 7 2 12 3 8 4 11 5 9 6 5 7 4 8 2 9 1 10 3 11 10 12
REMARK H PARENT 10 13
REMARK Flexibility Score: inf
ROOT
ATOM      1  C   UNL     1     202.844 205.982 276.981  1.00  0.00    -0.025 A 
ATOM      2  C   UNL     1     202.006 206.146 275.865  1.00  0.00     0.012 A 
ATOM      3  C   UNL     1     204.212 205.716 276.770  1.00  0.00     0.012 A 
ATOM      4  C   UNL     1     202.515 206.021 274.569  1.00  0.00     0.047 A 
ATOM      5  C   UNL     1     204.718 205.593 275.472  1.00  0.00     0.047 A 
ATOM      6  C   UNL     1     203.872 205.742 274.370  1.00  0.00     0.115 A 
ENDROOT
BRANCH   1   7
ATOM      7  C   UNL     1     202.259 206.135 278.337  1.00  0.00     0.010 C 
ATOM      8  C   UNL     1     202.906 205.816 279.467  1.00  0.00     0.025 C 
BRANCH   8   9
ATOM      9  C   UNL     1     202.288 205.970 280.795  1.00  0.00     0.064 C 
ATOM     10  O   UNL     1     201.877 204.971 281.445  1.00  0.00    -0.545 OA
ATOM     11  O   UNL     1     202.154 207.240 281.341  1.00  0.00    -0.545 OA
ENDBRANCH   8   9
ENDBRANCH   1   7
BRANCH   6  12
ATOM     12  O   UNL     1     204.391 205.615 273.082  1.00  0.00    -0.508 OA
ATOM     13  H   UNL     1     205.352 205.855 272.872  1.00  0.00     0.293 HD
ENDBRANCH   6  12
TORSDOF 3
ENDMDL
MODEL 4
REMARK VINA RESULT:    -5.268     10.003     11.465
REMARK INTER + INTRA:          -6.177
REMARK INTER:                  -6.027
REMARK INTRA:                  -0.150
REMARK UNBOUND:                -0.139
REMARK SMILES O=C([O-])C=Cc1ccc(O)cc1
REMARK SMILES IDX 6 1 7 2 12 3 8 4 11 5 9 6 5 7 4 8 2 9 1 10 3 11 10 12
REMARK H PARENT 10 13
REMARK Flexibility Score: inf
ROOT
ATOM      1  C   UNL     1     211.295 204.890 284.772  1.00  0.00    -0.025 A 
ATOM      2  C   UNL     1     210.759 204.410 283.565  1.00  0.00     0.012 A 
ATOM      3  C   UNL     1     212.522 204.364 285.227  1.00  0.00     0.012 A 
ATOM      4  C   UNL     1     211.416 203.410 282.842  1.00  0.00     0.047 A 
ATOM      5  C   UNL     1     213.177 203.364 284.501  1.00  0.00     0.047 A 
ATOM      6  C   UNL     1     212.626 202.883 283.311  1.00  0.00     0.115 A 
ENDROOT
BRANCH   1   7
ATOM      7  C   UNL     1     210.566 205.959 285.498  1.00  0.00     0.010 C 
ATOM      8  C   UNL     1     209.642 206.748 284.931  1.00  0.00     0.025 C 
BRANCH   8   9
ATOM      9  C   UNL     1     208.947 207.808 285.681  1.00  0.00     0.064 C 
ATOM     10  O   UNL     1     209.453 208.955 285.811  1.00  0.00    -0.545 OA
ATOM     11  O   UNL     1     207.713 207.538 286.257  1.00  0.00    -0.545 OA
ENDBRANCH   8   9
ENDBRANCH   1   7
BRANCH   6  12
ATOM     12  O   UNL     1     213.290 201.885 282.599  1.00  0.00    -0.508 OA
ATOM     13  H   UNL     1     212.821 201.345 281.882  1.00  0.00     0.293 HD
ENDBRANCH   6  12
TORSDOF 3
ENDMDL
MODEL 5
REMARK VINA RESULT:    -5.250      1.591      5.861
REMARK INTER + INTRA:          -6.157
REMARK INTER:                  -6.008
REMARK INTRA:                  -0.149
REMARK UNBOUND:                -0.139
REMARK SMILES O=C([O-])C=Cc1ccc(O)cc1
REMARK SMILES IDX 6 1 7 2 12 3 8 4 11 5 9 6 5 7 4 8 2 9 1 10 3 11 10 12
REMARK H PARENT 10 13
REMARK Flexibility Score: inf
ROOT
ATOM      1  C   UNL     1     202.635 205.982 276.956  1.00  0.00    -0.025 A 
ATOM      2  C   UNL     1     203.965 205.558 276.800  1.00  0.00     0.012 A 
ATOM      3  C   UNL     1     201.876 206.276 275.805  1.00  0.00     0.012 A 
ATOM      4  C   UNL     1     204.535 205.456 275.528  1.00  0.00     0.047 A 
ATOM      5  C   UNL     1     202.449 206.172 274.533  1.00  0.00     0.047 A 
ATOM      6  C   UNL     1     203.778 205.765 274.391  1.00  0.00     0.115 A 
ENDROOT
BRANCH   1   7
ATOM      7  C   UNL     1     202.071 206.065 278.327  1.00  0.00     0.010 C 
ATOM      8  C   UNL     1     202.820 206.137 279.437  1.00  0.00     0.025 C 
BRANCH   8   9
ATOM      9  C   UNL     1     202.224 206.206 280.782  1.00  0.00     0.064 C 
ATOM     10  O   UNL     1     201.902 205.161 281.408  1.00  0.00    -0.545 OA
ATOM     11  O   UNL     1     202.012 207.446 281.370  1.00  0.00    -0.545 OA
ENDBRANCH   8   9
ENDBRANCH   1   7
BRANCH   6  12
ATOM     12  O   UNL     1     204.336 205.666 273.117  1.00  0.00    -0.508 OA
ATOM     13  H   UNL     1     204.155 204.869 272.520  1.00  0.00     0.293 HD
ENDBRANCH   6  12
TORSDOF 3
ENDMDL
MODEL 6
REMARK VINA RESULT:    -5.215     12.900     13.668
REMARK INTER + INTRA:          -6.116
REMARK INTER:                  -5.971
REMARK INTRA:                  -0.145
REMARK UNBOUND:                -0.139
REMARK SMILES O=C([O-])C=Cc1ccc(O)cc1
REMARK SMILES IDX 6 1 7 2 12 3 8 4 11 5 9 6 5 7 4 8 2 9 1 10 3 11 10 12
REMARK H PARENT 10 13
REMARK Flexibility Score: inf
ROOT
ATOM      1  C   UNL     1     212.972 203.832 285.686  1.00  0.00    -0.025 A 
ATOM      2  C   UNL     1     212.347 205.046 286.020  1.00  0.00     0.012 A 
ATOM      3  C   UNL     1     212.518 203.123 284.555  1.00  0.00     0.012 A 
ATOM      4  C   UNL     1     211.276 205.527 285.262  1.00  0.00     0.047 A 
ATOM      5  C   UNL     1     211.447 203.610 283.798  1.00  0.00     0.047 A 
ATOM      6  C   UNL     1     210.822 204.808 284.149  1.00  0.00     0.115 A 
ENDROOT
BRANCH   1   7
ATOM      7  C   UNL     1     214.112 203.368 286.515  1.00  0.00     0.010 C 
ATOM      8  C   UNL     1     214.104 203.363 287.856  1.00  0.00     0.025 C 
BRANCH   8   9
ATOM      9  C   UNL     1     215.260 202.905 288.646  1.00  0.00     0.064 C 
ATOM     10  O   UNL     1     216.118 202.123 288.155  1.00  0.00    -0.545 OA
ATOM     11  O   UNL     1     215.406 203.342 289.956  1.00  0.00    -0.545 OA
ENDBRANCH   8   9
ENDBRANCH   1   7
BRANCH   6  12
ATOM     12  O   UNL     1     209.756 205.279 283.386  1.00  0.00    -0.508 OA
ATOM     13  H   UNL     1     209.117 205.979 283.743  1.00  0.00     0.293 HD
ENDBRANCH   6  12
TORSDOF 3
ENDMDL
MODEL 7
REMARK VINA RESULT:    -5.204      1.402      5.838
REMARK INTER + INTRA:          -6.104
REMARK INTER:                  -5.964
REMARK INTRA:                  -0.140
REMARK UNBOUND:                -0.139
REMARK SMILES O=C([O-])C=Cc1ccc(O)cc1
REMARK SMILES IDX 6 1 7 2 12 3 8 4 11 5 9 6 5 7 4 8 2 9 1 10 3 11 10 12
REMARK H PARENT 10 13
REMARK Flexibility Score: inf
ROOT
ATOM      1  C   UNL     1     204.039 206.686 277.449  1.00  0.00    -0.025 A 
ATOM      2  C   UNL     1     204.416 205.635 276.597  1.00  0.00     0.012 A 
ATOM      3  C   UNL     1     204.415 208.002 277.112  1.00  0.00     0.012 A 
ATOM      4  C   UNL     1     205.174 205.886 275.449  1.00  0.00     0.047 A 
ATOM      5  C   UNL     1     205.173 208.250 275.962  1.00  0.00     0.047 A 
ATOM      6  C   UNL     1     205.556 207.195 275.130  1.00  0.00     0.115 A 
ENDROOT
BRANCH   1   7
ATOM      7  C   UNL     1     203.226 206.371 278.650  1.00  0.00     0.010 C 
ATOM      8  C   UNL     1     203.068 207.209 279.684  1.00  0.00     0.025 C 
BRANCH   8   9
ATOM      9  C   UNL     1     202.262 206.856 280.865  1.00  0.00     0.064 C 
ATOM     10  O   UNL     1     201.918 205.664 281.088  1.00  0.00    -0.545 OA
ATOM     11  O   UNL     1     201.874 207.855 281.749  1.00  0.00    -0.545 OA
ENDBRANCH   8   9
ENDBRANCH   1   7
BRANCH   6  12
ATOM     12  O   UNL     1     206.311 207.457 273.989  1.00  0.00    -0.508 OA
ATOM     13  H   UNL     1     207.198 206.996 273.823  1.00  0.00     0.293 HD
ENDBRANCH   6  12
TORSDOF 3
ENDMDL
MODEL 8
REMARK VINA RESULT:    -5.161     14.211     14.613
REMARK INTER + INTRA:          -6.054
REMARK INTER:                  -5.911
REMARK INTRA:                  -0.143
REMARK UNBOUND:                -0.139
REMARK SMILES O=C([O-])C=Cc1ccc(O)cc1
REMARK SMILES IDX 6 1 7 2 12 3 8 4 11 5 9 6 5 7 4 8 2 9 1 10 3 11 10 12
REMARK H PARENT 10 13
REMARK Flexibility Score: inf
ROOT
ATOM      1  C   UNL     1     214.321 203.109 287.222  1.00  0.00    -0.025 A 
ATOM      2  C   UNL     1     213.406 203.067 288.288  1.00  0.00     0.012 A 
ATOM      3  C   UNL     1     215.662 202.747 287.464  1.00  0.00     0.012 A 
ATOM      4  C   UNL     1     213.823 202.700 289.570  1.00  0.00     0.047 A 
ATOM      5  C   UNL     1     216.075 202.379 288.749  1.00  0.00     0.047 A 
ATOM      6  C   UNL     1     215.160 202.357 289.804  1.00  0.00     0.115 A 
ENDROOT
BRANCH   1   7
ATOM      7  C   UNL     1     213.828 203.495 285.877  1.00  0.00     0.010 C 
ATOM      8  C   UNL     1     212.722 202.988 285.315  1.00  0.00     0.025 C 
BRANCH   8   9
ATOM      9  C   UNL     1     212.270 203.388 283.971  1.00  0.00     0.064 C 
ATOM     10  O   UNL     1     211.179 203.994 283.802  1.00  0.00    -0.545 OA
ATOM     11  O   UNL     1     213.062 203.090 282.870  1.00  0.00    -0.545 OA
ENDBRANCH   8   9
ENDBRANCH   1   7
BRANCH   6  12
ATOM     12  O   UNL     1     215.587 201.989 291.079  1.00  0.00    -0.508 OA
ATOM     13  H   UNL     1     216.111 201.137 291.237  1.00  0.00     0.293 HD
ENDBRANCH   6  12
TORSDOF 3
ENDMDL
MODEL 9
REMARK VINA RESULT:    -5.116      3.172      5.200
REMARK INTER + INTRA:          -6.003
REMARK INTER:                  -5.856
REMARK INTRA:                  -0.147
REMARK UNBOUND:                -0.139
REMARK SMILES O=C([O-])C=Cc1ccc(O)cc1
REMARK SMILES IDX 6 1 7 2 12 3 8 4 11 5 9 6 5 7 4 8 2 9 1 10 3 11 10 12
REMARK H PARENT 10 13
REMARK Flexibility Score: inf
ROOT
ATOM      1  C   UNL     1     204.050 209.040 278.819  1.00  0.00    -0.025 A 
ATOM      2  C   UNL     1     204.600 208.769 277.555  1.00  0.00     0.012 A 
ATOM      3  C   UNL     1     204.157 210.345 279.341  1.00  0.00     0.012 A 
ATOM      4  C   UNL     1     205.265 209.769 276.839  1.00  0.00     0.047 A 
ATOM      5  C   UNL     1     204.822 211.343 278.621  1.00  0.00     0.047 A 
ATOM      6  C   UNL     1     205.379 211.058 277.372  1.00  0.00     0.115 A 
ENDROOT
BRANCH   1   7
ATOM      7  C   UNL     1     203.345 207.948 279.536  1.00  0.00     0.010 C 
ATOM      8  C   UNL     1     202.550 207.053 278.934  1.00  0.00     0.025 C 
BRANCH   8   9
ATOM      9  C   UNL     1     201.856 205.990 279.681  1.00  0.00     0.064 C 
ATOM     10  O   UNL     1     201.053 205.206 279.108  1.00  0.00    -0.545 OA
ATOM     11  O   UNL     1     202.092 205.850 281.042  1.00  0.00    -0.545 OA
ENDBRANCH   8   9
ENDBRANCH   1   7
BRANCH   6  12
ATOM     12  O   UNL     1     206.040 212.063 276.667  1.00  0.00    -0.508 OA
ATOM     13  H   UNL     1     205.561 212.905 276.372  1.00  0.00     0.293 HD
ENDBRANCH   6  12
TORSDOF 3
ENDMDL
