MODEL 1
REMARK VINA RESULT:    -4.611      0.000      0.000
REMARK INTER + INTRA:          -8.078
REMARK INTER:                  -7.307
REMARK INTRA:                  -0.771
REMARK UNBOUND:                -0.771
REMARK SMILES CCCCCCCCCCCC(=O)[O-]
REMARK SMILES IDX 7 1 8 2 9 3 10 4 11 5 12 6 13 7 14 8 6 9 5 10 4 11 3 12 2 13
REMARK SMILES IDX 1 14
REMARK H PARENT
REMARK Flexibility Score: inf
ROOT
ATOM      1  C   UNL     1       3.900 -12.188   2.636  1.00  0.00     0.000 C 
ENDROOT
BRANCH   1   2
ATOM      2  C   UNL     1       4.228 -13.682   2.737  1.00  0.00     0.000 C 
BRANCH   2   3
ATOM      3  C   UNL     1       4.681 -14.050   4.158  1.00  0.00     0.000 C 
BRANCH   3   4
ATOM      4  C   UNL     1       4.688 -12.842   5.108  1.00  0.00     0.006 C 
BRANCH   4   5
ATOM      5  C   UNL     1       5.302 -13.168   6.475  1.00  0.00     0.053 C 
BRANCH   5   6
ATOM      6  C   UNL     1       5.784 -11.918   7.142  1.00  0.00     0.041 C 
ATOM      7  O   UNL     1       6.916 -11.890   7.695  1.00  0.00    -0.550 OA
ATOM      8  O   UNL     1       4.963 -10.800   7.199  1.00  0.00    -0.550 OA
ENDBRANCH   5   6
ENDBRANCH   4   5
ENDBRANCH   3   4
ENDBRANCH   2   3
ENDBRANCH   1   2
BRANCH   1   9
ATOM      9  C   UNL     1       4.259 -11.637   1.250  1.00  0.00     0.000 C 
BRANCH   9  10
ATOM     10  C   UNL     1       4.975 -12.696   0.405  1.00  0.00    -0.000 C 
BRANCH  10  11
ATOM     11  C   UNL     1       6.397 -12.240   0.041  1.00  0.00    -0.000 C 
BRANCH  11  12
ATOM     12  C   UNL     1       7.470 -12.872   0.942  1.00  0.00    -0.000 C 
BRANCH  12  13
ATOM     13  C   UNL     1       7.845 -14.296   0.505  1.00  0.00    -0.003 C 
ATOM     14  C   UNL     1       9.358 -14.451   0.383  1.00  0.00     0.004 C 
ENDBRANCH  12  13
ENDBRANCH  11  12
ENDBRANCH  10  11
ENDBRANCH   9  10
ENDBRANCH   1   9
TORSDOF 10
ENDMDL
MODEL 2
REMARK VINA RESULT:    -4.478      1.408      2.173
REMARK INTER + INTRA:          -7.867
REMARK INTER:                  -7.212
REMARK INTRA:                  -0.655
REMARK UNBOUND:                -0.771
REMARK SMILES CCCCCCCCCCCC(=O)[O-]
REMARK SMILES IDX 7 1 8 2 9 3 10 4 11 5 12 6 13 7 14 8 6 9 5 10 4 11 3 12 2 13
REMARK SMILES IDX 1 14
REMARK H PARENT
REMARK Flexibility Score: inf
ROOT
ATOM      1  C   UNL     1       4.936 -13.553   3.767  1.00  0.00     0.000 C 
ENDROOT
BRANCH   1   2
ATOM      2  C   UNL     1       4.199 -13.408   5.104  1.00  0.00     0.000 C 
BRANCH   2   3
ATOM      3  C   UNL     1       5.189 -13.398   6.279  1.00  0.00     0.000 C 
BRANCH   3   4
ATOM      4  C   UNL     1       5.673 -11.983   6.633  1.00  0.00     0.006 C 
BRANCH   4   5
ATOM      5  C   UNL     1       4.540 -11.077   7.132  1.00  0.00     0.053 C 
BRANCH   5   6
ATOM      6  C   UNL     1       4.377  -9.898   6.226  1.00  0.00     0.041 C 
ATOM      7  O   UNL     1       3.609  -9.965   5.230  1.00  0.00    -0.550 OA
ATOM      8  O   UNL     1       5.111  -8.741   6.453  1.00  0.00    -0.550 OA
ENDBRANCH   5   6
ENDBRANCH   4   5
ENDBRANCH   3   4
ENDBRANCH   2   3
ENDBRANCH   1   2
BRANCH   1   9
ATOM      9  C   UNL     1       4.293 -12.677   2.685  1.00  0.00     0.000 C 
BRANCH   9  10
ATOM     10  C   UNL     1       4.610 -13.211   1.284  1.00  0.00    -0.000 C 
BRANCH  10  11
ATOM     11  C   UNL     1       5.494 -12.223   0.506  1.00  0.00    -0.000 C 
BRANCH  11  12
ATOM     12  C   UNL     1       6.762 -12.881  -0.060  1.00  0.00    -0.000 C 
BRANCH  12  13
ATOM     13  C   UNL     1       7.885 -12.992   0.982  1.00  0.00    -0.003 C 
ATOM     14  C   UNL     1       8.954 -13.986   0.532  1.00  0.00     0.004 C 
ENDBRANCH  12  13
ENDBRANCH  11  12
ENDBRANCH  10  11
ENDBRANCH   9  10
ENDBRANCH   1   9
TORSDOF 10
ENDMDL
MODEL 3
REMARK VINA RESULT:    -4.453      3.212      6.017
REMARK INTER + INTRA:          -7.827
REMARK INTER:                  -7.099
REMARK INTRA:                  -0.728
REMARK UNBOUND:                -0.771
REMARK SMILES CCCCCCCCCCCC(=O)[O-]
REMARK SMILES IDX 7 1 8 2 9 3 10 4 11 5 12 6 13 7 14 8 6 9 5 10 4 11 3 12 2 13
REMARK SMILES IDX 1 14
REMARK H PARENT
REMARK Flexibility Score: inf
ROOT
ATOM      1  C   UNL     1       3.966 -12.174   2.953  1.00  0.00     0.000 C 
ENDROOT
BRANCH   1   2
ATOM      2  C   UNL     1       4.440 -12.965   1.727  1.00  0.00     0.000 C 
BRANCH   2   3
ATOM      3  C   UNL     1       4.973 -12.022   0.637  1.00  0.00     0.000 C 
BRANCH   3   4
ATOM      4  C   UNL     1       6.335 -12.468   0.083  1.00  0.00     0.006 C 
BRANCH   4   5
ATOM      5  C   UNL     1       7.236 -13.089   1.157  1.00  0.00     0.053 C 
BRANCH   5   6
ATOM      6  C   UNL     1       8.107 -14.148   0.560  1.00  0.00     0.041 C 
ATOM      7  O   UNL     1       9.354 -13.982   0.494  1.00  0.00    -0.550 OA
ATOM      8  O   UNL     1       7.538 -15.299   0.030  1.00  0.00    -0.550 OA
ENDBRANCH   5   6
ENDBRANCH   4   5
ENDBRANCH   3   4
ENDBRANCH   2   3
ENDBRANCH   1   2
BRANCH   1   9
ATOM      9  C   UNL     1       3.639 -13.111   4.121  1.00  0.00     0.000 C 
BRANCH   9  10
ATOM     10  C   UNL     1       4.884 -13.879   4.578  1.00  0.00    -0.000 C 
BRANCH  10  11
ATOM     11  C   UNL     1       5.169 -13.630   6.067  1.00  0.00    -0.000 C 
BRANCH  11  12
ATOM     12  C   UNL     1       4.479 -12.364   6.599  1.00  0.00    -0.000 C 
BRANCH  12  13
ATOM     13  C   UNL     1       5.474 -11.238   6.917  1.00  0.00    -0.003 C 
ATOM     14  C   UNL     1       6.682 -11.773   7.682  1.00  0.00     0.004 C 
ENDBRANCH  12  13
ENDBRANCH  11  12
ENDBRANCH  10  11
ENDBRANCH   9  10
ENDBRANCH   1   9
TORSDOF 10
ENDMDL
MODEL 4
REMARK VINA RESULT:    -4.432      1.719      3.068
REMARK INTER + INTRA:          -7.793
REMARK INTER:                  -7.072
REMARK INTRA:                  -0.721
REMARK UNBOUND:                -0.771
REMARK SMILES CCCCCCCCCCCC(=O)[O-]
REMARK SMILES IDX 7 1 8 2 9 3 10 4 11 5 12 6 13 7 14 8 6 9 5 10 4 11 3 12 2 13
REMARK SMILES IDX 1 14
REMARK H PARENT
REMARK Flexibility Score: inf
ROOT
ATOM      1  C   UNL     1       4.974 -13.693   4.767  1.00  0.00     0.000 C 
ENDROOT
BRANCH   1   2
ATOM      2  C   UNL     1       4.709 -13.327   6.232  1.00  0.00     0.000 C 
BRANCH   2   3
ATOM      3  C   UNL     1       5.912 -12.588   6.839  1.00  0.00     0.000 C 
BRANCH   3   4
ATOM      4  C   UNL     1       5.579 -11.142   7.238  1.00  0.00     0.006 C 
BRANCH   4   5
ATOM      5  C   UNL     1       4.132 -10.756   6.909  1.00  0.00     0.053 C 
BRANCH   5   6
ATOM      6  C   UNL     1       4.092  -9.831   5.734  1.00  0.00     0.041 C 
ATOM      7  O   UNL     1       4.491  -8.642   5.849  1.00  0.00    -0.550 OA
ATOM      8  O   UNL     1       3.569 -10.267   4.524  1.00  0.00    -0.550 OA
ENDBRANCH   5   6
ENDBRANCH   4   5
ENDBRANCH   3   4
ENDBRANCH   2   3
ENDBRANCH   1   2
BRANCH   1   9
ATOM      9  C   UNL     1       3.676 -14.094   4.055  1.00  0.00     0.000 C 
BRANCH   9  10
ATOM     10  C   UNL     1       3.691 -13.648   2.589  1.00  0.00    -0.000 C 
BRANCH  10  11
ATOM     11  C   UNL     1       5.109 -13.248   2.150  1.00  0.00    -0.000 C 
BRANCH  11  12
ATOM     12  C   UNL     1       5.109 -12.298   0.942  1.00  0.00    -0.000 C 
BRANCH  12  13
ATOM     13  C   UNL     1       6.413 -12.372   0.133  1.00  0.00    -0.003 C 
ATOM     14  C   UNL     1       7.553 -12.931   0.981  1.00  0.00     0.004 C 
ENDBRANCH  12  13
ENDBRANCH  11  12
ENDBRANCH  10  11
ENDBRANCH   9  10
ENDBRANCH   1   9
TORSDOF 10
ENDMDL
MODEL 5
REMARK VINA RESULT:    -4.428      3.973      6.224
REMARK INTER + INTRA:          -7.788
REMARK INTER:                  -6.374
REMARK INTRA:                  -1.414
REMARK UNBOUND:                -0.771
REMARK SMILES CCCCCCCCCCCC(=O)[O-]
REMARK SMILES IDX 7 1 8 2 9 3 10 4 11 5 12 6 13 7 14 8 6 9 5 10 4 11 3 12 2 13
REMARK SMILES IDX 1 14
REMARK H PARENT
REMARK Flexibility Score: inf
ROOT
ATOM      1  C   UNL     1       4.985 -13.962   5.104  1.00  0.00     0.000 C 
ENDROOT
BRANCH   1   2
ATOM      2  C   UNL     1       4.414 -12.997   4.057  1.00  0.00     0.000 C 
BRANCH   2   3
ATOM      3  C   UNL     1       2.880 -12.942   4.140  1.00  0.00     0.000 C 
BRANCH   3   4
ATOM      4  C   UNL     1       2.323 -11.538   3.859  1.00  0.00     0.006 C 
BRANCH   4   5
ATOM      5  C   UNL     1       3.387 -10.576   3.317  1.00  0.00     0.053 C 
BRANCH   5   6
ATOM      6  C   UNL     1       3.181 -10.340   1.854  1.00  0.00     0.041 C 
ATOM      7  O   UNL     1       2.345  -9.483   1.462  1.00  0.00    -0.550 OA
ATOM      8  O   UNL     1       3.875 -11.101   0.923  1.00  0.00    -0.550 OA
ENDBRANCH   5   6
ENDBRANCH   4   5
ENDBRANCH   3   4
ENDBRANCH   2   3
ENDBRANCH   1   2
BRANCH   1   9
ATOM      9  C   UNL     1       4.847 -13.386   6.518  1.00  0.00     0.000 C 
BRANCH   9  10
ATOM     10  C   UNL     1       6.024 -12.464   6.855  1.00  0.00    -0.000 C 
BRANCH  10  11
ATOM     11  C   UNL     1       5.556 -11.010   7.018  1.00  0.00    -0.000 C 
BRANCH  11  12
ATOM     12  C   UNL     1       4.026 -10.885   7.096  1.00  0.00    -0.000 C 
BRANCH  12  13
ATOM     13  C   UNL     1       3.533  -9.463   6.789  1.00  0.00    -0.003 C 
ATOM     14  C   UNL     1       4.693  -8.555   6.390  1.00  0.00     0.004 C 
ENDBRANCH  12  13
ENDBRANCH  11  12
ENDBRANCH  10  11
ENDBRANCH   9  10
ENDBRANCH   1   9
TORSDOF 10
ENDMDL
MODEL 6
REMARK VINA RESULT:    -4.375      3.197      6.171
REMARK INTER + INTRA:          -7.703
REMARK INTER:                  -6.613
REMARK INTRA:                  -1.090
REMARK UNBOUND:                -0.771
REMARK SMILES CCCCCCCCCCCC(=O)[O-]
REMARK SMILES IDX 7 1 8 2 9 3 10 4 11 5 12 6 13 7 14 8 6 9 5 10 4 11 3 12 2 13
REMARK SMILES IDX 1 14
REMARK H PARENT
REMARK Flexibility Score: inf
ROOT
ATOM      1  C   UNL     1       4.886 -13.891   4.986  1.00  0.00     0.000 C 
ENDROOT
BRANCH   1   2
ATOM      2  C   UNL     1       3.503 -13.857   4.323  1.00  0.00     0.000 C 
BRANCH   2   3
ATOM      3  C   UNL     1       3.623 -13.567   2.819  1.00  0.00     0.000 C 
BRANCH   3   4
ATOM      4  C   UNL     1       5.040 -13.132   2.411  1.00  0.00     0.006 C 
BRANCH   4   5
ATOM      5  C   UNL     1       5.109 -12.621   0.966  1.00  0.00     0.053 C 
BRANCH   5   6
ATOM      6  C   UNL     1       6.479 -12.830   0.404  1.00  0.00     0.041 C 
ATOM      7  O   UNL     1       6.638 -12.989  -0.836  1.00  0.00    -0.550 OA
ATOM      8  O   UNL     1       7.576 -12.899   1.252  1.00  0.00    -0.550 OA
ENDBRANCH   5   6
ENDBRANCH   4   5
ENDBRANCH   3   4
ENDBRANCH   2   3
ENDBRANCH   1   2
BRANCH   1   9
ATOM      9  C   UNL     1       4.810 -13.419   6.443  1.00  0.00     0.000 C 
BRANCH   9  10
ATOM     10  C   UNL     1       5.974 -12.480   6.779  1.00  0.00    -0.000 C 
BRANCH  10  11
ATOM     11  C   UNL     1       5.460 -11.145   7.341  1.00  0.00    -0.000 C 
BRANCH  11  12
ATOM     12  C   UNL     1       4.052 -10.792   6.835  1.00  0.00    -0.000 C 
BRANCH  12  13
ATOM     13  C   UNL     1       4.068  -9.681   5.774  1.00  0.00    -0.003 C 
ATOM     14  C   UNL     1       3.419 -10.154   4.475  1.00  0.00     0.004 C 
ENDBRANCH  12  13
ENDBRANCH  11  12
ENDBRANCH  10  11
ENDBRANCH   9  10
ENDBRANCH   1   9
TORSDOF 10
ENDMDL
MODEL 7
REMARK VINA RESULT:    -4.268      3.238      4.818
REMARK INTER + INTRA:          -7.534
REMARK INTER:                  -6.390
REMARK INTRA:                  -1.144
REMARK UNBOUND:                -0.771
REMARK SMILES CCCCCCCCCCCC(=O)[O-]
REMARK SMILES IDX 7 1 8 2 9 3 10 4 11 5 12 6 13 7 14 8 6 9 5 10 4 11 3 12 2 13
REMARK SMILES IDX 1 14
REMARK H PARENT
REMARK Flexibility Score: inf
ROOT
ATOM      1  C   UNL     1       3.557 -12.258   3.112  1.00  0.00     0.000 C 
ENDROOT
BRANCH   1   2
ATOM      2  C   UNL     1       2.791 -10.931   3.188  1.00  0.00     0.000 C 
BRANCH   2   3
ATOM      3  C   UNL     1       3.358 -10.033   4.298  1.00  0.00     0.000 C 
BRANCH   3   4
ATOM      4  C   UNL     1       2.348  -9.778   5.428  1.00  0.00     0.006 C 
BRANCH   4   5
ATOM      5  C   UNL     1       3.022  -9.379   6.746  1.00  0.00     0.053 C 
BRANCH   5   6
ATOM      6  C   UNL     1       3.982  -8.254   6.522  1.00  0.00     0.041 C 
ATOM      7  O   UNL     1       5.209  -8.410   6.761  1.00  0.00    -0.550 OA
ATOM      8  O   UNL     1       3.515  -7.017   6.097  1.00  0.00    -0.550 OA
ENDBRANCH   5   6
ENDBRANCH   4   5
ENDBRANCH   3   4
ENDBRANCH   2   3
ENDBRANCH   1   2
BRANCH   1   9
ATOM      9  C   UNL     1       2.726 -13.408   3.695  1.00  0.00     0.000 C 
BRANCH   9  10
ATOM     10  C   UNL     1       3.572 -14.281   4.628  1.00  0.00    -0.000 C 
BRANCH  10  11
ATOM     11  C   UNL     1       4.947 -13.643   4.883  1.00  0.00    -0.000 C 
BRANCH  11  12
ATOM     12  C   UNL     1       5.209 -13.374   6.372  1.00  0.00    -0.000 C 
BRANCH  12  13
ATOM     13  C   UNL     1       5.552 -11.904   6.656  1.00  0.00    -0.003 C 
ATOM     14  C   UNL     1       6.713 -11.793   7.642  1.00  0.00     0.004 C 
ENDBRANCH  12  13
ENDBRANCH  11  12
ENDBRANCH  10  11
ENDBRANCH   9  10
ENDBRANCH   1   9
TORSDOF 10
ENDMDL
MODEL 8
REMARK VINA RESULT:    -4.218      3.731      6.803
REMARK INTER + INTRA:          -7.454
REMARK INTER:                  -6.614
REMARK INTRA:                  -0.841
REMARK UNBOUND:                -0.771
REMARK SMILES CCCCCCCCCCCC(=O)[O-]
REMARK SMILES IDX 7 1 8 2 9 3 10 4 11 5 12 6 13 7 14 8 6 9 5 10 4 11 3 12 2 13
REMARK SMILES IDX 1 14
REMARK H PARENT
REMARK Flexibility Score: inf
ROOT
ATOM      1  C   UNL     1       5.623 -11.143   7.298  1.00  0.00     0.000 C 
ENDROOT
BRANCH   1   2
ATOM      2  C   UNL     1       5.972 -12.399   6.490  1.00  0.00     0.000 C 
BRANCH   2   3
ATOM      3  C   UNL     1       4.822 -13.418   6.535  1.00  0.00     0.000 C 
BRANCH   3   4
ATOM      4  C   UNL     1       4.502 -14.010   5.153  1.00  0.00     0.006 C 
BRANCH   4   5
ATOM      5  C   UNL     1       4.695 -12.998   4.016  1.00  0.00     0.053 C 
BRANCH   5   6
ATOM      6  C   UNL     1       3.424 -12.253   3.760  1.00  0.00     0.041 C 
ATOM      7  O   UNL     1       2.311 -12.810   3.957  1.00  0.00    -0.550 OA
ATOM      8  O   UNL     1       3.466 -10.960   3.256  1.00  0.00    -0.550 OA
ENDBRANCH   5   6
ENDBRANCH   4   5
ENDBRANCH   3   4
ENDBRANCH   2   3
ENDBRANCH   1   2
BRANCH   1   9
ATOM      9  C   UNL     1       4.228 -10.621   6.931  1.00  0.00     0.000 C 
BRANCH   9  10
ATOM     10  C   UNL     1       4.303  -9.194   6.378  1.00  0.00    -0.000 C 
BRANCH  10  11
ATOM     11  C   UNL     1       2.909  -8.688   5.973  1.00  0.00    -0.000 C 
BRANCH  11  12
ATOM     12  C   UNL     1       2.472  -7.451   6.774  1.00  0.00    -0.000 C 
BRANCH  12  13
ATOM     13  C   UNL     1       3.359  -6.227   6.501  1.00  0.00    -0.003 C 
ATOM     14  C   UNL     1       3.693  -5.493   7.797  1.00  0.00     0.004 C 
ENDBRANCH  12  13
ENDBRANCH  11  12
ENDBRANCH  10  11
ENDBRANCH   9  10
ENDBRANCH   1   9
TORSDOF 10
ENDMDL
MODEL 9
REMARK VINA RESULT:    -4.145      3.377      4.917
REMARK INTER + INTRA:          -7.339
REMARK INTER:                  -6.490
REMARK INTRA:                  -0.850
REMARK UNBOUND:                -0.771
REMARK SMILES CCCCCCCCCCCC(=O)[O-]
REMARK SMILES IDX 7 1 8 2 9 3 10 4 11 5 12 6 13 7 14 8 6 9 5 10 4 11 3 12 2 13
REMARK SMILES IDX 1 14
REMARK H PARENT
REMARK Flexibility Score: inf
ROOT
ATOM      1  C   UNL     1       4.897 -13.970   5.082  1.00  0.00     0.000 C 
ENDROOT
BRANCH   1   2
ATOM      2  C   UNL     1       4.856 -13.400   6.505  1.00  0.00     0.000 C 
BRANCH   2   3
ATOM      3  C   UNL     1       5.988 -12.383   6.721  1.00  0.00     0.000 C 
BRANCH   3   4
ATOM      4  C   UNL     1       5.485 -11.055   7.309  1.00  0.00     0.006 C 
BRANCH   4   5
ATOM      5  C   UNL     1       4.014 -10.779   6.974  1.00  0.00     0.053 C 
BRANCH   5   6
ATOM      6  C   UNL     1       3.785  -9.311   6.798  1.00  0.00     0.041 C 
ATOM      7  O   UNL     1       2.645  -8.817   7.006  1.00  0.00    -0.550 OA
ATOM      8  O   UNL     1       4.818  -8.495   6.357  1.00  0.00    -0.550 OA
ENDBRANCH   5   6
ENDBRANCH   4   5
ENDBRANCH   3   4
ENDBRANCH   2   3
ENDBRANCH   1   2
BRANCH   1   9
ATOM      9  C   UNL     1       4.407 -12.936   4.060  1.00  0.00     0.000 C 
BRANCH   9  10
ATOM     10  C   UNL     1       2.886 -13.007   3.890  1.00  0.00    -0.000 C 
BRANCH  10  11
ATOM     11  C   UNL     1       2.510 -13.774   2.612  1.00  0.00    -0.000 C 
BRANCH  11  12
ATOM     12  C   UNL     1       2.102 -15.228   2.892  1.00  0.00    -0.000 C 
BRANCH  12  13
ATOM     13  C   UNL     1       0.882 -15.331   3.821  1.00  0.00    -0.003 C 
ATOM     14  C   UNL     1       1.108 -16.379   4.908  1.00  0.00     0.004 C 
ENDBRANCH  12  13
ENDBRANCH  11  12
ENDBRANCH  10  11
ENDBRANCH   9  10
ENDBRANCH   1   9
TORSDOF 10
ENDMDL
