MODEL 1
REMARK VINA RESULT:    -6.938      0.000      0.000
REMARK INTER + INTRA:          -8.420
REMARK INTER:                  -8.155
REMARK INTRA:                  -0.265
REMARK UNBOUND:                -0.265
REMARK SMILES O=c1c(O)c(-c2ccc(O)cc2)oc2cc(O)cc(O)c12
REMARK SMILES IDX 5 1 3 2 2 3 1 4 21 5 19 6 18 7 16 8 15 9 14 10 13 11 6 12
REMARK SMILES IDX 7 13 8 14 9 15 12 16 11 17 10 18 4 20 20 22 17 24
REMARK H PARENT 10 19 4 21 20 23 17 25
REMARK Flexibility Score: inf
ROOT
ATOM      1  C   UNL     1       9.658  11.568 -15.995  1.00  0.00     0.180 A 
ATOM      2  C   UNL     1      10.299  10.374 -16.374  1.00  0.00     0.208 A 
ATOM      3  C   UNL     1       9.986   9.190 -15.689  1.00  0.00     0.238 A 
ATOM      4  O   UNL     1      10.563   8.115 -16.012  1.00  0.00    -0.285 OA
ATOM      5  C   UNL     1       9.027   9.214 -14.656  1.00  0.00     0.111 A 
ATOM      6  C   UNL     1       8.652   8.064 -13.919  1.00  0.00     0.134 A 
ATOM      7  C   UNL     1       7.682   8.170 -12.912  1.00  0.00     0.093 A 
ATOM      8  C   UNL     1       7.080   9.402 -12.627  1.00  0.00     0.123 A 
ATOM      9  C   UNL     1       7.447  10.537 -13.349  1.00  0.00     0.094 A 
ATOM     10  C   UNL     1       8.414  10.454 -14.357  1.00  0.00     0.146 A 
ATOM     11  O   UNL     1       8.747  11.551 -15.025  1.00  0.00    -0.452 OA
ENDROOT
BRANCH   1  12
ATOM     12  C   UNL     1       9.947  12.862 -16.656  1.00  0.00     0.021 A 
ATOM     13  C   UNL     1      10.803  13.811 -16.067  1.00  0.00     0.016 A 
ATOM     14  C   UNL     1      11.043  15.036 -16.698  1.00  0.00     0.047 A 
ATOM     15  C   UNL     1      10.421  15.332 -17.918  1.00  0.00     0.115 A 
ATOM     16  C   UNL     1       9.312  13.177 -17.868  1.00  0.00     0.016 A 
ATOM     17  C   UNL     1       9.555  14.401 -18.499  1.00  0.00     0.047 A 
BRANCH  15  18
ATOM     18  O   UNL     1      10.654  16.548 -18.556  1.00  0.00    -0.508 OA
ATOM     19  H   UNL     1      10.198  16.784 -19.430  1.00  0.00     0.293 HD
ENDBRANCH  15  18
ENDBRANCH   1  12
BRANCH   2  20
ATOM     20  O   UNL     1      11.209  10.367 -17.434  1.00  0.00    -0.502 OA
ATOM     21  H   UNL     1      11.630   9.514 -17.782  1.00  0.00     0.293 HD
ENDBRANCH   2  20
BRANCH   6  22
ATOM     22  O   UNL     1       9.233   6.823 -14.181  1.00  0.00    -0.507 OA
ATOM     23  H   UNL     1       8.675   6.017 -14.437  1.00  0.00     0.293 HD
ENDBRANCH   6  22
BRANCH   8  24
ATOM     24  O   UNL     1       6.117   9.506 -11.627  1.00  0.00    -0.508 OA
ATOM     25  H   UNL     1       6.348   9.849 -10.702  1.00  0.00     0.293 HD
ENDBRANCH   8  24
TORSDOF 5
ENDMDL
MODEL 2
REMARK VINA RESULT:    -6.866      1.901      7.261
REMARK INTER + INTRA:          -8.335
REMARK INTER:                  -8.043
REMARK INTRA:                  -0.292
REMARK UNBOUND:                -0.265
REMARK SMILES O=c1c(O)c(-c2ccc(O)cc2)oc2cc(O)cc(O)c12
REMARK SMILES IDX 5 1 3 2 2 3 1 4 21 5 19 6 18 7 16 8 15 9 14 10 13 11 6 12
REMARK SMILES IDX 7 13 8 14 9 15 12 16 11 17 10 18 4 20 20 22 17 24
REMARK H PARENT 10 19 4 21 20 23 17 25
REMARK Flexibility Score: inf
ROOT
ATOM      1  C   UNL     1       9.856  12.399 -17.040  1.00  0.00     0.180 A 
ATOM      2  C   UNL     1      10.497  13.535 -16.508  1.00  0.00     0.208 A 
ATOM      3  C   UNL     1      10.486  14.728 -17.248  1.00  0.00     0.238 A 
ATOM      4  O   UNL     1      11.067  15.748 -16.786  1.00  0.00    -0.285 OA
ATOM      5  C   UNL     1       9.821  14.773 -18.489  1.00  0.00     0.111 A 
ATOM      6  C   UNL     1       9.759  15.936 -19.294  1.00  0.00     0.134 A 
ATOM      7  C   UNL     1       9.069  15.902 -20.514  1.00  0.00     0.093 A 
ATOM      8  C   UNL     1       8.439  14.728 -20.945  1.00  0.00     0.123 A 
ATOM      9  C   UNL     1       8.498  13.579 -20.156  1.00  0.00     0.094 A 
ATOM     10  C   UNL     1       9.182  13.592 -18.936  1.00  0.00     0.146 A 
ATOM     11  O   UNL     1       9.226  12.482 -18.208  1.00  0.00    -0.452 OA
ENDROOT
BRANCH   1  12
ATOM     12  C   UNL     1       9.840  11.099 -16.330  1.00  0.00     0.021 A 
ATOM     13  C   UNL     1      10.803  10.108 -16.594  1.00  0.00     0.016 A 
ATOM     14  C   UNL     1      10.754   8.879 -15.929  1.00  0.00     0.047 A 
ATOM     15  C   UNL     1       9.734   8.621 -15.003  1.00  0.00     0.115 A 
ATOM     16  C   UNL     1       8.810  10.823 -15.416  1.00  0.00     0.016 A 
ATOM     17  C   UNL     1       8.763   9.594 -14.751  1.00  0.00     0.047 A 
BRANCH  15  18
ATOM     18  O   UNL     1       9.676   7.400 -14.333  1.00  0.00    -0.508 OA
ATOM     19  H   UNL     1      10.504   6.835 -14.189  1.00  0.00     0.293 HD
ENDBRANCH  15  18
ENDBRANCH   1  12
BRANCH   2  20
ATOM     20  O   UNL     1      11.107  13.478 -15.253  1.00  0.00    -0.502 OA
ATOM     21  H   UNL     1      11.568  12.644 -14.910  1.00  0.00     0.293 HD
ENDBRANCH   2  20
BRANCH   6  22
ATOM     22  O   UNL     1      10.377  17.121 -18.891  1.00  0.00    -0.507 OA
ATOM     23  H   UNL     1      10.214  17.522 -17.975  1.00  0.00     0.293 HD
ENDBRANCH   6  22
BRANCH   8  24
ATOM     24  O   UNL     1       7.753  14.695 -22.157  1.00  0.00    -0.508 OA
ATOM     25  H   UNL     1       8.107  14.177 -22.952  1.00  0.00     0.293 HD
ENDBRANCH   8  24
TORSDOF 5
ENDMDL
MODEL 3
REMARK VINA RESULT:    -6.835      2.752      7.338
REMARK INTER + INTRA:          -8.299
REMARK INTER:                  -8.010
REMARK INTRA:                  -0.289
REMARK UNBOUND:                -0.265
REMARK SMILES O=c1c(O)c(-c2ccc(O)cc2)oc2cc(O)cc(O)c12
REMARK SMILES IDX 5 1 3 2 2 3 1 4 21 5 19 6 18 7 16 8 15 9 14 10 13 11 6 12
REMARK SMILES IDX 7 13 8 14 9 15 12 16 11 17 10 18 4 20 20 22 17 24
REMARK H PARENT 10 19 4 21 20 23 17 25
REMARK Flexibility Score: inf
ROOT
ATOM      1  C   UNL     1       7.488   7.948 -14.573  1.00  0.00     0.180 A 
ATOM      2  C   UNL     1       7.082   8.378 -13.295  1.00  0.00     0.208 A 
ATOM      3  C   UNL     1       7.357   9.698 -12.905  1.00  0.00     0.238 A 
ATOM      4  O   UNL     1       7.008  10.091 -11.758  1.00  0.00    -0.285 OA
ATOM      5  C   UNL     1       8.010  10.569 -13.801  1.00  0.00     0.111 A 
ATOM      6  C   UNL     1       8.319  11.914 -13.488  1.00  0.00     0.134 A 
ATOM      7  C   UNL     1       8.963  12.719 -14.439  1.00  0.00     0.093 A 
ATOM      8  C   UNL     1       9.303  12.205 -15.696  1.00  0.00     0.123 A 
ATOM      9  C   UNL     1       9.001  10.880 -16.009  1.00  0.00     0.094 A 
ATOM     10  C   UNL     1       8.360  10.060 -15.074  1.00  0.00     0.146 A 
ATOM     11  O   UNL     1       8.089   8.801 -15.398  1.00  0.00    -0.452 OA
ENDROOT
BRANCH   1  12
ATOM     12  C   UNL     1       7.252   6.566 -15.050  1.00  0.00     0.021 A 
ATOM     13  C   UNL     1       6.088   6.225 -15.762  1.00  0.00     0.016 A 
ATOM     14  C   UNL     1       5.875   4.908 -16.182  1.00  0.00     0.047 A 
ATOM     15  C   UNL     1       6.817   3.914 -15.884  1.00  0.00     0.115 A 
ATOM     16  C   UNL     1       8.180   5.558 -14.738  1.00  0.00     0.016 A 
ATOM     17  C   UNL     1       7.967   4.243 -15.160  1.00  0.00     0.047 A 
BRANCH  15  18
ATOM     18  O   UNL     1       6.617   2.599 -16.299  1.00  0.00    -0.508 OA
ATOM     19  H   UNL     1       5.764   2.315 -16.765  1.00  0.00     0.293 HD
ENDBRANCH  15  18
ENDBRANCH   1  12
BRANCH   2  20
ATOM     20  O   UNL     1       6.392   7.511 -12.445  1.00  0.00    -0.502 OA
ATOM     21  H   UNL     1       6.860   6.961 -11.734  1.00  0.00     0.293 HD
ENDBRANCH   2  20
BRANCH   6  22
ATOM     22  O   UNL     1       7.992  12.455 -12.243  1.00  0.00    -0.507 OA
ATOM     23  H   UNL     1       8.698  12.851 -11.633  1.00  0.00     0.293 HD
ENDBRANCH   6  22
BRANCH   8  24
ATOM     24  O   UNL     1       9.942  13.006 -16.640  1.00  0.00    -0.508 OA
ATOM     25  H   UNL     1      10.475  12.603 -17.402  1.00  0.00     0.293 HD
ENDBRANCH   8  24
TORSDOF 5
ENDMDL
MODEL 4
REMARK VINA RESULT:    -6.614      3.647      6.578
REMARK INTER + INTRA:          -8.039
REMARK INTER:                  -7.806
REMARK INTRA:                  -0.233
REMARK UNBOUND:                -0.265
REMARK SMILES O=c1c(O)c(-c2ccc(O)cc2)oc2cc(O)cc(O)c12
REMARK SMILES IDX 5 1 3 2 2 3 1 4 21 5 19 6 18 7 16 8 15 9 14 10 13 11 6 12
REMARK SMILES IDX 7 13 8 14 9 15 12 16 11 17 10 18 4 20 20 22 17 24
REMARK H PARENT 10 19 4 21 20 23 17 25
REMARK Flexibility Score: inf
ROOT
ATOM      1  C   UNL     1       8.545  16.573 -18.779  1.00  0.00     0.180 A 
ATOM      2  C   UNL     1       8.398  16.159 -20.116  1.00  0.00     0.208 A 
ATOM      3  C   UNL     1       8.651  14.817 -20.442  1.00  0.00     0.238 A 
ATOM      4  O   UNL     1       8.534  14.437 -21.639  1.00  0.00    -0.285 OA
ATOM      5  C   UNL     1       9.025  13.912 -19.428  1.00  0.00     0.111 A 
ATOM      6  C   UNL     1       9.293  12.543 -19.671  1.00  0.00     0.134 A 
ATOM      7  C   UNL     1       9.650  11.704 -18.606  1.00  0.00     0.093 A 
ATOM      8  C   UNL     1       9.744  12.207 -17.303  1.00  0.00     0.123 A 
ATOM      9  C   UNL     1       9.481  13.555 -17.058  1.00  0.00     0.094 A 
ATOM     10  C   UNL     1       9.124  14.409 -18.107  1.00  0.00     0.146 A 
ATOM     11  O   UNL     1       8.885  15.688 -17.846  1.00  0.00    -0.452 OA
ENDROOT
BRANCH   1  12
ATOM     12  C   UNL     1       8.315  17.975 -18.359  1.00  0.00     0.021 A 
ATOM     13  C   UNL     1       9.232  18.994 -18.674  1.00  0.00     0.016 A 
ATOM     14  C   UNL     1       9.006  20.307 -18.246  1.00  0.00     0.047 A 
ATOM     15  C   UNL     1       7.868  20.612 -17.487  1.00  0.00     0.115 A 
ATOM     16  C   UNL     1       7.189  18.288 -17.579  1.00  0.00     0.016 A 
ATOM     17  C   UNL     1       6.964  19.600 -17.154  1.00  0.00     0.047 A 
BRANCH  15  18
ATOM     18  O   UNL     1       7.632  21.916 -17.057  1.00  0.00    -0.508 OA
ATOM     19  H   UNL     1       8.381  22.505 -16.712  1.00  0.00     0.293 HD
ENDBRANCH  15  18
ENDBRANCH   1  12
BRANCH   2  20
ATOM     20  O   UNL     1       7.979  17.064 -21.094  1.00  0.00    -0.502 OA
ATOM     21  H   UNL     1       8.360  18.000 -21.166  1.00  0.00     0.293 HD
ENDBRANCH   2  20
BRANCH   6  22
ATOM     22  O   UNL     1       9.208  12.013 -20.959  1.00  0.00    -0.507 OA
ATOM     23  H   UNL     1       9.568  11.092 -21.182  1.00  0.00     0.293 HD
ENDBRANCH   6  22
BRANCH   8  24
ATOM     24  O   UNL     1      10.098  11.373 -16.245  1.00  0.00    -0.508 OA
ATOM     25  H   UNL     1      10.150  11.718 -15.293  1.00  0.00     0.293 HD
ENDBRANCH   8  24
TORSDOF 5
ENDMDL
MODEL 5
REMARK VINA RESULT:    -6.369      1.922      6.977
REMARK INTER + INTRA:          -7.751
REMARK INTER:                  -7.923
REMARK INTRA:                   0.172
REMARK UNBOUND:                -0.265
REMARK SMILES O=c1c(O)c(-c2ccc(O)cc2)oc2cc(O)cc(O)c12
REMARK SMILES IDX 5 1 3 2 2 3 1 4 21 5 19 6 18 7 16 8 15 9 14 10 13 11 6 12
REMARK SMILES IDX 7 13 8 14 9 15 12 16 11 17 10 18 4 20 20 22 17 24
REMARK H PARENT 10 19 4 21 20 23 17 25
REMARK Flexibility Score: inf
ROOT
ATOM      1  C   UNL     1       8.417  11.281 -14.763  1.00  0.00     0.180 A 
ATOM      2  C   UNL     1       8.832  12.549 -14.315  1.00  0.00     0.208 A 
ATOM      3  C   UNL     1       9.235  13.504 -15.261  1.00  0.00     0.238 A 
ATOM      4  O   UNL     1       9.619  14.640 -14.869  1.00  0.00    -0.285 OA
ATOM      5  C   UNL     1       9.197  13.186 -16.633  1.00  0.00     0.111 A 
ATOM      6  C   UNL     1       9.581  14.093 -17.650  1.00  0.00     0.134 A 
ATOM      7  C   UNL     1       9.506  13.702 -18.995  1.00  0.00     0.093 A 
ATOM      8  C   UNL     1       9.054  12.424 -19.342  1.00  0.00     0.123 A 
ATOM      9  C   UNL     1       8.674  11.527 -18.344  1.00  0.00     0.094 A 
ATOM     10  C   UNL     1       8.743  11.896 -16.996  1.00  0.00     0.146 A 
ATOM     11  O   UNL     1       8.380  11.020 -16.067  1.00  0.00    -0.452 OA
ENDROOT
BRANCH   1  12
ATOM     12  C   UNL     1       7.996  10.213 -13.827  1.00  0.00     0.021 A 
ATOM     13  C   UNL     1       8.372   8.872 -14.028  1.00  0.00     0.016 A 
ATOM     14  C   UNL     1       7.942   7.877 -13.144  1.00  0.00     0.047 A 
ATOM     15  C   UNL     1       7.121   8.208 -12.057  1.00  0.00     0.115 A 
ATOM     16  C   UNL     1       7.155  10.531 -12.748  1.00  0.00     0.016 A 
ATOM     17  C   UNL     1       6.728   9.535 -11.864  1.00  0.00     0.047 A 
BRANCH  15  18
ATOM     18  O   UNL     1       6.689   7.225 -11.169  1.00  0.00    -0.508 OA
ATOM     19  H   UNL     1       6.414   7.452 -10.221  1.00  0.00     0.293 HD
ENDBRANCH  15  18
ENDBRANCH   1  12
BRANCH   2  20
ATOM     20  O   UNL     1       8.813  12.857 -12.952  1.00  0.00    -0.502 OA
ATOM     21  H   UNL     1       8.061  13.384 -12.525  1.00  0.00     0.293 HD
ENDBRANCH   2  20
BRANCH   6  22
ATOM     22  O   UNL     1      10.036  15.374 -17.335  1.00  0.00    -0.507 OA
ATOM     23  H   UNL     1      11.025  15.591 -17.284  1.00  0.00     0.293 HD
ENDBRANCH   6  22
BRANCH   8  24
ATOM     24  O   UNL     1       8.979  12.037 -20.678  1.00  0.00    -0.508 OA
ATOM     25  H   UNL     1       9.601  11.336 -21.063  1.00  0.00     0.293 HD
ENDBRANCH   8  24
TORSDOF 5
ENDMDL
MODEL 6
REMARK VINA RESULT:    -6.368      2.449      3.544
REMARK INTER + INTRA:          -7.750
REMARK INTER:                  -8.094
REMARK INTRA:                   0.344
REMARK UNBOUND:                -0.265
REMARK SMILES O=c1c(O)c(-c2ccc(O)cc2)oc2cc(O)cc(O)c12
REMARK SMILES IDX 5 1 3 2 2 3 1 4 21 5 19 6 18 7 16 8 15 9 14 10 13 11 6 12
REMARK SMILES IDX 7 13 8 14 9 15 12 16 11 17 10 18 4 20 20 22 17 24
REMARK H PARENT 10 19 4 21 20 23 17 25
REMARK Flexibility Score: inf
ROOT
ATOM      1  C   UNL     1       8.939  13.285 -18.672  1.00  0.00     0.180 A 
ATOM      2  C   UNL     1       9.364  11.988 -19.018  1.00  0.00     0.208 A 
ATOM      3  C   UNL     1       9.507  11.028 -18.005  1.00  0.00     0.238 A 
ATOM      4  O   UNL     1       9.898   9.866 -18.302  1.00  0.00    -0.285 OA
ATOM      5  C   UNL     1       9.203  11.371 -16.672  1.00  0.00     0.111 A 
ATOM      6  C   UNL     1       9.315  10.462 -15.592  1.00  0.00     0.134 A 
ATOM      7  C   UNL     1       8.985  10.878 -14.295  1.00  0.00     0.093 A 
ATOM      8  C   UNL     1       8.544  12.185 -14.055  1.00  0.00     0.123 A 
ATOM      9  C   UNL     1       8.433  13.085 -15.116  1.00  0.00     0.094 A 
ATOM     10  C   UNL     1       8.758  12.690 -16.417  1.00  0.00     0.146 A 
ATOM     11  O   UNL     1       8.648  13.569 -17.406  1.00  0.00    -0.452 OA
ENDROOT
BRANCH   1  12
ATOM     12  C   UNL     1       8.783  14.358 -19.681  1.00  0.00     0.021 A 
ATOM     13  C   UNL     1       8.949  15.713 -19.341  1.00  0.00     0.016 A 
ATOM     14  C   UNL     1       8.773  16.711 -20.305  1.00  0.00     0.047 A 
ATOM     15  C   UNL     1       8.417  16.367 -21.616  1.00  0.00     0.115 A 
ATOM     16  C   UNL     1       8.406  14.025 -20.993  1.00  0.00     0.016 A 
ATOM     17  C   UNL     1       8.232  15.024 -21.955  1.00  0.00     0.047 A 
BRANCH  15  18
ATOM     18  O   UNL     1       8.241  17.353 -22.585  1.00  0.00    -0.508 OA
ATOM     19  H   UNL     1       8.835  17.403 -23.404  1.00  0.00     0.293 HD
ENDBRANCH  15  18
ENDBRANCH   1  12
BRANCH   2  20
ATOM     20  O   UNL     1       9.611  11.659 -20.354  1.00  0.00    -0.502 OA
ATOM     21  H   UNL     1       8.867  11.534 -21.029  1.00  0.00     0.293 HD
ENDBRANCH   2  20
BRANCH   6  22
ATOM     22  O   UNL     1       9.751   9.152 -15.800  1.00  0.00    -0.507 OA
ATOM     23  H   UNL     1      10.733   8.904 -15.753  1.00  0.00     0.293 HD
ENDBRANCH   6  22
BRANCH   8  24
ATOM     24  O   UNL     1       8.216  12.598 -12.767  1.00  0.00    -0.508 OA
ATOM     25  H   UNL     1       7.253  12.654 -12.457  1.00  0.00     0.293 HD
ENDBRANCH   8  24
TORSDOF 5
ENDMDL
MODEL 7
REMARK VINA RESULT:    -6.292      1.173      2.972
REMARK INTER + INTRA:          -7.661
REMARK INTER:                  -7.374
REMARK INTRA:                  -0.287
REMARK UNBOUND:                -0.265
REMARK SMILES O=c1c(O)c(-c2ccc(O)cc2)oc2cc(O)cc(O)c12
REMARK SMILES IDX 5 1 3 2 2 3 1 4 21 5 19 6 18 7 16 8 15 9 14 10 13 11 6 12
REMARK SMILES IDX 7 13 8 14 9 15 12 16 11 17 10 18 4 20 20 22 17 24
REMARK H PARENT 10 19 4 21 20 23 17 25
REMARK Flexibility Score: inf
ROOT
ATOM      1  C   UNL     1       8.845  12.275 -15.520  1.00  0.00     0.180 A 
ATOM      2  C   UNL     1       7.848  12.634 -14.593  1.00  0.00     0.208 A 
ATOM      3  C   UNL     1       7.271  11.633 -13.796  1.00  0.00     0.238 A 
ATOM      4  O   UNL     1       6.369  11.942 -12.970  1.00  0.00    -0.285 OA
ATOM      5  C   UNL     1       7.712  10.300 -13.922  1.00  0.00     0.111 A 
ATOM      6  C   UNL     1       7.186   9.234 -13.154  1.00  0.00     0.134 A 
ATOM      7  C   UNL     1       7.685   7.935 -13.333  1.00  0.00     0.093 A 
ATOM      8  C   UNL     1       8.699   7.683 -14.265  1.00  0.00     0.123 A 
ATOM      9  C   UNL     1       9.220   8.731 -15.024  1.00  0.00     0.094 A 
ATOM     10  C   UNL     1       8.735  10.033 -14.862  1.00  0.00     0.146 A 
ATOM     11  O   UNL     1       9.246  11.009 -15.602  1.00  0.00    -0.452 OA
ENDROOT
BRANCH   1  12
ATOM     12  C   UNL     1       9.488  13.269 -16.410  1.00  0.00     0.021 A 
ATOM     13  C   UNL     1      10.602  14.018 -15.988  1.00  0.00     0.016 A 
ATOM     14  C   UNL     1      11.177  14.969 -16.837  1.00  0.00     0.047 A 
ATOM     15  C   UNL     1      10.639  15.191 -18.112  1.00  0.00     0.115 A 
ATOM     16  C   UNL     1       8.943  13.515 -17.681  1.00  0.00     0.016 A 
ATOM     17  C   UNL     1       9.521  14.464 -18.529  1.00  0.00     0.047 A 
BRANCH  15  18
ATOM     18  O   UNL     1      11.206  16.134 -18.967  1.00  0.00    -0.508 OA
ATOM     19  H   UNL     1      12.207  16.279 -19.006  1.00  0.00     0.293 HD
ENDBRANCH  15  18
ENDBRANCH   1  12
BRANCH   2  20
ATOM     20  O   UNL     1       7.464  13.970 -14.451  1.00  0.00    -0.502 OA
ATOM     21  H   UNL     1       7.861  14.711 -15.016  1.00  0.00     0.293 HD
ENDBRANCH   2  20
BRANCH   6  22
ATOM     22  O   UNL     1       6.175   9.454 -12.218  1.00  0.00    -0.507 OA
ATOM     23  H   UNL     1       5.223   9.147 -12.379  1.00  0.00     0.293 HD
ENDBRANCH   6  22
BRANCH   8  24
ATOM     24  O   UNL     1       9.195   6.394 -14.442  1.00  0.00    -0.508 OA
ATOM     25  H   UNL     1      10.124   6.229 -14.811  1.00  0.00     0.293 HD
ENDBRANCH   8  24
TORSDOF 5
ENDMDL
MODEL 8
REMARK VINA RESULT:    -6.198      2.368      7.112
REMARK INTER + INTRA:          -7.550
REMARK INTER:                  -7.259
REMARK INTRA:                  -0.291
REMARK UNBOUND:                -0.265
REMARK SMILES O=c1c(O)c(-c2ccc(O)cc2)oc2cc(O)cc(O)c12
REMARK SMILES IDX 5 1 3 2 2 3 1 4 21 5 19 6 18 7 16 8 15 9 14 10 13 11 6 12
REMARK SMILES IDX 7 13 8 14 9 15 12 16 11 17 10 18 4 20 20 22 17 24
REMARK H PARENT 10 19 4 21 20 23 17 25
REMARK Flexibility Score: inf
ROOT
ATOM      1  C   UNL     1       8.695  11.605 -17.575  1.00  0.00     0.180 A 
ATOM      2  C   UNL     1       7.938  11.331 -18.730  1.00  0.00     0.208 A 
ATOM      3  C   UNL     1       7.787  12.338 -19.696  1.00  0.00     0.238 A 
ATOM      4  O   UNL     1       7.101  12.108 -20.729  1.00  0.00    -0.285 OA
ATOM      5  C   UNL     1       8.410  13.588 -19.504  1.00  0.00     0.111 A 
ATOM      6  C   UNL     1       8.311  14.654 -20.430  1.00  0.00     0.134 A 
ATOM      7  C   UNL     1       8.969  15.865 -20.170  1.00  0.00     0.093 A 
ATOM      8  C   UNL     1       9.722  16.031 -19.002  1.00  0.00     0.123 A 
ATOM      9  C   UNL     1       9.822  14.984 -18.085  1.00  0.00     0.094 A 
ATOM     10  C   UNL     1       9.173  13.768 -18.326  1.00  0.00     0.146 A 
ATOM     11  O   UNL     1       9.281  12.791 -17.434  1.00  0.00    -0.452 OA
ENDROOT
BRANCH   1  12
ATOM     12  C   UNL     1       8.885  10.602 -16.502  1.00  0.00     0.021 A 
ATOM     13  C   UNL     1       9.944   9.677 -16.541  1.00  0.00     0.016 A 
ATOM     14  C   UNL     1      10.089   8.723 -15.529  1.00  0.00     0.047 A 
ATOM     15  C   UNL     1       9.170   8.674 -14.472  1.00  0.00     0.115 A 
ATOM     16  C   UNL     1       7.956  10.530 -15.450  1.00  0.00     0.016 A 
ATOM     17  C   UNL     1       8.104   9.577 -14.438  1.00  0.00     0.047 A 
BRANCH  15  18
ATOM     18  O   UNL     1       9.305   7.729 -13.457  1.00  0.00    -0.508 OA
ATOM     19  H   UNL     1      10.213   7.369 -13.186  1.00  0.00     0.293 HD
ENDBRANCH  15  18
ENDBRANCH   1  12
BRANCH   2  20
ATOM     20  O   UNL     1       7.372  10.068 -18.920  1.00  0.00    -0.502 OA
ATOM     21  H   UNL     1       7.596   9.278 -18.327  1.00  0.00     0.293 HD
ENDBRANCH   2  20
BRANCH   6  22
ATOM     22  O   UNL     1       7.568  14.519 -21.603  1.00  0.00    -0.507 OA
ATOM     23  H   UNL     1       6.672  14.977 -21.722  1.00  0.00     0.293 HD
ENDBRANCH   6  22
BRANCH   8  24
ATOM     24  O   UNL     1      10.376  17.233 -18.744  1.00  0.00    -0.508 OA
ATOM     25  H   UNL     1      11.367  17.347 -18.921  1.00  0.00     0.293 HD
ENDBRANCH   8  24
TORSDOF 5
ENDMDL
MODEL 9
REMARK VINA RESULT:    -6.111      2.213      6.985
REMARK INTER + INTRA:          -7.448
REMARK INTER:                  -7.164
REMARK INTRA:                  -0.284
REMARK UNBOUND:                -0.265
REMARK SMILES O=c1c(O)c(-c2ccc(O)cc2)oc2cc(O)cc(O)c12
REMARK SMILES IDX 5 1 3 2 2 3 1 4 21 5 19 6 18 7 16 8 15 9 14 10 13 11 6 12
REMARK SMILES IDX 7 13 8 14 9 15 12 16 11 17 10 18 4 20 20 22 17 24
REMARK H PARENT 10 19 4 21 20 23 17 25
REMARK Flexibility Score: inf
ROOT
ATOM      1  C   UNL     1       8.004   9.595 -15.236  1.00  0.00     0.180 A 
ATOM      2  C   UNL     1       8.041  10.366 -14.059  1.00  0.00     0.208 A 
ATOM      3  C   UNL     1       8.400  11.720 -14.147  1.00  0.00     0.238 A 
ATOM      4  O   UNL     1       8.447  12.418 -13.097  1.00  0.00    -0.285 OA
ATOM      5  C   UNL     1       8.693  12.284 -15.405  1.00  0.00     0.111 A 
ATOM      6  C   UNL     1       9.057  13.641 -15.581  1.00  0.00     0.134 A 
ATOM      7  C   UNL     1       9.325  14.128 -16.869  1.00  0.00     0.093 A 
ATOM      8  C   UNL     1       9.235  13.285 -17.983  1.00  0.00     0.123 A 
ATOM      9  C   UNL     1       8.876  11.948 -17.815  1.00  0.00     0.094 A 
ATOM     10  C   UNL     1       8.607  11.442 -16.539  1.00  0.00     0.146 A 
ATOM     11  O   UNL     1       8.273  10.163 -16.408  1.00  0.00    -0.452 OA
ENDROOT
BRANCH   1  12
ATOM     12  C   UNL     1       7.655   8.155 -15.224  1.00  0.00     0.021 A 
ATOM     13  C   UNL     1       8.607   7.173 -14.899  1.00  0.00     0.016 A 
ATOM     14  C   UNL     1       8.261   5.818 -14.917  1.00  0.00     0.047 A 
ATOM     15  C   UNL     1       6.963   5.429 -15.273  1.00  0.00     0.115 A 
ATOM     16  C   UNL     1       6.362   7.754 -15.600  1.00  0.00     0.016 A 
ATOM     17  C   UNL     1       6.017   6.399 -15.616  1.00  0.00     0.047 A 
BRANCH  15  18
ATOM     18  O   UNL     1       6.606   4.082 -15.293  1.00  0.00    -0.508 OA
ATOM     19  H   UNL     1       6.327   3.620 -16.151  1.00  0.00     0.293 HD
ENDBRANCH  15  18
ENDBRANCH   1  12
BRANCH   2  20
ATOM     20  O   UNL     1       7.698   9.797 -12.831  1.00  0.00    -0.502 OA
ATOM     21  H   UNL     1       6.850  10.044 -12.335  1.00  0.00     0.293 HD
ENDBRANCH   2  20
BRANCH   6  22
ATOM     22  O   UNL     1       9.155  14.505 -14.490  1.00  0.00    -0.507 OA
ATOM     23  H   UNL     1       9.959  15.107 -14.358  1.00  0.00     0.293 HD
ENDBRANCH   6  22
BRANCH   8  24
ATOM     24  O   UNL     1       9.500  13.770 -19.262  1.00  0.00    -0.508 OA
ATOM     25  H   UNL     1       9.761  14.736 -19.419  1.00  0.00     0.293 HD
ENDBRANCH   8  24
TORSDOF 5
ENDMDL
