MODEL 1
REMARK VINA RESULT:    -5.128      0.000      0.000
REMARK INTER + INTRA:         -17.287
REMARK INTER:                 -12.922
REMARK INTRA:                  -4.365
REMARK UNBOUND:                -4.365
REMARK SMILES CCCCCCCCCCCCCCCCCCCCCCCCCCCC(=O)[O-]
REMARK SMILES IDX 15 1 16 2 17 3 18 4 19 5 20 6 21 7 22 8 23 9 24 10 25 11
REMARK SMILES IDX 26 12 27 13 28 14 29 15 30 16 14 17 13 18 12 19 11 20 10 21
REMARK SMILES IDX 9 22 8 23 7 24 6 25 5 26 4 27 3 28 2 29 1 30
REMARK H PARENT
REMARK Flexibility Score: inf
ROOT
ATOM      1  C   UNL     1     -17.480  -5.490  18.692  1.00  0.00     0.000 C 
ENDROOT
BRANCH   1   2
ATOM      2  C   UNL     1     -16.597  -6.749  18.650  1.00  0.00     0.000 C 
BRANCH   2   3
ATOM      3  C   UNL     1     -15.120  -6.448  18.956  1.00  0.00     0.000 C 
BRANCH   3   4
ATOM      4  C   UNL     1     -14.873  -5.668  20.263  1.00  0.00     0.000 C 
BRANCH   4   5
ATOM      5  C   UNL     1     -14.955  -6.543  21.533  1.00  0.00     0.000 C 
BRANCH   5   6
ATOM      6  C   UNL     1     -16.159  -6.174  22.417  1.00  0.00     0.000 C 
BRANCH   6   7
ATOM      7  C   UNL     1     -16.593  -4.709  22.241  1.00  0.00     0.000 C 
BRANCH   7   8
ATOM      8  C   UNL     1     -18.094  -4.503  22.498  1.00  0.00     0.000 C 
BRANCH   8   9
ATOM      9  C   UNL     1     -18.929  -5.730  22.096  1.00  0.00     0.000 C 
BRANCH   9  10
ATOM     10  C   UNL     1     -20.185  -5.896  22.966  1.00  0.00     0.000 C 
BRANCH  10  11
ATOM     11  C   UNL     1     -20.430  -4.644  23.821  1.00  0.00     0.000 C 
BRANCH  11  12
ATOM     12  C   UNL     1     -21.751  -4.707  24.604  1.00  0.00     0.006 C 
BRANCH  12  13
ATOM     13  C   UNL     1     -22.073  -6.118  25.115  1.00  0.00     0.053 C 
BRANCH  13  14
ATOM     14  C   UNL     1     -23.350  -6.119  25.895  1.00  0.00     0.041 C 
ATOM     15  O   UNL     1     -24.120  -7.115  25.850  1.00  0.00    -0.550 OA
ATOM     16  O   UNL     1     -23.700  -5.013  26.659  1.00  0.00    -0.550 OA
ENDBRANCH  13  14
ENDBRANCH  12  13
ENDBRANCH  11  12
ENDBRANCH  10  11
ENDBRANCH   9  10
ENDBRANCH   8   9
ENDBRANCH   7   8
ENDBRANCH   6   7
ENDBRANCH   5   6
ENDBRANCH   4   5
ENDBRANCH   3   4
ENDBRANCH   2   3
ENDBRANCH   1   2
BRANCH   1  17
ATOM     17  C   UNL     1     -18.185  -5.214  17.353  1.00  0.00     0.000 C 
BRANCH  17  18
ATOM     18  C   UNL     1     -17.433  -4.261  16.404  1.00  0.00     0.000 C 
BRANCH  18  19
ATOM     19  C   UNL     1     -16.201  -4.899  15.728  1.00  0.00     0.000 C 
BRANCH  19  20
ATOM     20  C   UNL     1     -14.896  -4.164  16.074  1.00  0.00     0.000 C 
BRANCH  20  21
ATOM     21  C   UNL     1     -15.177  -2.910  16.911  1.00  0.00     0.000 C 
BRANCH  21  22
ATOM     22  C   UNL     1     -14.032  -2.633  17.893  1.00  0.00    -0.000 C 
BRANCH  22  23
ATOM     23  C   UNL     1     -14.525  -2.251  19.299  1.00  0.00    -0.000 C 
BRANCH  23  24
ATOM     24  C   UNL     1     -16.062  -2.161  19.408  1.00  0.00    -0.000 C 
BRANCH  24  25
ATOM     25  C   UNL     1     -16.561  -0.705  19.423  1.00  0.00    -0.000 C 
BRANCH  25  26
ATOM     26  C   UNL     1     -15.416   0.319  19.379  1.00  0.00    -0.000 C 
BRANCH  26  27
ATOM     27  C   UNL     1     -15.396   1.238  20.611  1.00  0.00    -0.000 C 
BRANCH  27  28
ATOM     28  C   UNL     1     -14.108   1.097  21.443  1.00  0.00    -0.000 C 
BRANCH  28  29
ATOM     29  C   UNL     1     -14.090  -0.096  22.416  1.00  0.00    -0.003 C 
ATOM     30  C   UNL     1     -15.461  -0.400  23.015  1.00  0.00     0.004 C 
ENDBRANCH  28  29
ENDBRANCH  27  28
ENDBRANCH  26  27
ENDBRANCH  25  26
ENDBRANCH  24  25
ENDBRANCH  23  24
ENDBRANCH  22  23
ENDBRANCH  21  22
ENDBRANCH  20  21
ENDBRANCH  19  20
ENDBRANCH  18  19
ENDBRANCH  17  18
ENDBRANCH   1  17
TORSDOF 26
ENDMDL
MODEL 2
REMARK VINA RESULT:    -5.060      3.573      7.228
REMARK INTER + INTRA:         -17.117
REMARK INTER:                 -12.785
REMARK INTRA:                  -4.332
REMARK UNBOUND:                -4.365
REMARK SMILES CCCCCCCCCCCCCCCCCCCCCCCCCCCC(=O)[O-]
REMARK SMILES IDX 15 1 16 2 17 3 18 4 19 5 20 6 21 7 22 8 23 9 24 10 25 11
REMARK SMILES IDX 26 12 27 13 28 14 29 15 30 16 14 17 13 18 12 19 11 20 10 21
REMARK SMILES IDX 9 22 8 23 7 24 6 25 5 26 4 27 3 28 2 29 1 30
REMARK H PARENT
REMARK Flexibility Score: inf
ROOT
ATOM      1  C   UNL     1     -18.090  -2.097  17.908  1.00  0.00     0.000 C 
ENDROOT
BRANCH   1   2
ATOM      2  C   UNL     1     -18.350  -0.631  17.519  1.00  0.00     0.000 C 
BRANCH   2   3
ATOM      3  C   UNL     1     -17.154   0.286  17.825  1.00  0.00     0.000 C 
BRANCH   3   4
ATOM      4  C   UNL     1     -16.073   0.333  16.728  1.00  0.00     0.000 C 
BRANCH   4   5
ATOM      5  C   UNL     1     -14.773  -0.409  17.106  1.00  0.00     0.000 C 
BRANCH   5   6
ATOM      6  C   UNL     1     -14.850  -1.914  16.794  1.00  0.00     0.000 C 
BRANCH   6   7
ATOM      7  C   UNL     1     -14.397  -2.785  17.976  1.00  0.00     0.000 C 
BRANCH   7   8
ATOM      8  C   UNL     1     -14.245  -1.982  19.279  1.00  0.00     0.000 C 
BRANCH   8   9
ATOM      9  C   UNL     1     -15.458  -2.146  20.209  1.00  0.00     0.000 C 
BRANCH   9  10
ATOM     10  C   UNL     1     -15.668  -0.927  21.121  1.00  0.00     0.000 C 
BRANCH  10  11
ATOM     11  C   UNL     1     -14.663   0.187  20.789  1.00  0.00     0.000 C 
BRANCH  11  12
ATOM     12  C   UNL     1     -14.109   0.881  22.042  1.00  0.00     0.006 C 
BRANCH  12  13
ATOM     13  C   UNL     1     -14.155   2.412  21.944  1.00  0.00     0.053 C 
BRANCH  13  14
ATOM     14  C   UNL     1     -15.444   2.938  22.494  1.00  0.00     0.041 C 
ATOM     15  O   UNL     1     -15.538   3.233  23.715  1.00  0.00    -0.550 OA
ATOM     16  O   UNL     1     -16.547   3.087  21.664  1.00  0.00    -0.550 OA
ENDBRANCH  13  14
ENDBRANCH  12  13
ENDBRANCH  11  12
ENDBRANCH  10  11
ENDBRANCH   9  10
ENDBRANCH   8   9
ENDBRANCH   7   8
ENDBRANCH   6   7
ENDBRANCH   5   6
ENDBRANCH   4   5
ENDBRANCH   3   4
ENDBRANCH   2   3
ENDBRANCH   1   2
BRANCH   1  17
ATOM     17  C   UNL     1     -18.891  -3.090  17.050  1.00  0.00     0.000 C 
BRANCH  17  18
ATOM     18  C   UNL     1     -18.387  -4.546  17.096  1.00  0.00     0.000 C 
BRANCH  18  19
ATOM     19  C   UNL     1     -17.269  -4.785  18.132  1.00  0.00     0.000 C 
BRANCH  19  20
ATOM     20  C   UNL     1     -17.035  -6.279  18.408  1.00  0.00     0.000 C 
BRANCH  20  21
ATOM     21  C   UNL     1     -15.573  -6.546  18.783  1.00  0.00     0.000 C 
BRANCH  21  22
ATOM     22  C   UNL     1     -15.190  -5.812  20.074  1.00  0.00    -0.000 C 
BRANCH  22  23
ATOM     23  C   UNL     1     -15.017  -6.759  21.273  1.00  0.00    -0.000 C 
BRANCH  23  24
ATOM     24  C   UNL     1     -15.850  -6.350  22.506  1.00  0.00    -0.000 C 
BRANCH  24  25
ATOM     25  C   UNL     1     -17.068  -5.488  22.127  1.00  0.00    -0.000 C 
BRANCH  25  26
ATOM     26  C   UNL     1     -16.994  -4.066  22.703  1.00  0.00    -0.000 C 
BRANCH  26  27
ATOM     27  C   UNL     1     -18.308  -3.287  22.527  1.00  0.00    -0.000 C 
BRANCH  27  28
ATOM     28  C   UNL     1     -19.322  -3.561  23.653  1.00  0.00    -0.000 C 
BRANCH  28  29
ATOM     29  C   UNL     1     -20.587  -4.324  23.216  1.00  0.00    -0.003 C 
ATOM     30  C   UNL     1     -20.470  -5.835  23.404  1.00  0.00     0.004 C 
ENDBRANCH  28  29
ENDBRANCH  27  28
ENDBRANCH  26  27
ENDBRANCH  25  26
ENDBRANCH  24  25
ENDBRANCH  23  24
ENDBRANCH  22  23
ENDBRANCH  21  22
ENDBRANCH  20  21
ENDBRANCH  19  20
ENDBRANCH  18  19
ENDBRANCH  17  18
ENDBRANCH   1  17
TORSDOF 26
ENDMDL
MODEL 3
REMARK VINA RESULT:    -5.043      3.670      7.485
REMARK INTER + INTRA:         -17.072
REMARK INTER:                 -11.409
REMARK INTRA:                  -5.664
REMARK UNBOUND:                -4.365
REMARK SMILES CCCCCCCCCCCCCCCCCCCCCCCCCCCC(=O)[O-]
REMARK SMILES IDX 15 1 16 2 17 3 18 4 19 5 20 6 21 7 22 8 23 9 24 10 25 11
REMARK SMILES IDX 26 12 27 13 28 14 29 15 30 16 14 17 13 18 12 19 11 20 10 21
REMARK SMILES IDX 9 22 8 23 7 24 6 25 5 26 4 27 3 28 2 29 1 30
REMARK H PARENT
REMARK Flexibility Score: inf
ROOT
ATOM      1  C   UNL     1     -16.543  -4.500  22.303  1.00  0.00     0.000 C 
ENDROOT
BRANCH   1   2
ATOM      2  C   UNL     1     -16.077  -5.954  22.493  1.00  0.00     0.000 C 
BRANCH   2   3
ATOM      3  C   UNL     1     -15.071  -6.400  21.418  1.00  0.00     0.000 C 
BRANCH   3   4
ATOM      4  C   UNL     1     -15.340  -5.844  20.005  1.00  0.00     0.000 C 
BRANCH   4   5
ATOM      5  C   UNL     1     -15.103  -6.872  18.879  1.00  0.00     0.000 C 
BRANCH   5   6
ATOM      6  C   UNL     1     -15.595  -6.363  17.512  1.00  0.00     0.000 C 
BRANCH   6   7
ATOM      7  C   UNL     1     -14.562  -5.468  16.810  1.00  0.00     0.000 C 
BRANCH   7   8
ATOM      8  C   UNL     1     -15.182  -4.180  16.244  1.00  0.00     0.000 C 
BRANCH   8   9
ATOM      9  C   UNL     1     -14.571  -2.915  16.870  1.00  0.00     0.000 C 
BRANCH   9  10
ATOM     10  C   UNL     1     -15.618  -2.052  17.591  1.00  0.00     0.000 C 
BRANCH  10  11
ATOM     11  C   UNL     1     -15.959  -2.638  18.969  1.00  0.00     0.000 C 
BRANCH  11  12
ATOM     12  C   UNL     1     -17.020  -1.818  19.719  1.00  0.00     0.006 C 
BRANCH  12  13
ATOM     13  C   UNL     1     -17.388  -0.516  18.993  1.00  0.00     0.053 C 
BRANCH  13  14
ATOM     14  C   UNL     1     -16.914   0.673  19.769  1.00  0.00     0.041 C 
ATOM     15  O   UNL     1     -15.702   0.774  20.097  1.00  0.00    -0.550 OA
ATOM     16  O   UNL     1     -17.813   1.664  20.144  1.00  0.00    -0.550 OA
ENDBRANCH  13  14
ENDBRANCH  12  13
ENDBRANCH  11  12
ENDBRANCH  10  11
ENDBRANCH   9  10
ENDBRANCH   8   9
ENDBRANCH   7   8
ENDBRANCH   6   7
ENDBRANCH   5   6
ENDBRANCH   4   5
ENDBRANCH   3   4
ENDBRANCH   2   3
ENDBRANCH   1   2
BRANCH   1  17
ATOM     17  C   UNL     1     -18.012  -4.290  22.707  1.00  0.00     0.000 C 
BRANCH  17  18
ATOM     18  C   UNL     1     -18.933  -5.503  22.472  1.00  0.00     0.000 C 
BRANCH  18  19
ATOM     19  C   UNL     1     -19.559  -5.545  21.062  1.00  0.00     0.000 C 
BRANCH  19  20
ATOM     20  C   UNL     1     -18.905  -6.605  20.161  1.00  0.00     0.000 C 
BRANCH  20  21
ATOM     21  C   UNL     1     -19.066  -6.243  18.680  1.00  0.00     0.000 C 
BRANCH  21  22
ATOM     22  C   UNL     1     -19.022  -4.724  18.475  1.00  0.00    -0.000 C 
BRANCH  22  23
ATOM     23  C   UNL     1     -18.704  -4.324  17.024  1.00  0.00    -0.000 C 
BRANCH  23  24
ATOM     24  C   UNL     1     -19.102  -2.872  16.683  1.00  0.00    -0.000 C 
BRANCH  24  25
ATOM     25  C   UNL     1     -20.628  -2.667  16.700  1.00  0.00    -0.000 C 
BRANCH  25  26
ATOM     26  C   UNL     1     -21.319  -3.232  15.449  1.00  0.00    -0.000 C 
BRANCH  26  27
ATOM     27  C   UNL     1     -22.515  -4.136  15.790  1.00  0.00    -0.000 C 
BRANCH  27  28
ATOM     28  C   UNL     1     -22.088  -5.533  16.280  1.00  0.00    -0.000 C 
BRANCH  28  29
ATOM     29  C   UNL     1     -22.796  -6.017  17.558  1.00  0.00    -0.003 C 
ATOM     30  C   UNL     1     -22.633  -5.058  18.735  1.00  0.00     0.004 C 
ENDBRANCH  28  29
ENDBRANCH  27  28
ENDBRANCH  26  27
ENDBRANCH  25  26
ENDBRANCH  24  25
ENDBRANCH  23  24
ENDBRANCH  22  23
ENDBRANCH  21  22
ENDBRANCH  20  21
ENDBRANCH  19  20
ENDBRANCH  18  19
ENDBRANCH  17  18
ENDBRANCH   1  17
TORSDOF 26
ENDMDL
MODEL 4
REMARK VINA RESULT:    -5.041      3.469      8.290
REMARK INTER + INTRA:         -17.069
REMARK INTER:                 -13.692
REMARK INTRA:                  -3.377
REMARK UNBOUND:                -4.365
REMARK SMILES CCCCCCCCCCCCCCCCCCCCCCCCCCCC(=O)[O-]
REMARK SMILES IDX 15 1 16 2 17 3 18 4 19 5 20 6 21 7 22 8 23 9 24 10 25 11
REMARK SMILES IDX 26 12 27 13 28 14 29 15 30 16 14 17 13 18 12 19 11 20 10 21
REMARK SMILES IDX 9 22 8 23 7 24 6 25 5 26 4 27 3 28 2 29 1 30
REMARK H PARENT
REMARK Flexibility Score: inf
ROOT
ATOM      1  C   UNL     1     -15.138  -5.706  20.117  1.00  0.00     0.000 C 
ENDROOT
BRANCH   1   2
ATOM      2  C   UNL     1     -15.526  -6.644  18.961  1.00  0.00     0.000 C 
BRANCH   2   3
ATOM      3  C   UNL     1     -16.813  -6.202  18.245  1.00  0.00     0.000 C 
BRANCH   3   4
ATOM      4  C   UNL     1     -16.601  -5.582  16.849  1.00  0.00     0.000 C 
BRANCH   4   5
ATOM      5  C   UNL     1     -15.313  -6.063  16.146  1.00  0.00     0.000 C 
BRANCH   5   6
ATOM      6  C   UNL     1     -14.226  -4.974  16.116  1.00  0.00     0.000 C 
BRANCH   6   7
ATOM      7  C   UNL     1     -14.799  -3.563  16.326  1.00  0.00     0.000 C 
BRANCH   7   8
ATOM      8  C   UNL     1     -14.227  -2.873  17.576  1.00  0.00     0.000 C 
BRANCH   8   9
ATOM      9  C   UNL     1     -15.331  -2.345  18.507  1.00  0.00     0.000 C 
BRANCH   9  10
ATOM     10  C   UNL     1     -14.794  -1.960  19.894  1.00  0.00     0.000 C 
BRANCH  10  11
ATOM     11  C   UNL     1     -15.926  -1.935  20.933  1.00  0.00     0.000 C 
BRANCH  11  12
ATOM     12  C   UNL     1     -15.632  -0.992  22.110  1.00  0.00     0.006 C 
BRANCH  12  13
ATOM     13  C   UNL     1     -14.277  -0.282  21.979  1.00  0.00     0.053 C 
BRANCH  13  14
ATOM     14  C   UNL     1     -14.469   1.183  21.742  1.00  0.00     0.041 C 
ATOM     15  O   UNL     1     -14.374   1.655  20.578  1.00  0.00    -0.550 OA
ATOM     16  O   UNL     1     -14.738   2.032  22.808  1.00  0.00    -0.550 OA
ENDBRANCH  13  14
ENDBRANCH  12  13
ENDBRANCH  11  12
ENDBRANCH  10  11
ENDBRANCH   9  10
ENDBRANCH   8   9
ENDBRANCH   7   8
ENDBRANCH   6   7
ENDBRANCH   5   6
ENDBRANCH   4   5
ENDBRANCH   3   4
ENDBRANCH   2   3
ENDBRANCH   1   2
BRANCH   1  17
ATOM     17  C   UNL     1     -14.773  -6.468  21.402  1.00  0.00     0.000 C 
BRANCH  17  18
ATOM     18  C   UNL     1     -15.852  -6.446  22.502  1.00  0.00     0.000 C 
BRANCH  18  19
ATOM     19  C   UNL     1     -16.902  -5.330  22.322  1.00  0.00     0.000 C 
BRANCH  19  20
ATOM     20  C   UNL     1     -18.215  -5.852  21.716  1.00  0.00     0.000 C 
BRANCH  20  21
ATOM     21  C   UNL     1     -19.350  -4.840  21.909  1.00  0.00     0.000 C 
BRANCH  21  22
ATOM     22  C   UNL     1     -19.238  -4.138  23.268  1.00  0.00    -0.000 C 
BRANCH  22  23
ATOM     23  C   UNL     1     -20.552  -4.167  24.068  1.00  0.00    -0.000 C 
BRANCH  23  24
ATOM     24  C   UNL     1     -21.542  -5.248  23.587  1.00  0.00    -0.000 C 
BRANCH  24  25
ATOM     25  C   UNL     1     -21.434  -6.545  24.411  1.00  0.00    -0.000 C 
BRANCH  25  26
ATOM     26  C   UNL     1     -22.265  -6.502  25.703  1.00  0.00    -0.000 C 
BRANCH  26  27
ATOM     27  C   UNL     1     -23.716  -6.055  25.459  1.00  0.00    -0.000 C 
BRANCH  27  28
ATOM     28  C   UNL     1     -24.093  -4.788  26.249  1.00  0.00    -0.000 C 
BRANCH  28  29
ATOM     29  C   UNL     1     -22.994  -4.257  27.188  1.00  0.00    -0.003 C 
ATOM     30  C   UNL     1     -22.451  -2.894  26.764  1.00  0.00     0.004 C 
ENDBRANCH  28  29
ENDBRANCH  27  28
ENDBRANCH  26  27
ENDBRANCH  25  26
ENDBRANCH  24  25
ENDBRANCH  23  24
ENDBRANCH  22  23
ENDBRANCH  21  22
ENDBRANCH  20  21
ENDBRANCH  19  20
ENDBRANCH  18  19
ENDBRANCH  17  18
ENDBRANCH   1  17
TORSDOF 26
ENDMDL
MODEL 5
REMARK VINA RESULT:    -4.970      4.610      7.056
REMARK INTER + INTRA:         -16.889
REMARK INTER:                 -12.308
REMARK INTRA:                  -4.581
REMARK UNBOUND:                -4.365
REMARK SMILES CCCCCCCCCCCCCCCCCCCCCCCCCCCC(=O)[O-]
REMARK SMILES IDX 15 1 16 2 17 3 18 4 19 5 20 6 21 7 22 8 23 9 24 10 25 11
REMARK SMILES IDX 26 12 27 13 28 14 29 15 30 16 14 17 13 18 12 19 11 20 10 21
REMARK SMILES IDX 9 22 8 23 7 24 6 25 5 26 4 27 3 28 2 29 1 30
REMARK H PARENT
REMARK Flexibility Score: inf
ROOT
ATOM      1  C   UNL     1     -17.221  -5.922  17.963  1.00  0.00     0.000 C 
ENDROOT
BRANCH   1   2
ATOM      2  C   UNL     1     -15.923  -6.224  18.732  1.00  0.00     0.000 C 
BRANCH   2   3
ATOM      3  C   UNL     1     -16.185  -6.788  20.138  1.00  0.00     0.000 C 
BRANCH   3   4
ATOM      4  C   UNL     1     -15.316  -6.179  21.256  1.00  0.00     0.000 C 
BRANCH   4   5
ATOM      5  C   UNL     1     -16.118  -5.760  22.507  1.00  0.00     0.000 C 
BRANCH   5   6
ATOM      6  C   UNL     1     -17.172  -4.684  22.190  1.00  0.00     0.000 C 
BRANCH   6   7
ATOM      7  C   UNL     1     -16.872  -3.344  22.880  1.00  0.00     0.000 C 
BRANCH   7   8
ATOM      8  C   UNL     1     -16.366  -2.273  21.899  1.00  0.00     0.000 C 
BRANCH   8   9
ATOM      9  C   UNL     1     -16.432  -2.744  20.437  1.00  0.00     0.000 C 
BRANCH   9  10
ATOM     10  C   UNL     1     -15.067  -2.677  19.737  1.00  0.00     0.000 C 
BRANCH  10  11
ATOM     11  C   UNL     1     -15.233  -2.410  18.233  1.00  0.00     0.000 C 
BRANCH  11  12
ATOM     12  C   UNL     1     -14.223  -3.188  17.375  1.00  0.00     0.006 C 
BRANCH  12  13
ATOM     13  C   UNL     1     -14.847  -3.763  16.096  1.00  0.00     0.053 C 
BRANCH  13  14
ATOM     14  C   UNL     1     -14.176  -5.043  15.711  1.00  0.00     0.041 C 
ATOM     15  O   UNL     1     -13.333  -5.574  16.482  1.00  0.00    -0.550 OA
ATOM     16  O   UNL     1     -14.468  -5.645  14.493  1.00  0.00    -0.550 OA
ENDBRANCH  13  14
ENDBRANCH  12  13
ENDBRANCH  11  12
ENDBRANCH  10  11
ENDBRANCH   9  10
ENDBRANCH   8   9
ENDBRANCH   7   8
ENDBRANCH   6   7
ENDBRANCH   5   6
ENDBRANCH   4   5
ENDBRANCH   3   4
ENDBRANCH   2   3
ENDBRANCH   1   2
BRANCH   1  17
ATOM     17  C   UNL     1     -18.461  -5.904  18.873  1.00  0.00     0.000 C 
BRANCH  17  18
ATOM     18  C   UNL     1     -19.274  -4.596  18.842  1.00  0.00     0.000 C 
BRANCH  18  19
ATOM     19  C   UNL     1     -20.781  -4.805  18.585  1.00  0.00     0.000 C 
BRANCH  19  20
ATOM     20  C   UNL     1     -21.052  -5.555  17.270  1.00  0.00     0.000 C 
BRANCH  20  21
ATOM     21  C   UNL     1     -21.819  -4.669  16.281  1.00  0.00     0.000 C 
BRANCH  21  22
ATOM     22  C   UNL     1     -20.932  -3.537  15.750  1.00  0.00    -0.000 C 
BRANCH  22  23
ATOM     23  C   UNL     1     -21.723  -2.260  15.419  1.00  0.00    -0.000 C 
BRANCH  23  24
ATOM     24  C   UNL     1     -21.121  -0.983  16.042  1.00  0.00    -0.000 C 
BRANCH  24  25
ATOM     25  C   UNL     1     -20.339  -1.278  17.335  1.00  0.00    -0.000 C 
BRANCH  25  26
ATOM     26  C   UNL     1     -19.600  -0.046  17.879  1.00  0.00    -0.000 C 
BRANCH  26  27
ATOM     27  C   UNL     1     -18.084  -0.271  18.003  1.00  0.00    -0.000 C 
BRANCH  27  28
ATOM     28  C   UNL     1     -17.263   0.989  17.668  1.00  0.00    -0.000 C 
BRANCH  28  29
ATOM     29  C   UNL     1     -16.732   1.053  16.223  1.00  0.00    -0.003 C 
ATOM     30  C   UNL     1     -15.277   0.604  16.100  1.00  0.00     0.004 C 
ENDBRANCH  28  29
ENDBRANCH  27  28
ENDBRANCH  26  27
ENDBRANCH  25  26
ENDBRANCH  24  25
ENDBRANCH  23  24
ENDBRANCH  22  23
ENDBRANCH  21  22
ENDBRANCH  20  21
ENDBRANCH  19  20
ENDBRANCH  18  19
ENDBRANCH  17  18
ENDBRANCH   1  17
TORSDOF 26
ENDMDL
MODEL 6
REMARK VINA RESULT:    -4.946      3.772      7.432
REMARK INTER + INTRA:         -16.830
REMARK INTER:                 -11.713
REMARK INTRA:                  -5.117
REMARK UNBOUND:                -4.365
REMARK SMILES CCCCCCCCCCCCCCCCCCCCCCCCCCCC(=O)[O-]
REMARK SMILES IDX 15 1 16 2 17 3 18 4 19 5 20 6 21 7 22 8 23 9 24 10 25 11
REMARK SMILES IDX 26 12 27 13 28 14 29 15 30 16 14 17 13 18 12 19 11 20 10 21
REMARK SMILES IDX 9 22 8 23 7 24 6 25 5 26 4 27 3 28 2 29 1 30
REMARK H PARENT
REMARK Flexibility Score: inf
ROOT
ATOM      1  C   UNL     1     -18.583   0.039  18.451  1.00  0.00     0.000 C 
ENDROOT
BRANCH   1   2
ATOM      2  C   UNL     1     -17.307   0.838  18.135  1.00  0.00     0.000 C 
BRANCH   2   3
ATOM      3  C   UNL     1     -17.103   1.058  16.627  1.00  0.00     0.000 C 
BRANCH   3   4
ATOM      4  C   UNL     1     -15.695   0.711  16.104  1.00  0.00     0.000 C 
BRANCH   4   5
ATOM      5  C   UNL     1     -14.660   0.467  17.224  1.00  0.00     0.000 C 
BRANCH   5   6
ATOM      6  C   UNL     1     -14.129  -0.978  17.220  1.00  0.00     0.000 C 
BRANCH   6   7
ATOM      7  C   UNL     1     -15.139  -1.976  16.630  1.00  0.00     0.000 C 
BRANCH   7   8
ATOM      8  C   UNL     1     -15.802  -2.852  17.706  1.00  0.00     0.000 C 
BRANCH   8   9
ATOM      9  C   UNL     1     -15.269  -2.548  19.116  1.00  0.00     0.000 C 
BRANCH   9  10
ATOM     10  C   UNL     1     -16.396  -2.291  20.127  1.00  0.00     0.000 C 
BRANCH  10  11
ATOM     11  C   UNL     1     -15.959  -1.272  21.190  1.00  0.00     0.000 C 
BRANCH  11  12
ATOM     12  C   UNL     1     -14.647  -0.559  20.827  1.00  0.00     0.006 C 
BRANCH  12  13
ATOM     13  C   UNL     1     -13.911  -0.004  22.054  1.00  0.00     0.053 C 
BRANCH  13  14
ATOM     14  C   UNL     1     -14.176   1.460  22.212  1.00  0.00     0.041 C 
ATOM     15  O   UNL     1     -15.130   1.858  22.932  1.00  0.00    -0.550 OA
ATOM     16  O   UNL     1     -13.380   2.388  21.551  1.00  0.00    -0.550 OA
ENDBRANCH  13  14
ENDBRANCH  12  13
ENDBRANCH  11  12
ENDBRANCH  10  11
ENDBRANCH   9  10
ENDBRANCH   8   9
ENDBRANCH   7   8
ENDBRANCH   6   7
ENDBRANCH   5   6
ENDBRANCH   4   5
ENDBRANCH   3   4
ENDBRANCH   2   3
ENDBRANCH   1   2
BRANCH   1  17
ATOM     17  C   UNL     1     -19.166  -0.663  17.213  1.00  0.00     0.000 C 
BRANCH  17  18
ATOM     18  C   UNL     1     -20.514  -1.375  17.440  1.00  0.00     0.000 C 
BRANCH  18  19
ATOM     19  C   UNL     1     -20.620  -2.745  16.739  1.00  0.00     0.000 C 
BRANCH  19  20
ATOM     20  C   UNL     1     -19.263  -3.461  16.644  1.00  0.00     0.000 C 
BRANCH  20  21
ATOM     21  C   UNL     1     -19.046  -4.388  17.846  1.00  0.00     0.000 C 
BRANCH  21  22
ATOM     22  C   UNL     1     -18.820  -5.836  17.393  1.00  0.00    -0.000 C 
BRANCH  22  23
ATOM     23  C   UNL     1     -17.463  -6.401  17.845  1.00  0.00    -0.000 C 
BRANCH  23  24
ATOM     24  C   UNL     1     -17.032  -5.921  19.247  1.00  0.00    -0.000 C 
BRANCH  24  25
ATOM     25  C   UNL     1     -15.628  -6.425  19.630  1.00  0.00    -0.000 C 
BRANCH  25  26
ATOM     26  C   UNL     1     -15.140  -5.866  20.975  1.00  0.00    -0.000 C 
BRANCH  26  27
ATOM     27  C   UNL     1     -16.183  -6.018  22.094  1.00  0.00    -0.000 C 
BRANCH  27  28
ATOM     28  C   UNL     1     -16.710  -4.665  22.608  1.00  0.00    -0.000 C 
BRANCH  28  29
ATOM     29  C   UNL     1     -18.244  -4.542  22.660  1.00  0.00    -0.003 C 
ATOM     30  C   UNL     1     -18.962  -5.836  22.282  1.00  0.00     0.004 C 
ENDBRANCH  28  29
ENDBRANCH  27  28
ENDBRANCH  26  27
ENDBRANCH  25  26
ENDBRANCH  24  25
ENDBRANCH  23  24
ENDBRANCH  22  23
ENDBRANCH  21  22
ENDBRANCH  20  21
ENDBRANCH  19  20
ENDBRANCH  18  19
ENDBRANCH  17  18
ENDBRANCH   1  17
TORSDOF 26
ENDMDL
MODEL 7
REMARK VINA RESULT:    -4.945      4.069      5.960
REMARK INTER + INTRA:         -16.826
REMARK INTER:                 -11.901
REMARK INTRA:                  -4.924
REMARK UNBOUND:                -4.365
REMARK SMILES CCCCCCCCCCCCCCCCCCCCCCCCCCCC(=O)[O-]
REMARK SMILES IDX 15 1 16 2 17 3 18 4 19 5 20 6 21 7 22 8 23 9 24 10 25 11
REMARK SMILES IDX 26 12 27 13 28 14 29 15 30 16 14 17 13 18 12 19 11 20 10 21
REMARK SMILES IDX 9 22 8 23 7 24 6 25 5 26 4 27 3 28 2 29 1 30
REMARK H PARENT
REMARK Flexibility Score: inf
ROOT
ATOM      1  C   UNL     1     -17.349  -4.668  16.816  1.00  0.00     0.000 C 
ENDROOT
BRANCH   1   2
ATOM      2  C   UNL     1     -17.372  -5.048  18.307  1.00  0.00     0.000 C 
BRANCH   2   3
ATOM      3  C   UNL     1     -16.467  -6.249  18.627  1.00  0.00     0.000 C 
BRANCH   3   4
ATOM      4  C   UNL     1     -15.339  -5.962  19.638  1.00  0.00     0.000 C 
BRANCH   4   5
ATOM      5  C   UNL     1     -15.274  -6.978  20.799  1.00  0.00     0.000 C 
BRANCH   5   6
ATOM      6  C   UNL     1     -15.580  -6.328  22.160  1.00  0.00     0.000 C 
BRANCH   6   7
ATOM      7  C   UNL     1     -16.890  -5.524  22.147  1.00  0.00     0.000 C 
BRANCH   7   8
ATOM      8  C   UNL     1     -16.681  -4.047  22.522  1.00  0.00     0.000 C 
BRANCH   8   9
ATOM      9  C   UNL     1     -17.078  -3.094  21.383  1.00  0.00     0.000 C 
BRANCH   9  10
ATOM     10  C   UNL     1     -15.858  -2.469  20.688  1.00  0.00     0.000 C 
BRANCH  10  11
ATOM     11  C   UNL     1     -15.631  -1.028  21.168  1.00  0.00     0.000 C 
BRANCH  11  12
ATOM     12  C   UNL     1     -16.446   0.001  20.370  1.00  0.00     0.006 C 
BRANCH  12  13
ATOM     13  C   UNL     1     -16.326   1.423  20.935  1.00  0.00     0.053 C 
BRANCH  13  14
ATOM     14  C   UNL     1     -14.954   1.659  21.485  1.00  0.00     0.041 C 
ATOM     15  O   UNL     1     -13.982   1.845  20.705  1.00  0.00    -0.550 OA
ATOM     16  O   UNL     1     -14.744   1.656  22.858  1.00  0.00    -0.550 OA
ENDBRANCH  13  14
ENDBRANCH  12  13
ENDBRANCH  11  12
ENDBRANCH  10  11
ENDBRANCH   9  10
ENDBRANCH   8   9
ENDBRANCH   7   8
ENDBRANCH   6   7
ENDBRANCH   5   6
ENDBRANCH   4   5
ENDBRANCH   3   4
ENDBRANCH   2   3
ENDBRANCH   1   2
BRANCH   1  17
ATOM     17  C   UNL     1     -16.231  -5.384  16.039  1.00  0.00     0.000 C 
BRANCH  17  18
ATOM     18  C   UNL     1     -15.049  -4.487  15.621  1.00  0.00     0.000 C 
BRANCH  18  19
ATOM     19  C   UNL     1     -13.846  -4.557  16.584  1.00  0.00     0.000 C 
BRANCH  19  20
ATOM     20  C   UNL     1     -13.699  -3.283  17.433  1.00  0.00     0.000 C 
BRANCH  20  21
ATOM     21  C   UNL     1     -14.843  -2.302  17.152  1.00  0.00     0.000 C 
BRANCH  21  22
ATOM     22  C   UNL     1     -14.368  -0.849  17.276  1.00  0.00    -0.000 C 
BRANCH  22  23
ATOM     23  C   UNL     1     -15.050   0.093  16.269  1.00  0.00    -0.000 C 
BRANCH  23  24
ATOM     24  C   UNL     1     -15.992   1.122  16.928  1.00  0.00    -0.000 C 
BRANCH  24  25
ATOM     25  C   UNL     1     -17.372   1.170  16.246  1.00  0.00    -0.000 C 
BRANCH  25  26
ATOM     26  C   UNL     1     -18.487   0.560  17.110  1.00  0.00    -0.000 C 
BRANCH  26  27
ATOM     27  C   UNL     1     -18.290  -0.944  17.356  1.00  0.00    -0.000 C 
BRANCH  27  28
ATOM     28  C   UNL     1     -19.169  -1.484  18.499  1.00  0.00    -0.000 C 
BRANCH  28  29
ATOM     29  C   UNL     1     -20.405  -2.284  18.046  1.00  0.00    -0.003 C 
ATOM     30  C   UNL     1     -20.390  -2.617  16.556  1.00  0.00     0.004 C 
ENDBRANCH  28  29
ENDBRANCH  27  28
ENDBRANCH  26  27
ENDBRANCH  25  26
ENDBRANCH  24  25
ENDBRANCH  23  24
ENDBRANCH  22  23
ENDBRANCH  21  22
ENDBRANCH  20  21
ENDBRANCH  19  20
ENDBRANCH  18  19
ENDBRANCH  17  18
ENDBRANCH   1  17
TORSDOF 26
ENDMDL
MODEL 8
REMARK VINA RESULT:    -4.941      3.990      6.706
REMARK INTER + INTRA:         -16.817
REMARK INTER:                 -11.757
REMARK INTRA:                  -5.059
REMARK UNBOUND:                -4.365
REMARK SMILES CCCCCCCCCCCCCCCCCCCCCCCCCCCC(=O)[O-]
REMARK SMILES IDX 15 1 16 2 17 3 18 4 19 5 20 6 21 7 22 8 23 9 24 10 25 11
REMARK SMILES IDX 26 12 27 13 28 14 29 15 30 16 14 17 13 18 12 19 11 20 10 21
REMARK SMILES IDX 9 22 8 23 7 24 6 25 5 26 4 27 3 28 2 29 1 30
REMARK H PARENT
REMARK Flexibility Score: inf
ROOT
ATOM      1  C   UNL     1     -16.628  -4.619  22.283  1.00  0.00     0.000 C 
ENDROOT
BRANCH   1   2
ATOM      2  C   UNL     1     -18.157  -4.649  22.450  1.00  0.00     0.000 C 
BRANCH   2   3
ATOM      3  C   UNL     1     -18.758  -6.033  22.155  1.00  0.00     0.000 C 
BRANCH   3   4
ATOM      4  C   UNL     1     -18.925  -6.365  20.659  1.00  0.00     0.000 C 
BRANCH   4   5
ATOM      5  C   UNL     1     -19.215  -5.130  19.779  1.00  0.00     0.000 C 
BRANCH   5   6
ATOM      6  C   UNL     1     -20.724  -4.876  19.611  1.00  0.00     0.000 C 
BRANCH   6   7
ATOM      7  C   UNL     1     -21.096  -4.457  18.180  1.00  0.00     0.000 C 
BRANCH   7   8
ATOM      8  C   UNL     1     -19.944  -4.670  17.183  1.00  0.00     0.000 C 
BRANCH   8   9
ATOM      9  C   UNL     1     -19.670  -3.418  16.334  1.00  0.00     0.000 C 
BRANCH   9  10
ATOM     10  C   UNL     1     -20.915  -2.941  15.571  1.00  0.00     0.000 C 
BRANCH  10  11
ATOM     11  C   UNL     1     -21.265  -1.492  15.943  1.00  0.00     0.000 C 
BRANCH  11  12
ATOM     12  C   UNL     1     -20.336  -0.914  17.021  1.00  0.00     0.006 C 
BRANCH  12  13
ATOM     13  C   UNL     1     -20.174   0.609  16.914  1.00  0.00     0.053 C 
BRANCH  13  14
ATOM     14  C   UNL     1     -18.813   1.029  17.370  1.00  0.00     0.041 C 
ATOM     15  O   UNL     1     -18.613   1.329  18.578  1.00  0.00    -0.550 OA
ATOM     16  O   UNL     1     -17.765   1.106  16.461  1.00  0.00    -0.550 OA
ENDBRANCH  13  14
ENDBRANCH  12  13
ENDBRANCH  11  12
ENDBRANCH  10  11
ENDBRANCH   9  10
ENDBRANCH   8   9
ENDBRANCH   7   8
ENDBRANCH   6   7
ENDBRANCH   5   6
ENDBRANCH   4   5
ENDBRANCH   3   4
ENDBRANCH   2   3
ENDBRANCH   1   2
BRANCH   1  17
ATOM     17  C   UNL     1     -15.976  -5.990  22.531  1.00  0.00     0.000 C 
BRANCH  17  18
ATOM     18  C   UNL     1     -15.006  -6.460  21.430  1.00  0.00     0.000 C 
BRANCH  18  19
ATOM     19  C   UNL     1     -15.225  -5.765  20.070  1.00  0.00     0.000 C 
BRANCH  19  20
ATOM     20  C   UNL     1     -15.351  -6.769  18.912  1.00  0.00     0.000 C 
BRANCH  20  21
ATOM     21  C   UNL     1     -16.396  -6.303  17.892  1.00  0.00     0.000 C 
BRANCH  21  22
ATOM     22  C   UNL     1     -15.751  -6.016  16.531  1.00  0.00    -0.000 C 
BRANCH  22  23
ATOM     23  C   UNL     1     -14.231  -6.255  16.525  1.00  0.00    -0.000 C 
BRANCH  23  24
ATOM     24  C   UNL     1     -13.403  -4.953  16.558  1.00  0.00    -0.000 C 
BRANCH  24  25
ATOM     25  C   UNL     1     -14.288  -3.697  16.453  1.00  0.00    -0.000 C 
BRANCH  25  26
ATOM     26  C   UNL     1     -14.153  -2.769  17.671  1.00  0.00    -0.000 C 
BRANCH  26  27
ATOM     27  C   UNL     1     -15.095  -1.556  17.598  1.00  0.00    -0.000 C 
BRANCH  27  28
ATOM     28  C   UNL     1     -16.583  -1.951  17.645  1.00  0.00    -0.000 C 
BRANCH  28  29
ATOM     29  C   UNL     1     -17.019  -2.689  18.925  1.00  0.00    -0.003 C 
ATOM     30  C   UNL     1     -17.805  -1.803  19.889  1.00  0.00     0.004 C 
ENDBRANCH  28  29
ENDBRANCH  27  28
ENDBRANCH  26  27
ENDBRANCH  25  26
ENDBRANCH  24  25
ENDBRANCH  23  24
ENDBRANCH  22  23
ENDBRANCH  21  22
ENDBRANCH  20  21
ENDBRANCH  19  20
ENDBRANCH  18  19
ENDBRANCH  17  18
ENDBRANCH   1  17
TORSDOF 26
ENDMDL
MODEL 9
REMARK VINA RESULT:    -4.900      3.575      7.031
REMARK INTER + INTRA:         -16.714
REMARK INTER:                 -11.346
REMARK INTRA:                  -5.368
REMARK UNBOUND:                -4.365
REMARK SMILES CCCCCCCCCCCCCCCCCCCCCCCCCCCC(=O)[O-]
REMARK SMILES IDX 15 1 16 2 17 3 18 4 19 5 20 6 21 7 22 8 23 9 24 10 25 11
REMARK SMILES IDX 26 12 27 13 28 14 29 15 30 16 14 17 13 18 12 19 11 20 10 21
REMARK SMILES IDX 9 22 8 23 7 24 6 25 5 26 4 27 3 28 2 29 1 30
REMARK H PARENT
REMARK Flexibility Score: inf
ROOT
ATOM      1  C   UNL     1     -16.506  -1.386  21.000  1.00  0.00     0.000 C 
ENDROOT
BRANCH   1   2
ATOM      2  C   UNL     1     -15.225  -1.156  20.179  1.00  0.00     0.000 C 
BRANCH   2   3
ATOM      3  C   UNL     1     -14.786  -2.408  19.402  1.00  0.00     0.000 C 
BRANCH   3   4
ATOM      4  C   UNL     1     -14.160  -2.131  18.021  1.00  0.00     0.000 C 
BRANCH   4   5
ATOM      5  C   UNL     1     -15.175  -1.630  16.970  1.00  0.00     0.000 C 
BRANCH   5   6
ATOM      6  C   UNL     1     -14.871  -0.194  16.506  1.00  0.00     0.000 C 
BRANCH   6   7
ATOM      7  C   UNL     1     -16.109   0.716  16.558  1.00  0.00     0.000 C 
BRANCH   7   8
ATOM      8  C   UNL     1     -17.279   0.080  17.328  1.00  0.00     0.000 C 
BRANCH   8   9
ATOM      9  C   UNL     1     -18.634   0.693  16.939  1.00  0.00     0.000 C 
BRANCH   9  10
ATOM     10  C   UNL     1     -19.820  -0.073  17.544  1.00  0.00     0.000 C 
BRANCH  10  11
ATOM     11  C   UNL     1     -20.487  -0.973  16.493  1.00  0.00     0.000 C 
BRANCH  11  12
ATOM     12  C   UNL     1     -21.986  -1.186  16.757  1.00  0.00     0.006 C 
BRANCH  12  13
ATOM     13  C   UNL     1     -22.580  -2.331  15.925  1.00  0.00     0.053 C 
BRANCH  13  14
ATOM     14  C   UNL     1     -22.343  -3.648  16.594  1.00  0.00     0.041 C 
ATOM     15  O   UNL     1     -22.422  -3.745  17.848  1.00  0.00    -0.550 OA
ATOM     16  O   UNL     1     -22.020  -4.767  15.837  1.00  0.00    -0.550 OA
ENDBRANCH  13  14
ENDBRANCH  12  13
ENDBRANCH  11  12
ENDBRANCH  10  11
ENDBRANCH   9  10
ENDBRANCH   8   9
ENDBRANCH   7   8
ENDBRANCH   6   7
ENDBRANCH   5   6
ENDBRANCH   4   5
ENDBRANCH   3   4
ENDBRANCH   2   3
ENDBRANCH   1   2
BRANCH   1  17
ATOM     17  C   UNL     1     -16.233  -2.079  22.345  1.00  0.00     0.000 C 
BRANCH  17  18
ATOM     18  C   UNL     1     -17.269  -3.145  22.752  1.00  0.00     0.000 C 
BRANCH  18  19
ATOM     19  C   UNL     1     -17.186  -4.443  21.922  1.00  0.00     0.000 C 
BRANCH  19  20
ATOM     20  C   UNL     1     -16.192  -5.455  22.515  1.00  0.00     0.000 C 
BRANCH  20  21
ATOM     21  C   UNL     1     -15.369  -6.127  21.410  1.00  0.00     0.000 C 
BRANCH  21  22
ATOM     22  C   UNL     1     -15.981  -5.866  20.028  1.00  0.00    -0.000 C 
BRANCH  22  23
ATOM     23  C   UNL     1     -15.103  -6.383  18.876  1.00  0.00    -0.000 C 
BRANCH  23  24
ATOM     24  C   UNL     1     -15.855  -6.500  17.533  1.00  0.00    -0.000 C 
BRANCH  24  25
ATOM     25  C   UNL     1     -16.228  -5.123  16.952  1.00  0.00    -0.000 C 
BRANCH  25  26
ATOM     26  C   UNL     1     -17.706  -5.027  16.546  1.00  0.00    -0.000 C 
BRANCH  26  27
ATOM     27  C   UNL     1     -18.334  -3.672  16.909  1.00  0.00    -0.000 C 
BRANCH  27  28
ATOM     28  C   UNL     1     -18.197  -3.331  18.405  1.00  0.00    -0.000 C 
BRANCH  28  29
ATOM     29  C   UNL     1     -19.369  -3.798  19.288  1.00  0.00    -0.003 C 
ATOM     30  C   UNL     1     -19.951  -2.681  20.151  1.00  0.00     0.004 C 
ENDBRANCH  28  29
ENDBRANCH  27  28
ENDBRANCH  26  27
ENDBRANCH  25  26
ENDBRANCH  24  25
ENDBRANCH  23  24
ENDBRANCH  22  23
ENDBRANCH  21  22
ENDBRANCH  20  21
ENDBRANCH  19  20
ENDBRANCH  18  19
ENDBRANCH  17  18
ENDBRANCH   1  17
TORSDOF 26
ENDMDL
