MODEL 1
REMARK VINA RESULT:    -3.792      0.000      0.000
REMARK INTER + INTRA:          -8.609
REMARK INTER:                  -6.895
REMARK INTRA:                  -1.714
REMARK UNBOUND:                -1.714
REMARK SMILES CCCCCCCCCCCCCCCC(=O)[O-]
REMARK SMILES IDX 9 1 10 2 11 3 12 4 13 5 14 6 15 7 16 8 17 9 18 10 8 11 7 12
REMARK SMILES IDX 6 13 5 14 4 15 3 16 2 17 1 18
REMARK H PARENT
REMARK Flexibility Score: inf
ROOT
ATOM      1  C   UNL     1      -5.036 -64.275  -1.440  1.00  0.00     0.000 C 
ENDROOT
BRANCH   1   2
ATOM      2  C   UNL     1      -4.446 -65.686  -1.283  1.00  0.00     0.000 C 
BRANCH   2   3
ATOM      3  C   UNL     1      -5.462 -66.788  -1.627  1.00  0.00     0.000 C 
BRANCH   3   4
ATOM      4  C   UNL     1      -5.095 -67.563  -2.905  1.00  0.00     0.000 C 
BRANCH   4   5
ATOM      5  C   UNL     1      -3.959 -66.946  -3.745  1.00  0.00     0.000 C 
BRANCH   5   6
ATOM      6  C   UNL     1      -4.327 -66.615  -5.202  1.00  0.00     0.006 C 
BRANCH   6   7
ATOM      7  C   UNL     1      -3.694 -67.583  -6.210  1.00  0.00     0.053 C 
BRANCH   7   8
ATOM      8  C   UNL     1      -4.423 -67.527  -7.515  1.00  0.00     0.041 C 
ATOM      9  O   UNL     1      -4.178 -68.374  -8.415  1.00  0.00    -0.550 OA
ATOM     10  O   UNL     1      -5.336 -66.510  -7.758  1.00  0.00    -0.550 OA
ENDBRANCH   7   8
ENDBRANCH   6   7
ENDBRANCH   5   6
ENDBRANCH   4   5
ENDBRANCH   3   4
ENDBRANCH   2   3
ENDBRANCH   1   2
BRANCH   1  11
ATOM     11  C   UNL     1      -6.481 -64.271  -1.992  1.00  0.00     0.000 C 
BRANCH  11  12
ATOM     12  C   UNL     1      -7.421 -63.305  -1.246  1.00  0.00    -0.000 C 
BRANCH  12  13
ATOM     13  C   UNL     1      -7.311 -63.347   0.294  1.00  0.00    -0.000 C 
BRANCH  13  14
ATOM     14  C   UNL     1      -8.278 -64.315   0.999  1.00  0.00    -0.000 C 
BRANCH  14  15
ATOM     15  C   UNL     1      -7.694 -65.724   1.181  1.00  0.00    -0.000 C 
BRANCH  15  16
ATOM     16  C   UNL     1      -8.722 -66.798   0.795  1.00  0.00    -0.000 C 
BRANCH  16  17
ATOM     17  C   UNL     1      -8.878 -66.945  -0.726  1.00  0.00    -0.003 C 
ATOM     18  C   UNL     1      -9.190 -68.380  -1.153  1.00  0.00     0.004 C 
ENDBRANCH  16  17
ENDBRANCH  15  16
ENDBRANCH  14  15
ENDBRANCH  13  14
ENDBRANCH  12  13
ENDBRANCH  11  12
ENDBRANCH   1  11
TORSDOF 14
ENDMDL
MODEL 2
REMARK VINA RESULT:    -3.743      6.989      9.919
REMARK INTER + INTRA:          -8.521
REMARK INTER:                  -7.417
REMARK INTRA:                  -1.104
REMARK UNBOUND:                -1.714
REMARK SMILES CCCCCCCCCCCCCCCC(=O)[O-]
REMARK SMILES IDX 9 1 10 2 11 3 12 4 13 5 14 6 15 7 16 8 17 9 18 10 8 11 7 12
REMARK SMILES IDX 6 13 5 14 4 15 3 16 2 17 1 18
REMARK H PARENT
REMARK Flexibility Score: inf
ROOT
ATOM      1  C   UNL     1     -10.215 -66.227   5.618  1.00  0.00     0.000 C 
ENDROOT
BRANCH   1   2
ATOM      2  C   UNL     1     -10.596 -66.967   6.911  1.00  0.00     0.000 C 
BRANCH   2   3
ATOM      3  C   UNL     1     -11.603 -68.102   6.662  1.00  0.00     0.000 C 
BRANCH   3   4
ATOM      4  C   UNL     1     -11.001 -69.499   6.895  1.00  0.00     0.000 C 
BRANCH   4   5
ATOM      5  C   UNL     1      -9.484 -69.612   6.644  1.00  0.00     0.000 C 
BRANCH   5   6
ATOM      6  C   UNL     1      -9.084 -70.481   5.438  1.00  0.00     0.006 C 
BRANCH   6   7
ATOM      7  C   UNL     1      -8.425 -71.803   5.850  1.00  0.00     0.053 C 
BRANCH   7   8
ATOM      8  C   UNL     1      -9.360 -72.947   5.615  1.00  0.00     0.041 C 
ATOM      9  O   UNL     1     -10.586 -72.734   5.419  1.00  0.00    -0.550 OA
ATOM     10  O   UNL     1      -8.887 -74.252   5.663  1.00  0.00    -0.550 OA
ENDBRANCH   7   8
ENDBRANCH   6   7
ENDBRANCH   5   6
ENDBRANCH   4   5
ENDBRANCH   3   4
ENDBRANCH   2   3
ENDBRANCH   1   2
BRANCH   1  11
ATOM     11  C   UNL     1      -8.694 -66.222   5.338  1.00  0.00     0.000 C 
BRANCH  11  12
ATOM     12  C   UNL     1      -8.298 -67.021   4.081  1.00  0.00    -0.000 C 
BRANCH  12  13
ATOM     13  C   UNL     1      -7.670 -66.182   2.947  1.00  0.00    -0.000 C 
BRANCH  13  14
ATOM     14  C   UNL     1      -8.465 -66.155   1.629  1.00  0.00    -0.000 C 
BRANCH  14  15
ATOM     15  C   UNL     1      -7.610 -65.748   0.418  1.00  0.00    -0.000 C 
BRANCH  15  16
ATOM     16  C   UNL     1      -7.707 -66.798  -0.698  1.00  0.00    -0.000 C 
BRANCH  16  17
ATOM     17  C   UNL     1      -9.150 -67.262  -0.949  1.00  0.00    -0.003 C 
ATOM     18  C   UNL     1      -9.264 -68.777  -1.116  1.00  0.00     0.004 C 
ENDBRANCH  16  17
ENDBRANCH  15  16
ENDBRANCH  14  15
ENDBRANCH  13  14
ENDBRANCH  12  13
ENDBRANCH  11  12
ENDBRANCH   1  11
TORSDOF 14
ENDMDL
MODEL 3
REMARK VINA RESULT:    -3.725      7.668     10.252
REMARK INTER + INTRA:          -8.488
REMARK INTER:                  -7.624
REMARK INTRA:                  -0.863
REMARK UNBOUND:                -1.714
REMARK SMILES CCCCCCCCCCCCCCCC(=O)[O-]
REMARK SMILES IDX 9 1 10 2 11 3 12 4 13 5 14 6 15 7 16 8 17 9 18 10 8 11 7 12
REMARK SMILES IDX 6 13 5 14 4 15 3 16 2 17 1 18
REMARK H PARENT
REMARK Flexibility Score: inf
ROOT
ATOM      1  C   UNL     1      -7.942 -69.559   5.180  1.00  0.00     0.000 C 
ENDROOT
BRANCH   1   2
ATOM      2  C   UNL     1      -6.753 -70.484   5.487  1.00  0.00     0.000 C 
BRANCH   2   3
ATOM      3  C   UNL     1      -6.869 -71.843   4.778  1.00  0.00     0.000 C 
BRANCH   3   4
ATOM      4  C   UNL     1      -8.328 -72.275   4.546  1.00  0.00     0.000 C 
BRANCH   4   5
ATOM      5  C   UNL     1      -8.748 -73.580   5.253  1.00  0.00     0.000 C 
BRANCH   5   6
ATOM      6  C   UNL     1     -10.108 -73.527   5.971  1.00  0.00     0.006 C 
BRANCH   6   7
ATOM      7  C   UNL     1     -11.137 -72.659   5.235  1.00  0.00     0.053 C 
BRANCH   7   8
ATOM      8  C   UNL     1     -12.429 -72.631   5.987  1.00  0.00     0.041 C 
ATOM      9  O   UNL     1     -12.884 -71.541   6.427  1.00  0.00    -0.550 OA
ATOM     10  O   UNL     1     -13.108 -73.814   6.246  1.00  0.00    -0.550 OA
ENDBRANCH   7   8
ENDBRANCH   6   7
ENDBRANCH   5   6
ENDBRANCH   4   5
ENDBRANCH   3   4
ENDBRANCH   2   3
ENDBRANCH   1   2
BRANCH   1  11
ATOM     11  C   UNL     1      -7.521 -68.118   4.811  1.00  0.00     0.000 C 
BRANCH  11  12
ATOM     12  C   UNL     1      -8.267 -67.555   3.586  1.00  0.00    -0.000 C 
BRANCH  12  13
ATOM     13  C   UNL     1      -7.772 -66.175   3.099  1.00  0.00    -0.000 C 
BRANCH  13  14
ATOM     14  C   UNL     1      -8.414 -65.666   1.795  1.00  0.00    -0.000 C 
BRANCH  14  15
ATOM     15  C   UNL     1      -7.403 -65.502   0.650  1.00  0.00    -0.000 C 
BRANCH  15  16
ATOM     16  C   UNL     1      -7.612 -66.580  -0.424  1.00  0.00    -0.000 C 
BRANCH  16  17
ATOM     17  C   UNL     1      -9.094 -66.932  -0.626  1.00  0.00    -0.003 C 
ATOM     18  C   UNL     1      -9.315 -68.418  -0.911  1.00  0.00     0.004 C 
ENDBRANCH  16  17
ENDBRANCH  15  16
ENDBRANCH  14  15
ENDBRANCH  13  14
ENDBRANCH  12  13
ENDBRANCH  11  12
ENDBRANCH   1  11
TORSDOF 14
ENDMDL
MODEL 4
REMARK VINA RESULT:    -3.669      1.204      2.428
REMARK INTER + INTRA:          -8.385
REMARK INTER:                  -6.742
REMARK INTRA:                  -1.644
REMARK UNBOUND:                -1.714
REMARK SMILES CCCCCCCCCCCCCCCC(=O)[O-]
REMARK SMILES IDX 9 1 10 2 11 3 12 4 13 5 14 6 15 7 16 8 17 9 18 10 8 11 7 12
REMARK SMILES IDX 6 13 5 14 4 15 3 16 2 17 1 18
REMARK H PARENT
REMARK Flexibility Score: inf
ROOT
ATOM      1  C   UNL     1      -6.211 -63.944  -1.831  1.00  0.00     0.000 C 
ENDROOT
BRANCH   1   2
ATOM      2  C   UNL     1      -5.667 -64.482  -0.497  1.00  0.00     0.000 C 
BRANCH   2   3
ATOM      3  C   UNL     1      -4.789 -65.730  -0.684  1.00  0.00     0.000 C 
BRANCH   3   4
ATOM      4  C   UNL     1      -5.230 -66.600  -1.875  1.00  0.00     0.000 C 
BRANCH   4   5
ATOM      5  C   UNL     1      -4.281 -66.580  -3.090  1.00  0.00     0.000 C 
BRANCH   5   6
ATOM      6  C   UNL     1      -4.499 -67.712  -4.110  1.00  0.00     0.006 C 
BRANCH   6   7
ATOM      7  C   UNL     1      -3.589 -67.590  -5.339  1.00  0.00     0.053 C 
BRANCH   7   8
ATOM      8  C   UNL     1      -4.383 -67.176  -6.537  1.00  0.00     0.041 C 
ATOM      9  O   UNL     1      -4.360 -67.874  -7.585  1.00  0.00    -0.550 OA
ATOM     10  O   UNL     1      -5.109 -65.992  -6.514  1.00  0.00    -0.550 OA
ENDBRANCH   7   8
ENDBRANCH   6   7
ENDBRANCH   5   6
ENDBRANCH   4   5
ENDBRANCH   3   4
ENDBRANCH   2   3
ENDBRANCH   1   2
BRANCH   1  11
ATOM     11  C   UNL     1      -7.754 -63.853  -1.874  1.00  0.00     0.000 C 
BRANCH  11  12
ATOM     12  C   UNL     1      -8.442 -64.496  -0.654  1.00  0.00    -0.000 C 
BRANCH  12  13
ATOM     13  C   UNL     1      -8.799 -65.989  -0.819  1.00  0.00    -0.000 C 
BRANCH  13  14
ATOM     14  C   UNL     1      -8.658 -66.847   0.452  1.00  0.00    -0.000 C 
BRANCH  14  15
ATOM     15  C   UNL     1      -8.968 -66.069   1.740  1.00  0.00    -0.000 C 
BRANCH  15  16
ATOM     16  C   UNL     1      -7.904 -66.341   2.814  1.00  0.00    -0.000 C 
BRANCH  16  17
ATOM     17  C   UNL     1      -6.818 -65.254   2.856  1.00  0.00    -0.003 C 
ATOM     18  C   UNL     1      -7.397 -63.839   2.840  1.00  0.00     0.004 C 
ENDBRANCH  16  17
ENDBRANCH  15  16
ENDBRANCH  14  15
ENDBRANCH  13  14
ENDBRANCH  12  13
ENDBRANCH  11  12
ENDBRANCH   1  11
TORSDOF 14
ENDMDL
MODEL 5
REMARK VINA RESULT:    -3.649      6.367      8.922
REMARK INTER + INTRA:          -8.349
REMARK INTER:                  -7.577
REMARK INTRA:                  -0.773
REMARK UNBOUND:                -1.714
REMARK SMILES CCCCCCCCCCCCCCCC(=O)[O-]
REMARK SMILES IDX 9 1 10 2 11 3 12 4 13 5 14 6 15 7 16 8 17 9 18 10 8 11 7 12
REMARK SMILES IDX 6 13 5 14 4 15 3 16 2 17 1 18
REMARK H PARENT
REMARK Flexibility Score: inf
ROOT
ATOM      1  C   UNL     1      -7.413 -66.192   3.427  1.00  0.00     0.000 C 
ENDROOT
BRANCH   1   2
ATOM      2  C   UNL     1      -8.337 -67.258   4.038  1.00  0.00     0.000 C 
BRANCH   2   3
ATOM      3  C   UNL     1      -7.563 -68.311   4.847  1.00  0.00     0.000 C 
BRANCH   3   4
ATOM      4  C   UNL     1      -8.139 -69.730   4.690  1.00  0.00     0.000 C 
BRANCH   4   5
ATOM      5  C   UNL     1      -7.099 -70.867   4.698  1.00  0.00     0.000 C 
BRANCH   5   6
ATOM      6  C   UNL     1      -7.615 -72.231   4.205  1.00  0.00     0.006 C 
BRANCH   6   7
ATOM      7  C   UNL     1      -9.114 -72.216   3.879  1.00  0.00     0.053 C 
BRANCH   7   8
ATOM      8  C   UNL     1      -9.875 -73.021   4.885  1.00  0.00     0.041 C 
ATOM      9  O   UNL     1     -11.134 -73.033   4.866  1.00  0.00    -0.550 OA
ATOM     10  O   UNL     1      -9.195 -73.717   5.875  1.00  0.00    -0.550 OA
ENDBRANCH   7   8
ENDBRANCH   6   7
ENDBRANCH   5   6
ENDBRANCH   4   5
ENDBRANCH   3   4
ENDBRANCH   2   3
ENDBRANCH   1   2
BRANCH   1  11
ATOM     11  C   UNL     1      -8.044 -65.442   2.231  1.00  0.00     0.000 C 
BRANCH  11  12
ATOM     12  C   UNL     1      -8.883 -66.350   1.310  1.00  0.00    -0.000 C 
BRANCH  12  13
ATOM     13  C   UNL     1      -8.656 -66.133  -0.201  1.00  0.00    -0.000 C 
BRANCH  13  14
ATOM     14  C   UNL     1      -7.348 -66.720  -0.764  1.00  0.00    -0.000 C 
BRANCH  14  15
ATOM     15  C   UNL     1      -6.301 -65.647  -1.098  1.00  0.00    -0.000 C 
BRANCH  15  16
ATOM     16  C   UNL     1      -4.930 -66.284  -1.370  1.00  0.00    -0.000 C 
BRANCH  16  17
ATOM     17  C   UNL     1      -4.937 -67.190  -2.611  1.00  0.00    -0.003 C 
ATOM     18  C   UNL     1      -4.083 -66.637  -3.752  1.00  0.00     0.004 C 
ENDBRANCH  16  17
ENDBRANCH  15  16
ENDBRANCH  14  15
ENDBRANCH  13  14
ENDBRANCH  12  13
ENDBRANCH  11  12
ENDBRANCH   1  11
TORSDOF 14
ENDMDL
MODEL 6
REMARK VINA RESULT:    -3.582      5.955      8.872
REMARK INTER + INTRA:          -8.228
REMARK INTER:                  -7.109
REMARK INTRA:                  -1.119
REMARK UNBOUND:                -1.714
REMARK SMILES CCCCCCCCCCCCCCCC(=O)[O-]
REMARK SMILES IDX 9 1 10 2 11 3 12 4 13 5 14 6 15 7 16 8 17 9 18 10 8 11 7 12
REMARK SMILES IDX 6 13 5 14 4 15 3 16 2 17 1 18
REMARK H PARENT
REMARK Flexibility Score: inf
ROOT
ATOM      1  C   UNL     1      -9.935 -65.971   4.883  1.00  0.00     0.000 C 
ENDROOT
BRANCH   1   2
ATOM      2  C   UNL     1     -10.390 -66.755   6.125  1.00  0.00     0.000 C 
BRANCH   2   3
ATOM      3  C   UNL     1      -9.430 -67.903   6.478  1.00  0.00     0.000 C 
BRANCH   3   4
ATOM      4  C   UNL     1     -10.156 -69.236   6.729  1.00  0.00     0.000 C 
BRANCH   4   5
ATOM      5  C   UNL     1      -9.572 -70.453   5.983  1.00  0.00     0.000 C 
BRANCH   5   6
ATOM      6  C   UNL     1      -8.453 -70.129   4.977  1.00  0.00     0.006 C 
BRANCH   6   7
ATOM      7  C   UNL     1      -7.559 -71.338   4.672  1.00  0.00     0.053 C 
BRANCH   7   8
ATOM      8  C   UNL     1      -8.248 -72.273   3.731  1.00  0.00     0.041 C 
ATOM      9  O   UNL     1      -8.040 -73.513   3.804  1.00  0.00    -0.550 OA
ATOM     10  O   UNL     1      -9.083 -71.772   2.740  1.00  0.00    -0.550 OA
ENDBRANCH   7   8
ENDBRANCH   6   7
ENDBRANCH   5   6
ENDBRANCH   4   5
ENDBRANCH   3   4
ENDBRANCH   2   3
ENDBRANCH   1   2
BRANCH   1  11
ATOM     11  C   UNL     1      -8.509 -66.340   4.412  1.00  0.00     0.000 C 
BRANCH  11  12
ATOM     12  C   UNL     1      -8.461 -66.898   2.976  1.00  0.00    -0.000 C 
BRANCH  12  13
ATOM     13  C   UNL     1      -8.151 -65.855   1.881  1.00  0.00    -0.000 C 
BRANCH  13  14
ATOM     14  C   UNL     1      -9.223 -65.711   0.785  1.00  0.00    -0.000 C 
BRANCH  14  15
ATOM     15  C   UNL     1      -8.644 -65.781  -0.637  1.00  0.00    -0.000 C 
BRANCH  15  16
ATOM     16  C   UNL     1      -7.402 -66.684  -0.678  1.00  0.00    -0.000 C 
BRANCH  16  17
ATOM     17  C   UNL     1      -6.147 -65.939  -1.159  1.00  0.00    -0.003 C 
ATOM     18  C   UNL     1      -5.160 -66.851  -1.888  1.00  0.00     0.004 C 
ENDBRANCH  16  17
ENDBRANCH  15  16
ENDBRANCH  14  15
ENDBRANCH  13  14
ENDBRANCH  12  13
ENDBRANCH  11  12
ENDBRANCH   1  11
TORSDOF 14
ENDMDL
MODEL 7
REMARK VINA RESULT:    -3.577      3.529      5.334
REMARK INTER + INTRA:          -8.219
REMARK INTER:                  -5.665
REMARK INTRA:                  -2.554
REMARK UNBOUND:                -1.714
REMARK SMILES CCCCCCCCCCCCCCCC(=O)[O-]
REMARK SMILES IDX 9 1 10 2 11 3 12 4 13 5 14 6 15 7 16 8 17 9 18 10 8 11 7 12
REMARK SMILES IDX 6 13 5 14 4 15 3 16 2 17 1 18
REMARK H PARENT
REMARK Flexibility Score: inf
ROOT
ATOM      1  C   UNL     1      -9.256 -65.863   0.957  1.00  0.00     0.000 C 
ENDROOT
BRANCH   1   2
ATOM      2  C   UNL     1      -8.817 -65.994  -0.511  1.00  0.00     0.000 C 
BRANCH   2   3
ATOM      3  C   UNL     1      -8.298 -64.666  -1.088  1.00  0.00     0.000 C 
BRANCH   3   4
ATOM      4  C   UNL     1      -6.815 -64.729  -1.494  1.00  0.00     0.000 C 
BRANCH   4   5
ATOM      5  C   UNL     1      -6.074 -66.018  -1.085  1.00  0.00     0.000 C 
BRANCH   5   6
ATOM      6  C   UNL     1      -4.693 -65.803  -0.440  1.00  0.00     0.006 C 
BRANCH   6   7
ATOM      7  C   UNL     1      -4.175 -64.369  -0.610  1.00  0.00     0.053 C 
BRANCH   7   8
ATOM      8  C   UNL     1      -2.967 -64.352  -1.493  1.00  0.00     0.041 C 
ATOM      9  O   UNL     1      -3.086 -64.538  -2.733  1.00  0.00    -0.550 OA
ATOM     10  O   UNL     1      -1.705 -64.183  -0.940  1.00  0.00    -0.550 OA
ENDBRANCH   7   8
ENDBRANCH   6   7
ENDBRANCH   5   6
ENDBRANCH   4   5
ENDBRANCH   3   4
ENDBRANCH   2   3
ENDBRANCH   1   2
BRANCH   1  11
ATOM     11  C   UNL     1      -8.248 -66.476   1.957  1.00  0.00     0.000 C 
BRANCH  11  12
ATOM     12  C   UNL     1      -7.697 -65.460   2.976  1.00  0.00    -0.000 C 
BRANCH  12  13
ATOM     13  C   UNL     1      -6.313 -64.872   2.626  1.00  0.00    -0.000 C 
BRANCH  13  14
ATOM     14  C   UNL     1      -6.286 -63.354   2.369  1.00  0.00    -0.000 C 
BRANCH  14  15
ATOM     15  C   UNL     1      -7.644 -62.678   2.611  1.00  0.00    -0.000 C 
BRANCH  15  16
ATOM     16  C   UNL     1      -7.930 -61.622   1.533  1.00  0.00    -0.000 C 
BRANCH  16  17
ATOM     17  C   UNL     1      -6.907 -61.656   0.387  1.00  0.00    -0.003 C 
ATOM     18  C   UNL     1      -7.088 -60.504  -0.602  1.00  0.00     0.004 C 
ENDBRANCH  16  17
ENDBRANCH  15  16
ENDBRANCH  14  15
ENDBRANCH  13  14
ENDBRANCH  12  13
ENDBRANCH  11  12
ENDBRANCH   1  11
TORSDOF 14
ENDMDL
MODEL 8
REMARK VINA RESULT:    -3.542      1.791      2.663
REMARK INTER + INTRA:          -8.154
REMARK INTER:                  -5.585
REMARK INTRA:                  -2.570
REMARK UNBOUND:                -1.714
REMARK SMILES CCCCCCCCCCCCCCCC(=O)[O-]
REMARK SMILES IDX 9 1 10 2 11 3 12 4 13 5 14 6 15 7 16 8 17 9 18 10 8 11 7 12
REMARK SMILES IDX 6 13 5 14 4 15 3 16 2 17 1 18
REMARK H PARENT
REMARK Flexibility Score: inf
ROOT
ATOM      1  C   UNL     1      -4.619 -63.572   0.018  1.00  0.00     0.000 C 
ENDROOT
BRANCH   1   2
ATOM      2  C   UNL     1      -3.878 -64.788  -0.562  1.00  0.00     0.000 C 
BRANCH   2   3
ATOM      3  C   UNL     1      -4.805 -66.000  -0.759  1.00  0.00     0.000 C 
BRANCH   3   4
ATOM      4  C   UNL     1      -4.993 -66.376  -2.239  1.00  0.00     0.000 C 
BRANCH   4   5
ATOM      5  C   UNL     1      -4.022 -65.691  -3.221  1.00  0.00     0.000 C 
BRANCH   5   6
ATOM      6  C   UNL     1      -4.660 -64.634  -4.141  1.00  0.00     0.006 C 
BRANCH   6   7
ATOM      7  C   UNL     1      -4.805 -65.118  -5.590  1.00  0.00     0.053 C 
BRANCH   7   8
ATOM      8  C   UNL     1      -3.482 -65.566  -6.125  1.00  0.00     0.041 C 
ATOM      9  O   UNL     1      -2.560 -64.731  -6.319  1.00  0.00    -0.550 OA
ATOM     10  O   UNL     1      -3.283 -66.900  -6.458  1.00  0.00    -0.550 OA
ENDBRANCH   7   8
ENDBRANCH   6   7
ENDBRANCH   5   6
ENDBRANCH   4   5
ENDBRANCH   3   4
ENDBRANCH   2   3
ENDBRANCH   1   2
BRANCH   1  11
ATOM     11  C   UNL     1      -5.389 -62.756  -1.046  1.00  0.00     0.000 C 
BRANCH  11  12
ATOM     12  C   UNL     1      -6.919 -62.808  -0.871  1.00  0.00    -0.000 C 
BRANCH  12  13
ATOM     13  C   UNL     1      -7.654 -63.762  -1.838  1.00  0.00    -0.000 C 
BRANCH  13  14
ATOM     14  C   UNL     1      -8.520 -64.844  -1.167  1.00  0.00    -0.000 C 
BRANCH  14  15
ATOM     15  C   UNL     1      -8.647 -64.658   0.352  1.00  0.00    -0.000 C 
BRANCH  15  16
ATOM     16  C   UNL     1      -7.988 -65.823   1.105  1.00  0.00    -0.000 C 
BRANCH  16  17
ATOM     17  C   UNL     1      -7.056 -65.347   2.230  1.00  0.00    -0.003 C 
ATOM     18  C   UNL     1      -7.313 -63.896   2.636  1.00  0.00     0.004 C 
ENDBRANCH  16  17
ENDBRANCH  15  16
ENDBRANCH  14  15
ENDBRANCH  13  14
ENDBRANCH  12  13
ENDBRANCH  11  12
ENDBRANCH   1  11
TORSDOF 14
ENDMDL
MODEL 9
REMARK VINA RESULT:    -3.524      1.566      3.466
REMARK INTER + INTRA:          -8.122
REMARK INTER:                  -6.510
REMARK INTRA:                  -1.612
REMARK UNBOUND:                -1.714
REMARK SMILES CCCCCCCCCCCCCCCC(=O)[O-]
REMARK SMILES IDX 9 1 10 2 11 3 12 4 13 5 14 6 15 7 16 8 17 9 18 10 8 11 7 12
REMARK SMILES IDX 6 13 5 14 4 15 3 16 2 17 1 18
REMARK H PARENT
REMARK Flexibility Score: inf
ROOT
ATOM      1  C   UNL     1      -8.159 -64.755  -1.105  1.00  0.00     0.000 C 
ENDROOT
BRANCH   1   2
ATOM      2  C   UNL     1      -6.650 -64.485  -0.984  1.00  0.00     0.000 C 
BRANCH   2   3
ATOM      3  C   UNL     1      -5.883 -65.690  -0.416  1.00  0.00     0.000 C 
BRANCH   3   4
ATOM      4  C   UNL     1      -4.680 -66.098  -1.286  1.00  0.00     0.000 C 
BRANCH   4   5
ATOM      5  C   UNL     1      -5.005 -67.057  -2.450  1.00  0.00     0.000 C 
BRANCH   5   6
ATOM      6  C   UNL     1      -4.299 -66.734  -3.779  1.00  0.00     0.006 C 
BRANCH   6   7
ATOM      7  C   UNL     1      -4.307 -67.916  -4.758  1.00  0.00     0.053 C 
BRANCH   7   8
ATOM      8  C   UNL     1      -4.079 -67.436  -6.156  1.00  0.00     0.041 C 
ATOM      9  O   UNL     1      -4.054 -66.201  -6.407  1.00  0.00    -0.550 OA
ATOM     10  O   UNL     1      -3.946 -68.351  -7.192  1.00  0.00    -0.550 OA
ENDBRANCH   7   8
ENDBRANCH   6   7
ENDBRANCH   5   6
ENDBRANCH   4   5
ENDBRANCH   3   4
ENDBRANCH   2   3
ENDBRANCH   1   2
BRANCH   1  11
ATOM     11  C   UNL     1      -8.613 -66.044  -0.381  1.00  0.00     0.000 C 
BRANCH  11  12
ATOM     12  C   UNL     1      -9.205 -65.787   1.018  1.00  0.00    -0.000 C 
BRANCH  12  13
ATOM     13  C   UNL     1      -8.473 -66.499   2.176  1.00  0.00    -0.000 C 
BRANCH  13  14
ATOM     14  C   UNL     1      -7.329 -65.699   2.826  1.00  0.00    -0.000 C 
BRANCH  14  15
ATOM     15  C   UNL     1      -7.757 -64.293   3.274  1.00  0.00    -0.000 C 
BRANCH  15  16
ATOM     16  C   UNL     1      -6.951 -63.214   2.534  1.00  0.00    -0.000 C 
BRANCH  16  17
ATOM     17  C   UNL     1      -7.839 -62.300   1.676  1.00  0.00    -0.003 C 
ATOM     18  C   UNL     1      -7.418 -60.832   1.745  1.00  0.00     0.004 C 
ENDBRANCH  16  17
ENDBRANCH  15  16
ENDBRANCH  14  15
ENDBRANCH  13  14
ENDBRANCH  12  13
ENDBRANCH  11  12
ENDBRANCH   1  11
TORSDOF 14
ENDMDL
