MODEL 1
REMARK VINA RESULT:    -5.729      0.000      0.000
REMARK INTER + INTRA:         -14.283
REMARK INTER:                 -12.427
REMARK INTRA:                  -1.856
REMARK UNBOUND:                -1.856
REMARK SMILES CCCCCCCCCCCCCCCCCCCCCC(=O)[O-]
REMARK SMILES IDX 12 1 11 2 10 3 9 4 8 5 7 6 6 7 5 8 4 9 3 10 2 11 1 12 13 13
REMARK SMILES IDX 14 14 15 15 16 16 17 17 18 18 19 19 20 20 21 21 22 22 23 23
REMARK SMILES IDX 24 24
REMARK H PARENT
REMARK Flexibility Score: inf
ROOT
ATOM      1  C   UNL     1      -1.007 -25.416  -1.569  1.00  0.00     0.000 C 
ENDROOT
BRANCH   1   2
ATOM      2  C   UNL     1      -1.800 -24.117  -1.326  1.00  0.00     0.000 C 
BRANCH   2   3
ATOM      3  C   UNL     1      -1.481 -23.403   0.000  1.00  0.00     0.000 C 
BRANCH   3   4
ATOM      4  C   UNL     1      -2.696 -23.314   0.939  1.00  0.00    -0.000 C 
BRANCH   4   5
ATOM      5  C   UNL     1      -3.978 -23.859   0.287  1.00  0.00    -0.000 C 
BRANCH   5   6
ATOM      6  C   UNL     1      -4.379 -25.234   0.849  1.00  0.00    -0.000 C 
BRANCH   6   7
ATOM      7  C   UNL     1      -4.672 -26.267  -0.254  1.00  0.00    -0.000 C 
BRANCH   7   8
ATOM      8  C   UNL     1      -6.140 -26.320  -0.724  1.00  0.00    -0.000 C 
BRANCH   8   9
ATOM      9  C   UNL     1      -6.393 -25.778  -2.142  1.00  0.00    -0.000 C 
BRANCH   9  10
ATOM     10  C   UNL     1      -5.098 -25.561  -2.940  1.00  0.00    -0.000 C 
BRANCH  10  11
ATOM     11  C   UNL     1      -4.882 -24.073  -3.237  1.00  0.00    -0.003 C 
ATOM     12  C   UNL     1      -5.467 -23.691  -4.594  1.00  0.00     0.004 C 
ENDBRANCH  10  11
ENDBRANCH   9  10
ENDBRANCH   8   9
ENDBRANCH   7   8
ENDBRANCH   6   7
ENDBRANCH   5   6
ENDBRANCH   4   5
ENDBRANCH   3   4
ENDBRANCH   2   3
ENDBRANCH   1   2
BRANCH   1  13
ATOM     13  C   UNL     1      -0.632 -26.205  -0.299  1.00  0.00     0.000 C 
BRANCH  13  14
ATOM     14  C   UNL     1       0.860 -26.594  -0.223  1.00  0.00     0.000 C 
BRANCH  14  15
ATOM     15  C   UNL     1       1.132 -27.697   0.816  1.00  0.00     0.000 C 
BRANCH  15  16
ATOM     16  C   UNL     1       2.557 -28.263   0.716  1.00  0.00     0.000 C 
BRANCH  16  17
ATOM     17  C   UNL     1       2.785 -29.459   1.657  1.00  0.00     0.000 C 
BRANCH  17  18
ATOM     18  C   UNL     1       4.186 -29.459   2.292  1.00  0.00     0.000 C 
BRANCH  18  19
ATOM     19  C   UNL     1       4.219 -29.792   3.798  1.00  0.00     0.000 C 
BRANCH  19  20
ATOM     20  C   UNL     1       3.154 -30.799   4.268  1.00  0.00     0.006 C 
BRANCH  20  21
ATOM     21  C   UNL     1       3.115 -30.959   5.792  1.00  0.00     0.053 C 
BRANCH  21  22
ATOM     22  C   UNL     1       2.050 -30.086   6.379  1.00  0.00     0.041 C 
ATOM     23  O   UNL     1       0.877 -30.523   6.516  1.00  0.00    -0.550 OA
ATOM     24  O   UNL     1       2.367 -28.810   6.828  1.00  0.00    -0.550 OA
ENDBRANCH  21  22
ENDBRANCH  20  21
ENDBRANCH  19  20
ENDBRANCH  18  19
ENDBRANCH  17  18
ENDBRANCH  16  17
ENDBRANCH  15  16
ENDBRANCH  14  15
ENDBRANCH  13  14
ENDBRANCH   1  13
TORSDOF 20
ENDMDL
MODEL 2
REMARK VINA RESULT:    -5.657      1.167      2.093
REMARK INTER + INTRA:         -14.128
REMARK INTER:                 -12.224
REMARK INTRA:                  -1.904
REMARK UNBOUND:                -1.856
REMARK SMILES CCCCCCCCCCCCCCCCCCCCCC(=O)[O-]
REMARK SMILES IDX 12 1 11 2 10 3 9 4 8 5 7 6 6 7 5 8 4 9 3 10 2 11 1 12 13 13
REMARK SMILES IDX 14 14 15 15 16 16 17 17 18 18 19 19 20 20 21 21 22 22 23 23
REMARK SMILES IDX 24 24
REMARK H PARENT
REMARK Flexibility Score: inf
ROOT
ATOM      1  C   UNL     1      -0.157 -26.178  -0.215  1.00  0.00     0.000 C 
ENDROOT
BRANCH   1   2
ATOM      2  C   UNL     1      -1.183 -25.891  -1.328  1.00  0.00     0.000 C 
BRANCH   2   3
ATOM      3  C   UNL     1      -1.385 -24.399  -1.653  1.00  0.00     0.000 C 
BRANCH   3   4
ATOM      4  C   UNL     1      -2.665 -23.820  -1.028  1.00  0.00    -0.000 C 
BRANCH   4   5
ATOM      5  C   UNL     1      -2.437 -23.314   0.406  1.00  0.00    -0.000 C 
BRANCH   5   6
ATOM      6  C   UNL     1      -3.746 -23.228   1.210  1.00  0.00    -0.000 C 
BRANCH   6   7
ATOM      7  C   UNL     1      -4.617 -24.489   1.069  1.00  0.00    -0.000 C 
BRANCH   7   8
ATOM      8  C   UNL     1      -3.864 -25.824   1.239  1.00  0.00    -0.000 C 
BRANCH   8   9
ATOM      9  C   UNL     1      -4.397 -26.989   0.387  1.00  0.00    -0.000 C 
BRANCH   9  10
ATOM     10  C   UNL     1      -5.523 -26.567  -0.569  1.00  0.00    -0.000 C 
BRANCH  10  11
ATOM     11  C   UNL     1      -5.073 -26.685  -2.029  1.00  0.00    -0.003 C 
ATOM     12  C   UNL     1      -5.338 -25.391  -2.794  1.00  0.00     0.004 C 
ENDBRANCH  10  11
ENDBRANCH   9  10
ENDBRANCH   8   9
ENDBRANCH   7   8
ENDBRANCH   6   7
ENDBRANCH   5   6
ENDBRANCH   4   5
ENDBRANCH   3   4
ENDBRANCH   2   3
ENDBRANCH   1   2
BRANCH   1  13
ATOM     13  C   UNL     1       1.281 -26.447  -0.700  1.00  0.00     0.000 C 
BRANCH  13  14
ATOM     14  C   UNL     1       1.669 -27.942  -0.708  1.00  0.00     0.000 C 
BRANCH  14  15
ATOM     15  C   UNL     1       3.193 -28.158  -0.677  1.00  0.00     0.000 C 
BRANCH  15  16
ATOM     16  C   UNL     1       3.665 -28.843   0.616  1.00  0.00     0.000 C 
BRANCH  16  17
ATOM     17  C   UNL     1       2.518 -29.065   1.618  1.00  0.00     0.000 C 
BRANCH  17  18
ATOM     18  C   UNL     1       2.902 -30.022   2.760  1.00  0.00     0.000 C 
BRANCH  18  19
ATOM     19  C   UNL     1       4.296 -29.781   3.372  1.00  0.00     0.000 C 
BRANCH  19  20
ATOM     20  C   UNL     1       4.408 -30.074   4.879  1.00  0.00     0.006 C 
BRANCH  20  21
ATOM     21  C   UNL     1       3.132 -29.718   5.652  1.00  0.00     0.053 C 
BRANCH  21  22
ATOM     22  C   UNL     1       2.435 -30.963   6.105  1.00  0.00     0.041 C 
ATOM     23  O   UNL     1       3.091 -32.020   6.303  1.00  0.00    -0.550 OA
ATOM     24  O   UNL     1       1.071 -30.940   6.364  1.00  0.00    -0.550 OA
ENDBRANCH  21  22
ENDBRANCH  20  21
ENDBRANCH  19  20
ENDBRANCH  18  19
ENDBRANCH  17  18
ENDBRANCH  16  17
ENDBRANCH  15  16
ENDBRANCH  14  15
ENDBRANCH  13  14
ENDBRANCH   1  13
TORSDOF 20
ENDMDL
MODEL 3
REMARK VINA RESULT:    -5.564      1.465      3.906
REMARK INTER + INTRA:         -13.927
REMARK INTER:                 -12.174
REMARK INTRA:                  -1.753
REMARK UNBOUND:                -1.856
REMARK SMILES CCCCCCCCCCCCCCCCCCCCCC(=O)[O-]
REMARK SMILES IDX 12 1 11 2 10 3 9 4 8 5 7 6 6 7 5 8 4 9 3 10 2 11 1 12 13 13
REMARK SMILES IDX 14 14 15 15 16 16 17 17 18 18 19 19 20 20 21 21 22 22 23 23
REMARK SMILES IDX 24 24
REMARK H PARENT
REMARK Flexibility Score: inf
ROOT
ATOM      1  C   UNL     1       3.113 -28.560   0.384  1.00  0.00     0.000 C 
ENDROOT
BRANCH   1   2
ATOM      2  C   UNL     1       2.106 -28.019  -0.649  1.00  0.00     0.000 C 
BRANCH   2   3
ATOM      3  C   UNL     1       1.362 -26.741  -0.220  1.00  0.00     0.000 C 
BRANCH   3   4
ATOM      4  C   UNL     1      -0.156 -26.951  -0.082  1.00  0.00    -0.000 C 
BRANCH   4   5
ATOM      5  C   UNL     1      -0.931 -25.624  -0.082  1.00  0.00    -0.000 C 
BRANCH   5   6
ATOM      6  C   UNL     1      -1.283 -25.153  -1.504  1.00  0.00    -0.000 C 
BRANCH   6   7
ATOM      7  C   UNL     1      -2.736 -24.661  -1.628  1.00  0.00    -0.000 C 
BRANCH   7   8
ATOM      8  C   UNL     1      -3.787 -25.774  -1.813  1.00  0.00    -0.000 C 
BRANCH   8   9
ATOM      9  C   UNL     1      -4.843 -25.869  -0.697  1.00  0.00    -0.000 C 
BRANCH   9  10
ATOM     10  C   UNL     1      -4.311 -25.415   0.671  1.00  0.00    -0.000 C 
BRANCH  10  11
ATOM     11  C   UNL     1      -5.038 -24.153   1.149  1.00  0.00    -0.003 C 
ATOM     12  C   UNL     1      -4.048 -23.046   1.500  1.00  0.00     0.004 C 
ENDBRANCH  10  11
ENDBRANCH   9  10
ENDBRANCH   8   9
ENDBRANCH   7   8
ENDBRANCH   6   7
ENDBRANCH   5   6
ENDBRANCH   4   5
ENDBRANCH   3   4
ENDBRANCH   2   3
ENDBRANCH   1   2
BRANCH   1  13
ATOM     13  C   UNL     1       2.510 -28.951   1.748  1.00  0.00     0.000 C 
BRANCH  13  14
ATOM     14  C   UNL     1       3.564 -29.270   2.829  1.00  0.00     0.000 C 
BRANCH  14  15
ATOM     15  C   UNL     1       4.936 -29.632   2.229  1.00  0.00     0.000 C 
BRANCH  15  16
ATOM     16  C   UNL     1       5.598 -30.819   2.947  1.00  0.00     0.000 C 
BRANCH  16  17
ATOM     17  C   UNL     1       6.048 -30.468   4.376  1.00  0.00     0.000 C 
BRANCH  17  18
ATOM     18  C   UNL     1       5.677 -31.553   5.402  1.00  0.00     0.000 C 
BRANCH  18  19
ATOM     19  C   UNL     1       4.526 -32.488   4.975  1.00  0.00     0.000 C 
BRANCH  19  20
ATOM     20  C   UNL     1       3.123 -32.044   5.427  1.00  0.00     0.006 C 
BRANCH  20  21
ATOM     21  C   UNL     1       3.151 -31.155   6.676  1.00  0.00     0.053 C 
BRANCH  21  22
ATOM     22  C   UNL     1       2.142 -30.057   6.555  1.00  0.00     0.041 C 
ATOM     23  O   UNL     1       2.514 -28.854   6.539  1.00  0.00    -0.550 OA
ATOM     24  O   UNL     1       0.796 -30.363   6.401  1.00  0.00    -0.550 OA
ENDBRANCH  21  22
ENDBRANCH  20  21
ENDBRANCH  19  20
ENDBRANCH  18  19
ENDBRANCH  17  18
ENDBRANCH  16  17
ENDBRANCH  15  16
ENDBRANCH  14  15
ENDBRANCH  13  14
ENDBRANCH   1  13
TORSDOF 20
ENDMDL
MODEL 4
REMARK VINA RESULT:    -5.538      3.085      6.065
REMARK INTER + INTRA:         -13.869
REMARK INTER:                 -11.987
REMARK INTRA:                  -1.882
REMARK UNBOUND:                -1.856
REMARK SMILES CCCCCCCCCCCCCCCCCCCCCC(=O)[O-]
REMARK SMILES IDX 12 1 11 2 10 3 9 4 8 5 7 6 6 7 5 8 4 9 3 10 2 11 1 12 13 13
REMARK SMILES IDX 14 14 15 15 16 16 17 17 18 18 19 19 20 20 21 21 22 22 23 23
REMARK SMILES IDX 24 24
REMARK H PARENT
REMARK Flexibility Score: inf
ROOT
ATOM      1  C   UNL     1       4.175 -29.688   2.936  1.00  0.00     0.000 C 
ENDROOT
BRANCH   1   2
ATOM      2  C   UNL     1       3.768 -29.060   1.589  1.00  0.00     0.000 C 
BRANCH   2   3
ATOM      3  C   UNL     1       2.381 -28.390   1.580  1.00  0.00     0.000 C 
BRANCH   3   4
ATOM      4  C   UNL     1       1.701 -28.443   0.201  1.00  0.00    -0.000 C 
BRANCH   4   5
ATOM      5  C   UNL     1       2.139 -27.285  -0.710  1.00  0.00    -0.000 C 
BRANCH   5   6
ATOM      6  C   UNL     1       0.943 -26.481  -1.248  1.00  0.00    -0.000 C 
BRANCH   6   7
ATOM      7  C   UNL     1      -0.155 -26.265  -0.192  1.00  0.00    -0.000 C 
BRANCH   7   8
ATOM      8  C   UNL     1      -1.505 -25.766  -0.747  1.00  0.00    -0.000 C 
BRANCH   8   9
ATOM      9  C   UNL     1      -1.603 -24.246  -0.961  1.00  0.00    -0.000 C 
BRANCH   9  10
ATOM     10  C   UNL     1      -2.208 -23.509   0.243  1.00  0.00    -0.000 C 
BRANCH  10  11
ATOM     11  C   UNL     1      -3.644 -23.978   0.506  1.00  0.00    -0.003 C 
ATOM     12  C   UNL     1      -4.335 -23.088   1.535  1.00  0.00     0.004 C 
ENDBRANCH  10  11
ENDBRANCH   9  10
ENDBRANCH   8   9
ENDBRANCH   7   8
ENDBRANCH   6   7
ENDBRANCH   5   6
ENDBRANCH   4   5
ENDBRANCH   3   4
ENDBRANCH   2   3
ENDBRANCH   1   2
BRANCH   1  13
ATOM     13  C   UNL     1       3.013 -29.969   3.908  1.00  0.00     0.000 C 
BRANCH  13  14
ATOM     14  C   UNL     1       3.302 -29.551   5.366  1.00  0.00     0.000 C 
BRANCH  14  15
ATOM     15  C   UNL     1       3.144 -30.718   6.358  1.00  0.00     0.000 C 
BRANCH  15  16
ATOM     16  C   UNL     1       2.865 -32.056   5.655  1.00  0.00     0.000 C 
BRANCH  16  17
ATOM     17  C   UNL     1       4.016 -33.063   5.825  1.00  0.00     0.000 C 
BRANCH  17  18
ATOM     18  C   UNL     1       5.226 -32.742   4.931  1.00  0.00     0.000 C 
BRANCH  18  19
ATOM     19  C   UNL     1       6.574 -32.635   5.671  1.00  0.00     0.000 C 
BRANCH  19  20
ATOM     20  C   UNL     1       6.812 -31.303   6.405  1.00  0.00     0.006 C 
BRANCH  20  21
ATOM     21  C   UNL     1       7.054 -30.129   5.448  1.00  0.00     0.053 C 
BRANCH  21  22
ATOM     22  C   UNL     1       8.433 -29.580   5.637  1.00  0.00     0.041 C 
ATOM     23  O   UNL     1       9.158 -29.999   6.579  1.00  0.00    -0.550 OA
ATOM     24  O   UNL     1       8.940 -28.650   4.740  1.00  0.00    -0.550 OA
ENDBRANCH  21  22
ENDBRANCH  20  21
ENDBRANCH  19  20
ENDBRANCH  18  19
ENDBRANCH  17  18
ENDBRANCH  16  17
ENDBRANCH  15  16
ENDBRANCH  14  15
ENDBRANCH  13  14
ENDBRANCH   1  13
TORSDOF 20
ENDMDL
MODEL 5
REMARK VINA RESULT:    -5.477      3.603     10.188
REMARK INTER + INTRA:         -13.737
REMARK INTER:                 -11.927
REMARK INTRA:                  -1.810
REMARK UNBOUND:                -1.856
REMARK SMILES CCCCCCCCCCCCCCCCCCCCCC(=O)[O-]
REMARK SMILES IDX 12 1 11 2 10 3 9 4 8 5 7 6 6 7 5 8 4 9 3 10 2 11 1 12 13 13
REMARK SMILES IDX 14 14 15 15 16 16 17 17 18 18 19 19 20 20 21 21 22 22 23 23
REMARK SMILES IDX 24 24
REMARK H PARENT
REMARK Flexibility Score: inf
ROOT
ATOM      1  C   UNL     1       1.721 -26.645  -1.091  1.00  0.00     0.000 C 
ENDROOT
BRANCH   1   2
ATOM      2  C   UNL     1       2.795 -27.723  -1.332  1.00  0.00     0.000 C 
BRANCH   2   3
ATOM      3  C   UNL     1       2.933 -28.762  -0.204  1.00  0.00     0.000 C 
BRANCH   3   4
ATOM      4  C   UNL     1       4.379 -28.905   0.303  1.00  0.00    -0.000 C 
BRANCH   4   5
ATOM      5  C   UNL     1       4.445 -29.503   1.718  1.00  0.00    -0.000 C 
BRANCH   5   6
ATOM      6  C   UNL     1       3.237 -29.096   2.580  1.00  0.00    -0.000 C 
BRANCH   6   7
ATOM      7  C   UNL     1       3.462 -29.350   4.081  1.00  0.00    -0.000 C 
BRANCH   7   8
ATOM      8  C   UNL     1       3.582 -30.835   4.480  1.00  0.00    -0.000 C 
BRANCH   8   9
ATOM      9  C   UNL     1       4.838 -31.195   5.293  1.00  0.00    -0.000 C 
BRANCH   9  10
ATOM     10  C   UNL     1       6.084 -30.415   4.846  1.00  0.00    -0.000 C 
BRANCH  10  11
ATOM     11  C   UNL     1       7.106 -30.317   5.985  1.00  0.00    -0.003 C 
ATOM     12  C   UNL     1       8.292 -29.444   5.588  1.00  0.00     0.004 C 
ENDBRANCH  10  11
ENDBRANCH   9  10
ENDBRANCH   8   9
ENDBRANCH   7   8
ENDBRANCH   6   7
ENDBRANCH   5   6
ENDBRANCH   4   5
ENDBRANCH   3   4
ENDBRANCH   2   3
ENDBRANCH   1   2
BRANCH   1  13
ATOM     13  C   UNL     1       0.744 -26.937   0.065  1.00  0.00     0.000 C 
BRANCH  13  14
ATOM     14  C   UNL     1      -0.667 -26.345  -0.144  1.00  0.00     0.000 C 
BRANCH  14  15
ATOM     15  C   UNL     1      -0.811 -25.624  -1.497  1.00  0.00     0.000 C 
BRANCH  15  16
ATOM     16  C   UNL     1      -1.658 -24.345  -1.395  1.00  0.00     0.000 C 
BRANCH  16  17
ATOM     17  C   UNL     1      -1.478 -23.624  -0.048  1.00  0.00     0.000 C 
BRANCH  17  18
ATOM     18  C   UNL     1      -2.816 -23.312   0.645  1.00  0.00     0.000 C 
BRANCH  18  19
ATOM     19  C   UNL     1      -3.975 -24.260   0.281  1.00  0.00     0.000 C 
BRANCH  19  20
ATOM     20  C   UNL     1      -4.076 -25.530   1.144  1.00  0.00     0.006 C 
BRANCH  20  21
ATOM     21  C   UNL     1      -4.377 -26.789   0.322  1.00  0.00     0.053 C 
BRANCH  21  22
ATOM     22  C   UNL     1      -5.201 -26.442  -0.878  1.00  0.00     0.041 C 
ATOM     23  O   UNL     1      -4.689 -26.475  -2.029  1.00  0.00    -0.550 OA
ATOM     24  O   UNL     1      -6.548 -26.139  -0.732  1.00  0.00    -0.550 OA
ENDBRANCH  21  22
ENDBRANCH  20  21
ENDBRANCH  19  20
ENDBRANCH  18  19
ENDBRANCH  17  18
ENDBRANCH  16  17
ENDBRANCH  15  16
ENDBRANCH  14  15
ENDBRANCH  13  14
ENDBRANCH   1  13
TORSDOF 20
ENDMDL
MODEL 6
REMARK VINA RESULT:    -5.467      1.815      5.301
REMARK INTER + INTRA:         -13.716
REMARK INTER:                 -12.094
REMARK INTRA:                  -1.621
REMARK UNBOUND:                -1.856
REMARK SMILES CCCCCCCCCCCCCCCCCCCCCC(=O)[O-]
REMARK SMILES IDX 12 1 11 2 10 3 9 4 8 5 7 6 6 7 5 8 4 9 3 10 2 11 1 12 13 13
REMARK SMILES IDX 14 14 15 15 16 16 17 17 18 18 19 19 20 20 21 21 22 22 23 23
REMARK SMILES IDX 24 24
REMARK H PARENT
REMARK Flexibility Score: inf
ROOT
ATOM      1  C   UNL     1       3.751 -29.452   2.901  1.00  0.00     0.000 C 
ENDROOT
BRANCH   1   2
ATOM      2  C   UNL     1       2.692 -28.667   2.102  1.00  0.00     0.000 C 
BRANCH   2   3
ATOM      3  C   UNL     1       2.954 -28.587   0.586  1.00  0.00     0.000 C 
BRANCH   3   4
ATOM      4  C   UNL     1       1.702 -28.194  -0.216  1.00  0.00    -0.000 C 
BRANCH   4   5
ATOM      5  C   UNL     1       1.187 -26.793   0.153  1.00  0.00    -0.000 C 
BRANCH   5   6
ATOM      6  C   UNL     1       0.034 -26.337  -0.757  1.00  0.00    -0.000 C 
BRANCH   6   7
ATOM      7  C   UNL     1      -1.328 -26.337  -0.040  1.00  0.00    -0.000 C 
BRANCH   7   8
ATOM      8  C   UNL     1      -2.118 -25.016  -0.140  1.00  0.00    -0.000 C 
BRANCH   8   9
ATOM      9  C   UNL     1      -3.386 -25.075  -1.009  1.00  0.00    -0.000 C 
BRANCH   9  10
ATOM     10  C   UNL     1      -4.660 -24.701  -0.236  1.00  0.00    -0.000 C 
BRANCH  10  11
ATOM     11  C   UNL     1      -4.368 -24.560   1.262  1.00  0.00    -0.003 C 
ATOM     12  C   UNL     1      -4.771 -23.180   1.775  1.00  0.00     0.004 C 
ENDBRANCH  10  11
ENDBRANCH   9  10
ENDBRANCH   8   9
ENDBRANCH   7   8
ENDBRANCH   6   7
ENDBRANCH   5   6
ENDBRANCH   4   5
ENDBRANCH   3   4
ENDBRANCH   2   3
ENDBRANCH   1   2
BRANCH   1  13
ATOM     13  C   UNL     1       5.072 -29.721   2.154  1.00  0.00     0.000 C 
BRANCH  13  14
ATOM     14  C   UNL     1       5.936 -30.830   2.793  1.00  0.00     0.000 C 
BRANCH  14  15
ATOM     15  C   UNL     1       6.617 -30.373   4.096  1.00  0.00     0.000 C 
BRANCH  15  16
ATOM     16  C   UNL     1       7.403 -31.504   4.778  1.00  0.00     0.000 C 
BRANCH  16  17
ATOM     17  C   UNL     1       6.648 -32.110   5.974  1.00  0.00     0.000 C 
BRANCH  17  18
ATOM     18  C   UNL     1       5.849 -33.369   5.599  1.00  0.00     0.000 C 
BRANCH  18  19
ATOM     19  C   UNL     1       4.316 -33.206   5.642  1.00  0.00     0.000 C 
BRANCH  19  20
ATOM     20  C   UNL     1       3.820 -31.807   6.051  1.00  0.00     0.006 C 
BRANCH  20  21
ATOM     21  C   UNL     1       2.362 -31.549   5.650  1.00  0.00     0.053 C 
BRANCH  21  22
ATOM     22  C   UNL     1       1.905 -30.225   6.176  1.00  0.00     0.041 C 
ATOM     23  O   UNL     1       2.730 -29.284   6.324  1.00  0.00    -0.550 OA
ATOM     24  O   UNL     1       0.560 -30.011   6.446  1.00  0.00    -0.550 OA
ENDBRANCH  21  22
ENDBRANCH  20  21
ENDBRANCH  19  20
ENDBRANCH  18  19
ENDBRANCH  17  18
ENDBRANCH  16  17
ENDBRANCH  15  16
ENDBRANCH  14  15
ENDBRANCH  13  14
ENDBRANCH   1  13
TORSDOF 20
ENDMDL
MODEL 7
REMARK VINA RESULT:    -5.466      3.020     10.185
REMARK INTER + INTRA:         -13.714
REMARK INTER:                 -11.903
REMARK INTRA:                  -1.811
REMARK UNBOUND:                -1.856
REMARK SMILES CCCCCCCCCCCCCCCCCCCCCC(=O)[O-]
REMARK SMILES IDX 12 1 11 2 10 3 9 4 8 5 7 6 6 7 5 8 4 9 3 10 2 11 1 12 13 13
REMARK SMILES IDX 14 14 15 15 16 16 17 17 18 18 19 19 20 20 21 21 22 22 23 23
REMARK SMILES IDX 24 24
REMARK H PARENT
REMARK Flexibility Score: inf
ROOT
ATOM      1  C   UNL     1       3.060 -28.359  -0.072  1.00  0.00     0.000 C 
ENDROOT
BRANCH   1   2
ATOM      2  C   UNL     1       3.033 -28.851   1.388  1.00  0.00     0.000 C 
BRANCH   2   3
ATOM      3  C   UNL     1       4.304 -29.591   1.845  1.00  0.00     0.000 C 
BRANCH   3   4
ATOM      4  C   UNL     1       4.466 -29.610   3.375  1.00  0.00    -0.000 C 
BRANCH   4   5
ATOM      5  C   UNL     1       5.785 -30.268   3.814  1.00  0.00    -0.000 C 
BRANCH   5   6
ATOM      6  C   UNL     1       5.857 -30.469   5.337  1.00  0.00    -0.000 C 
BRANCH   6   7
ATOM      7  C   UNL     1       5.771 -31.949   5.749  1.00  0.00    -0.000 C 
BRANCH   7   8
ATOM      8  C   UNL     1       4.414 -32.626   5.467  1.00  0.00    -0.000 C 
BRANCH   8   9
ATOM      9  C   UNL     1       3.252 -32.161   6.363  1.00  0.00    -0.000 C 
BRANCH   9  10
ATOM     10  C   UNL     1       2.083 -31.566   5.564  1.00  0.00    -0.000 C 
BRANCH  10  11
ATOM     11  C   UNL     1       1.458 -30.381   6.310  1.00  0.00    -0.003 C 
ATOM     12  C   UNL     1       2.482 -29.273   6.540  1.00  0.00     0.004 C 
ENDBRANCH  10  11
ENDBRANCH   9  10
ENDBRANCH   8   9
ENDBRANCH   7   8
ENDBRANCH   6   7
ENDBRANCH   5   6
ENDBRANCH   4   5
ENDBRANCH   3   4
ENDBRANCH   2   3
ENDBRANCH   1   2
BRANCH   1  13
ATOM     13  C   UNL     1       1.901 -27.425  -0.473  1.00  0.00     0.000 C 
BRANCH  13  14
ATOM     14  C   UNL     1       0.781 -27.330   0.586  1.00  0.00     0.000 C 
BRANCH  14  15
ATOM     15  C   UNL     1      -0.573 -26.920  -0.021  1.00  0.00     0.000 C 
BRANCH  15  16
ATOM     16  C   UNL     1      -0.638 -25.422  -0.358  1.00  0.00     0.000 C 
BRANCH  16  17
ATOM     17  C   UNL     1      -1.595 -25.120  -1.524  1.00  0.00     0.000 C 
BRANCH  17  18
ATOM     18  C   UNL     1      -2.729 -24.158  -1.132  1.00  0.00     0.000 C 
BRANCH  18  19
ATOM     19  C   UNL     1      -3.146 -24.212   0.352  1.00  0.00     0.000 C 
BRANCH  19  20
ATOM     20  C   UNL     1      -4.458 -24.966   0.634  1.00  0.00     0.006 C 
BRANCH  20  21
ATOM     21  C   UNL     1      -5.088 -25.564  -0.630  1.00  0.00     0.053 C 
BRANCH  21  22
ATOM     22  C   UNL     1      -4.880 -27.046  -0.664  1.00  0.00     0.041 C 
ATOM     23  O   UNL     1      -5.466 -27.747  -1.530  1.00  0.00    -0.550 OA
ATOM     24  O   UNL     1      -3.994 -27.644   0.223  1.00  0.00    -0.550 OA
ENDBRANCH  21  22
ENDBRANCH  20  21
ENDBRANCH  19  20
ENDBRANCH  18  19
ENDBRANCH  17  18
ENDBRANCH  16  17
ENDBRANCH  15  16
ENDBRANCH  14  15
ENDBRANCH  13  14
ENDBRANCH   1  13
TORSDOF 20
ENDMDL
MODEL 8
REMARK VINA RESULT:    -5.355      3.449     10.609
REMARK INTER + INTRA:         -13.473
REMARK INTER:                 -11.452
REMARK INTRA:                  -2.022
REMARK UNBOUND:                -1.856
REMARK SMILES CCCCCCCCCCCCCCCCCCCCCC(=O)[O-]
REMARK SMILES IDX 12 1 11 2 10 3 9 4 8 5 7 6 6 7 5 8 4 9 3 10 2 11 1 12 13 13
REMARK SMILES IDX 14 14 15 15 16 16 17 17 18 18 19 19 20 20 21 21 22 22 23 23
REMARK SMILES IDX 24 24
REMARK H PARENT
REMARK Flexibility Score: inf
ROOT
ATOM      1  C   UNL     1       3.211 -30.109   2.670  1.00  0.00     0.000 C 
ENDROOT
BRANCH   1   2
ATOM      2  C   UNL     1       3.871 -29.627   3.976  1.00  0.00     0.000 C 
BRANCH   2   3
ATOM      3  C   UNL     1       2.953 -29.647   5.211  1.00  0.00     0.000 C 
BRANCH   3   4
ATOM      4  C   UNL     1       2.429 -31.055   5.544  1.00  0.00    -0.000 C 
BRANCH   4   5
ATOM      5  C   UNL     1       3.458 -31.891   6.321  1.00  0.00    -0.000 C 
BRANCH   5   6
ATOM      6  C   UNL     1       3.925 -33.125   5.529  1.00  0.00    -0.000 C 
BRANCH   6   7
ATOM      7  C   UNL     1       5.287 -32.916   4.846  1.00  0.00    -0.000 C 
BRANCH   7   8
ATOM      8  C   UNL     1       6.321 -32.132   5.679  1.00  0.00    -0.000 C 
BRANCH   8   9
ATOM      9  C   UNL     1       7.231 -31.188   4.874  1.00  0.00    -0.000 C 
BRANCH   9  10
ATOM     10  C   UNL     1       6.922 -31.198   3.369  1.00  0.00    -0.000 C 
BRANCH  10  11
ATOM     11  C   UNL     1       7.414 -29.909   2.701  1.00  0.00    -0.003 C 
ATOM     12  C   UNL     1       6.684 -29.657   1.384  1.00  0.00     0.004 C 
ENDBRANCH  10  11
ENDBRANCH   9  10
ENDBRANCH   8   9
ENDBRANCH   7   8
ENDBRANCH   6   7
ENDBRANCH   5   6
ENDBRANCH   4   5
ENDBRANCH   3   4
ENDBRANCH   2   3
ENDBRANCH   1   2
BRANCH   1  13
ATOM     13  C   UNL     1       2.426 -29.033   1.894  1.00  0.00     0.000 C 
BRANCH  13  14
ATOM     14  C   UNL     1       3.176 -28.479   0.663  1.00  0.00     0.000 C 
BRANCH  14  15
ATOM     15  C   UNL     1       2.226 -28.113  -0.493  1.00  0.00     0.000 C 
BRANCH  15  16
ATOM     16  C   UNL     1       0.876 -27.574   0.003  1.00  0.00     0.000 C 
BRANCH  16  17
ATOM     17  C   UNL     1       0.470 -26.266  -0.698  1.00  0.00     0.000 C 
BRANCH  17  18
ATOM     18  C   UNL     1      -0.976 -25.844  -0.382  1.00  0.00     0.000 C 
BRANCH  18  19
ATOM     19  C   UNL     1      -1.635 -24.934  -1.439  1.00  0.00     0.000 C 
BRANCH  19  20
ATOM     20  C   UNL     1      -3.022 -24.387  -1.056  1.00  0.00     0.006 C 
BRANCH  20  21
ATOM     21  C   UNL     1      -3.088 -23.888   0.393  1.00  0.00     0.053 C 
BRANCH  21  22
ATOM     22  C   UNL     1      -4.448 -24.140   0.967  1.00  0.00     0.041 C 
ATOM     23  O   UNL     1      -5.251 -24.912   0.378  1.00  0.00    -0.550 OA
ATOM     24  O   UNL     1      -4.806 -23.570   2.181  1.00  0.00    -0.550 OA
ENDBRANCH  21  22
ENDBRANCH  20  21
ENDBRANCH  19  20
ENDBRANCH  18  19
ENDBRANCH  17  18
ENDBRANCH  16  17
ENDBRANCH  15  16
ENDBRANCH  14  15
ENDBRANCH  13  14
ENDBRANCH   1  13
TORSDOF 20
ENDMDL
MODEL 9
REMARK VINA RESULT:    -5.354      3.239      6.587
REMARK INTER + INTRA:         -13.469
REMARK INTER:                 -11.262
REMARK INTRA:                  -2.208
REMARK UNBOUND:                -1.856
REMARK SMILES CCCCCCCCCCCCCCCCCCCCCC(=O)[O-]
REMARK SMILES IDX 12 1 11 2 10 3 9 4 8 5 7 6 6 7 5 8 4 9 3 10 2 11 1 12 13 13
REMARK SMILES IDX 14 14 15 15 16 16 17 17 18 18 19 19 20 20 21 21 22 22 23 23
REMARK SMILES IDX 24 24
REMARK H PARENT
REMARK Flexibility Score: inf
ROOT
ATOM      1  C   UNL     1       3.507 -29.270   4.089  1.00  0.00     0.000 C 
ENDROOT
BRANCH   1   2
ATOM      2  C   UNL     1       3.145 -30.002   2.782  1.00  0.00     0.000 C 
BRANCH   2   3
ATOM      3  C   UNL     1       3.528 -29.252   1.493  1.00  0.00     0.000 C 
BRANCH   3   4
ATOM      4  C   UNL     1       2.381 -28.386   0.943  1.00  0.00    -0.000 C 
BRANCH   4   5
ATOM      5  C   UNL     1       2.522 -28.119  -0.565  1.00  0.00    -0.000 C 
BRANCH   5   6
ATOM      6  C   UNL     1       1.703 -26.899  -1.020  1.00  0.00    -0.000 C 
BRANCH   6   7
ATOM      7  C   UNL     1       0.746 -26.382   0.068  1.00  0.00    -0.000 C 
BRANCH   7   8
ATOM      8  C   UNL     1      -0.722 -26.222  -0.377  1.00  0.00    -0.000 C 
BRANCH   8   9
ATOM      9  C   UNL     1      -0.941 -25.302  -1.591  1.00  0.00    -0.000 C 
BRANCH   9  10
ATOM     10  C   UNL     1      -2.169 -24.391  -1.438  1.00  0.00    -0.000 C 
BRANCH  10  11
ATOM     11  C   UNL     1      -2.238 -23.801  -0.024  1.00  0.00    -0.003 C 
ATOM     12  C   UNL     1      -3.594 -24.074   0.621  1.00  0.00     0.004 C 
ENDBRANCH  10  11
ENDBRANCH   9  10
ENDBRANCH   8   9
ENDBRANCH   7   8
ENDBRANCH   6   7
ENDBRANCH   5   6
ENDBRANCH   4   5
ENDBRANCH   3   4
ENDBRANCH   2   3
ENDBRANCH   1   2
BRANCH   1  13
ATOM     13  C   UNL     1       2.787 -29.785   5.351  1.00  0.00     0.000 C 
BRANCH  13  14
ATOM     14  C   UNL     1       2.431 -31.287   5.299  1.00  0.00     0.000 C 
BRANCH  14  15
ATOM     15  C   UNL     1       3.453 -32.163   6.047  1.00  0.00     0.000 C 
BRANCH  15  16
ATOM     16  C   UNL     1       4.280 -33.044   5.098  1.00  0.00     0.000 C 
BRANCH  16  17
ATOM     17  C   UNL     1       5.791 -32.779   5.215  1.00  0.00     0.000 C 
BRANCH  17  18
ATOM     18  C   UNL     1       6.112 -31.468   5.953  1.00  0.00     0.000 C 
BRANCH  18  19
ATOM     19  C   UNL     1       6.736 -30.363   5.078  1.00  0.00     0.000 C 
BRANCH  19  20
ATOM     20  C   UNL     1       7.142 -30.804   3.660  1.00  0.00     0.006 C 
BRANCH  20  21
ATOM     21  C   UNL     1       7.117 -29.653   2.646  1.00  0.00     0.053 C 
BRANCH  21  22
ATOM     22  C   UNL     1       8.502 -29.136   2.413  1.00  0.00     0.041 C 
ATOM     23  O   UNL     1       8.682 -28.092   1.732  1.00  0.00    -0.550 OA
ATOM     24  O   UNL     1       9.589 -29.773   2.997  1.00  0.00    -0.550 OA
ENDBRANCH  21  22
ENDBRANCH  20  21
ENDBRANCH  19  20
ENDBRANCH  18  19
ENDBRANCH  17  18
ENDBRANCH  16  17
ENDBRANCH  15  16
ENDBRANCH  14  15
ENDBRANCH  13  14
ENDBRANCH   1  13
TORSDOF 20
ENDMDL
