MODEL 1
REMARK VINA RESULT:    -3.892      0.000      0.000
REMARK INTER + INTRA:          -7.223
REMARK INTER:                  -6.623
REMARK INTRA:                  -0.600
REMARK UNBOUND:                -0.600
REMARK SMILES CCCCCCCCCCCCCC(=O)[O-]
REMARK SMILES IDX 8 1 9 2 10 3 11 4 12 5 13 6 14 7 15 8 16 9 7 10 6 11 5 12
REMARK SMILES IDX 4 13 3 14 2 15 1 16
REMARK H PARENT
REMARK Flexibility Score: inf
ROOT
ATOM      1  C   UNL     1      -3.326  37.293  20.059  1.00  0.00     0.000 C 
ENDROOT
BRANCH   1   2
ATOM      2  C   UNL     1      -2.536  37.536  18.763  1.00  0.00     0.000 C 
BRANCH   2   3
ATOM      3  C   UNL     1      -3.172  36.788  17.585  1.00  0.00     0.000 C 
BRANCH   3   4
ATOM      4  C   UNL     1      -2.177  36.643  16.424  1.00  0.00     0.000 C 
BRANCH   4   5
ATOM      5  C   UNL     1      -2.760  35.858  15.238  1.00  0.00     0.006 C 
BRANCH   5   6
ATOM      6  C   UNL     1      -2.983  36.736  14.000  1.00  0.00     0.053 C 
BRANCH   6   7
ATOM      7  C   UNL     1      -4.252  37.516  14.136  1.00  0.00     0.041 C 
ATOM      8  O   UNL     1      -5.360  36.976  13.876  1.00  0.00    -0.550 OA
ATOM      9  O   UNL     1      -4.217  38.827  14.596  1.00  0.00    -0.550 OA
ENDBRANCH   6   7
ENDBRANCH   5   6
ENDBRANCH   4   5
ENDBRANCH   3   4
ENDBRANCH   2   3
ENDBRANCH   1   2
BRANCH   1  10
ATOM     10  C   UNL     1      -4.818  37.029  19.803  1.00  0.00     0.000 C 
BRANCH  10  11
ATOM     11  C   UNL     1      -5.283  35.676  20.369  1.00  0.00    -0.000 C 
BRANCH  11  12
ATOM     12  C   UNL     1      -5.891  35.793  21.779  1.00  0.00    -0.000 C 
BRANCH  12  13
ATOM     13  C   UNL     1      -5.481  34.680  22.760  1.00  0.00    -0.000 C 
BRANCH  13  14
ATOM     14  C   UNL     1      -5.925  34.962  24.206  1.00  0.00    -0.000 C 
BRANCH  14  15
ATOM     15  C   UNL     1      -6.055  36.464  24.500  1.00  0.00    -0.003 C 
ATOM     16  C   UNL     1      -5.454  36.853  25.850  1.00  0.00     0.004 C 
ENDBRANCH  14  15
ENDBRANCH  13  14
ENDBRANCH  12  13
ENDBRANCH  11  12
ENDBRANCH  10  11
ENDBRANCH   1  10
TORSDOF 12
ENDMDL
MODEL 2
REMARK VINA RESULT:    -3.766      4.068      8.208
REMARK INTER + INTRA:          -7.008
REMARK INTER:                  -6.455
REMARK INTRA:                  -0.554
REMARK UNBOUND:                -0.600
REMARK SMILES CCCCCCCCCCCCCC(=O)[O-]
REMARK SMILES IDX 8 1 9 2 10 3 11 4 12 5 13 6 14 7 15 8 16 9 7 10 6 11 5 12
REMARK SMILES IDX 4 13 3 14 2 15 1 16
REMARK H PARENT
REMARK Flexibility Score: inf
ROOT
ATOM      1  C   UNL     1      -2.996  37.394  19.659  1.00  0.00     0.000 C 
ENDROOT
BRANCH   1   2
ATOM      2  C   UNL     1      -4.499  37.631  19.437  1.00  0.00     0.000 C 
BRANCH   2   3
ATOM      3  C   UNL     1      -5.310  37.189  20.661  1.00  0.00     0.000 C 
BRANCH   3   4
ATOM      4  C   UNL     1      -5.096  35.696  20.953  1.00  0.00     0.000 C 
BRANCH   4   5
ATOM      5  C   UNL     1      -5.957  35.191  22.121  1.00  0.00     0.006 C 
BRANCH   5   6
ATOM      6  C   UNL     1      -6.119  36.238  23.232  1.00  0.00     0.053 C 
BRANCH   6   7
ATOM      7  C   UNL     1      -5.953  35.602  24.576  1.00  0.00     0.041 C 
ATOM      8  O   UNL     1      -5.947  34.348  24.688  1.00  0.00    -0.550 OA
ATOM      9  O   UNL     1      -5.757  36.394  25.700  1.00  0.00    -0.550 OA
ENDBRANCH   6   7
ENDBRANCH   5   6
ENDBRANCH   4   5
ENDBRANCH   3   4
ENDBRANCH   2   3
ENDBRANCH   1   2
BRANCH   1  10
ATOM     10  C   UNL     1      -2.221  37.225  18.343  1.00  0.00     0.000 C 
BRANCH  10  11
ATOM     11  C   UNL     1      -3.150  37.100  17.123  1.00  0.00    -0.000 C 
BRANCH  11  12
ATOM     12  C   UNL     1      -3.030  35.737  16.415  1.00  0.00    -0.000 C 
BRANCH  12  13
ATOM     13  C   UNL     1      -2.224  35.754  15.103  1.00  0.00    -0.000 C 
BRANCH  13  14
ATOM     14  C   UNL     1      -2.577  36.947  14.198  1.00  0.00    -0.000 C 
BRANCH  14  15
ATOM     15  C   UNL     1      -4.091  37.095  13.982  1.00  0.00    -0.003 C 
ATOM     16  C   UNL     1      -4.568  38.540  14.128  1.00  0.00     0.004 C 
ENDBRANCH  14  15
ENDBRANCH  13  14
ENDBRANCH  12  13
ENDBRANCH  11  12
ENDBRANCH  10  11
ENDBRANCH   1  10
TORSDOF 12
ENDMDL
MODEL 3
REMARK VINA RESULT:    -3.657      3.883      7.981
REMARK INTER + INTRA:          -6.822
REMARK INTER:                  -6.670
REMARK INTRA:                  -0.152
REMARK UNBOUND:                -0.600
REMARK SMILES CCCCCCCCCCCCCC(=O)[O-]
REMARK SMILES IDX 8 1 9 2 10 3 11 4 12 5 13 6 14 7 15 8 16 9 7 10 6 11 5 12
REMARK SMILES IDX 4 13 3 14 2 15 1 16
REMARK H PARENT
REMARK Flexibility Score: inf
ROOT
ATOM      1  C   UNL     1      -4.246  37.598  19.400  1.00  0.00     0.000 C 
ENDROOT
BRANCH   1   2
ATOM      2  C   UNL     1      -5.391  37.064  20.275  1.00  0.00     0.000 C 
BRANCH   2   3
ATOM      3  C   UNL     1      -5.626  35.571  20.019  1.00  0.00     0.000 C 
BRANCH   3   4
ATOM      4  C   UNL     1      -6.123  34.866  21.291  1.00  0.00     0.000 C 
BRANCH   4   5
ATOM      5  C   UNL     1      -5.166  35.045  22.480  1.00  0.00     0.006 C 
BRANCH   5   6
ATOM      6  C   UNL     1      -5.854  34.815  23.832  1.00  0.00     0.053 C 
BRANCH   6   7
ATOM      7  C   UNL     1      -5.968  36.102  24.586  1.00  0.00     0.041 C 
ATOM      8  O   UNL     1      -5.976  37.199  23.968  1.00  0.00    -0.550 OA
ATOM      9  O   UNL     1      -6.115  36.089  25.967  1.00  0.00    -0.550 OA
ENDBRANCH   6   7
ENDBRANCH   5   6
ENDBRANCH   4   5
ENDBRANCH   3   4
ENDBRANCH   2   3
ENDBRANCH   1   2
BRANCH   1  10
ATOM     10  C   UNL     1      -2.864  37.119  19.874  1.00  0.00     0.000 C 
BRANCH  10  11
ATOM     11  C   UNL     1      -1.722  37.645  18.988  1.00  0.00    -0.000 C 
BRANCH  11  12
ATOM     12  C   UNL     1      -1.694  36.991  17.594  1.00  0.00    -0.000 C 
BRANCH  12  13
ATOM     13  C   UNL     1      -3.074  36.776  16.947  1.00  0.00    -0.000 C 
BRANCH  13  14
ATOM     14  C   UNL     1      -3.034  35.798  15.760  1.00  0.00    -0.000 C 
BRANCH  14  15
ATOM     15  C   UNL     1      -3.113  36.516  14.404  1.00  0.00    -0.003 C 
ATOM     16  C   UNL     1      -4.054  37.719  14.429  1.00  0.00     0.004 C 
ENDBRANCH  14  15
ENDBRANCH  13  14
ENDBRANCH  12  13
ENDBRANCH  11  12
ENDBRANCH  10  11
ENDBRANCH   1  10
TORSDOF 12
ENDMDL
MODEL 4
REMARK VINA RESULT:    -3.002      4.019      7.668
REMARK INTER + INTRA:          -5.708
REMARK INTER:                  -5.931
REMARK INTRA:                   0.222
REMARK UNBOUND:                -0.600
REMARK SMILES CCCCCCCCCCCCCC(=O)[O-]
REMARK SMILES IDX 8 1 9 2 10 3 11 4 12 5 13 6 14 7 15 8 16 9 7 10 6 11 5 12
REMARK SMILES IDX 4 13 3 14 2 15 1 16
REMARK H PARENT
REMARK Flexibility Score: inf
ROOT
ATOM      1  C   UNL     1      -3.175  37.144  19.821  1.00  0.00     0.000 C 
ENDROOT
BRANCH   1   2
ATOM      2  C   UNL     1      -3.937  35.959  20.436  1.00  0.00     0.000 C 
BRANCH   2   3
ATOM      3  C   UNL     1      -5.445  36.234  20.468  1.00  0.00     0.000 C 
BRANCH   3   4
ATOM      4  C   UNL     1      -5.743  37.705  20.142  1.00  0.00     0.000 C 
BRANCH   4   5
ATOM      5  C   UNL     1      -5.160  38.672  21.185  1.00  0.00     0.006 C 
BRANCH   5   6
ATOM      6  C   UNL     1      -6.109  39.834  21.509  1.00  0.00     0.053 C 
BRANCH   6   7
ATOM      7  C   UNL     1      -5.782  40.417  22.847  1.00  0.00     0.041 C 
ATOM      8  O   UNL     1      -6.000  41.635  23.079  1.00  0.00    -0.550 OA
ATOM      9  O   UNL     1      -5.279  39.604  23.855  1.00  0.00    -0.550 OA
ENDBRANCH   6   7
ENDBRANCH   5   6
ENDBRANCH   4   5
ENDBRANCH   3   4
ENDBRANCH   2   3
ENDBRANCH   1   2
BRANCH   1  10
ATOM     10  C   UNL     1      -3.268  37.177  18.287  1.00  0.00     0.000 C 
BRANCH  10  11
ATOM     11  C   UNL     1      -1.886  37.218  17.613  1.00  0.00    -0.000 C 
BRANCH  11  12
ATOM     12  C   UNL     1      -1.739  36.185  16.481  1.00  0.00    -0.000 C 
BRANCH  12  13
ATOM     13  C   UNL     1      -3.048  35.828  15.751  1.00  0.00    -0.000 C 
BRANCH  13  14
ATOM     14  C   UNL     1      -3.039  36.244  14.269  1.00  0.00    -0.000 C 
BRANCH  14  15
ATOM     15  C   UNL     1      -4.293  37.041  13.875  1.00  0.00    -0.003 C 
ATOM     16  C   UNL     1      -4.311  38.445  14.479  1.00  0.00     0.004 C 
ENDBRANCH  14  15
ENDBRANCH  13  14
ENDBRANCH  12  13
ENDBRANCH  11  12
ENDBRANCH  10  11
ENDBRANCH   1  10
TORSDOF 12
ENDMDL
MODEL 5
REMARK VINA RESULT:    -2.852      1.839      3.481
REMARK INTER + INTRA:          -5.453
REMARK INTER:                  -4.450
REMARK INTRA:                  -1.003
REMARK UNBOUND:                -0.600
REMARK SMILES CCCCCCCCCCCCCC(=O)[O-]
REMARK SMILES IDX 8 1 9 2 10 3 11 4 12 5 13 6 14 7 15 8 16 9 7 10 6 11 5 12
REMARK SMILES IDX 4 13 3 14 2 15 1 16
REMARK H PARENT
REMARK Flexibility Score: inf
ROOT
ATOM      1  C   UNL     1      -4.557  34.902  21.419  1.00  0.00     0.000 C 
ENDROOT
BRANCH   1   2
ATOM      2  C   UNL     1      -5.669  35.785  20.831  1.00  0.00     0.000 C 
BRANCH   2   3
ATOM      3  C   UNL     1      -5.080  36.899  19.958  1.00  0.00     0.000 C 
BRANCH   3   4
ATOM      4  C   UNL     1      -3.928  36.368  19.092  1.00  0.00     0.000 C 
BRANCH   4   5
ATOM      5  C   UNL     1      -2.882  37.447  18.769  1.00  0.00     0.006 C 
BRANCH   5   6
ATOM      6  C   UNL     1      -2.012  37.084  17.558  1.00  0.00     0.053 C 
BRANCH   6   7
ATOM      7  C   UNL     1      -2.872  36.698  16.396  1.00  0.00     0.041 C 
ATOM      8  O   UNL     1      -3.511  37.577  15.760  1.00  0.00    -0.550 OA
ATOM      9  O   UNL     1      -2.931  35.372  15.985  1.00  0.00    -0.550 OA
ENDBRANCH   6   7
ENDBRANCH   5   6
ENDBRANCH   4   5
ENDBRANCH   3   4
ENDBRANCH   2   3
ENDBRANCH   1   2
BRANCH   1  10
ATOM     10  C   UNL     1      -4.877  34.412  22.840  1.00  0.00     0.000 C 
BRANCH  10  11
ATOM     11  C   UNL     1      -6.125  35.091  23.431  1.00  0.00    -0.000 C 
BRANCH  11  12
ATOM     12  C   UNL     1      -5.884  35.668  24.838  1.00  0.00    -0.000 C 
BRANCH  12  13
ATOM     13  C   UNL     1      -5.730  37.200  24.897  1.00  0.00    -0.000 C 
BRANCH  13  14
ATOM     14  C   UNL     1      -5.867  37.868  23.518  1.00  0.00    -0.000 C 
BRANCH  14  15
ATOM     15  C   UNL     1      -5.369  39.322  23.517  1.00  0.00    -0.003 C 
ATOM     16  C   UNL     1      -5.739  40.070  22.237  1.00  0.00     0.004 C 
ENDBRANCH  14  15
ENDBRANCH  13  14
ENDBRANCH  12  13
ENDBRANCH  11  12
ENDBRANCH  10  11
ENDBRANCH   1  10
TORSDOF 12
ENDMDL
MODEL 6
REMARK VINA RESULT:    -2.563      2.620      6.640
REMARK INTER + INTRA:          -4.960
REMARK INTER:                  -4.420
REMARK INTRA:                  -0.540
REMARK UNBOUND:                -0.600
REMARK SMILES CCCCCCCCCCCCCC(=O)[O-]
REMARK SMILES IDX 8 1 9 2 10 3 11 4 12 5 13 6 14 7 15 8 16 9 7 10 6 11 5 12
REMARK SMILES IDX 4 13 3 14 2 15 1 16
REMARK H PARENT
REMARK Flexibility Score: inf
ROOT
ATOM      1  C   UNL     1      -5.043  34.581  19.850  1.00  0.00     0.000 C 
ENDROOT
BRANCH   1   2
ATOM      2  C   UNL     1      -6.117  35.319  20.663  1.00  0.00     0.000 C 
BRANCH   2   3
ATOM      3  C   UNL     1      -5.526  36.550  21.362  1.00  0.00     0.000 C 
BRANCH   3   4
ATOM      4  C   UNL     1      -5.401  37.729  20.385  1.00  0.00     0.000 C 
BRANCH   4   5
ATOM      5  C   UNL     1      -4.163  37.620  19.481  1.00  0.00     0.006 C 
BRANCH   5   6
ATOM      6  C   UNL     1      -2.908  37.179  20.247  1.00  0.00     0.053 C 
BRANCH   6   7
ATOM      7  C   UNL     1      -1.680  37.455  19.438  1.00  0.00     0.041 C 
ATOM      8  O   UNL     1      -1.777  37.974  18.295  1.00  0.00    -0.550 OA
ATOM      9  O   UNL     1      -0.424  37.184  19.967  1.00  0.00    -0.550 OA
ENDBRANCH   6   7
ENDBRANCH   5   6
ENDBRANCH   4   5
ENDBRANCH   3   4
ENDBRANCH   2   3
ENDBRANCH   1   2
BRANCH   1  10
ATOM     10  C   UNL     1      -5.457  34.354  18.387  1.00  0.00     0.000 C 
BRANCH  10  11
ATOM     11  C   UNL     1      -4.249  34.263  17.439  1.00  0.00    -0.000 C 
BRANCH  11  12
ATOM     12  C   UNL     1      -3.773  35.641  16.940  1.00  0.00    -0.000 C 
BRANCH  12  13
ATOM     13  C   UNL     1      -2.489  35.618  16.091  1.00  0.00    -0.000 C 
BRANCH  13  14
ATOM     14  C   UNL     1      -2.531  36.608  14.914  1.00  0.00    -0.000 C 
BRANCH  14  15
ATOM     15  C   UNL     1      -3.946  36.780  14.340  1.00  0.00    -0.003 C 
ATOM     16  C   UNL     1      -4.356  38.247  14.217  1.00  0.00     0.004 C 
ENDBRANCH  14  15
ENDBRANCH  13  14
ENDBRANCH  12  13
ENDBRANCH  11  12
ENDBRANCH  10  11
ENDBRANCH   1  10
TORSDOF 12
ENDMDL
MODEL 7
REMARK VINA RESULT:    -2.478      1.581      2.165
REMARK INTER + INTRA:          -4.816
REMARK INTER:                  -4.145
REMARK INTRA:                  -0.671
REMARK UNBOUND:                -0.600
REMARK SMILES CCCCCCCCCCCCCC(=O)[O-]
REMARK SMILES IDX 8 1 9 2 10 3 11 4 12 5 13 6 14 7 15 8 16 9 7 10 6 11 5 12
REMARK SMILES IDX 4 13 3 14 2 15 1 16
REMARK H PARENT
REMARK Flexibility Score: inf
ROOT
ATOM      1  C   UNL     1      -4.237  36.010  20.130  1.00  0.00     0.000 C 
ENDROOT
BRANCH   1   2
ATOM      2  C   UNL     1      -5.213  35.177  19.283  1.00  0.00     0.000 C 
BRANCH   2   3
ATOM      3  C   UNL     1      -4.462  34.369  18.217  1.00  0.00     0.000 C 
BRANCH   3   4
ATOM      4  C   UNL     1      -4.282  35.190  16.931  1.00  0.00     0.000 C 
BRANCH   4   5
ATOM      5  C   UNL     1      -2.960  35.973  16.909  1.00  0.00     0.006 C 
BRANCH   5   6
ATOM      6  C   UNL     1      -3.090  37.332  16.207  1.00  0.00     0.053 C 
BRANCH   6   7
ATOM      7  C   UNL     1      -3.560  37.149  14.799  1.00  0.00     0.041 C 
ATOM      8  O   UNL     1      -3.122  36.196  14.103  1.00  0.00    -0.550 OA
ATOM      9  O   UNL     1      -4.518  38.004  14.269  1.00  0.00    -0.550 OA
ENDBRANCH   6   7
ENDBRANCH   5   6
ENDBRANCH   4   5
ENDBRANCH   3   4
ENDBRANCH   2   3
ENDBRANCH   1   2
BRANCH   1  10
ATOM     10  C   UNL     1      -4.453  37.523  19.967  1.00  0.00     0.000 C 
BRANCH  10  11
ATOM     11  C   UNL     1      -5.738  38.013  20.657  1.00  0.00    -0.000 C 
BRANCH  11  12
ATOM     12  C   UNL     1      -5.497  38.502  22.097  1.00  0.00    -0.000 C 
BRANCH  12  13
ATOM     13  C   UNL     1      -6.110  37.617  23.198  1.00  0.00    -0.000 C 
BRANCH  13  14
ATOM     14  C   UNL     1      -6.125  36.124  22.827  1.00  0.00    -0.000 C 
BRANCH  14  15
ATOM     15  C   UNL     1      -5.997  35.210  24.056  1.00  0.00    -0.003 C 
ATOM     16  C   UNL     1      -5.776  35.993  25.350  1.00  0.00     0.004 C 
ENDBRANCH  14  15
ENDBRANCH  13  14
ENDBRANCH  12  13
ENDBRANCH  11  12
ENDBRANCH  10  11
ENDBRANCH   1  10
TORSDOF 12
ENDMDL
