MODEL 1
REMARK VINA RESULT:    -7.966      0.000      0.000
REMARK INTER + INTRA:          -9.654
REMARK INTER:                  -9.363
REMARK INTRA:                  -0.291
REMARK UNBOUND:                -0.291
REMARK SMILES O=c1cc(-c2ccc(O)c(O)c2)oc2cc(O)cc(O)c12
REMARK SMILES IDX 4 1 3 2 2 3 1 4 21 5 19 6 18 7 16 8 15 9 14 10 13 11 5 12
REMARK SMILES IDX 6 13 7 14 8 15 12 16 10 17 9 18 11 20 20 22 17 24
REMARK H PARENT 9 19 11 21 20 23 17 25
REMARK Flexibility Score: inf
ROOT
ATOM      1  C   UNL     1       9.499 -12.851 -23.306  1.00  0.00     0.138 A 
ATOM      2  C   UNL     1       8.872 -13.539 -24.353  1.00  0.00     0.100 A 
ATOM      3  C   UNL     1       8.491 -12.848 -25.505  1.00  0.00     0.197 A 
ATOM      4  O   UNL     1       7.875 -13.481 -26.401  1.00  0.00    -0.289 OA
ATOM      5  C   UNL     1       8.769 -11.465 -25.618  1.00  0.00     0.107 A 
ATOM      6  C   UNL     1       8.464 -10.667 -26.761  1.00  0.00     0.134 A 
ATOM      7  C   UNL     1       8.680  -9.284 -26.713  1.00  0.00     0.093 A 
ATOM      8  C   UNL     1       9.245  -8.680 -25.587  1.00  0.00     0.123 A 
ATOM      9  C   UNL     1       9.597  -9.460 -24.488  1.00  0.00     0.094 A 
ATOM     10  C   UNL     1       9.362 -10.837 -24.490  1.00  0.00     0.146 A 
ATOM     11  O   UNL     1       9.698 -11.541 -23.415  1.00  0.00    -0.456 OA
ENDROOT
BRANCH   1  12
ATOM     12  C   UNL     1       9.924 -13.537 -22.060  1.00  0.00     0.021 A 
ATOM     13  C   UNL     1      10.144 -12.828 -20.863  1.00  0.00     0.016 A 
ATOM     14  C   UNL     1      10.534 -13.501 -19.703  1.00  0.00     0.051 A 
ATOM     15  C   UNL     1      10.703 -14.891 -19.713  1.00  0.00     0.157 A 
ATOM     16  C   UNL     1      10.083 -14.935 -22.058  1.00  0.00     0.062 A 
ATOM     17  C   UNL     1      10.474 -15.611 -20.897  1.00  0.00     0.158 A 
BRANCH  15  18
ATOM     18  O   UNL     1      11.094 -15.559 -18.553  1.00  0.00    -0.504 OA
ATOM     19  H   UNL     1      10.456 -16.164 -18.049  1.00  0.00     0.293 HD
ENDBRANCH  15  18
BRANCH  17  20
ATOM     20  O   UNL     1      10.630 -16.996 -20.939  1.00  0.00    -0.504 OA
ATOM     21  H   UNL     1      11.541 -17.434 -20.992  1.00  0.00     0.293 HD
ENDBRANCH  17  20
ENDBRANCH   1  12
BRANCH   6  22
ATOM     22  O   UNL     1       7.976 -11.181 -27.966  1.00  0.00    -0.507 OA
ATOM     23  H   UNL     1       7.693 -12.138 -28.111  1.00  0.00     0.293 HD
ENDBRANCH   6  22
BRANCH   8  24
ATOM     24  O   UNL     1       9.470  -7.306 -25.555  1.00  0.00    -0.508 OA
ATOM     25  H   UNL     1       9.480  -6.790 -24.683  1.00  0.00     0.293 HD
ENDBRANCH   8  24
TORSDOF 5
ENDMDL
MODEL 2
REMARK VINA RESULT:    -6.890      1.359      6.923
REMARK INTER + INTRA:          -8.389
REMARK INTER:                  -8.071
REMARK INTRA:                  -0.318
REMARK UNBOUND:                -0.291
REMARK SMILES O=c1cc(-c2ccc(O)c(O)c2)oc2cc(O)cc(O)c12
REMARK SMILES IDX 4 1 3 2 2 3 1 4 21 5 19 6 18 7 16 8 15 9 14 10 13 11 5 12
REMARK SMILES IDX 6 13 7 14 8 15 12 16 10 17 9 18 11 20 20 22 17 24
REMARK H PARENT 9 19 11 21 20 23 17 25
REMARK Flexibility Score: inf
ROOT
ATOM      1  C   UNL     1       8.988 -12.359 -24.631  1.00  0.00     0.138 A 
ATOM      2  C   UNL     1       8.660 -13.655 -25.051  1.00  0.00     0.100 A 
ATOM      3  C   UNL     1       8.815 -14.727 -24.170  1.00  0.00     0.197 A 
ATOM      4  O   UNL     1       8.572 -15.886 -24.596  1.00  0.00    -0.289 OA
ATOM      5  C   UNL     1       9.273 -14.492 -22.852  1.00  0.00     0.107 A 
ATOM      6  C   UNL     1       9.431 -15.502 -21.856  1.00  0.00     0.134 A 
ATOM      7  C   UNL     1      10.002 -15.168 -20.621  1.00  0.00     0.093 A 
ATOM      8  C   UNL     1      10.366 -13.852 -20.326  1.00  0.00     0.123 A 
ATOM      9  C   UNL     1      10.165 -12.850 -21.273  1.00  0.00     0.094 A 
ATOM     10  C   UNL     1       9.629 -13.156 -22.526  1.00  0.00     0.146 A 
ATOM     11  O   UNL     1       9.469 -12.173 -23.406  1.00  0.00    -0.456 OA
ENDROOT
BRANCH   1  12
ATOM     12  C   UNL     1       8.842 -11.184 -25.527  1.00  0.00     0.021 A 
ATOM     13  C   UNL     1       8.293 -11.302 -26.818  1.00  0.00     0.016 A 
ATOM     14  C   UNL     1       8.157 -10.177 -27.635  1.00  0.00     0.051 A 
ATOM     15  C   UNL     1       8.558  -8.916 -27.178  1.00  0.00     0.157 A 
ATOM     16  C   UNL     1       9.229  -9.911 -25.069  1.00  0.00     0.062 A 
ATOM     17  C   UNL     1       9.094  -8.783 -25.887  1.00  0.00     0.158 A 
BRANCH  15  18
ATOM     18  O   UNL     1       8.422  -7.796 -27.997  1.00  0.00    -0.504 OA
ATOM     19  H   UNL     1       7.618  -7.677 -28.604  1.00  0.00     0.293 HD
ENDBRANCH  15  18
BRANCH  17  20
ATOM     20  O   UNL     1       9.499  -7.541 -25.399  1.00  0.00    -0.504 OA
ATOM     21  H   UNL     1       9.510  -6.712 -25.980  1.00  0.00     0.293 HD
ENDBRANCH  17  20
ENDBRANCH   1  12
BRANCH   6  22
ATOM     22  O   UNL     1       9.023 -16.829 -22.016  1.00  0.00    -0.507 OA
ATOM     23  H   UNL     1       9.345 -17.447 -22.746  1.00  0.00     0.293 HD
ENDBRANCH   6  22
BRANCH   8  24
ATOM     24  O   UNL     1      10.920 -13.528 -19.090  1.00  0.00    -0.508 OA
ATOM     25  H   UNL     1      10.682 -12.667 -18.612  1.00  0.00     0.293 HD
ENDBRANCH   8  24
TORSDOF 5
ENDMDL
MODEL 3
REMARK VINA RESULT:    -6.801      3.927      6.878
REMARK INTER + INTRA:          -8.285
REMARK INTER:                  -7.982
REMARK INTRA:                  -0.303
REMARK UNBOUND:                -0.291
REMARK SMILES O=c1cc(-c2ccc(O)c(O)c2)oc2cc(O)cc(O)c12
REMARK SMILES IDX 4 1 3 2 2 3 1 4 21 5 19 6 18 7 16 8 15 9 14 10 13 11 5 12
REMARK SMILES IDX 6 13 7 14 8 15 12 16 10 17 9 18 11 20 20 22 17 24
REMARK H PARENT 9 19 11 21 20 23 17 25
REMARK Flexibility Score: inf
ROOT
ATOM      1  C   UNL     1      10.657 -16.277 -24.418  1.00  0.00     0.138 A 
ATOM      2  C   UNL     1      10.107 -15.031 -24.752  1.00  0.00     0.100 A 
ATOM      3  C   UNL     1       9.883 -14.084 -23.752  1.00  0.00     0.197 A 
ATOM      4  O   UNL     1       9.331 -13.000 -24.073  1.00  0.00    -0.289 OA
ATOM      5  C   UNL     1      10.242 -14.376 -22.415  1.00  0.00     0.107 A 
ATOM      6  C   UNL     1      10.097 -13.473 -21.319  1.00  0.00     0.134 A 
ATOM      7  C   UNL     1      10.378 -13.914 -20.020  1.00  0.00     0.093 A 
ATOM      8  C   UNL     1      10.854 -15.206 -19.784  1.00  0.00     0.123 A 
ATOM      9  C   UNL     1      11.050 -16.077 -20.853  1.00  0.00     0.094 A 
ATOM     10  C   UNL     1      10.746 -15.679 -22.157  1.00  0.00     0.146 A 
ATOM     11  O   UNL     1      10.933 -16.546 -23.146  1.00  0.00    -0.456 OA
ENDROOT
BRANCH   1  12
ATOM     12  C   UNL     1      10.916 -17.320 -25.442  1.00  0.00     0.021 A 
ATOM     13  C   UNL     1      11.334 -16.988 -26.745  1.00  0.00     0.016 A 
ATOM     14  C   UNL     1      11.582 -17.992 -27.685  1.00  0.00     0.051 A 
ATOM     15  C   UNL     1      11.423 -19.340 -27.342  1.00  0.00     0.157 A 
ATOM     16  C   UNL     1      10.772 -18.677 -25.100  1.00  0.00     0.062 A 
ATOM     17  C   UNL     1      11.019 -19.683 -26.042  1.00  0.00     0.158 A 
BRANCH  15  18
ATOM     18  O   UNL     1      11.669 -20.338 -28.284  1.00  0.00    -0.504 OA
ATOM     19  H   UNL     1      12.608 -20.670 -28.473  1.00  0.00     0.293 HD
ENDBRANCH  15  18
BRANCH  17  20
ATOM     20  O   UNL     1      10.856 -21.016 -25.666  1.00  0.00    -0.504 OA
ATOM     21  H   UNL     1      11.416 -21.760 -26.063  1.00  0.00     0.293 HD
ENDBRANCH  17  20
ENDBRANCH   1  12
BRANCH   6  22
ATOM     22  O   UNL     1       9.710 -12.136 -21.454  1.00  0.00    -0.507 OA
ATOM     23  H   UNL     1       9.243 -11.597 -20.741  1.00  0.00     0.293 HD
ENDBRANCH   6  22
BRANCH   8  24
ATOM     24  O   UNL     1      11.145 -15.631 -18.489  1.00  0.00    -0.508 OA
ATOM     25  H   UNL     1      11.987 -16.154 -18.279  1.00  0.00     0.293 HD
ENDBRANCH   8  24
TORSDOF 5
ENDMDL
MODEL 4
REMARK VINA RESULT:    -6.794      3.500      7.553
REMARK INTER + INTRA:          -8.277
REMARK INTER:                  -8.013
REMARK INTRA:                  -0.263
REMARK UNBOUND:                -0.291
REMARK SMILES O=c1cc(-c2ccc(O)c(O)c2)oc2cc(O)cc(O)c12
REMARK SMILES IDX 4 1 3 2 2 3 1 4 21 5 19 6 18 7 16 8 15 9 14 10 13 11 5 12
REMARK SMILES IDX 6 13 7 14 8 15 12 16 10 17 9 18 11 20 20 22 17 24
REMARK H PARENT 9 19 11 21 20 23 17 25
REMARK Flexibility Score: inf
ROOT
ATOM      1  C   UNL     1      10.088 -15.764 -24.151  1.00  0.00     0.138 A 
ATOM      2  C   UNL     1      10.998 -16.400 -25.006  1.00  0.00     0.100 A 
ATOM      3  C   UNL     1      11.108 -17.792 -24.988  1.00  0.00     0.197 A 
ATOM      4  O   UNL     1      11.977 -18.329 -25.721  1.00  0.00    -0.289 OA
ATOM      5  C   UNL     1      10.278 -18.550 -24.129  1.00  0.00     0.107 A 
ATOM      6  C   UNL     1      10.273 -19.975 -24.054  1.00  0.00     0.134 A 
ATOM      7  C   UNL     1       9.491 -20.612 -23.083  1.00  0.00     0.093 A 
ATOM      8  C   UNL     1       8.669 -19.879 -22.223  1.00  0.00     0.123 A 
ATOM      9  C   UNL     1       8.626 -18.491 -22.325  1.00  0.00     0.094 A 
ATOM     10  C   UNL     1       9.420 -17.823 -23.260  1.00  0.00     0.146 A 
ATOM     11  O   UNL     1       9.360 -16.496 -23.314  1.00  0.00    -0.456 OA
ENDROOT
BRANCH   1  12
ATOM     12  C   UNL     1       9.931 -14.288 -24.130  1.00  0.00     0.021 A 
ATOM     13  C   UNL     1       9.013 -13.631 -24.971  1.00  0.00     0.016 A 
ATOM     14  C   UNL     1       8.878 -12.240 -24.922  1.00  0.00     0.051 A 
ATOM     15  C   UNL     1       9.650 -11.484 -24.032  1.00  0.00     0.157 A 
ATOM     16  C   UNL     1      10.693 -13.523 -23.228  1.00  0.00     0.062 A 
ATOM     17  C   UNL     1      10.560 -12.130 -23.179  1.00  0.00     0.158 A 
BRANCH  15  18
ATOM     18  O   UNL     1       9.514 -10.098 -23.988  1.00  0.00    -0.504 OA
ATOM     19  H   UNL     1       8.618  -9.647 -24.136  1.00  0.00     0.293 HD
ENDBRANCH  15  18
BRANCH  17  20
ATOM     20  O   UNL     1      11.340 -11.407 -22.278  1.00  0.00    -0.504 OA
ATOM     21  H   UNL     1      11.555 -10.427 -22.417  1.00  0.00     0.293 HD
ENDBRANCH  17  20
ENDBRANCH   1  12
BRANCH   6  22
ATOM     22  O   UNL     1      10.992 -20.805 -24.919  1.00  0.00    -0.507 OA
ATOM     23  H   UNL     1      11.730 -21.433 -24.636  1.00  0.00     0.293 HD
ENDBRANCH   6  22
BRANCH   8  24
ATOM     24  O   UNL     1       7.883 -20.523 -21.270  1.00  0.00    -0.508 OA
ATOM     25  H   UNL     1       8.178 -21.392 -20.839  1.00  0.00     0.293 HD
ENDBRANCH   8  24
TORSDOF 5
ENDMDL
MODEL 5
REMARK VINA RESULT:    -6.782      4.259      6.310
REMARK INTER + INTRA:          -8.262
REMARK INTER:                  -7.967
REMARK INTRA:                  -0.295
REMARK UNBOUND:                -0.291
REMARK SMILES O=c1cc(-c2ccc(O)c(O)c2)oc2cc(O)cc(O)c12
REMARK SMILES IDX 4 1 3 2 2 3 1 4 21 5 19 6 18 7 16 8 15 9 14 10 13 11 5 12
REMARK SMILES IDX 6 13 7 14 8 15 12 16 10 17 9 18 11 20 20 22 17 24
REMARK H PARENT 9 19 11 21 20 23 17 25
REMARK Flexibility Score: inf
ROOT
ATOM      1  C   UNL     1      10.758 -16.734 -23.294  1.00  0.00     0.138 A 
ATOM      2  C   UNL     1      11.092 -18.075 -23.061  1.00  0.00     0.100 A 
ATOM      3  C   UNL     1      11.133 -18.973 -24.129  1.00  0.00     0.197 A 
ATOM      4  O   UNL     1      11.374 -20.182 -23.879  1.00  0.00    -0.289 OA
ATOM      5  C   UNL     1      10.868 -18.516 -25.441  1.00  0.00     0.107 A 
ATOM      6  C   UNL     1      10.921 -19.332 -26.612  1.00  0.00     0.134 A 
ATOM      7  C   UNL     1      10.526 -18.796 -27.844  1.00  0.00     0.093 A 
ATOM      8  C   UNL     1      10.137 -17.459 -27.958  1.00  0.00     0.123 A 
ATOM      9  C   UNL     1      10.135 -16.641 -26.831  1.00  0.00     0.094 A 
ATOM     10  C   UNL     1      10.490 -17.154 -25.581  1.00  0.00     0.146 A 
ATOM     11  O   UNL     1      10.460 -16.343 -24.529  1.00  0.00    -0.456 OA
ENDROOT
BRANCH   1  12
ATOM     12  C   UNL     1      10.700 -15.737 -22.196  1.00  0.00     0.021 A 
ATOM     13  C   UNL     1      10.333 -14.399 -22.430  1.00  0.00     0.016 A 
ATOM     14  C   UNL     1      10.276 -13.485 -21.375  1.00  0.00     0.051 A 
ATOM     15  C   UNL     1      10.577 -13.890 -20.069  1.00  0.00     0.157 A 
ATOM     16  C   UNL     1      10.988 -16.140 -20.879  1.00  0.00     0.062 A 
ATOM     17  C   UNL     1      10.932 -15.226 -19.821  1.00  0.00     0.158 A 
BRANCH  15  18
ATOM     18  O   UNL     1      10.522 -12.974 -19.019  1.00  0.00    -0.504 OA
ATOM     19  H   UNL     1       9.637 -12.642 -18.651  1.00  0.00     0.293 HD
ENDBRANCH  15  18
BRANCH  17  20
ATOM     20  O   UNL     1      11.234 -15.663 -18.531  1.00  0.00    -0.504 OA
ATOM     21  H   UNL     1      11.849 -15.144 -17.917  1.00  0.00     0.293 HD
ENDBRANCH  17  20
ENDBRANCH   1  12
BRANCH   6  22
ATOM     22  O   UNL     1      11.374 -20.654 -26.622  1.00  0.00    -0.507 OA
ATOM     23  H   UNL     1      11.169 -21.328 -27.345  1.00  0.00     0.293 HD
ENDBRANCH   6  22
BRANCH   8  24
ATOM     24  O   UNL     1       9.760 -16.932 -29.191  1.00  0.00    -0.508 OA
ATOM     25  H   UNL     1       8.800 -16.671 -29.385  1.00  0.00     0.293 HD
ENDBRANCH   8  24
TORSDOF 5
ENDMDL
MODEL 6
REMARK VINA RESULT:    -6.470      4.042      6.405
REMARK INTER + INTRA:          -7.895
REMARK INTER:                  -7.577
REMARK INTRA:                  -0.318
REMARK UNBOUND:                -0.291
REMARK SMILES O=c1cc(-c2ccc(O)c(O)c2)oc2cc(O)cc(O)c12
REMARK SMILES IDX 4 1 3 2 2 3 1 4 21 5 19 6 18 7 16 8 15 9 14 10 13 11 5 12
REMARK SMILES IDX 6 13 7 14 8 15 12 16 10 17 9 18 11 20 20 22 17 24
REMARK H PARENT 9 19 11 21 20 23 17 25
REMARK Flexibility Score: inf
ROOT
ATOM      1  C   UNL     1      10.735 -16.798 -23.240  1.00  0.00     0.138 A 
ATOM      2  C   UNL     1      11.062 -18.144 -23.025  1.00  0.00     0.100 A 
ATOM      3  C   UNL     1      11.103 -19.027 -24.105  1.00  0.00     0.197 A 
ATOM      4  O   UNL     1      11.338 -20.240 -23.873  1.00  0.00    -0.289 OA
ATOM      5  C   UNL     1      10.844 -18.549 -25.412  1.00  0.00     0.107 A 
ATOM      6  C   UNL     1      10.896 -19.349 -26.594  1.00  0.00     0.134 A 
ATOM      7  C   UNL     1      10.506 -18.794 -27.819  1.00  0.00     0.093 A 
ATOM      8  C   UNL     1      10.124 -17.454 -27.915  1.00  0.00     0.123 A 
ATOM      9  C   UNL     1      10.122 -16.651 -26.776  1.00  0.00     0.094 A 
ATOM     10  C   UNL     1      10.472 -17.184 -25.533  1.00  0.00     0.146 A 
ATOM     11  O   UNL     1      10.442 -16.388 -24.469  1.00  0.00    -0.456 OA
ENDROOT
BRANCH   1  12
ATOM     12  C   UNL     1      10.678 -15.817 -22.127  1.00  0.00     0.021 A 
ATOM     13  C   UNL     1      10.925 -16.197 -20.794  1.00  0.00     0.016 A 
ATOM     14  C   UNL     1      10.876 -15.249 -19.767  1.00  0.00     0.051 A 
ATOM     15  C   UNL     1      10.587 -13.910 -20.053  1.00  0.00     0.157 A 
ATOM     16  C   UNL     1      10.403 -14.466 -22.407  1.00  0.00     0.062 A 
ATOM     17  C   UNL     1      10.352 -13.517 -21.380  1.00  0.00     0.158 A 
BRANCH  15  18
ATOM     18  O   UNL     1      10.537 -12.968 -19.026  1.00  0.00    -0.504 OA
ATOM     19  H   UNL     1      11.376 -12.520 -18.675  1.00  0.00     0.293 HD
ENDBRANCH  15  18
BRANCH  17  20
ATOM     20  O   UNL     1      10.066 -12.189 -21.699  1.00  0.00    -0.504 OA
ATOM     21  H   UNL     1       9.353 -11.661 -21.213  1.00  0.00     0.293 HD
ENDBRANCH  17  20
ENDBRANCH   1  12
BRANCH   6  22
ATOM     22  O   UNL     1      11.344 -20.673 -26.622  1.00  0.00    -0.507 OA
ATOM     23  H   UNL     1      10.752 -21.478 -26.756  1.00  0.00     0.293 HD
ENDBRANCH   6  22
BRANCH   8  24
ATOM     24  O   UNL     1       9.752 -16.907 -29.141  1.00  0.00    -0.508 OA
ATOM     25  H   UNL     1       9.143 -16.100 -29.199  1.00  0.00     0.293 HD
ENDBRANCH   8  24
TORSDOF 5
ENDMDL
MODEL 7
REMARK VINA RESULT:    -6.426      2.101      7.323
REMARK INTER + INTRA:          -7.843
REMARK INTER:                  -7.576
REMARK INTRA:                  -0.268
REMARK UNBOUND:                -0.291
REMARK SMILES O=c1cc(-c2ccc(O)c(O)c2)oc2cc(O)cc(O)c12
REMARK SMILES IDX 4 1 3 2 2 3 1 4 21 5 19 6 18 7 16 8 15 9 14 10 13 11 5 12
REMARK SMILES IDX 6 13 7 14 8 15 12 16 10 17 9 18 11 20 20 22 17 24
REMARK H PARENT 9 19 11 21 20 23 17 25
REMARK Flexibility Score: inf
ROOT
ATOM      1  C   UNL     1       9.560 -13.343 -24.049  1.00  0.00     0.138 A 
ATOM      2  C   UNL     1       9.414 -13.367 -22.655  1.00  0.00     0.100 A 
ATOM      3  C   UNL     1       9.791 -14.504 -21.940  1.00  0.00     0.197 A 
ATOM      4  O   UNL     1       9.589 -14.519 -20.698  1.00  0.00    -0.289 OA
ATOM      5  C   UNL     1      10.346 -15.611 -22.624  1.00  0.00     0.107 A 
ATOM      6  C   UNL     1      10.803 -16.808 -21.994  1.00  0.00     0.134 A 
ATOM      7  C   UNL     1      11.227 -17.884 -22.784  1.00  0.00     0.093 A 
ATOM      8  C   UNL     1      11.266 -17.785 -24.178  1.00  0.00     0.123 A 
ATOM      9  C   UNL     1      10.873 -16.601 -24.798  1.00  0.00     0.094 A 
ATOM     10  C   UNL     1      10.412 -15.522 -24.040  1.00  0.00     0.146 A 
ATOM     11  O   UNL     1      10.032 -14.417 -24.672  1.00  0.00    -0.456 OA
ENDROOT
BRANCH   1  12
ATOM     12  C   UNL     1       9.176 -12.159 -24.858  1.00  0.00     0.021 A 
ATOM     13  C   UNL     1       8.226 -12.247 -25.893  1.00  0.00     0.016 A 
ATOM     14  C   UNL     1       7.875 -11.114 -26.631  1.00  0.00     0.051 A 
ATOM     15  C   UNL     1       8.458  -9.874 -26.346  1.00  0.00     0.157 A 
ATOM     16  C   UNL     1       9.747 -10.906 -24.568  1.00  0.00     0.062 A 
ATOM     17  C   UNL     1       9.397  -9.770 -25.307  1.00  0.00     0.158 A 
BRANCH  15  18
ATOM     18  O   UNL     1       8.107  -8.746 -27.086  1.00  0.00    -0.504 OA
ATOM     19  H   UNL     1       7.684  -8.824 -28.004  1.00  0.00     0.293 HD
ENDBRANCH  15  18
BRANCH  17  20
ATOM     20  O   UNL     1       9.994  -8.549 -24.994  1.00  0.00    -0.504 OA
ATOM     21  H   UNL     1       9.897  -7.735 -25.588  1.00  0.00     0.293 HD
ENDBRANCH  17  20
ENDBRANCH   1  12
BRANCH   6  22
ATOM     22  O   UNL     1      10.885 -16.981 -20.610  1.00  0.00    -0.507 OA
ATOM     23  H   UNL     1      10.386 -16.428 -19.929  1.00  0.00     0.293 HD
ENDBRANCH   6  22
BRANCH   8  24
ATOM     24  O   UNL     1      11.703 -18.856 -24.954  1.00  0.00    -0.508 OA
ATOM     25  H   UNL     1      11.058 -19.554 -25.305  1.00  0.00     0.293 HD
ENDBRANCH   8  24
TORSDOF 5
ENDMDL
MODEL 8
REMARK VINA RESULT:    -6.385      4.292      6.791
REMARK INTER + INTRA:          -7.795
REMARK INTER:                  -7.477
REMARK INTRA:                  -0.318
REMARK UNBOUND:                -0.291
REMARK SMILES O=c1cc(-c2ccc(O)c(O)c2)oc2cc(O)cc(O)c12
REMARK SMILES IDX 4 1 3 2 2 3 1 4 21 5 19 6 18 7 16 8 15 9 14 10 13 11 5 12
REMARK SMILES IDX 6 13 7 14 8 15 12 16 10 17 9 18 11 20 20 22 17 24
REMARK H PARENT 9 19 11 21 20 23 17 25
REMARK Flexibility Score: inf
ROOT
ATOM      1  C   UNL     1      10.727 -16.869 -24.519  1.00  0.00     0.138 A 
ATOM      2  C   UNL     1      10.189 -17.476 -23.375  1.00  0.00     0.100 A 
ATOM      3  C   UNL     1       9.847 -16.691 -22.273  1.00  0.00     0.197 A 
ATOM      4  O   UNL     1       9.425 -17.271 -21.239  1.00  0.00    -0.289 OA
ATOM      5  C   UNL     1      10.016 -15.288 -22.330  1.00  0.00     0.107 A 
ATOM      6  C   UNL     1       9.664 -14.384 -21.283  1.00  0.00     0.134 A 
ATOM      7  C   UNL     1       9.986 -13.027 -21.406  1.00  0.00     0.093 A 
ATOM      8  C   UNL     1      10.592 -12.531 -22.564  1.00  0.00     0.123 A 
ATOM      9  C   UNL     1      10.889 -13.397 -23.613  1.00  0.00     0.094 A 
ATOM     10  C   UNL     1      10.613 -14.762 -23.507  1.00  0.00     0.146 A 
ATOM     11  O   UNL     1      10.928 -15.556 -24.525  1.00  0.00    -0.456 OA
ENDROOT
BRANCH   1  12
ATOM     12  C   UNL     1      11.108 -17.656 -25.719  1.00  0.00     0.021 A 
ATOM     13  C   UNL     1      10.850 -19.038 -25.809  1.00  0.00     0.016 A 
ATOM     14  C   UNL     1      11.209 -19.751 -26.956  1.00  0.00     0.051 A 
ATOM     15  C   UNL     1      11.824 -19.100 -28.032  1.00  0.00     0.157 A 
ATOM     16  C   UNL     1      11.713 -17.007 -26.810  1.00  0.00     0.062 A 
ATOM     17  C   UNL     1      12.074 -17.720 -27.958  1.00  0.00     0.158 A 
BRANCH  15  18
ATOM     18  O   UNL     1      12.183 -19.816 -29.173  1.00  0.00    -0.504 OA
ATOM     19  H   UNL     1      13.045 -19.625 -29.670  1.00  0.00     0.293 HD
ENDBRANCH  15  18
BRANCH  17  20
ATOM     20  O   UNL     1      12.681 -17.041 -29.015  1.00  0.00    -0.504 OA
ATOM     21  H   UNL     1      13.452 -17.437 -29.537  1.00  0.00     0.293 HD
ENDBRANCH  17  20
ENDBRANCH   1  12
BRANCH   6  22
ATOM     22  O   UNL     1       8.981 -14.760 -20.122  1.00  0.00    -0.507 OA
ATOM     23  H   UNL     1       9.060 -15.660 -19.674  1.00  0.00     0.293 HD
ENDBRANCH   6  22
BRANCH   8  24
ATOM     24  O   UNL     1      10.894 -11.177 -22.683  1.00  0.00    -0.508 OA
ATOM     25  H   UNL     1      11.845 -10.836 -22.603  1.00  0.00     0.293 HD
ENDBRANCH   8  24
TORSDOF 5
ENDMDL
MODEL 9
REMARK VINA RESULT:    -5.902      4.083      5.811
REMARK INTER + INTRA:          -7.228
REMARK INTER:                  -6.965
REMARK INTRA:                  -0.263
REMARK UNBOUND:                -0.291
REMARK SMILES O=c1cc(-c2ccc(O)c(O)c2)oc2cc(O)cc(O)c12
REMARK SMILES IDX 4 1 3 2 2 3 1 4 21 5 19 6 18 7 16 8 15 9 14 10 13 11 5 12
REMARK SMILES IDX 6 13 7 14 8 15 12 16 10 17 9 18 11 20 20 22 17 24
REMARK H PARENT 9 19 11 21 20 23 17 25
REMARK Flexibility Score: inf
ROOT
ATOM      1  C   UNL     1      10.181 -15.879 -24.470  1.00  0.00     0.138 A 
ATOM      2  C   UNL     1       8.990 -15.785 -25.202  1.00  0.00     0.100 A 
ATOM      3  C   UNL     1       8.943 -16.264 -26.512  1.00  0.00     0.197 A 
ATOM      4  O   UNL     1       7.878 -16.108 -27.164  1.00  0.00    -0.289 OA
ATOM      5  C   UNL     1      10.089 -16.869 -27.080  1.00  0.00     0.107 A 
ATOM      6  C   UNL     1      10.146 -17.428 -28.392  1.00  0.00     0.134 A 
ATOM      7  C   UNL     1      11.369 -17.896 -28.889  1.00  0.00     0.093 A 
ATOM      8  C   UNL     1      12.523 -17.878 -28.101  1.00  0.00     0.123 A 
ATOM      9  C   UNL     1      12.464 -17.384 -26.800  1.00  0.00     0.094 A 
ATOM     10  C   UNL     1      11.268 -16.878 -26.287  1.00  0.00     0.146 A 
ATOM     11  O   UNL     1      11.259 -16.401 -25.046  1.00  0.00    -0.456 OA
ENDROOT
BRANCH   1  12
ATOM     12  C   UNL     1      10.285 -15.387 -23.074  1.00  0.00     0.021 A 
ATOM     13  C   UNL     1      10.438 -16.270 -21.987  1.00  0.00     0.016 A 
ATOM     14  C   UNL     1      10.545 -15.777 -20.684  1.00  0.00     0.051 A 
ATOM     15  C   UNL     1      10.508 -14.399 -20.442  1.00  0.00     0.157 A 
ATOM     16  C   UNL     1      10.264 -14.002 -22.824  1.00  0.00     0.062 A 
ATOM     17  C   UNL     1      10.369 -13.507 -21.519  1.00  0.00     0.158 A 
BRANCH  15  18
ATOM     18  O   UNL     1      10.613 -13.911 -19.140  1.00  0.00    -0.504 OA
ATOM     19  H   UNL     1      11.016 -14.469 -18.396  1.00  0.00     0.293 HD
ENDBRANCH  15  18
BRANCH  17  20
ATOM     20  O   UNL     1      10.334 -12.128 -21.313  1.00  0.00    -0.504 OA
ATOM     21  H   UNL     1       9.872 -11.500 -21.958  1.00  0.00     0.293 HD
ENDBRANCH  17  20
ENDBRANCH   1  12
BRANCH   6  22
ATOM     22  O   UNL     1       9.036 -17.571 -29.229  1.00  0.00    -0.507 OA
ATOM     23  H   UNL     1       8.945 -17.151 -30.142  1.00  0.00     0.293 HD
ENDBRANCH   6  22
BRANCH   8  24
ATOM     24  O   UNL     1      13.731 -18.359 -28.599  1.00  0.00    -0.508 OA
ATOM     25  H   UNL     1      14.343 -17.777 -29.159  1.00  0.00     0.293 HD
ENDBRANCH   8  24
TORSDOF 5
ENDMDL
