MODEL 1
REMARK VINA RESULT:    -3.496      0.000      0.000
REMARK INTER + INTRA:          -3.496
REMARK INTER:                  -3.496
REMARK INTRA:                   0.000
REMARK UNBOUND:                 0.000
REMARK SMILES CC1(C)C(=O)[C@]2(C)CC[C@H]1C2
REMARK SMILES IDX 1 1 2 2 10 3 9 4 8 5 6 6 11 7 4 8 5 9 7 10 3 11
REMARK H PARENT
REMARK Flexibility Score: inf
ROOT
ATOM      1  C   UNL     1     142.061 141.444 141.913  1.00  0.00     0.020 C 
ATOM      2  C   UNL     1     141.620 139.992 142.204  1.00  0.00     0.027 C 
ATOM      3  C   UNL     1     140.166 139.861 142.784  1.00  0.00     0.003 C 
ATOM      4  C   UNL     1     139.155 140.690 141.950  1.00  0.00     0.005 C 
ATOM      5  C   UNL     1     139.108 139.932 140.604  1.00  0.00     0.015 C 
ATOM      6  C   UNL     1     140.014 138.715 140.871  1.00  0.00     0.027 C 
ATOM      7  C   UNL     1     139.754 138.458 142.342  1.00  0.00     0.019 C 
ATOM      8  C   UNL     1     141.433 139.209 140.935  1.00  0.00     0.144 C 
ATOM      9  O   UNL     1     142.276 139.065 140.063  1.00  0.00    -0.298 OA
ATOM     10  C   UNL     1     139.781 137.510 139.958  1.00  0.00     0.020 C 
ATOM     11  C   UNL     1     142.662 139.322 143.125  1.00  0.00     0.020 C 
ENDROOT
TORSDOF 0
ENDMDL
MODEL 2
REMARK VINA RESULT:    -3.496      1.557      3.608
REMARK INTER + INTRA:          -3.496
REMARK INTER:                  -3.496
REMARK INTRA:                   0.000
REMARK UNBOUND:                 0.000
REMARK SMILES CC1(C)C(=O)[C@]2(C)CC[C@H]1C2
REMARK SMILES IDX 1 1 2 2 10 3 9 4 8 5 6 6 11 7 4 8 5 9 7 10 3 11
REMARK H PARENT
REMARK Flexibility Score: inf
ROOT
ATOM      1  C   UNL     1     140.643 138.382 140.883  1.00  0.00     0.020 C 
ATOM      2  C   UNL     1     140.839 139.413 142.015  1.00  0.00     0.027 C 
ATOM      3  C   UNL     1     142.299 139.471 142.593  1.00  0.00     0.003 C 
ATOM      4  C   UNL     1     143.348 139.553 141.454  1.00  0.00     0.005 C 
ATOM      5  C   UNL     1     143.107 140.959 140.859  1.00  0.00     0.015 C 
ATOM      6  C   UNL     1     142.028 141.540 141.793  1.00  0.00     0.027 C 
ATOM      7  C   UNL     1     142.396 140.902 143.117  1.00  0.00     0.019 C 
ATOM      8  C   UNL     1     140.739 140.821 141.501  1.00  0.00     0.144 C 
ATOM      9  O   UNL     1     139.794 141.281 140.878  1.00  0.00    -0.298 OA
ATOM     10  C   UNL     1     141.935 143.066 141.819  1.00  0.00     0.020 C 
ATOM     11  C   UNL     1     139.798 139.149 143.125  1.00  0.00     0.020 C 
ENDROOT
TORSDOF 0
ENDMDL
MODEL 3
REMARK VINA RESULT:    -3.463      1.490      2.113
REMARK INTER + INTRA:          -3.463
REMARK INTER:                  -3.463
REMARK INTRA:                   0.000
REMARK UNBOUND:                 0.000
REMARK SMILES CC1(C)C(=O)[C@]2(C)CC[C@H]1C2
REMARK SMILES IDX 1 1 2 2 10 3 9 4 8 5 6 6 11 7 4 8 5 9 7 10 3 11
REMARK H PARENT
REMARK Flexibility Score: inf
ROOT
ATOM      1  C   UNL     1     141.163 143.088 140.776  1.00  0.00     0.020 C 
ATOM      2  C   UNL     1     140.877 142.148 141.968  1.00  0.00     0.027 C 
ATOM      3  C   UNL     1     139.379 142.146 142.444  1.00  0.00     0.003 C 
ATOM      4  C   UNL     1     138.411 141.983 141.244  1.00  0.00     0.005 C 
ATOM      5  C   UNL     1     138.675 140.533 140.778  1.00  0.00     0.015 C 
ATOM      6  C   UNL     1     139.679 140.019 141.827  1.00  0.00     0.027 C 
ATOM      7  C   UNL     1     139.228 140.761 143.069  1.00  0.00     0.019 C 
ATOM      8  C   UNL     1     140.994 140.704 141.571  1.00  0.00     0.144 C 
ATOM      9  O   UNL     1     141.974 140.191 141.054  1.00  0.00    -0.298 OA
ATOM     10  C   UNL     1     139.751 138.499 141.977  1.00  0.00     0.020 C 
ATOM     11  C   UNL     1     141.840 142.490 143.124  1.00  0.00     0.020 C 
ENDROOT
TORSDOF 0
ENDMDL
MODEL 4
REMARK VINA RESULT:    -3.460      2.060      3.141
REMARK INTER + INTRA:          -3.460
REMARK INTER:                  -3.460
REMARK INTRA:                   0.000
REMARK UNBOUND:                 0.000
REMARK SMILES CC1(C)C(=O)[C@]2(C)CC[C@H]1C2
REMARK SMILES IDX 1 1 2 2 10 3 9 4 8 5 6 6 11 7 4 8 5 9 7 10 3 11
REMARK H PARENT
REMARK Flexibility Score: inf
ROOT
ATOM      1  C   UNL     1     143.056 140.657 140.724  1.00  0.00     0.020 C 
ATOM      2  C   UNL     1     142.114 140.997 141.900  1.00  0.00     0.027 C 
ATOM      3  C   UNL     1     142.056 142.526 142.261  1.00  0.00     0.003 C 
ATOM      4  C   UNL     1     141.847 143.392 140.993  1.00  0.00     0.005 C 
ATOM      5  C   UNL     1     140.405 143.038 140.562  1.00  0.00     0.015 C 
ATOM      6  C   UNL     1     139.938 142.097 141.689  1.00  0.00     0.027 C 
ATOM      7  C   UNL     1     140.670 142.670 142.886  1.00  0.00     0.019 C 
ATOM      8  C   UNL     1     140.673 140.794 141.528  1.00  0.00     0.144 C 
ATOM      9  O   UNL     1     140.195 139.758 141.092  1.00  0.00    -0.298 OA
ATOM     10  C   UNL     1     138.423 141.977 141.859  1.00  0.00     0.020 C 
ATOM     11  C   UNL     1     142.502 140.138 143.123  1.00  0.00     0.020 C 
ENDROOT
TORSDOF 0
ENDMDL
MODEL 5
REMARK VINA RESULT:    -3.459      1.583      2.817
REMARK INTER + INTRA:          -3.459
REMARK INTER:                  -3.459
REMARK INTRA:                   0.000
REMARK UNBOUND:                 0.000
REMARK SMILES CC1(C)C(=O)[C@]2(C)CC[C@H]1C2
REMARK SMILES IDX 1 1 2 2 10 3 9 4 8 5 6 6 11 7 4 8 5 9 7 10 3 11
REMARK H PARENT
REMARK Flexibility Score: inf
ROOT
ATOM      1  C   UNL     1     141.735 139.345 140.928  1.00  0.00     0.020 C 
ATOM      2  C   UNL     1     140.336 139.435 141.578  1.00  0.00     0.027 C 
ATOM      3  C   UNL     1     140.254 140.419 142.800  1.00  0.00     0.003 C 
ATOM      4  C   UNL     1     140.900 141.787 142.462  1.00  0.00     0.005 C 
ATOM      5  C   UNL     1     139.930 142.382 141.416  1.00  0.00     0.015 C 
ATOM      6  C   UNL     1     138.804 141.331 141.364  1.00  0.00     0.027 C 
ATOM      7  C   UNL     1     138.784 140.836 142.796  1.00  0.00     0.019 C 
ATOM      8  C   UNL     1     139.350 140.114 140.669  1.00  0.00     0.144 C 
ATOM      9  O   UNL     1     139.094 139.773 139.525  1.00  0.00    -0.298 OA
ATOM     10  C   UNL     1     137.459 141.836 140.840  1.00  0.00     0.020 C 
ATOM     11  C   UNL     1     139.862 138.016 141.956  1.00  0.00     0.020 C 
ENDROOT
TORSDOF 0
ENDMDL
MODEL 6
REMARK VINA RESULT:    -3.448      1.366      2.921
REMARK INTER + INTRA:          -3.448
REMARK INTER:                  -3.448
REMARK INTRA:                   0.000
REMARK UNBOUND:                 0.000
REMARK SMILES CC1(C)C(=O)[C@]2(C)CC[C@H]1C2
REMARK SMILES IDX 1 1 2 2 10 3 9 4 8 5 6 6 11 7 4 8 5 9 7 10 3 11
REMARK H PARENT
REMARK Flexibility Score: inf
ROOT
ATOM      1  C   UNL     1     138.610 141.042 140.716  1.00  0.00     0.020 C 
ATOM      2  C   UNL     1     139.526 140.738 141.922  1.00  0.00     0.027 C 
ATOM      3  C   UNL     1     139.615 139.214 142.298  1.00  0.00     0.003 C 
ATOM      4  C   UNL     1     139.884 138.344 141.044  1.00  0.00     0.005 C 
ATOM      5  C   UNL     1     141.327 138.733 140.651  1.00  0.00     0.015 C 
ATOM      6  C   UNL     1     141.736 139.696 141.783  1.00  0.00     0.027 C 
ATOM      7  C   UNL     1     140.986 139.113 142.964  1.00  0.00     0.019 C 
ATOM      8  C   UNL     1     140.972 140.977 141.588  1.00  0.00     0.144 C 
ATOM      9  O   UNL     1     141.434 142.022 141.157  1.00  0.00    -0.298 OA
ATOM     10  C   UNL     1     143.242 139.857 141.994  1.00  0.00     0.020 C 
ATOM     11  C   UNL     1     139.081 141.596 143.125  1.00  0.00     0.020 C 
ENDROOT
TORSDOF 0
ENDMDL
MODEL 7
REMARK VINA RESULT:    -3.415      1.608      3.383
REMARK INTER + INTRA:          -3.415
REMARK INTER:                  -3.415
REMARK INTRA:                   0.000
REMARK UNBOUND:                 0.000
REMARK SMILES CC1(C)C(=O)[C@]2(C)CC[C@H]1C2
REMARK SMILES IDX 1 1 2 2 10 3 9 4 8 5 6 6 11 7 4 8 5 9 7 10 3 11
REMARK H PARENT
REMARK Flexibility Score: inf
ROOT
ATOM      1  C   UNL     1     139.529 138.831 143.068  1.00  0.00     0.020 C 
ATOM      2  C   UNL     1     140.131 139.685 141.931  1.00  0.00     0.027 C 
ATOM      3  C   UNL     1     139.123 140.702 141.283  1.00  0.00     0.003 C 
ATOM      4  C   UNL     1     138.370 141.511 142.370  1.00  0.00     0.005 C 
ATOM      5  C   UNL     1     139.481 142.396 142.980  1.00  0.00     0.015 C 
ATOM      6  C   UNL     1     140.701 142.058 142.102  1.00  0.00     0.027 C 
ATOM      7  C   UNL     1     140.047 141.800 140.759  1.00  0.00     0.019 C 
ATOM      8  C   UNL     1     141.143 140.664 142.454  1.00  0.00     0.144 C 
ATOM      9  O   UNL     1     142.124 140.377 143.123  1.00  0.00    -0.298 OA
ATOM     10  C   UNL     1     141.809 143.112 142.084  1.00  0.00     0.020 C 
ATOM     11  C   UNL     1     140.754 138.750 140.872  1.00  0.00     0.020 C 
ENDROOT
TORSDOF 0
ENDMDL
MODEL 8
REMARK VINA RESULT:    -3.412      1.856      3.168
REMARK INTER + INTRA:          -3.412
REMARK INTER:                  -3.412
REMARK INTRA:                   0.000
REMARK UNBOUND:                 0.000
REMARK SMILES CC1(C)C(=O)[C@]2(C)CC[C@H]1C2
REMARK SMILES IDX 1 1 2 2 10 3 9 4 8 5 6 6 11 7 4 8 5 9 7 10 3 11
REMARK H PARENT
REMARK Flexibility Score: inf
ROOT
ATOM      1  C   UNL     1     140.110 142.210 141.279  1.00  0.00     0.020 C 
ATOM      2  C   UNL     1     141.569 141.964 141.720  1.00  0.00     0.027 C 
ATOM      3  C   UNL     1     141.762 140.709 142.647  1.00  0.00     0.003 C 
ATOM      4  C   UNL     1     141.045 139.466 142.060  1.00  0.00     0.005 C 
ATOM      5  C   UNL     1     141.874 139.149 140.795  1.00  0.00     0.015 C 
ATOM      6  C   UNL     1     143.015 140.182 140.872  1.00  0.00     0.027 C 
ATOM      7  C   UNL     1     143.210 140.309 142.370  1.00  0.00     0.019 C 
ATOM      8  C   UNL     1     142.428 141.532 140.566  1.00  0.00     0.144 C 
ATOM      9  O   UNL     1     142.564 142.145 139.518  1.00  0.00    -0.298 OA
ATOM     10  C   UNL     1     144.279 139.824 140.089  1.00  0.00     0.020 C 
ATOM     11  C   UNL     1     142.122 143.247 142.378  1.00  0.00     0.020 C 
ENDROOT
TORSDOF 0
ENDMDL
MODEL 9
REMARK VINA RESULT:    -3.402      1.966      3.637
REMARK INTER + INTRA:          -3.402
REMARK INTER:                  -3.402
REMARK INTRA:                   0.000
REMARK UNBOUND:                 0.000
REMARK SMILES CC1(C)C(=O)[C@]2(C)CC[C@H]1C2
REMARK SMILES IDX 1 1 2 2 10 3 9 4 8 5 6 6 11 7 4 8 5 9 7 10 3 11
REMARK H PARENT
REMARK Flexibility Score: inf
ROOT
ATOM      1  C   UNL     1     138.910 142.027 142.775  1.00  0.00     0.020 C 
ATOM      2  C   UNL     1     139.860 141.354 141.760  1.00  0.00     0.027 C 
ATOM      3  C   UNL     1     140.975 142.304 141.191  1.00  0.00     0.003 C 
ATOM      4  C   UNL     1     141.687 143.075 142.331  1.00  0.00     0.005 C 
ATOM      5  C   UNL     1     142.463 141.964 143.074  1.00  0.00     0.015 C 
ATOM      6  C   UNL     1     142.180 140.720 142.210  1.00  0.00     0.027 C 
ATOM      7  C   UNL     1     142.090 141.327 140.824  1.00  0.00     0.019 C 
ATOM      8  C   UNL     1     140.742 140.335 142.424  1.00  0.00     0.144 C 
ATOM      9  O   UNL     1     140.351 139.390 143.093  1.00  0.00    -0.298 OA
ATOM     10  C   UNL     1     143.191 139.581 142.348  1.00  0.00     0.020 C 
ATOM     11  C   UNL     1     139.023 140.717 140.630  1.00  0.00     0.020 C 
ENDROOT
TORSDOF 0
ENDMDL
