MODEL 1
REMARK VINA RESULT:    -3.592      0.000      0.000
REMARK INTER + INTRA:         -10.482
REMARK INTER:                  -9.052
REMARK INTRA:                  -1.431
REMARK UNBOUND:                -1.431
REMARK SMILES CCCCCCCCCCCCCCCCCCCCCCCCCCCC(=O)[O-]
REMARK SMILES IDX 15 1 16 2 17 3 18 4 19 5 20 6 21 7 22 8 23 9 24 10 25 11
REMARK SMILES IDX 26 12 27 13 28 14 29 15 30 16 14 17 13 18 12 19 11 20 10 21
REMARK SMILES IDX 9 22 8 23 7 24 6 25 5 26 4 27 3 28 2 29 1 30
REMARK H PARENT
REMARK Flexibility Score: inf
ROOT
ATOM      1  C   UNL     1     -45.479 -34.991  19.551  1.00  0.00     0.000 C 
ENDROOT
BRANCH   1   2
ATOM      2  C   UNL     1     -45.833 -33.815  20.475  1.00  0.00     0.000 C 
BRANCH   2   3
ATOM      3  C   UNL     1     -45.136 -33.902  21.843  1.00  0.00     0.000 C 
BRANCH   3   4
ATOM      4  C   UNL     1     -46.053 -34.560  22.881  1.00  0.00     0.000 C 
BRANCH   4   5
ATOM      5  C   UNL     1     -45.887 -33.906  24.261  1.00  0.00     0.000 C 
BRANCH   5   6
ATOM      6  C   UNL     1     -45.681 -32.382  24.184  1.00  0.00     0.000 C 
BRANCH   6   7
ATOM      7  C   UNL     1     -44.345 -31.877  24.760  1.00  0.00     0.000 C 
BRANCH   7   8
ATOM      8  C   UNL     1     -43.358 -33.017  25.065  1.00  0.00     0.000 C 
BRANCH   8   9
ATOM      9  C   UNL     1     -43.247 -33.322  26.568  1.00  0.00     0.000 C 
BRANCH   9  10
ATOM     10  C   UNL     1     -41.880 -32.999  27.202  1.00  0.00     0.000 C 
BRANCH  10  11
ATOM     11  C   UNL     1     -41.024 -32.018  26.374  1.00  0.00     0.000 C 
BRANCH  11  12
ATOM     12  C   UNL     1     -39.868 -32.725  25.645  1.00  0.00     0.006 C 
BRANCH  12  13
ATOM     13  C   UNL     1     -38.496 -32.298  26.185  1.00  0.00     0.053 C 
BRANCH  13  14
ATOM     14  C   UNL     1     -38.239 -32.864  27.548  1.00  0.00     0.041 C 
ATOM     15  O   UNL     1     -38.449 -32.165  28.575  1.00  0.00    -0.550 OA
ATOM     16  O   UNL     1     -37.804 -34.176  27.685  1.00  0.00    -0.550 OA
ENDBRANCH  13  14
ENDBRANCH  12  13
ENDBRANCH  11  12
ENDBRANCH  10  11
ENDBRANCH   9  10
ENDBRANCH   8   9
ENDBRANCH   7   8
ENDBRANCH   6   7
ENDBRANCH   5   6
ENDBRANCH   4   5
ENDBRANCH   3   4
ENDBRANCH   2   3
ENDBRANCH   1   2
BRANCH   1  17
ATOM     17  C   UNL     1     -44.459 -35.952  20.186  1.00  0.00     0.000 C 
BRANCH  17  18
ATOM     18  C   UNL     1     -45.044 -37.349  20.451  1.00  0.00     0.000 C 
BRANCH  18  19
ATOM     19  C   UNL     1     -45.905 -37.863  19.282  1.00  0.00     0.000 C 
BRANCH  19  20
ATOM     20  C   UNL     1     -45.495 -37.245  17.934  1.00  0.00     0.000 C 
BRANCH  20  21
ATOM     21  C   UNL     1     -44.862 -38.273  16.983  1.00  0.00     0.000 C 
BRANCH  21  22
ATOM     22  C   UNL     1     -45.302 -38.026  15.533  1.00  0.00    -0.000 C 
BRANCH  22  23
ATOM     23  C   UNL     1     -44.143 -38.191  14.527  1.00  0.00    -0.000 C 
BRANCH  23  24
ATOM     24  C   UNL     1     -44.426 -37.569  13.146  1.00  0.00    -0.000 C 
BRANCH  24  25
ATOM     25  C   UNL     1     -45.585 -36.555  13.110  1.00  0.00    -0.000 C 
BRANCH  25  26
ATOM     26  C   UNL     1     -45.212 -35.160  12.572  1.00  0.00    -0.000 C 
BRANCH  26  27
ATOM     27  C   UNL     1     -45.653 -34.022  13.504  1.00  0.00    -0.000 C 
BRANCH  27  28
ATOM     28  C   UNL     1     -45.577 -34.458  14.975  1.00  0.00    -0.000 C 
BRANCH  28  29
ATOM     29  C   UNL     1     -45.651 -33.269  15.946  1.00  0.00    -0.003 C 
ATOM     30  C   UNL     1     -44.274 -32.724  16.320  1.00  0.00     0.004 C 
ENDBRANCH  28  29
ENDBRANCH  27  28
ENDBRANCH  26  27
ENDBRANCH  25  26
ENDBRANCH  24  25
ENDBRANCH  23  24
ENDBRANCH  22  23
ENDBRANCH  21  22
ENDBRANCH  20  21
ENDBRANCH  19  20
ENDBRANCH  18  19
ENDBRANCH  17  18
ENDBRANCH   1  17
TORSDOF 26
ENDMDL
MODEL 2
REMARK VINA RESULT:    -3.568      1.301      3.100
REMARK INTER + INTRA:         -10.421
REMARK INTER:                  -8.334
REMARK INTRA:                  -2.087
REMARK UNBOUND:                -1.431
REMARK SMILES CCCCCCCCCCCCCCCCCCCCCCCCCCCC(=O)[O-]
REMARK SMILES IDX 15 1 16 2 17 3 18 4 19 5 20 6 21 7 22 8 23 9 24 10 25 11
REMARK SMILES IDX 26 12 27 13 28 14 29 15 30 16 14 17 13 18 12 19 11 20 10 21
REMARK SMILES IDX 9 22 8 23 7 24 6 25 5 26 4 27 3 28 2 29 1 30
REMARK H PARENT
REMARK Flexibility Score: inf
ROOT
ATOM      1  C   UNL     1     -44.645 -35.472  20.936  1.00  0.00     0.000 C 
ENDROOT
BRANCH   1   2
ATOM      2  C   UNL     1     -44.143 -34.488  22.006  1.00  0.00     0.000 C 
BRANCH   2   3
ATOM      3  C   UNL     1     -45.279 -33.664  22.634  1.00  0.00     0.000 C 
BRANCH   3   4
ATOM      4  C   UNL     1     -45.338 -33.884  24.150  1.00  0.00     0.000 C 
BRANCH   4   5
ATOM      5  C   UNL     1     -44.561 -32.791  24.900  1.00  0.00     0.000 C 
BRANCH   5   6
ATOM      6  C   UNL     1     -45.302 -32.272  26.146  1.00  0.00     0.000 C 
BRANCH   6   7
ATOM      7  C   UNL     1     -44.937 -32.981  27.462  1.00  0.00     0.000 C 
BRANCH   7   8
ATOM      8  C   UNL     1     -43.632 -33.789  27.363  1.00  0.00     0.000 C 
BRANCH   8   9
ATOM      9  C   UNL     1     -42.709 -33.580  28.576  1.00  0.00     0.000 C 
BRANCH   9  10
ATOM     10  C   UNL     1     -42.248 -32.127  28.805  1.00  0.00     0.000 C 
BRANCH  10  11
ATOM     11  C   UNL     1     -40.772 -31.875  28.431  1.00  0.00     0.000 C 
BRANCH  11  12
ATOM     12  C   UNL     1     -40.434 -32.378  27.017  1.00  0.00     0.006 C 
BRANCH  12  13
ATOM     13  C   UNL     1     -38.961 -32.144  26.657  1.00  0.00     0.053 C 
BRANCH  13  14
ATOM     14  C   UNL     1     -38.197 -33.431  26.597  1.00  0.00     0.041 C 
ATOM     15  O   UNL     1     -37.326 -33.692  27.468  1.00  0.00    -0.550 OA
ATOM     16  O   UNL     1     -38.474 -34.359  25.600  1.00  0.00    -0.550 OA
ENDBRANCH  13  14
ENDBRANCH  12  13
ENDBRANCH  11  12
ENDBRANCH  10  11
ENDBRANCH   9  10
ENDBRANCH   8   9
ENDBRANCH   7   8
ENDBRANCH   6   7
ENDBRANCH   5   6
ENDBRANCH   4   5
ENDBRANCH   3   4
ENDBRANCH   2   3
ENDBRANCH   1   2
BRANCH   1  17
ATOM     17  C   UNL     1     -45.651 -34.827  19.968  1.00  0.00     0.000 C 
BRANCH  17  18
ATOM     18  C   UNL     1     -46.123 -35.794  18.869  1.00  0.00     0.000 C 
BRANCH  18  19
ATOM     19  C   UNL     1     -46.124 -35.149  17.471  1.00  0.00     0.000 C 
BRANCH  19  20
ATOM     20  C   UNL     1     -44.945 -34.180  17.270  1.00  0.00     0.000 C 
BRANCH  20  21
ATOM     21  C   UNL     1     -45.399 -32.789  16.801  1.00  0.00     0.000 C 
BRANCH  21  22
ATOM     22  C   UNL     1     -44.521 -32.284  15.647  1.00  0.00    -0.000 C 
BRANCH  22  23
ATOM     23  C   UNL     1     -45.299 -32.177  14.317  1.00  0.00    -0.000 C 
BRANCH  23  24
ATOM     24  C   UNL     1     -46.024 -33.476  13.915  1.00  0.00    -0.000 C 
BRANCH  24  25
ATOM     25  C   UNL     1     -45.335 -34.294  12.807  1.00  0.00    -0.000 C 
BRANCH  25  26
ATOM     26  C   UNL     1     -45.990 -35.655  12.501  1.00  0.00    -0.000 C 
BRANCH  26  27
ATOM     27  C   UNL     1     -45.103 -36.846  12.892  1.00  0.00    -0.000 C 
BRANCH  27  28
ATOM     28  C   UNL     1     -45.383 -37.287  14.337  1.00  0.00    -0.000 C 
BRANCH  28  29
ATOM     29  C   UNL     1     -44.159 -37.936  15.002  1.00  0.00    -0.003 C 
ATOM     30  C   UNL     1     -44.336 -38.128  16.508  1.00  0.00     0.004 C 
ENDBRANCH  28  29
ENDBRANCH  27  28
ENDBRANCH  26  27
ENDBRANCH  25  26
ENDBRANCH  24  25
ENDBRANCH  23  24
ENDBRANCH  22  23
ENDBRANCH  21  22
ENDBRANCH  20  21
ENDBRANCH  19  20
ENDBRANCH  18  19
ENDBRANCH  17  18
ENDBRANCH   1  17
TORSDOF 26
ENDMDL
MODEL 3
REMARK VINA RESULT:    -3.421      2.014      4.866
REMARK INTER + INTRA:         -10.051
REMARK INTER:                  -8.164
REMARK INTRA:                  -1.887
REMARK UNBOUND:                -1.431
REMARK SMILES CCCCCCCCCCCCCCCCCCCCCCCCCCCC(=O)[O-]
REMARK SMILES IDX 15 1 16 2 17 3 18 4 19 5 20 6 21 7 22 8 23 9 24 10 25 11
REMARK SMILES IDX 26 12 27 13 28 14 29 15 30 16 14 17 13 18 12 19 11 20 10 21
REMARK SMILES IDX 9 22 8 23 7 24 6 25 5 26 4 27 3 28 2 29 1 30
REMARK H PARENT
REMARK Flexibility Score: inf
ROOT
ATOM      1  C   UNL     1     -43.617 -33.503  23.546  1.00  0.00     0.000 C 
ENDROOT
BRANCH   1   2
ATOM      2  C   UNL     1     -42.559 -32.390  23.622  1.00  0.00     0.000 C 
BRANCH   2   3
ATOM      3  C   UNL     1     -42.337 -31.878  25.054  1.00  0.00     0.000 C 
BRANCH   3   4
ATOM      4  C   UNL     1     -40.858 -31.975  25.444  1.00  0.00     0.000 C 
BRANCH   4   5
ATOM      5  C   UNL     1     -39.958 -32.019  24.200  1.00  0.00     0.000 C 
BRANCH   5   6
ATOM      6  C   UNL     1     -38.718 -32.914  24.385  1.00  0.00     0.000 C 
BRANCH   6   7
ATOM      7  C   UNL     1     -38.736 -33.797  25.647  1.00  0.00     0.000 C 
BRANCH   7   8
ATOM      8  C   UNL     1     -37.485 -33.611  26.523  1.00  0.00     0.000 C 
BRANCH   8   9
ATOM      9  C   UNL     1     -37.801 -32.969  27.884  1.00  0.00     0.000 C 
BRANCH   9  10
ATOM     10  C   UNL     1     -38.891 -31.879  27.856  1.00  0.00     0.000 C 
BRANCH  10  11
ATOM     11  C   UNL     1     -39.802 -31.875  29.101  1.00  0.00     0.000 C 
BRANCH  11  12
ATOM     12  C   UNL     1     -40.868 -32.983  29.048  1.00  0.00     0.006 C 
BRANCH  12  13
ATOM     13  C   UNL     1     -42.263 -32.429  28.729  1.00  0.00     0.053 C 
BRANCH  13  14
ATOM     14  C   UNL     1     -43.283 -33.522  28.639  1.00  0.00     0.041 C 
ATOM     15  O   UNL     1     -44.503 -33.242  28.502  1.00  0.00    -0.550 OA
ATOM     16  O   UNL     1     -42.881 -34.853  28.667  1.00  0.00    -0.550 OA
ENDBRANCH  13  14
ENDBRANCH  12  13
ENDBRANCH  11  12
ENDBRANCH  10  11
ENDBRANCH   9  10
ENDBRANCH   8   9
ENDBRANCH   7   8
ENDBRANCH   6   7
ENDBRANCH   5   6
ENDBRANCH   4   5
ENDBRANCH   3   4
ENDBRANCH   2   3
ENDBRANCH   1   2
BRANCH   1  17
ATOM     17  C   UNL     1     -45.048 -32.949  23.439  1.00  0.00     0.000 C 
BRANCH  17  18
ATOM     18  C   UNL     1     -46.120 -34.044  23.576  1.00  0.00     0.000 C 
BRANCH  18  19
ATOM     19  C   UNL     1     -45.949 -35.173  22.543  1.00  0.00     0.000 C 
BRANCH  19  20
ATOM     20  C   UNL     1     -46.102 -34.675  21.096  1.00  0.00     0.000 C 
BRANCH  20  21
ATOM     21  C   UNL     1     -45.249 -35.478  20.102  1.00  0.00     0.000 C 
BRANCH  21  22
ATOM     22  C   UNL     1     -45.848 -35.420  18.690  1.00  0.00    -0.000 C 
BRANCH  22  23
ATOM     23  C   UNL     1     -44.882 -34.790  17.663  1.00  0.00    -0.000 C 
BRANCH  23  24
ATOM     24  C   UNL     1     -45.538 -33.723  16.767  1.00  0.00    -0.000 C 
BRANCH  24  25
ATOM     25  C   UNL     1     -44.975 -33.632  15.336  1.00  0.00    -0.000 C 
BRANCH  25  26
ATOM     26  C   UNL     1     -45.890 -34.211  14.240  1.00  0.00    -0.000 C 
BRANCH  26  27
ATOM     27  C   UNL     1     -45.757 -35.733  14.092  1.00  0.00    -0.000 C 
BRANCH  27  28
ATOM     28  C   UNL     1     -44.817 -36.091  12.931  1.00  0.00    -0.000 C 
BRANCH  28  29
ATOM     29  C   UNL     1     -44.467 -37.588  12.896  1.00  0.00    -0.003 C 
ATOM     30  C   UNL     1     -45.695 -38.486  13.036  1.00  0.00     0.004 C 
ENDBRANCH  28  29
ENDBRANCH  27  28
ENDBRANCH  26  27
ENDBRANCH  25  26
ENDBRANCH  24  25
ENDBRANCH  23  24
ENDBRANCH  22  23
ENDBRANCH  21  22
ENDBRANCH  20  21
ENDBRANCH  19  20
ENDBRANCH  18  19
ENDBRANCH  17  18
ENDBRANCH   1  17
TORSDOF 26
ENDMDL
MODEL 4
REMARK VINA RESULT:    -3.274      1.211      2.807
REMARK INTER + INTRA:          -9.680
REMARK INTER:                  -8.692
REMARK INTRA:                  -0.988
REMARK UNBOUND:                -1.431
REMARK SMILES CCCCCCCCCCCCCCCCCCCCCCCCCCCC(=O)[O-]
REMARK SMILES IDX 15 1 16 2 17 3 18 4 19 5 20 6 21 7 22 8 23 9 24 10 25 11
REMARK SMILES IDX 26 12 27 13 28 14 29 15 30 16 14 17 13 18 12 19 11 20 10 21
REMARK SMILES IDX 9 22 8 23 7 24 6 25 5 26 4 27 3 28 2 29 1 30
REMARK H PARENT
REMARK Flexibility Score: inf
ROOT
ATOM      1  C   UNL     1     -45.063 -36.922  18.048  1.00  0.00     0.000 C 
ENDROOT
BRANCH   1   2
ATOM      2  C   UNL     1     -45.283 -37.234  19.538  1.00  0.00     0.000 C 
BRANCH   2   3
ATOM      3  C   UNL     1     -44.772 -36.116  20.460  1.00  0.00     0.000 C 
BRANCH   3   4
ATOM      4  C   UNL     1     -45.765 -35.852  21.598  1.00  0.00     0.000 C 
BRANCH   4   5
ATOM      5  C   UNL     1     -45.990 -34.346  21.800  1.00  0.00     0.000 C 
BRANCH   5   6
ATOM      6  C   UNL     1     -45.145 -33.758  22.945  1.00  0.00     0.000 C 
BRANCH   6   7
ATOM      7  C   UNL     1     -45.906 -33.531  24.264  1.00  0.00     0.000 C 
BRANCH   7   8
ATOM      8  C   UNL     1     -44.971 -33.237  25.450  1.00  0.00     0.000 C 
BRANCH   8   9
ATOM      9  C   UNL     1     -44.119 -31.974  25.237  1.00  0.00     0.000 C 
BRANCH   9  10
ATOM     10  C   UNL     1     -42.624 -32.128  25.578  1.00  0.00     0.000 C 
BRANCH  10  11
ATOM     11  C   UNL     1     -41.686 -31.959  24.364  1.00  0.00     0.000 C 
BRANCH  11  12
ATOM     12  C   UNL     1     -40.206 -31.879  24.777  1.00  0.00     0.006 C 
BRANCH  12  13
ATOM     13  C   UNL     1     -39.985 -32.326  26.228  1.00  0.00     0.053 C 
BRANCH  13  14
ATOM     14  C   UNL     1     -38.663 -33.009  26.399  1.00  0.00     0.041 C 
ATOM     15  O   UNL     1     -37.839 -32.592  27.256  1.00  0.00    -0.550 OA
ATOM     16  O   UNL     1     -38.356 -34.131  25.638  1.00  0.00    -0.550 OA
ENDBRANCH  13  14
ENDBRANCH  12  13
ENDBRANCH  11  12
ENDBRANCH  10  11
ENDBRANCH   9  10
ENDBRANCH   8   9
ENDBRANCH   7   8
ENDBRANCH   6   7
ENDBRANCH   5   6
ENDBRANCH   4   5
ENDBRANCH   3   4
ENDBRANCH   2   3
ENDBRANCH   1   2
BRANCH   1  17
ATOM     17  C   UNL     1     -44.583 -38.149  17.254  1.00  0.00     0.000 C 
BRANCH  17  18
ATOM     18  C   UNL     1     -44.912 -38.051  15.755  1.00  0.00     0.000 C 
BRANCH  18  19
ATOM     19  C   UNL     1     -43.735 -38.485  14.860  1.00  0.00     0.000 C 
BRANCH  19  20
ATOM     20  C   UNL     1     -44.116 -38.536  13.371  1.00  0.00     0.000 C 
BRANCH  20  21
ATOM     21  C   UNL     1     -45.568 -38.100  13.118  1.00  0.00     0.000 C 
BRANCH  21  22
ATOM     22  C   UNL     1     -45.723 -36.582  13.284  1.00  0.00    -0.000 C 
BRANCH  22  23
ATOM     23  C   UNL     1     -44.987 -35.789  12.183  1.00  0.00    -0.000 C 
BRANCH  23  24
ATOM     24  C   UNL     1     -44.809 -34.293  12.508  1.00  0.00    -0.000 C 
BRANCH  24  25
ATOM     25  C   UNL     1     -46.118 -33.497  12.665  1.00  0.00    -0.000 C 
BRANCH  25  26
ATOM     26  C   UNL     1     -45.956 -32.091  13.274  1.00  0.00    -0.000 C 
BRANCH  26  27
ATOM     27  C   UNL     1     -45.232 -32.106  14.627  1.00  0.00    -0.000 C 
BRANCH  27  28
ATOM     28  C   UNL     1     -45.454 -33.441  15.354  1.00  0.00    -0.000 C 
BRANCH  28  29
ATOM     29  C   UNL     1     -45.117 -33.360  16.852  1.00  0.00    -0.003 C 
ATOM     30  C   UNL     1     -46.107 -32.499  17.635  1.00  0.00     0.004 C 
ENDBRANCH  28  29
ENDBRANCH  27  28
ENDBRANCH  26  27
ENDBRANCH  25  26
ENDBRANCH  24  25
ENDBRANCH  23  24
ENDBRANCH  22  23
ENDBRANCH  21  22
ENDBRANCH  20  21
ENDBRANCH  19  20
ENDBRANCH  18  19
ENDBRANCH  17  18
ENDBRANCH   1  17
TORSDOF 26
ENDMDL
MODEL 5
REMARK VINA RESULT:    -2.941      1.826      3.503
REMARK INTER + INTRA:          -8.843
REMARK INTER:                  -6.676
REMARK INTRA:                  -2.167
REMARK UNBOUND:                -1.431
REMARK SMILES CCCCCCCCCCCCCCCCCCCCCCCCCCCC(=O)[O-]
REMARK SMILES IDX 15 1 16 2 17 3 18 4 19 5 20 6 21 7 22 8 23 9 24 10 25 11
REMARK SMILES IDX 26 12 27 13 28 14 29 15 30 16 14 17 13 18 12 19 11 20 10 21
REMARK SMILES IDX 9 22 8 23 7 24 6 25 5 26 4 27 3 28 2 29 1 30
REMARK H PARENT
REMARK Flexibility Score: inf
ROOT
ATOM      1  C   UNL     1     -43.066 -34.274  22.307  1.00  0.00     0.000 C 
ENDROOT
BRANCH   1   2
ATOM      2  C   UNL     1     -44.459 -33.998  22.897  1.00  0.00     0.000 C 
BRANCH   2   3
ATOM      3  C   UNL     1     -44.572 -32.598  23.522  1.00  0.00     0.000 C 
BRANCH   3   4
ATOM      4  C   UNL     1     -44.068 -32.605  24.970  1.00  0.00     0.000 C 
BRANCH   4   5
ATOM      5  C   UNL     1     -44.782 -33.682  25.801  1.00  0.00     0.000 C 
BRANCH   5   6
ATOM      6  C   UNL     1     -44.678 -33.440  27.318  1.00  0.00     0.000 C 
BRANCH   6   7
ATOM      7  C   UNL     1     -43.833 -32.219  27.725  1.00  0.00     0.000 C 
BRANCH   7   8
ATOM      8  C   UNL     1     -42.841 -32.530  28.859  1.00  0.00     0.000 C 
BRANCH   8   9
ATOM      9  C   UNL     1     -41.465 -31.879  28.640  1.00  0.00     0.000 C 
BRANCH   9  10
ATOM     10  C   UNL     1     -40.890 -32.027  27.218  1.00  0.00     0.000 C 
BRANCH  10  11
ATOM     11  C   UNL     1     -40.076 -33.320  27.005  1.00  0.00     0.000 C 
BRANCH  11  12
ATOM     12  C   UNL     1     -38.590 -33.036  26.728  1.00  0.00     0.006 C 
BRANCH  12  13
ATOM     13  C   UNL     1     -38.115 -33.667  25.412  1.00  0.00     0.053 C 
BRANCH  13  14
ATOM     14  C   UNL     1     -38.156 -32.683  24.283  1.00  0.00     0.041 C 
ATOM     15  O   UNL     1     -39.176 -31.967  24.103  1.00  0.00    -0.550 OA
ATOM     16  O   UNL     1     -37.052 -32.531  23.452  1.00  0.00    -0.550 OA
ENDBRANCH  13  14
ENDBRANCH  12  13
ENDBRANCH  11  12
ENDBRANCH  10  11
ENDBRANCH   9  10
ENDBRANCH   8   9
ENDBRANCH   7   8
ENDBRANCH   6   7
ENDBRANCH   5   6
ENDBRANCH   4   5
ENDBRANCH   3   4
ENDBRANCH   2   3
ENDBRANCH   1   2
BRANCH   1  17
ATOM     17  C   UNL     1     -43.065 -35.465  21.334  1.00  0.00     0.000 C 
BRANCH  17  18
ATOM     18  C   UNL     1     -44.463 -36.073  21.137  1.00  0.00     0.000 C 
BRANCH  18  19
ATOM     19  C   UNL     1     -45.032 -35.809  19.731  1.00  0.00     0.000 C 
BRANCH  19  20
ATOM     20  C   UNL     1     -46.125 -34.725  19.732  1.00  0.00     0.000 C 
BRANCH  20  21
ATOM     21  C   UNL     1     -45.705 -33.464  18.961  1.00  0.00     0.000 C 
BRANCH  21  22
ATOM     22  C   UNL     1     -45.763 -33.702  17.445  1.00  0.00    -0.000 C 
BRANCH  22  23
ATOM     23  C   UNL     1     -44.396 -33.485  16.761  1.00  0.00    -0.000 C 
BRANCH  23  24
ATOM     24  C   UNL     1     -44.458 -32.561  15.530  1.00  0.00    -0.000 C 
BRANCH  24  25
ATOM     25  C   UNL     1     -45.723 -32.708  14.664  1.00  0.00    -0.000 C 
BRANCH  25  26
ATOM     26  C   UNL     1     -45.503 -33.388  13.300  1.00  0.00    -0.000 C 
BRANCH  26  27
ATOM     27  C   UNL     1     -46.074 -34.812  13.243  1.00  0.00    -0.000 C 
BRANCH  27  28
ATOM     28  C   UNL     1     -44.966 -35.837  12.958  1.00  0.00    -0.000 C 
BRANCH  28  29
ATOM     29  C   UNL     1     -45.509 -37.268  12.819  1.00  0.00    -0.003 C 
ATOM     30  C   UNL     1     -45.921 -37.877  14.159  1.00  0.00     0.004 C 
ENDBRANCH  28  29
ENDBRANCH  27  28
ENDBRANCH  26  27
ENDBRANCH  25  26
ENDBRANCH  24  25
ENDBRANCH  23  24
ENDBRANCH  22  23
ENDBRANCH  21  22
ENDBRANCH  20  21
ENDBRANCH  19  20
ENDBRANCH  18  19
ENDBRANCH  17  18
ENDBRANCH   1  17
TORSDOF 26
ENDMDL
MODEL 6
REMARK VINA RESULT:    -2.917      2.149      3.847
REMARK INTER + INTRA:          -8.782
REMARK INTER:                  -6.264
REMARK INTRA:                  -2.519
REMARK UNBOUND:                -1.431
REMARK SMILES CCCCCCCCCCCCCCCCCCCCCCCCCCCC(=O)[O-]
REMARK SMILES IDX 15 1 16 2 17 3 18 4 19 5 20 6 21 7 22 8 23 9 24 10 25 11
REMARK SMILES IDX 26 12 27 13 28 14 29 15 30 16 14 17 13 18 12 19 11 20 10 21
REMARK SMILES IDX 9 22 8 23 7 24 6 25 5 26 4 27 3 28 2 29 1 30
REMARK H PARENT
REMARK Flexibility Score: inf
ROOT
ATOM      1  C   UNL     1     -44.669 -37.267  17.593  1.00  0.00     0.000 C 
ENDROOT
BRANCH   1   2
ATOM      2  C   UNL     1     -44.843 -37.192  19.119  1.00  0.00     0.000 C 
BRANCH   2   3
ATOM      3  C   UNL     1     -43.724 -36.392  19.806  1.00  0.00     0.000 C 
BRANCH   3   4
ATOM      4  C   UNL     1     -44.135 -35.990  21.227  1.00  0.00     0.000 C 
BRANCH   4   5
ATOM      5  C   UNL     1     -45.640 -35.694  21.306  1.00  0.00     0.000 C 
BRANCH   5   6
ATOM      6  C   UNL     1     -45.962 -34.189  21.235  1.00  0.00     0.000 C 
BRANCH   6   7
ATOM      7  C   UNL     1     -45.939 -33.455  22.588  1.00  0.00     0.000 C 
BRANCH   7   8
ATOM      8  C   UNL     1     -44.714 -32.537  22.748  1.00  0.00     0.000 C 
BRANCH   8   9
ATOM      9  C   UNL     1     -43.523 -33.246  23.416  1.00  0.00     0.000 C 
BRANCH   9  10
ATOM     10  C   UNL     1     -43.104 -32.672  24.784  1.00  0.00     0.000 C 
BRANCH  10  11
ATOM     11  C   UNL     1     -44.229 -31.905  25.510  1.00  0.00     0.000 C 
BRANCH  11  12
ATOM     12  C   UNL     1     -44.410 -32.372  26.964  1.00  0.00     0.006 C 
BRANCH  12  13
ATOM     13  C   UNL     1     -44.350 -33.900  27.093  1.00  0.00     0.053 C 
BRANCH  13  14
ATOM     14  C   UNL     1     -43.311 -34.330  28.082  1.00  0.00     0.041 C 
ATOM     15  O   UNL     1     -42.132 -33.894  27.993  1.00  0.00    -0.550 OA
ATOM     16  O   UNL     1     -43.652 -35.182  29.125  1.00  0.00    -0.550 OA
ENDBRANCH  13  14
ENDBRANCH  12  13
ENDBRANCH  11  12
ENDBRANCH  10  11
ENDBRANCH   9  10
ENDBRANCH   8   9
ENDBRANCH   7   8
ENDBRANCH   6   7
ENDBRANCH   5   6
ENDBRANCH   4   5
ENDBRANCH   3   4
ENDBRANCH   2   3
ENDBRANCH   1   2
BRANCH   1  17
ATOM     17  C   UNL     1     -45.263 -38.553  16.995  1.00  0.00     0.000 C 
BRANCH  17  18
ATOM     18  C   UNL     1     -45.107 -38.624  15.467  1.00  0.00     0.000 C 
BRANCH  18  19
ATOM     19  C   UNL     1     -43.895 -37.823  14.956  1.00  0.00     0.000 C 
BRANCH  19  20
ATOM     20  C   UNL     1     -43.912 -37.639  13.429  1.00  0.00     0.000 C 
BRANCH  20  21
ATOM     21  C   UNL     1     -45.335 -37.661  12.849  1.00  0.00     0.000 C 
BRANCH  21  22
ATOM     22  C   UNL     1     -45.982 -36.271  12.926  1.00  0.00    -0.000 C 
BRANCH  22  23
ATOM     23  C   UNL     1     -45.469 -35.319  11.823  1.00  0.00    -0.000 C 
BRANCH  23  24
ATOM     24  C   UNL     1     -44.468 -34.263  12.331  1.00  0.00    -0.000 C 
BRANCH  24  25
ATOM     25  C   UNL     1     -45.090 -32.916  12.745  1.00  0.00    -0.000 C 
BRANCH  25  26
ATOM     26  C   UNL     1     -46.125 -33.000  13.883  1.00  0.00    -0.000 C 
BRANCH  26  27
ATOM     27  C   UNL     1     -45.854 -31.995  15.012  1.00  0.00    -0.000 C 
BRANCH  27  28
ATOM     28  C   UNL     1     -44.881 -32.581  16.047  1.00  0.00    -0.000 C 
BRANCH  28  29
ATOM     29  C   UNL     1     -45.226 -34.031  16.425  1.00  0.00    -0.003 C 
ATOM     30  C   UNL     1     -46.050 -34.127  17.707  1.00  0.00     0.004 C 
ENDBRANCH  28  29
ENDBRANCH  27  28
ENDBRANCH  26  27
ENDBRANCH  25  26
ENDBRANCH  24  25
ENDBRANCH  23  24
ENDBRANCH  22  23
ENDBRANCH  21  22
ENDBRANCH  20  21
ENDBRANCH  19  20
ENDBRANCH  18  19
ENDBRANCH  17  18
ENDBRANCH   1  17
TORSDOF 26
ENDMDL
